#------------------------------------------------------------------------------
#$Date: 2019-11-24 17:31:23 +0200 (Sun, 24 Nov 2019) $
#$Revision: 238840 $
#$URL: file:///home/coder/svn-repositories/cod/cif/1/55/55/1555520.cif $
#------------------------------------------------------------------------------
#
# This file is available in the Crystallography Open Database (COD),
# http://www.crystallography.net/
#
# All data on this site have been placed in the public domain by the
# contributors.
#
data_1555520
loop_
_publ_author_name
'Wang, Mengzhou'
'Zhang, Yanyan'
'Wang, Tao'
'Wang, Chao'
'Xue, Dong'
'Xiao, Jianliang'
_publ_section_title
;
 Story of an Age-Old Reagent: An Electrophilic Chlorination of Arenes and
 Heterocycles by 1-Chloro-1,2-benziodoxol-3-one.
;
_journal_issue                   9
_journal_name_full               'Organic letters'
_journal_page_first              1976
_journal_page_last               1979
_journal_paper_doi               10.1021/acs.orglett.6b00547
_journal_volume                  18
_journal_year                    2016
_chemical_formula_moiety         'C9 H7 Cl N2'
_chemical_formula_sum            'C9 H7 Cl N2'
_chemical_formula_weight         178.62
_space_group_crystal_system      monoclinic
_space_group_IT_number           14
_space_group_name_Hall           '-P 2ybc'
_space_group_name_H-M_alt        'P 1 21/c 1'
_atom_sites_solution_hydrogens   geom
_atom_sites_solution_primary     direct
_audit_creation_date             2016-03-21
_audit_creation_method
;
Olex2 1.2
(compiled 2016.02.19 svn.r3266 for OlexSys, GUI svn.r5155)
;
_cell_angle_alpha                90
_cell_angle_beta                 103.0210(10)
_cell_angle_gamma                90
_cell_formula_units_Z            4
_cell_length_a                   9.8146(3)
_cell_length_b                   3.92480(10)
_cell_length_c                   20.5530(6)
_cell_measurement_reflns_used    9975
_cell_measurement_temperature    153
_cell_measurement_theta_max      30.480
_cell_measurement_theta_min      3.260
_cell_volume                     771.35(4)
_computing_molecular_graphics    'Olex2 (Dolomanov et al., 2009)'
_computing_publication_material  'Olex2 (Dolomanov et al., 2009)'
_computing_structure_refinement  'ShelXL (Sheldrick, 2015)'
_computing_structure_solution    'ShelXT (Sheldrick, 2015)'
_diffrn_ambient_temperature      153.01
_diffrn_measured_fraction_theta_full 0.995
_diffrn_measured_fraction_theta_max 0.997
_diffrn_measurement_device_type  'CCD area detector'
_diffrn_measurement_method       'phi and omega scans'
_diffrn_radiation_monochromator  graphite
_diffrn_radiation_type           MoK\a
_diffrn_radiation_wavelength     0.71073
_diffrn_reflns_av_R_equivalents  0.0294
_diffrn_reflns_av_unetI/netI     0.0151
_diffrn_reflns_Laue_measured_fraction_full 0.995
_diffrn_reflns_Laue_measured_fraction_max 0.997
_diffrn_reflns_limit_h_max       14
_diffrn_reflns_limit_h_min       -14
_diffrn_reflns_limit_k_max       4
_diffrn_reflns_limit_k_min       -5
_diffrn_reflns_limit_l_max       29
_diffrn_reflns_limit_l_min       -29
_diffrn_reflns_number            23789
_diffrn_reflns_point_group_measured_fraction_full 0.995
_diffrn_reflns_point_group_measured_fraction_max 0.997
_diffrn_reflns_theta_full        25.242
_diffrn_reflns_theta_max         30.503
_diffrn_reflns_theta_min         2.130
_exptl_absorpt_coefficient_mu    0.428
_exptl_absorpt_correction_T_max  0.7461
_exptl_absorpt_correction_T_min  0.6967
_exptl_absorpt_correction_type   multi-scan
_exptl_absorpt_process_details
;
SADABS-2014/5 (Bruker,2014/5) was used for absorption correction.
wR2(int) was 0.1499 before and 0.0459 after correction.
The Ratio of minimum to maximum transmission is 0.9338.
The \l/2 correction factor is Not present.
;
_exptl_crystal_colour            'clear yellowish yellow'
_exptl_crystal_colour_lustre     clear
_exptl_crystal_colour_modifier   yellowish
_exptl_crystal_colour_primary    yellow
_exptl_crystal_density_diffrn    1.538
_exptl_crystal_description       block
_exptl_crystal_F_000             368
_exptl_crystal_size_max          0.5
_exptl_crystal_size_mid          0.4
_exptl_crystal_size_min          0.3
_refine_diff_density_max         0.964
_refine_diff_density_min         -0.893
_refine_diff_density_rms         0.066
_refine_ls_extinction_method     none
_refine_ls_goodness_of_fit_ref   1.093
_refine_ls_hydrogen_treatment    constr
_refine_ls_matrix_type           full
_refine_ls_number_parameters     109
_refine_ls_number_reflns         2352
_refine_ls_number_restraints     0
_refine_ls_restrained_S_all      1.093
_refine_ls_R_factor_all          0.0421
_refine_ls_R_factor_gt           0.0371
_refine_ls_shift/su_max          0.001
_refine_ls_shift/su_mean         0.000
_refine_ls_structure_factor_coef Fsqd
_refine_ls_weighting_details
'w=1/[\s^2^(Fo^2^)+(0.0496P)^2^+0.6663P] where P=(Fo^2^+2Fc^2^)/3'
_refine_ls_weighting_scheme      calc
_refine_ls_wR_factor_gt          0.1030
_refine_ls_wR_factor_ref         0.1060
_reflns_Friedel_coverage         0.000
_reflns_number_gt                2123
_reflns_number_total             2352
_reflns_threshold_expression     'I > 2\s(I)'
_iucr_refine_instructions_details
;

    z.res created by SHELXL-2014/7

TITL z_a.res in P2(1)/c
REM Old TITL z in P21/c #14
REM SHELXT solution in P2(1)/c
REM R1 0.095, Rweak 0.002, Alpha 0.028, Orientation as input
REM Formula found by SHELXT: C9 N2 Cl
CELL 0.71073 9.8146 3.9248 20.553 90 103.021 90
ZERR 4 0.0003 0.0001 0.0006 0 0.001 0
LATT 1
SYMM -X,0.5+Y,0.5-Z
SFAC C H Cl N
UNIT 36 28 4 8
 
L.S. 10
PLAN  60
TEMP -120.14
BOND $H
LIST 6
fmap 2
ACTA
MORE -1
CONF
REM <olex2.extras>
REM <HklSrc "%.\\z.hkl">
REM </olex2.extras>
 
WGHT    0.049600    0.666300
FVAR       1.29486
CL1   3    0.255358    1.048169    0.594869    11.00000    0.01935    0.02805 =
         0.02026   -0.00710    0.01007   -0.00450
N1    4    0.369571    0.708661    0.440284    11.00000    0.01078    0.01853 =
         0.01375   -0.00031    0.00380   -0.00161
N2    4    0.355881    0.958885    0.537577    11.00000    0.01222    0.02514 =
         0.01754   -0.00422    0.00660   -0.00436
AFIX  43
H2    2    0.443722    1.022780    0.543266    11.00000   -1.20000
AFIX   0
C1    1    0.289676    0.787517    0.484883    11.00000    0.01205    0.01497 =
         0.01501    0.00238    0.00441   -0.00035
C2    1    0.145091    0.677331    0.468168    11.00000    0.01231    0.01946 =
         0.01733    0.00100    0.00599   -0.00182
AFIX  43
H2A   2    0.085571    0.727271    0.497523    11.00000   -1.20000
AFIX   0
C3    1    0.094427    0.503781    0.411003    11.00000    0.01142    0.01801 =
         0.01785    0.00202    0.00320   -0.00245
AFIX  43
H3    2   -0.000730    0.434217    0.400890    11.00000   -1.20000
AFIX   0
C4    1    0.130761    0.244931    0.305140    11.00000    0.01574    0.01749 =
         0.01706    0.00118    0.00072   -0.00114
AFIX  43
H4    2    0.036662    0.167499    0.293912    11.00000   -1.20000
AFIX   0
C5    1    0.217760    0.182775    0.262294    11.00000    0.02292    0.02014 =
         0.01616   -0.00121    0.00237   -0.00084
AFIX  43
H5    2    0.183303    0.066900    0.221306    11.00000   -1.20000
AFIX   0
C6    1    0.357703    0.291892    0.279633    11.00000    0.02165    0.02121 =
         0.01706    0.00016    0.00809    0.00114
AFIX  43
H6    2    0.417489    0.248231    0.250103    11.00000   -1.20000
AFIX   0
C7    1    0.409596    0.461273    0.338810    11.00000    0.01427    0.01863 =
         0.01722    0.00194    0.00517    0.00047
AFIX  43
H7    2    0.504828    0.529879    0.350387    11.00000   -1.20000
AFIX   0
C8    1    0.320517    0.531315    0.381737    11.00000    0.01253    0.01301 =
         0.01330    0.00231    0.00325   -0.00006
C9    1    0.180204    0.421804    0.365239    11.00000    0.01200    0.01412 =
         0.01501    0.00291    0.00251   -0.00072
HKLF 4
 
REM  z_a.res in P2(1)/c
REM R1 =  0.0371 for    2123 Fo > 4sig(Fo)  and  0.0421 for all    2352 data
REM    109 parameters refined using      0 restraints
 
END  
     
WGHT      0.0496      0.6663 

REM Highest difference peak  0.964,  deepest hole -0.893,  1-sigma level  0.066
Q1    1   0.4547  0.7909  0.4473  11.00000  0.05    0.96
Q2    1   0.2488  0.4868  0.3726  11.00000  0.05    0.49
Q3    1   0.2212  0.7278  0.4770  11.00000  0.05    0.40
Q4    1   0.1268  0.5964  0.4413  11.00000  0.05    0.37
Q5    1   0.3645  0.5111  0.3600  11.00000  0.05    0.36
Q6    1   0.2891  0.2079  0.2768  11.00000  0.05    0.35
Q7    1   0.1490  0.4346  0.3929  11.00000  0.05    0.33
Q8    1   0.1631  0.3111  0.3391  11.00000  0.05    0.31
Q9    1   0.3331  0.7339  0.4609  11.00000  0.05    0.31
Q10   1   0.3472  0.6417  0.4130  11.00000  0.05    0.29
Q11   1   0.3857  0.3121  0.3155  11.00000  0.05    0.29
Q12   1   0.1832  0.2167  0.2879  11.00000  0.05    0.27
Q13   1   0.3156  0.8772  0.5121  11.00000  0.05    0.26
Q14   1   0.1966 -0.0296  0.2071  11.00000  0.05    0.20
Q15   1   0.3424  1.0884  0.6288  11.00000  0.05    0.19
Q16   1   0.2853  1.2367  0.6109  11.00000  0.05    0.15
Q17   1   0.5520  0.6347  0.3568  11.00000  0.05    0.14
Q18   1   0.4589  0.4582  0.3492  11.00000  0.05    0.13
Q19   1   0.3796  0.5965  0.4490  11.00000  0.05    0.13
Q20   1   0.1857  0.9897  0.5806  11.00000  0.05    0.13
Q21   1   0.2749  0.8668  0.6227  11.00000  0.05    0.12
Q22   1   0.0217  0.3092  0.4344  11.00000  0.05    0.12
Q23   1   0.1682  0.4076  0.5075  11.00000  0.05    0.12
Q24   1   0.2646 -0.0881  0.2327  11.00000  0.05    0.12
Q25   1   0.2325  0.3842  0.4883  11.00000  0.05    0.12
Q26   1   0.3708  0.8588  0.6376  11.00000  0.05    0.12
Q27   1   0.1798  0.4585  0.5449  11.00000  0.05    0.12
Q28   1   0.2658 -0.1961  0.2999  11.00000  0.05    0.12
Q29   1   0.2573  0.2160  0.4084  11.00000  0.05    0.12
Q30   1   0.3501  0.2039  0.3907  11.00000  0.05    0.11
Q31   1   0.5640  0.4839  0.3759  11.00000  0.05    0.11
Q32   1   0.2369  0.4202  0.1923  11.00000  0.05    0.11
Q33   1  -0.1140  0.0652  0.2622  11.00000  0.05    0.11
Q34   1   0.1671  0.3093  0.1598  11.00000  0.05    0.11
Q35   1   0.0804 -0.0968  0.3308  11.00000  0.05    0.11
Q36   1   0.3270  1.1275  0.4994  11.00000  0.05    0.11
Q37   1   0.1818  0.5764  0.2092  11.00000  0.05    0.11
Q38   1   0.5146  0.7271  0.3421  11.00000  0.05    0.11
Q39   1   0.2844  0.6160  0.1989  11.00000  0.05    0.11
Q40   1   0.0831  0.4151  0.5118  11.00000  0.05    0.11
Q41   1   0.2299  1.2851  0.5227  11.00000  0.05    0.11
Q42   1   0.2497  0.3153  0.4517  11.00000  0.05    0.10
Q43   1  -0.1056  0.0134  0.3336  11.00000  0.05    0.10
Q44   1  -0.0921  0.2947  0.2728  11.00000  0.05    0.10
Q45   1   0.1111  0.3337  0.1872  11.00000  0.05    0.10
Q46   1   0.3170  0.7264  0.6497  11.00000  0.05    0.10
Q47   1   0.3871 -0.1154  0.2478  11.00000  0.05    0.10
Q48   1   0.1147  0.8112  0.5616  11.00000  0.05    0.10
Q49   1   0.3372  0.7428  0.3322  11.00000  0.05    0.10
Q50   1   0.0616  0.1055  0.4505  11.00000  0.05    0.10
Q51   1   0.2379  0.7501  0.3442  11.00000  0.05    0.10
Q52   1  -0.0477  0.5619  0.3893  11.00000  0.05    0.10
Q53   1   0.2702 -0.1695  0.1871  11.00000  0.05    0.10
Q54   1   0.1846 -0.4105  0.1801  11.00000  0.05    0.10
Q55   1   0.0039  0.2376  0.4090  11.00000  0.05    0.10
Q56   1   0.3152 -0.0082  0.3102  11.00000  0.05    0.09
Q57   1   0.2134  0.7573  0.6488  11.00000  0.05    0.09
Q58   1   0.1967 -0.3113  0.1711  11.00000  0.05    0.09
Q59   1   0.6150  0.3402  0.3081  11.00000  0.05    0.09
Q60   1   0.3968  1.0675  0.4343  11.00000  0.05    0.09

  REM The information below was added by Olex2.
  REM
  REM R1 = 0.0371 for 2123 Fo > 4sig(Fo) and 0.0421 for all 25960 data
  REM n/a parameters refined using n/a restraints
  REM Highest difference peak 0.96, deepest hole -0.89
  REM Mean Shift 0, Max Shift 0.001.
  
  REM +++ Tabular Listing of Refinement Information +++
  REM R1_all = 0.0421
  REM R1_gt = 0.0371
  REM wR_ref = 0.1060
  REM GOOF = 1.093
  REM Shift_max = 0.001
  REM Shift_mean = 0
  REM Reflections_all = 25960
  REM Reflections_gt = 2123
  REM Parameters = n/a
  REM Hole = -0.89
  REM Peak = 0.96
  REM Flack = n/a
  
  
;
_cod_data_source_file            ol6b00547_si_003.cif
_cod_data_source_block           z
_cod_database_code               1555520
_shelx_space_group_comment
;
The symmetry employed for this shelxl refinement is uniquely defined
by the following loop, which should always be used as a source of
symmetry information in preference to the above space-group names.
They are only intended as comments.
;
_olex2_refinement_description
;
1. Fixed Uiso
 At 1.2 times of:
  All C(H) groups, All N(H) groups
2.a Aromatic/amide H refined with riding coordinates:
 N2(H2), C2(H2A), C3(H3), C4(H4), C5(H5), C6(H6), C7(H7)
;
_shelx_shelxl_version_number     2014/7
_olex2_submission_special_instructions 'No special instructions were received'
loop_
_space_group_symop_operation_xyz
'x, y, z'
'-x, y+1/2, -z+1/2'
'-x, -y, -z'
'x, -y-1/2, z-1/2'
loop_
_atom_site_label
_atom_site_type_symbol
_atom_site_fract_x
_atom_site_fract_y
_atom_site_fract_z
_atom_site_U_iso_or_equiv
_atom_site_adp_type
_atom_site_occupancy
_atom_site_site_symmetry_order
_atom_site_calc_flag
_atom_site_refinement_flags_posn
Cl1 Cl 0.25536(4) 1.04817(10) 0.59487(2) 0.02167(12) Uani 1 1 d .
N1 N 0.36957(11) 0.7087(3) 0.44028(5) 0.0142(2) Uani 1 1 d .
N2 N 0.35588(12) 0.9589(3) 0.53758(6) 0.0178(2) Uani 1 1 d .
H2 H 0.4437 1.0228 0.5433 0.021 Uiso 1 1 calc R
C1 C 0.28968(13) 0.7875(3) 0.48488(6) 0.0138(2) Uani 1 1 d .
C2 C 0.14509(13) 0.6773(4) 0.46817(7) 0.0159(3) Uani 1 1 d .
H2A H 0.0856 0.7273 0.4975 0.019 Uiso 1 1 calc R
C3 C 0.09443(14) 0.5038(4) 0.41100(7) 0.0158(3) Uani 1 1 d .
H3 H -0.0007 0.4342 0.4009 0.019 Uiso 1 1 calc R
C4 C 0.13076(14) 0.2449(4) 0.30514(7) 0.0172(3) Uani 1 1 d .
H4 H 0.0367 0.1675 0.2939 0.021 Uiso 1 1 calc R
C5 C 0.21776(15) 0.1828(4) 0.26229(7) 0.0201(3) Uani 1 1 d .
H5 H 0.1833 0.0669 0.2213 0.024 Uiso 1 1 calc R
C6 C 0.35770(15) 0.2919(4) 0.27963(7) 0.0194(3) Uani 1 1 d .
H6 H 0.4175 0.2482 0.2501 0.023 Uiso 1 1 calc R
C7 C 0.40960(14) 0.4613(4) 0.33881(7) 0.0164(3) Uani 1 1 d .
H7 H 0.5048 0.5299 0.3504 0.020 Uiso 1 1 calc R
C8 C 0.32052(13) 0.5313(3) 0.38174(6) 0.0129(2) Uani 1 1 d .
C9 C 0.18020(13) 0.4218(3) 0.36524(7) 0.0138(2) Uani 1 1 d .
loop_
_atom_site_aniso_label
_atom_site_aniso_U_11
_atom_site_aniso_U_22
_atom_site_aniso_U_33
_atom_site_aniso_U_23
_atom_site_aniso_U_13
_atom_site_aniso_U_12
Cl1 0.01935(17) 0.0280(2) 0.02026(18) -0.00710(13) 0.01007(12) -0.00450(13)
N1 0.0108(4) 0.0185(5) 0.0137(5) -0.0003(4) 0.0038(4) -0.0016(4)
N2 0.0122(5) 0.0251(6) 0.0175(5) -0.0042(5) 0.0066(4) -0.0044(4)
C1 0.0120(5) 0.0150(6) 0.0150(5) 0.0024(5) 0.0044(4) -0.0003(5)
C2 0.0123(5) 0.0195(6) 0.0173(6) 0.0010(5) 0.0060(4) -0.0018(5)
C3 0.0114(5) 0.0180(6) 0.0178(6) 0.0020(5) 0.0032(4) -0.0025(5)
C4 0.0157(6) 0.0175(6) 0.0171(6) 0.0012(5) 0.0007(5) -0.0011(5)
C5 0.0229(7) 0.0201(7) 0.0162(6) -0.0012(5) 0.0024(5) -0.0008(5)
C6 0.0216(6) 0.0212(7) 0.0171(6) 0.0002(5) 0.0081(5) 0.0011(5)
C7 0.0143(6) 0.0186(6) 0.0172(6) 0.0019(5) 0.0052(5) 0.0005(5)
C8 0.0125(5) 0.0130(5) 0.0133(5) 0.0023(4) 0.0033(4) -0.0001(4)
C9 0.0120(5) 0.0141(6) 0.0150(6) 0.0029(5) 0.0025(4) -0.0007(4)
loop_
_atom_type_symbol
_atom_type_description
_atom_type_scat_dispersion_real
_atom_type_scat_dispersion_imag
_atom_type_scat_source
C C 0.0033 0.0016 'International Tables Vol C Tables 4.2.6.8 and 6.1.1.4'
H H 0.0000 0.0000 'International Tables Vol C Tables 4.2.6.8 and 6.1.1.4'
Cl Cl 0.1484 0.1585 'International Tables Vol C Tables 4.2.6.8 and 6.1.1.4'
N N 0.0061 0.0033 'International Tables Vol C Tables 4.2.6.8 and 6.1.1.4'
loop_
_geom_angle_atom_site_label_1
_geom_angle_atom_site_label_2
_geom_angle_atom_site_label_3
_geom_angle
C1 N1 C8 123.92(11)
Cl1 N2 H2 122.9
C1 N2 Cl1 114.29(9)
C1 N2 H2 122.9
N1 C1 C2 116.86(12)
N2 C1 N1 114.56(11)
N2 C1 C2 128.58(12)
C1 C2 H2A 119.8
C3 C2 C1 120.34(12)
C3 C2 H2A 119.8
C2 C3 H3 119.1
C2 C3 C9 121.87(12)
C9 C3 H3 119.1
C5 C4 H4 119.7
C5 C4 C9 120.52(13)
C9 C4 H4 119.7
C4 C5 H5 120.2
C4 C5 C6 119.62(13)
C6 C5 H5 120.2
C5 C6 H6 119.5
C7 C6 C5 121.07(13)
C7 C6 H6 119.5
C6 C7 H7 120.3
C6 C7 C8 119.39(13)
C8 C7 H7 120.3
N1 C8 C7 120.21(12)
N1 C8 C9 119.59(12)
C7 C8 C9 120.19(12)
C4 C9 C3 123.40(12)
C4 C9 C8 119.18(12)
C8 C9 C3 117.41(12)
loop_
_geom_bond_atom_site_label_1
_geom_bond_atom_site_label_2
_geom_bond_distance
Cl1 N2 1.7338(12)
N1 C1 1.3692(16)
N1 C8 1.3796(17)
N2 H2 0.8800
N2 C1 1.3154(18)
C1 C2 1.4488(18)
C2 H2A 0.9500
C2 C3 1.3522(19)
C3 H3 0.9500
C3 C9 1.4331(19)
C4 H4 0.9500
C4 C5 1.379(2)
C4 C9 1.4046(19)
C5 H5 0.9500
C5 C6 1.406(2)
C6 H6 0.9500
C6 C7 1.379(2)
C7 H7 0.9500
C7 C8 1.4021(18)
C8 C9 1.4092(18)
loop_
_geom_torsion_atom_site_label_1
_geom_torsion_atom_site_label_2
_geom_torsion_atom_site_label_3
_geom_torsion_atom_site_label_4
_geom_torsion
Cl1 N2 C1 N1 -178.40(10)
Cl1 N2 C1 C2 2.3(2)
N1 C1 C2 C3 0.3(2)
N1 C8 C9 C3 0.27(19)
N1 C8 C9 C4 179.25(12)
N2 C1 C2 C3 179.54(14)
C1 N1 C8 C7 180.00(13)
C1 N1 C8 C9 0.2(2)
C1 C2 C3 C9 0.1(2)
C2 C3 C9 C4 -179.36(14)
C2 C3 C9 C8 -0.4(2)
C4 C5 C6 C7 -0.2(2)
C5 C4 C9 C3 178.07(13)
C5 C4 C9 C8 -0.8(2)
C5 C6 C7 C8 -1.2(2)
C6 C7 C8 N1 -178.23(13)
C6 C7 C8 C9 1.6(2)
C7 C8 C9 C3 -179.55(12)
C7 C8 C9 C4 -0.6(2)
C8 N1 C1 N2 -179.81(12)
C8 N1 C1 C2 -0.5(2)
C9 C4 C5 C6 1.2(2)
loop_
_refln_index_h
_refln_index_k
_refln_index_l
_refln_F_squared_meas
_refln_F_squared_sigma
1 0 0 818.02 15.6
-1 0 0 818.52 16.4
-3 0 0 978.8 21.7
-3 0 0 1026.5 20.6
3 0 0 1037.4 21
3 0 0 1060.29 22.4
3 0 0 1023.7 20.9
-3 0 0 1010.9 20.2
-3 0 0 1039 21.2
4 0 0 1547.15 31.1
-4 0 0 1545.15 30.2
-4 0 0 1528.35 30.5
-4 0 0 1487.95 32.1
4 0 0 1578.24 31.3
4 0 0 1596.74 32.9
-4 0 0 1581.14 31.8
-5 0 0 12.2 2.9
5 0 0 11.7 3.9
-5 0 0 7.3 2.1
-5 0 0 10.9 3
5 0 0 5 2.2
-5 0 0 13 2.2
5 0 0 16.6 2.7
-6 0 0 239.88 10.6
6 0 0 235.08 11.4
-6 0 0 267.67 10.7
6 0 0 245.28 9.7
-6 0 0 244.78 8.7
6 0 0 273.47 9.5
-6 0 0 266.97 8.7
-7 0 0 15.9 3.1
-7 0 0 32.8 4.4
7 0 0 20.7 4
7 0 0 19.7 5.2
-7 0 0 17.4 4
-7 0 0 23.5 4.8
8 0 0 1953.5 42.9
-8 0 0 1885.41 39.8
-8 0 0 1866.41 44.2
8 0 0 1837.02 41.2
-8 0 0 1916.71 39.7
-8 0 0 1920.21 44.3
8 0 0 1941.21 42.3
-9 0 0 33.8 7.4
-9 0 0 36.5 7
9 0 0 38.7 6.6
9 0 0 32.1 5.6
9 0 0 40.3 6.7
-9 0 0 45.3 5.6
-9 0 0 39.4 5.4
-10 0 0 489.65 23.2
10 0 0 537.65 20
10 0 0 514.35 18.8
-10 0 0 532.65 21.9
10 0 0 527.45 19.3
-10 0 0 514.85 16.7
-10 0 0 530.35 18.2
11 0 0 171.18 14
11 0 0 194.68 15.4
-11 0 0 181.58 10.5
-11 0 0 173.38 11.5
-11 0 0 195.48 18
-11 0 0 171.88 15.8
11 0 0 170.08 13
-12 0 0 104.29 15.4
-12 0 0 129.49 10.4
12 0 0 90.99 10.8
12 0 0 101.99 15.3
-12 0 0 106.99 12.9
-12 0 0 114.79 16.9
-13 0 0 64.79 14
-13 0 0 70.79 9.1
-13 0 0 100.09 22.5
13 0 0 70.29 12.1
-13 0 0 66.59 9.3
0 -1 0 0.5 1
0 -1 0 -0.1 0.8
1 -1 0 473.95 12.6
-1 -1 0 481.55 11
-1 -1 0 458.35 10.8
1 -1 0 461.75 10.5
1 -1 0 486.85 11.9
-1 -1 0 467.55 10.6
1 1 0 477.45 11
-1 1 0 470.95 12.6
-1 1 0 471.05 11.7
-1 1 0 471.25 10.9
2 -1 0 1160.98 25.8
2 -1 0 1142.39 20.4
-2 -1 0 1127.79 22.5
2 -1 0 1162.58 24.7
-2 -1 0 1160.08 22.9
2 -1 0 1149.39 22.3
-2 -1 0 1165.08 23.7
-2 1 0 1122.69 22.8
2 1 0 1178.88 23
-2 1 0 1143.49 25.9
-2 1 0 1197.08 25.2
2 1 0 1154.58 23.2
-3 -1 0 374.56 10.6
-3 -1 0 377.56 9.4
-3 -1 0 397.76 10.1
-3 -1 0 382.36 10.6
3 -1 0 387.76 12.4
3 -1 0 395.66 9.1
3 -1 0 396.26 11.4
-3 1 0 394.36 9.7
-3 1 0 389.36 12.7
3 1 0 389.26 11
-3 1 0 421.46 12.4
3 1 0 385.86 9.6
3 1 0 377.86 10.1
-4 -1 0 911.21 21.2
4 -1 0 893.11 23.2
-4 -1 0 914.91 20
4 -1 0 938.91 21.7
4 -1 0 938.81 19.3
-4 -1 0 931.31 20.4
-4 -1 0 973.6 21.5
4 1 0 936.71 20.7
-4 1 0 910.71 23.9
-4 1 0 928.01 16.9
4 1 0 918.91 21.6
-4 1 0 950 19.8
4 1 0 914.11 19.7
-4 1 0 930.31 23.3
5 -1 0 403.66 12.5
-5 -1 0 408.56 12.6
-5 -1 0 406.16 13
5 -1 0 427.16 11.3
-5 -1 0 414.26 12
-5 -1 0 420.76 12.6
5 -1 0 391.76 14.6
5 1 0 409.16 12.9
-5 1 0 400.56 10.9
-5 1 0 399.56 8.6
-5 1 0 422.46 14.8
-5 1 0 395.16 14.8
5 1 0 397.06 11.9
5 1 0 398.36 11
6 -1 0 161.38 7.8
6 -1 0 138.49 11.2
-6 -1 0 161.68 8.7
-6 -1 0 154.38 8
-6 -1 0 158.88 7.9
-6 -1 0 163.68 9.8
6 -1 0 147.59 7.8
-6 1 0 150.68 6.5
6 1 0 150.28 7.5
-6 1 0 160.08 10.3
-6 1 0 149.29 4.7
6 1 0 146.39 6.7
-6 1 0 144.59 9.9
-7 -1 0 131.09 8.7
-7 -1 0 121.89 9.8
-7 -1 0 130.79 8.1
7 -1 0 116.29 7.8
-7 -1 0 125.79 8.1
7 -1 0 128.69 8.2
-7 1 0 116.59 6.3
-7 1 0 120.99 4.7
-7 1 0 139.79 10.9
7 1 0 116.79 8.2
-7 1 0 113.49 9.9
7 1 0 125.79 7.6
7 1 0 120.79 6.7
-8 -1 0 59.19 7.5
8 -1 0 64.29 7.4
-8 -1 0 69.59 8.6
-8 -1 0 61.89 8.4
8 -1 0 90.69 8.6
-8 -1 0 72.79 8
8 -1 0 66.49 10.3
8 1 0 67.89 6.4
-8 1 0 63.39 9.3
8 1 0 66.49 8.1
-8 1 0 63.19 4.3
-8 1 0 63.09 9.2
-8 1 0 65.19 5.6
8 1 0 69.09 7.3
-9 -1 0 22.7 6.8
-9 -1 0 24.2 5.2
9 -1 0 21.2 10.2
9 -1 0 22 5
-9 -1 0 23.6 5.8
9 -1 0 15.9 5.5
-9 -1 0 16.6 5.9
9 1 0 20.4 4.9
-9 1 0 18.5 6.7
9 1 0 19.3 5.1
-9 1 0 20.5 4.2
-9 1 0 24.1 3.4
-9 1 0 33.4 9.6
9 1 0 15.7 5.2
-10 -1 0 151.98 12.4
-10 -1 0 137.89 10.1
10 -1 0 131.59 16.4
10 -1 0 140.29 11.4
-10 -1 0 156.58 12.3
-10 -1 0 140.39 15.1
10 -1 0 109.59 12.1
-10 1 0 127.09 13.8
-10 1 0 136.49 14.7
-10 1 0 128.79 9.1
-10 1 0 125.49 7.1
10 1 0 132.19 12.9
10 1 0 147.19 11.7
10 1 0 143.39 10.5
-10 1 0 133.19 6
-10 1 0 139.49 17
-11 -1 0 76.79 12.1
-11 -1 0 71.39 11.4
11 -1 0 48.2 8.7
-11 -1 0 61.09 8.7
11 -1 0 56.29 10
-11 -1 0 51.09 8.9
11 1 0 62.39 9.8
-11 1 0 75.49 12.5
-11 1 0 58.29 5.7
-11 1 0 59.49 8.8
11 1 0 66.99 9.1
-11 1 0 53.79 5.2
-11 1 0 29.7 9.4
12 -1 0 32.7 10.1
-12 -1 0 24.4 10.1
-12 -1 0 5.5 14.5
-12 -1 0 16.4 5.8
-12 -1 0 12.9 9.9
12 1 0 2.4 8.4
-12 1 0 2.8 7.9
-12 1 0 14.4 3.7
-12 1 0 16 6.3
-12 1 0 6.3 13.4
-12 1 0 17.6 11.3
12 1 0 15.7 9.5
-13 -1 0 156.98 21.2
13 -1 0 127.49 15.6
-13 -1 0 153.98 14
-13 1 0 117.89 14.3
-13 1 0 104.09 17.9
13 1 0 100.59 13.6
0 -2 0 765.62 19
0 -2 0 813.72 21.2
0 -2 0 774.42 17.7
1 -2 0 45.1 5.1
-1 -2 0 45.7 4
-1 -2 0 42.6 3.8
1 -2 0 49.5 5.6
1 -2 0 45.4 3.2
1 -2 0 49 4
-2 -2 0 375.56 8.4
2 -2 0 364.56 14
2 -2 0 380.06 8.4
-2 -2 0 382.06 11
2 -2 0 378.56 10.6
2 -2 0 373.46 9
-2 -2 0 369.26 11
-2 -2 0 395.16 12
-2 -2 0 379.96 11.6
2 -2 0 390.96 13.2
-2 2 0 388.16 11.7
-2 2 0 374.26 9.3
-3 -2 0 132.49 5.9
-3 -2 0 129.29 6.2
3 -2 0 119.59 7.9
3 -2 0 141.39 9.3
-3 -2 0 130.09 6.7
3 -2 0 109.69 3.8
3 -2 0 133.89 5.5
-3 -2 0 135.49 7.3
3 2 0 130.69 6.8
-3 2 0 140.59 5.8
-3 2 0 139.19 6.7
-3 2 0 124.49 8.4
-3 2 0 118.49 8.6
4 -2 0 1048.1 22.1
-4 -2 0 1014.2 24.9
-4 -2 0 1031.5 22.8
-4 -2 0 1044.8 25.4
4 -2 0 1052.69 28.7
4 -2 0 1029.8 26
-4 -2 0 1057.09 23.6
4 2 0 1020 24.6
-4 2 0 1037.3 29.2
-4 2 0 1021.3 23.9
-4 2 0 1044.7 27.8
-5 -2 0 33.1 5
-5 -2 0 39 5.3
5 -2 0 36.8 8.7
5 -2 0 34.5 3.7
-5 -2 0 41.3 4.1
-5 -2 0 36.7 4.7
5 -2 0 29.8 4.9
-5 2 0 33 4.4
-5 2 0 30.6 6.2
5 2 0 34.6 4.8
5 2 0 35.4 4.7
-5 2 0 33.5 6.9
6 -2 0 931.91 21
-6 -2 0 923.11 24.5
6 -2 0 910.11 24.7
-6 -2 0 909.61 22.9
6 -2 0 885.31 28.2
-6 -2 0 912.81 22.1
-6 -2 0 922.51 24.8
6 2 0 917.11 24.1
-6 2 0 893.01 28.9
-6 2 0 884.81 22.6
-6 2 0 904.01 28.2
6 2 0 912.71 22.4
7 -2 0 6.9 4.4
-7 -2 0 8.9 5.3
-7 -2 0 1.3 4.9
-7 -2 0 6.4 4.3
7 -2 0 -2.9 6.2
-7 -2 0 2.5 4.1
7 2 0 4.7 4.2
-7 2 0 -0.9 3.4
-7 2 0 13.4 7.8
-7 2 0 1.5 3.1
7 2 0 3.4 3.4
-7 2 0 5 5.8
-8 -2 0 -4 5.7
-8 -2 0 -7.2 5
8 -2 0 6.1 4.7
-8 -2 0 1.2 4.8
8 -2 0 -6 7.6
-8 -2 0 2.5 5.6
8 -2 0 8.5 4.5
8 2 0 1.3 4.8
8 2 0 5.3 4
-8 2 0 4.4 3.7
-8 2 0 4.4 6.4
-8 2 0 16.7 9.5
9 -2 0 6.9 9.7
-9 -2 0 8.1 5.8
9 -2 0 7.4 6
-9 -2 0 2.5 6.4
-9 -2 0 2.5 6
9 -2 0 -2.8 5.3
-9 -2 0 2.3 6.5
-9 -2 0 -4.8 5.9
9 2 0 -0.7 5.9
-9 2 0 5.4 7
-9 2 0 3 4
-9 2 0 -4.1 6.2
-9 2 0 17.4 12.3
9 2 0 6.1 4.8
-10 -2 0 8.1 7.8
10 -2 0 1.8 7.2
-10 -2 0 21.6 10.8
-10 -2 0 20.7 6.7
-10 -2 0 -1.5 8
10 -2 0 10.3 7.1
10 -2 0 -0.7 13.9
-10 2 0 22.6 16
-10 2 0 11.8 9.7
10 2 0 17.5 6.6
10 2 0 14.4 7.9
-10 2 0 23.4 9.3
-11 -2 0 72.69 9.7
11 -2 0 66.99 11.3
11 -2 0 50.19 10.9
11 2 0 76.19 10.3
-11 2 0 75.29 9.6
11 2 0 62.79 11.4
-11 2 0 67.79 13.7
-12 -2 0 1420.46 39.9
12 -2 0 1361.36 39.8
-12 -2 0 1386.76 37.9
-12 2 0 1344.87 49.5
-12 2 0 1369.56 38.4
12 2 0 1361.86 41.6
0 -3 0 -0.1 3.1
0 -3 0 2.3 4
0 -3 0 4.6 4.4
0 -3 0 1.1 2.6
0 -3 0 -2.6 3.1
1 -3 0 694.03 22
1 -3 0 718.53 17.8
1 -3 0 715.03 19.5
1 -3 0 682.53 16.3
-1 -3 0 716.23 21.1
-1 -3 0 708.83 19.1
-1 -3 0 729.33 22.8
-1 -3 0 731.13 19.4
2 -3 0 3.9 2.4
-2 -3 0 0.2 2.7
2 -3 0 0.6 4.4
-2 -3 0 4.5 3.4
2 -3 0 -0.3 1.5
-2 -3 0 -0.9 3.6
-2 -3 0 -2.1 3.9
2 -3 0 4 4.9
2 -3 0 0.7 2.8
3 -3 0 770.82 19.1
3 -3 0 742.83 15.3
3 -3 0 735.03 16.5
-3 -3 0 737.43 21.4
-3 -3 0 778.52 20.3
3 -3 0 744.53 23.4
3 -3 0 764.02 26.1
-3 -3 0 726.33 19.9
-3 -3 0 775.32 21.9
-3 -3 0 747.63 15.3
-3 3 0 736.03 16.5
-3 3 0 755.12 21.4
-3 3 0 749.92 16.1
-4 -3 0 114.49 8.1
-4 -3 0 120.29 8.6
-4 -3 0 112.69 7
-4 -3 0 112.49 5.7
-4 -3 0 136.79 10.3
4 -3 0 96.39 12
4 -3 0 117.89 4.3
4 -3 0 103.89 10.6
4 -3 0 116.19 6.6
-4 3 0 120.19 8.5
-4 3 0 120.39 6.5
5 -3 0 888.41 30.4
5 -3 0 879.01 26.6
-5 -3 0 917.11 23.7
-5 -3 0 911.81 21.3
5 -3 0 925.31 21.5
-5 -3 0 914.41 26.4
-5 -3 0 901.81 25.3
-5 -3 0 873.91 22.3
-5 3 0 893.61 28.9
-5 3 0 896.81 24.8
-5 3 0 873.81 22.3
-6 -3 0 -2.8 4.8
-6 -3 0 2.2 3.2
6 -3 0 6.8 7.9
-6 -3 0 3.8 4.1
-6 -3 0 -5.1 3.7
6 -3 0 1.3 5.2
-6 -3 0 -1.4 6
6 -3 0 4.9 2.9
-6 3 0 -0.6 3.5
-6 3 0 8 8.6
6 3 0 8.8 5.2
-6 3 0 -4.7 4.1
-6 3 0 -3.9 5.5
-7 -3 0 247.78 16.3
-7 -3 0 217.78 13.8
-7 -3 0 239.88 11.3
7 -3 0 295.17 21
7 -3 0 261.87 10.5
7 -3 0 241.78 14.7
-7 -3 0 228.18 12.3
-7 -3 0 227.18 13.6
7 3 0 227.78 14.4
-7 3 0 241.98 12.6
-7 3 0 229.08 21.1
-7 3 0 232.88 19.1
-7 3 0 230.88 12.8
-8 -3 0 364.06 16.5
-8 -3 0 339.97 17.6
-8 -3 0 321.77 20.8
-8 -3 0 342.17 17.2
8 -3 0 330.07 17.6
8 -3 0 395.86 23.6
8 -3 0 366.26 14.1
-8 -3 0 329.17 16.2
-8 3 0 331.27 27.1
-8 3 0 360.26 23.8
8 3 0 386.26 18.4
-8 3 0 337.07 16
-8 3 0 328.37 16.5
-9 -3 0 -6.8 7.7
-9 -3 0 1.2 6.5
9 -3 0 0.5 7.5
9 -3 0 -3.2 6.7
-9 3 0 -6.2 7.7
-9 3 0 -9.5 9.6
-9 3 0 8.9 7.1
9 3 0 14 8.7
-10 -3 0 218.58 17.3
10 -3 0 238.98 18.7
10 -3 0 188.28 16.9
-10 -3 0 237.58 18.1
10 3 0 263.17 20.1
-10 3 0 236.98 16.9
-10 3 0 273.17 26.4
11 -3 0 70.69 13.6
-11 -3 0 28 10.3
-11 -3 0 69.09 12
-11 3 0 46.5 18.1
-11 3 0 50.69 11.6
11 3 0 38.2 13.7
0 -4 0 1404.66 31.1
0 -4 0 1401.76 35.8
0 -4 0 1458.25 41.4
0 -4 0 1427.66 39.2
0 -4 0 1406.86 34.7
0 -4 0 1369.86 33.3
1 -4 0 40 7.2
-1 -4 0 39.7 9
1 -4 0 32.4 6.7
-1 -4 0 26.6 4.8
-1 -4 0 27.6 7.3
-1 -4 0 25.4 6.6
-1 -4 0 40.9 7.5
-1 -4 0 30.4 6.6
1 -4 0 31.2 9.8
1 -4 0 38.1 8.7
1 -4 0 32.5 4.2
1 -4 0 37.3 7.7
-1 -4 0 30.6 6.2
-1 -4 0 29.5 8.4
-2 -4 0 81.49 9.5
-2 -4 0 79.29 8.9
-2 -4 0 92.19 10.5
2 -4 0 80.89 7.8
2 -4 0 76.89 10.8
-2 -4 0 92.49 13.6
-2 -4 0 82.19 10.7
2 -4 0 82.69 5.5
2 -4 0 86.29 13
-2 -4 0 95.99 11.8
2 -4 0 91.09 9.3
3 -4 0 194.08 7.1
-3 -4 0 231.58 13.3
-3 -4 0 222.48 16.5
3 -4 0 218.68 11.5
3 -4 0 201.08 9.2
-3 -4 0 213.58 12.2
3 -4 0 237.48 19.4
-3 -4 0 222.98 13.2
-3 -4 0 218.38 15
3 -4 0 215.28 17
-3 -4 0 204.28 16.2
4 -4 0 137.99 19
-4 -4 0 120.29 11.6
-4 -4 0 104.19 11.3
4 -4 0 115.29 13.8
4 -4 0 118.19 9.1
4 -4 0 106.39 5.9
4 -4 0 101.99 4.4
-4 -4 0 111.89 14.8
-4 -4 0 128.89 15.7
-4 -4 0 110.89 9.7
-4 -4 0 123.19 11.2
-5 -4 0 198.58 14.3
5 -4 0 217.38 11.1
-5 -4 0 207.58 11.9
5 -4 0 285.07 25.1
-5 -4 0 236.08 19.1
-5 -4 0 192.08 7.8
5 -4 0 197.48 21.6
-5 -4 0 198.28 7.2
-5 -4 0 220.98 14.2
-5 -4 0 208.58 17.5
-5 4 0 199.78 8.1
-5 4 0 198.18 8.8
6 -4 0 55.79 8.3
-6 -4 0 48.4 10
-6 -4 0 45.6 8.9
6 -4 0 37.2 10.1
-6 -4 0 52.29 7.2
-6 4 0 45.6 6.4
-6 4 0 53.79 9.3
-6 4 0 40.1 5.3
-7 -4 0 7.4 6.1
-7 -4 0 -2.4 6.8
7 -4 0 15.4 10.1
7 -4 0 23.4 5.8
-7 4 0 -0.5 7.7
-7 4 0 -6.1 4.6
-7 4 0 -0.3 6.1
-8 -4 0 52.69 10.7
-8 -4 0 88.19 12.6
8 -4 0 99.49 13.8
-8 4 0 105.89 13.3
-8 4 0 75.09 10.7
-9 -4 0 -22.4 12.2
9 -4 0 20.3 12.4
-9 4 0 17.6 11.3
0 -5 0 -14.2 9.9
0 -5 0 0.8 9.5
0 -5 0 4.2 8.4
0 -5 0 4.6 10.2
0 -5 0 -3.3 9.6
0 -5 0 -0.4 12
0 -5 0 -3.8 6.9
1 -5 0 213.48 23.5
1 -5 0 148.09 16
-1 -5 0 250.07 40.8
-1 -5 0 159.38 19.1
1 -5 0 142.69 18.7
-1 -5 0 164.28 16.7
-1 -5 0 172.38 19.2
-1 -5 0 169.48 12.1
1 -5 0 174.58 10.1
-1 -5 0 184.78 19.2
-1 -5 0 169.58 19.7
1 -5 0 173.58 16.8
-1 -5 0 184.68 16.1
2 -5 0 132.29 16.9
2 -5 0 115.69 8.5
-2 -5 0 130.09 13.7
-2 -5 0 134.49 20.2
2 -5 0 117.59 12.9
-2 -5 0 124.79 14.6
2 -5 0 107.89 13.8
-2 -5 0 120.09 14.8
2 -5 0 121.09 14.9
-2 -5 0 145.79 12.1
-2 -5 0 122.79 17.3
-3 -5 0 32.1 13.6
3 -5 0 23.5 4.5
3 -5 0 30 14.4
-3 -5 0 24.3 7.6
-3 -5 0 27.7 9.3
-3 -5 0 0.7 15.3
-3 -5 0 13.6 11.1
-3 -5 0 29.5 8.6
3 -5 0 22 9
4 -5 0 165.18 18.8
-4 -5 0 143.59 15
-4 -5 0 129.49 14.3
-4 -5 0 180.08 28.5
4 -5 0 147.59 14.8
-4 -5 0 134.99 16.5
-5 -5 0 110.19 12.5
5 -5 0 97.69 17.8
-5 -5 0 86.39 13.1
-5 -5 0 79.99 11.3
-6 -5 0 26.3 11.1
6 -5 0 49.2 16.3
-6 -5 0 43.3 11
-6 -5 0 48.6 9.8
-13 0 1 10.3 15.6
-13 0 1 11.6 11.3
-13 0 1 -1.7 5.8
13 0 -1 -11 9.5
-12 0 1 0.4 4.6
12 0 -1 4.9 8.8
12 0 -1 16.5 7.8
-12 0 1 12.6 9.3
-12 0 1 0.3 11.9
-12 0 1 -0.4 7
-11 0 1 0.9 3.7
-11 0 1 -4.1 8.3
11 0 -1 -5.5 6.6
-11 0 1 4.3 16.6
-11 0 1 -1.6 7
-11 0 1 -5.4 5.4
11 0 -1 -3.6 6.7
11 0 -1 3.1 5.9
10 0 -1 4.2 4.7
10 0 -1 -2.1 5.3
-10 0 1 4.8 7.1
-10 0 1 1.4 5.3
10 0 -1 0.7 5.5
-10 0 1 5.8 4.3
-10 0 1 1.2 3.1
-10 0 1 -12.8 8.3
-9 0 1 -3.8 3.2
-9 0 1 -3.4 2.6
9 0 -1 0.8 3.7
9 0 -1 -0.9 3.8
-9 0 1 2 6.2
-9 0 1 -5.3 4.1
9 0 -1 -3.1 4.6
-8 0 1 -3.9 2.3
-8 0 1 -3.3 4.6
8 0 -1 -2.4 3.1
-8 0 1 5.6 3.2
8 0 -1 2.1 3.1
8 0 -1 0 4
-7 0 1 -2.8 3.5
7 0 -1 4.6 3.9
-7 0 1 -1.9 2.1
7 0 -1 0.3 2.6
-7 0 1 -1.4 1.9
7 0 -1 2.9 2.7
-7 0 1 1.6 5.1
-6 0 1 -1.8 2.4
6 0 -1 2.7 3.6
-6 0 1 -5 2.8
6 0 -1 0.2 1.9
-6 0 1 -0.6 1.7
-6 0 1 -2.4 1.8
6 0 -1 2 2.2
5 0 -1 2.7 1.9
-5 0 1 0.5 2.2
5 0 -1 8.8 3.8
-5 0 1 -3.3 2.5
-5 0 1 0.2 1.3
5 0 -1 2.5 2
-5 0 1 1.3 1.9
-4 0 1 -1.8 2.3
-4 0 1 1.8 1.6
4 0 -1 4.8 3
-4 0 1 0.9 1.1
4 0 -1 -0.6 0.9
4 0 -1 0.4 1.4
4 0 -1 1.8 1.4
-4 0 1 1.6 1.6
-3 0 1 -2.8 2.7
3 0 -1 -0.9 0.8
3 0 -1 1.2 1.1
3 0 -1 3.5 1.3
-3 0 1 0.2 0.8
-3 0 1 0.1 1.1
-2 0 1 0.6 0.6
2 0 -1 0.6 0.9
-2 0 1 3.7 2.1
2 0 -1 2.2 0.9
2 0 -1 8 2.2
-2 0 1 -0.3 0.9
1 0 -1 -0.2 0.5
-1 0 -1 0 0.4
-1 0 -1 -0.1 0.3
1 0 1 0.3 0.4
1 0 1 -0.3 0.4
-1 0 -1 0.1 0.5
1 0 1 0 0.4
-2 0 -1 0.6 0.8
2 0 1 -1.5 1.8
-2 0 -1 -2.2 1
2 0 1 -0.6 0.7
3 0 1 3.1 2.6
-3 0 -1 0.3 0.9
-3 0 -1 -1.2 1.1
3 0 1 -0.3 0.9
-3 0 -1 0 1
-4 0 -1 -0.5 1.3
-4 0 -1 1.6 1.7
4 0 1 2 1.9
-4 0 -1 -2.3 1.5
4 0 1 1.5 1.4
4 0 1 3.8 3
-4 0 -1 0.3 1.1
5 0 1 1.2 1.9
5 0 1 2.3 2.2
-5 0 -1 0.1 2.2
5 0 1 5.6 3.8
-5 0 -1 -2.2 1.9
-5 0 -1 1.8 1.5
-5 0 -1 -1.5 1.6
-6 0 -1 0.7 2.4
6 0 1 -0.8 1.9
-6 0 -1 -1.7 1.7
6 0 1 3.3 2.8
6 0 1 4.9 4.4
-6 0 -1 1.2 1.9
-6 0 -1 -3.1 2.4
-7 0 -1 3.1 2.4
7 0 1 5.9 4.9
-7 0 -1 -1.5 2
-7 0 -1 -2.9 3.2
7 0 1 -1.8 2.6
-7 0 -1 -4.5 2.8
8 0 1 3.9 4.2
8 0 1 5.1 5
8 0 1 1.5 3.1
-8 0 -1 -2.8 3.9
-8 0 -1 -0.6 3
-8 0 -1 -3.2 3.7
-8 0 -1 -4.5 2.3
9 0 1 2.1 4.2
9 0 1 4.7 5.1
-9 0 -1 -5.6 5.7
-9 0 -1 4.4 3.8
-9 0 -1 2.9 3
9 0 1 0.8 4.6
-9 0 -1 -0.4 4.3
-10 0 -1 3.9 8.2
-10 0 -1 -0.5 5.6
10 0 1 0.7 5.6
10 0 1 1.1 5.4
-10 0 -1 -3.6 4.5
-10 0 -1 3.7 3.7
10 0 1 -1.4 5.3
-11 0 -1 4.7 5.9
11 0 1 2.2 5.9
11 0 1 -4.2 6.9
-11 0 -1 2.6 3.9
-11 0 -1 -0.1 7
11 0 1 8.6 8
12 0 1 6 9.2
-12 0 -1 6.1 8.7
-12 0 -1 0.9 7.3
12 0 1 -8.3 7.7
-12 0 -1 4.4 12.5
-12 0 -1 4.7 4.8
-12 0 -1 -2.8 4.5
-13 0 -1 1.2 6.5
-13 0 -1 0.4 6.3
13 0 1 10.5 10.2
-13 0 -1 17.2 12.1
-13 -1 1 52.79 13.6
13 -1 -1 37 11.9
-13 1 1 68.79 9.5
-13 1 1 36.9 14.4
13 1 -1 49.5 12.8
-12 -1 1 126.19 11.3
-12 -1 1 112.79 16
-12 -1 1 93.39 11.6
12 -1 -1 99.69 11.6
-12 1 1 99.59 8.7
-12 1 1 120.79 16.9
-12 1 1 110.29 10.9
12 1 -1 104.69 12.3
-12 1 1 100.49 7
-12 1 1 122.29 18.5
12 1 -1 117.99 14.7
11 -1 -1 9.9 7.2
11 -1 -1 7.4 7
-11 -1 1 17 5.3
11 -1 -1 -6.4 10.5
-11 -1 1 26.1 7.5
-11 -1 1 3.5 7.1
-11 -1 1 -0.3 9.3
-11 1 1 0.7 9.5
-11 1 1 7.9 4.6
11 1 -1 16 7
-11 1 1 6.2 8.2
-11 1 1 13.5 4.2
11 1 -1 1.9 6.6
-10 -1 1 1283.67 32.3
10 -1 -1 1274.97 40
10 -1 -1 1325.77 33.6
-10 -1 1 1290.87 33.2
-10 -1 1 1254.77 34.7
-10 -1 1 1259.37 36
10 -1 -1 1285.67 33.5
-10 -1 1 1281.57 35.8
-10 1 1 1301.37 31
-10 1 1 1286.07 36.2
10 1 -1 1310.27 33.7
10 1 -1 1244.38 35.3
-10 1 1 1221.18 40.5
-10 1 1 1256.47 38.9
10 1 -1 1316.27 32.2
-10 1 1 1271.07 26.9
-9 -1 1 0.7 3.6
9 -1 -1 -1.6 4.5
-9 -1 1 -0.6 4.3
9 -1 -1 -2.4 8.3
-9 -1 1 -1.7 5
9 -1 -1 3.9 4.7
-9 -1 1 -1.7 5.5
-9 -1 1 -7.9 5.1
-9 1 1 -3.6 5
-9 1 1 -1.4 2.5
-9 1 1 2.8 2.6
9 1 -1 6.1 4.6
9 1 -1 -0.8 4.3
-9 1 1 3.4 8.6
9 1 -1 2.1 5
-9 1 1 -1.2 5.4
8 -1 -1 1436.46 39
-8 -1 1 1388.66 33.3
-8 -1 1 1385.56 35
8 -1 -1 1478.35 33.1
-8 -1 1 1396.06 33.1
-8 -1 1 1453.15 34.5
8 -1 -1 1391.86 33.5
8 1 -1 1391.06 32
8 1 -1 1422.76 33.3
8 1 -1 1439.26 35
-8 1 1 1421.36 31.2
-8 1 1 1397.76 28.2
-8 1 1 1431.66 38.6
-8 1 1 1372.36 38.1
-7 -1 1 376.26 13.3
-7 -1 1 390.96 14
7 -1 -1 390.66 13.5
7 -1 -1 409.56 13.3
-7 -1 1 374.26 13.5
-7 -1 1 373.46 15.4
7 1 -1 387.56 14.2
7 1 -1 385.16 12.4
-7 1 1 367.76 16.4
-7 1 1 366.46 16.5
-7 1 1 376.96 9.5
7 1 -1 375.96 13
-7 1 1 365.96 11.4
-6 -1 1 966.2 23.2
-6 -1 1 974.5 25
-6 -1 1 983.5 23.8
6 -1 -1 966.6 27.6
-6 -1 1 986.8 23.6
6 -1 -1 976.9 23.9
6 -1 -1 995.6 22.4
6 1 -1 950.9 22.9
-6 1 1 940.11 27
-6 1 1 982.5 26.9
-6 1 1 954.3 21.4
-6 1 1 938.91 19.1
6 1 -1 963.1 22.3
5 -1 -1 7.9 2.7
-5 -1 1 8.3 2.8
-5 -1 1 7.7 2.4
5 -1 -1 1.2 4.1
5 -1 -1 6.5 2.3
-5 -1 1 10 2.9
-5 -1 1 14.5 3.6
5 -1 -1 7.5 1.4
-5 1 1 3.5 3.1
-5 1 1 5.2 3.4
5 1 -1 8.4 2.1
-5 1 1 7.7 1.2
5 1 -1 6.8 2.5
-5 1 1 5.3 1.6
5 1 -1 8.7 2.3
4 -1 -1 3703.23 67.09
4 -1 -1 3727.93 68.69
4 -1 -1 3872.91 72.19
-4 -1 1 3633.14 69.79
4 -1 -1 3802.62 73.69
-4 -1 1 3941.61 70.19
-4 -1 1 3839.52 71.19
-4 -1 1 3798.82 71.09
-4 1 1 3708.63 68.99
4 1 -1 3767.62 69.89
4 1 -1 3819.22 70.29
-4 1 1 3790.92 74.69
-4 1 1 4009.1 74.19
4 1 -1 3671.03 71.59
3 -1 -1 786.62 14.7
3 -1 -1 770.22 19.7
-3 -1 1 814.52 17
-3 -1 1 804.32 18
3 -1 -1 798.42 15.9
-3 -1 1 799.62 18.1
3 -1 -1 802.92 19
-3 -1 1 773.32 16.8
3 1 -1 792.92 17.1
-3 1 1 776.92 20.3
3 1 -1 773.82 17.1
-3 1 1 795.52 14.4
-3 1 1 800.62 19.9
-3 1 1 783.22 16.4
-2 -1 1 5938.71 110.29
2 -1 -1 6283.27 112.09
2 -1 -1 6162.28 112.59
-2 1 1 6442.66 112.39
-2 1 1 6056.09 109.19
-2 1 1 6106.09 112.89
1 -1 -1 2892.41 54.19
-1 -1 1 2826.72 52.89
-1 -1 1 2858.41 52.59
1 -1 -1 2883.51 54.39
-1 -1 1 2877.41 50.69
-1 -1 1 2857.61 51.79
1 -1 -1 2915.01 51.79
-1 1 1 2833.92 51.19
-1 1 1 2814.52 52.19
-1 1 1 2933.41 53.99
1 1 -1 2869.81 52.19
-1 1 1 2848.11 54.59
0 -1 1 15.6 2.1
0 -1 -1 15.1 2.2
0 -1 -1 15.6 0.8
0 -1 1 18.6 1
0 1 -1 14.8 0.8
2 -1 1 805.32 19.6
-2 -1 -1 787.12 16
-2 -1 -1 817.72 17.1
-2 -1 -1 786.02 17.3
2 -1 1 823.02 16.5
2 -1 1 819.72 17.9
-2 1 -1 815.02 18.6
-2 1 -1 785.52 19.6
2 1 1 806.72 17.7
-2 1 -1 807.92 17.1
2 1 1 806.32 16.4
2 1 1 761.02 17.2
-3 -1 -1 846.52 18.9
3 -1 1 850.01 17.2
-3 -1 -1 817.02 18
-3 -1 -1 833.72 18.6
-3 -1 -1 817.42 16.8
3 -1 1 798.32 20.7
3 -1 1 830.02 18.9
-3 1 -1 865.91 20.3
-3 1 -1 823.82 17.8
3 1 1 818.42 17
-3 1 -1 802.12 21
3 1 1 835.82 18.5
4 -1 1 1873.51 36
4 -1 1 1833.82 40.2
4 -1 1 1936.21 38.1
-4 -1 -1 1830.92 37.9
-4 -1 -1 1917.01 37.3
-4 -1 -1 1872.31 36.8
4 1 1 1922.31 38.5
4 1 1 1856.21 37.6
-4 1 -1 1834.12 41
4 1 1 1847.52 35.9
-4 1 -1 1880.71 36.7
-4 1 -1 1916.91 40
5 -1 1 53.49 4.3
5 -1 1 43.6 6.6
-5 -1 -1 56.69 4.8
-5 -1 -1 70.19 6.1
-5 -1 -1 63.09 5.7
5 -1 1 63.09 4.9
-5 -1 -1 55.89 5
-5 1 -1 50.29 3.3
5 1 1 57.39 4.9
5 1 1 54.79 3.7
5 1 1 56.89 4.7
-5 1 -1 52.79 3.8
-5 1 -1 55.09 6.2
-5 1 -1 54.39 6.5
6 -1 1 524.45 14.6
-6 -1 -1 496.85 15.8
6 -1 1 518.05 15
-6 -1 -1 525.55 15.4
-6 -1 -1 527.75 15.6
6 -1 1 511.55 18.4
-6 -1 -1 517.75 15.1
6 1 1 487.75 13.3
-6 1 -1 513.25 13.9
-6 1 -1 500.65 17.5
-6 1 -1 491.65 17.9
6 1 1 512.45 15.1
6 1 1 506.95 15.8
-6 1 -1 490.45 10.9
7 -1 1 229.38 12.3
-7 -1 -1 228.28 11.1
7 -1 1 237.48 10.3
-7 -1 -1 248.88 11
-7 -1 -1 238.98 10.8
-7 -1 -1 248.28 11.2
-7 1 -1 238.18 13.3
7 1 1 240.68 10.5
-7 1 -1 236.58 13
-7 1 -1 251.87 7
-7 1 -1 248.48 9.4
7 1 1 241.98 9.2
-8 -1 -1 583.54 18.9
-8 -1 -1 572.84 17.8
8 -1 1 567.54 22.9
8 -1 1 556.64 17.8
8 -1 1 581.94 18.2
-8 -1 -1 567.74 18.4
-8 -1 -1 570.74 18.1
-8 1 -1 570.54 13.3
-8 1 -1 552.44 16.3
8 1 1 578.84 19.3
-8 1 -1 551.94 21.5
-8 1 -1 554.94 21.8
8 1 1 558.44 16.2
8 1 1 555.14 18
-8 1 -1 565.84 12.6
-9 -1 -1 135.19 9.3
9 -1 1 127.19 15.7
-9 -1 -1 138.89 10.3
9 -1 1 120.09 10.8
9 -1 1 111.39 9.5
-9 -1 -1 137.29 12.2
-9 -1 -1 139.59 10.2
-9 1 -1 128.09 8.2
9 1 1 110.49 9.7
-9 1 -1 119.89 6.1
-9 1 -1 128.59 5.2
-9 1 -1 123.89 12.4
9 1 1 133.59 8.6
9 1 1 121.29 10.9
-9 1 -1 124.99 15.4
10 -1 1 448.76 25.2
-10 -1 -1 476.65 19.3
-10 -1 -1 497.65 17.2
-10 -1 -1 489.75 21.9
-10 -1 -1 481.45 18.7
10 -1 1 464.45 18.4
10 -1 1 484.15 19.6
10 1 1 497.25 19.2
10 1 1 496.45 16.9
-10 1 -1 481.45 12.9
-10 1 -1 494.85 26
10 1 1 457.55 20.4
-10 1 -1 471.65 23
-10 1 -1 483.85 12
11 -1 1 539.95 21.4
-11 -1 -1 535.65 18.6
11 -1 1 429.16 27.5
11 -1 1 494.35 22.7
-11 -1 -1 512.95 21.2
-11 -1 -1 542.95 22.3
-11 1 -1 529.05 13.1
-11 1 -1 556.14 19
-11 1 -1 536.95 14.5
-11 1 -1 513.85 24.7
11 1 1 517.45 21.5
11 1 1 505.35 19.3
-11 1 -1 527.85 26
12 -1 1 18.5 9.4
-12 -1 -1 38.9 10.4
-12 -1 -1 35.4 10.9
-12 -1 -1 13.6 5.7
-12 1 -1 18.1 3.7
12 1 1 3.1 8.2
-12 1 -1 28.9 6.8
-12 1 -1 30 11.8
-12 1 -1 42.8 13.3
12 1 1 26.7 10.1
13 -1 1 731.13 30.3
-13 -1 -1 719.83 24.9
-13 -1 -1 751.72 25.6
-13 -1 -1 746.93 31.7
-13 1 -1 749.03 36.4
-13 1 -1 778.42 27
13 1 1 737.83 31.1
-12 -2 1 356.66 21.6
-12 -2 1 280.17 17.6
12 -2 -1 288.87 20.5
12 2 -1 285.47 21.7
-12 2 1 307.87 27.7
-12 2 1 297.67 17.9
11 -2 -1 338.37 19.2
-11 -2 1 352.76 17.7
11 -2 -1 300.47 19.1
-11 -2 1 399.66 19.1
-11 2 1 346.97 16.7
11 2 -1 350.56 18.2
-11 2 1 350.86 24.8
11 2 -1 333.47 19.6
-10 -2 1 89.19 11.9
-10 -2 1 77.59 11.2
10 -2 -1 72.99 9.8
-10 -2 1 59.09 11.2
-10 -2 1 76.79 11.2
-10 -2 1 66.49 10.2
10 -2 -1 99.69 11.2
10 -2 -1 47.6 14.9
10 2 -1 83.69 10.9
-10 2 1 76.89 17.7
-10 2 1 85.19 9.7
-10 2 1 88.89 12.3
10 2 -1 93.39 12.3
-10 2 1 67.69 13
9 -2 -1 825.12 23.4
-9 -2 1 785.72 25.4
9 -2 -1 829.22 32.6
-9 -2 1 812.22 25.4
-9 -2 1 778.22 25.5
-9 -2 1 778.12 25.3
-9 -2 1 768.12 24.7
9 -2 -1 830.62 25.3
9 2 -1 711.63 27.6
-9 2 1 807.32 31.2
-9 2 1 782.42 25.8
-9 2 1 796.12 22.9
9 2 -1 795.62 23
-9 2 1 829.22 33.8
-8 -2 1 21.3 5.8
8 -2 -1 16.6 5.1
8 -2 -1 18.2 5.5
8 -2 -1 18.7 9.9
-8 -2 1 19.2 5.7
-8 -2 1 26.6 5.8
-8 -2 1 15.8 6.5
-8 -2 1 17.2 5.6
-8 2 1 25.6 9.9
8 2 -1 22.4 5.1
8 2 -1 20 5.7
-8 2 1 23.2 4.6
-8 2 1 4.4 7.9
-8 2 1 29.4 8.7
-7 -2 1 600.64 18.8
-7 -2 1 612.04 20
-7 -2 1 590.74 18.2
7 -2 -1 601.14 16.5
-7 -2 1 589.14 18.2
-7 -2 1 572.64 19.1
7 -2 -1 565.14 23.5
7 -2 -1 567.44 19.2
-7 2 1 575.84 17.1
-7 2 1 559.94 23.7
7 2 -1 594.14 17.6
-7 2 1 617.14 24.1
-7 2 1 557.54 18.7
7 2 -1 599.34 18.8
-6 -2 1 16.2 3.9
-6 -2 1 14.9 3.4
-6 -2 1 13.1 4.7
-6 -2 1 6.3 3.2
6 -2 -1 9.5 2.9
6 -2 -1 9.5 3.9
-6 -2 1 12.3 3.5
6 -2 -1 7.6 6
-6 2 1 11.5 3.1
6 2 -1 13.4 3.7
-6 2 1 10.9 6
-6 2 1 14.4 5.8
6 2 -1 17.6 4.2
5 -2 -1 53.59 11.5
5 -2 -1 42 3.7
5 -2 -1 48.7 6.5
-5 -2 1 42 6.2
-5 -2 1 48.4 5.9
-5 -2 1 45.5 4.3
-5 -2 1 43.9 5.2
-5 -2 1 49.9 5.3
-5 2 1 44.7 5.4
5 2 -1 43.1 5.2
-5 2 1 49.5 7.4
5 2 -1 49.99 5.2
-5 2 1 42.4 7.3
-5 2 1 51.79 4.8
-4 -2 1 4.7 2.4
4 -2 -1 -3.1 3.6
-4 -2 1 2.8 2
-4 -2 1 2.2 2.2
4 -2 -1 -0.3 3.2
4 -2 -1 1.9 1.5
-4 -2 1 2.1 2.5
-4 -2 1 2.9 1.8
4 2 -1 -0.1 2.3
-4 2 1 0 3
-4 2 1 0.8 1.9
-4 2 1 2 4.3
-4 2 1 -1.4 3.3
-3 -2 1 195.58 8.5
3 -2 -1 193.58 10.6
-3 -2 1 188.48 7.4
-3 -2 1 195.58 7.4
3 -2 -1 192.28 4.7
-3 -2 1 184.48 6.1
-3 -2 1 192.28 8.4
3 -2 -1 197.38 10
3 -2 -1 195.28 6.5
-3 2 1 182.28 6.7
-3 2 1 182.18 10.3
3 2 -1 191.18 7.9
-3 2 1 198.08 7.7
-3 2 1 195.78 10.1
-2 -2 1 239.88 6
2 -2 -1 240.28 6
2 -2 -1 239.18 10.5
-2 -2 1 237.78 8.6
-2 -2 1 266.37 9.2
2 -2 -1 251.87 7.8
2 -2 -1 248.38 11.2
-2 -2 1 247.38 8.2
-2 2 1 240.48 8.6
-2 2 1 225.38 10.9
-2 2 1 251.37 6.8
1 -2 -1 615.14 18
1 -2 -1 590.24 13
-1 -2 1 586.14 14.6
1 -2 -1 597.54 17.2
-1 -2 1 602.94 16.6
-1 -2 1 598.04 15
1 -2 -1 611.44 15
0 -2 1 132.09 5.5
0 -2 1 140.79 6.7
0 -2 -1 137.19 6.5
0 -2 -1 128.09 7.5
0 -2 1 135.89 6.8
0 -2 1 135.29 8
1 -2 1 182.98 7.3
-1 -2 -1 177.08 7.2
1 -2 1 173.38 8.2
1 -2 1 184.48 6
-1 -2 -1 180.08 8.3
1 -2 1 179.68 9.4
-1 2 -1 177.18 4.6
-1 2 -1 182.58 4.4
-1 2 -1 184.58 7.9
2 -2 1 0.6 2.4
-2 -2 -1 1.8 1.8
2 -2 1 3.8 3.2
2 -2 1 3 1.7
-2 -2 -1 2.6 1.7
2 -2 1 1.8 0.9
2 -2 1 0.3 1.2
-2 -2 -1 3.2 2.1
-2 -2 -1 0.9 1.6
-2 2 -1 0.1 1.8
-2 2 -1 0.6 2.7
-3 -2 -1 139.69 6.7
3 -2 1 149.29 9.6
3 -2 1 131.69 5.8
-3 -2 -1 135.69 6.8
-3 -2 -1 130.19 7.2
-3 -2 -1 138.19 5.8
3 -2 1 130.19 7.9
3 2 1 144.99 7.4
-3 2 -1 125.69 8.5
-3 2 -1 132.19 8.8
-3 2 -1 136.19 6.8
4 -2 1 56.49 6.1
4 -2 1 52.99 4
4 -2 1 46.2 7.3
-4 -2 -1 57.89 5.2
-4 -2 -1 57.89 5.2
-4 -2 -1 46.9 5.8
-4 -2 -1 51.49 3.9
-4 2 -1 69.99 7.9
4 2 1 56.39 5.4
-4 2 -1 54.99 6.9
-4 2 -1 53.29 4.8
5 -2 1 190.08 7.3
-5 -2 -1 191.48 7.4
-5 -2 -1 187.88 8.8
5 -2 1 183.88 9.6
-5 -2 -1 202.98 9.7
5 -2 1 179.48 12.4
-5 -2 -1 200.68 10.1
5 2 1 197.78 9.5
-5 2 -1 182.78 11.8
-5 2 -1 188.98 8.7
-5 2 -1 200.88 12.3
-6 -2 -1 178.38 10.8
6 -2 1 186.98 10.2
-6 -2 -1 196.08 9
-6 -2 -1 197.78 9.7
6 -2 1 185.28 8
-6 -2 -1 200.48 10.7
6 -2 1 180.08 13.6
6 2 1 195.28 10.2
-6 2 -1 177.08 14
-6 2 -1 198.28 9.2
6 2 1 192.38 8.6
-6 2 -1 192.18 13.1
-7 -2 -1 103.09 9.4
7 -2 1 100.59 12.7
-7 -2 -1 120.69 9.1
-7 -2 -1 104.59 9.9
7 -2 1 104.09 7.3
-7 -2 -1 99.49 9.4
7 -2 1 95.79 8.5
7 2 1 101.29 7.1
7 2 1 108.39 9.1
-7 2 -1 99.59 11.8
-7 2 -1 123.29 14.5
-7 2 -1 107.19 7.8
-8 -2 -1 39.7 7.1
8 -2 1 35.3 9.4
-8 -2 -1 40.4 7
-8 -2 -1 39.6 7.1
8 -2 1 38.2 6.6
8 -2 1 31.2 5.8
-8 -2 -1 32.3 6.9
-8 2 -1 41.5 10.1
8 2 1 35.4 7.1
-8 2 -1 44.7 6.8
8 2 1 38.6 7.2
8 2 1 43.9 6.8
-8 2 -1 44.7 11.5
-9 -2 -1 78.19 9.6
-9 -2 -1 109.89 11.8
9 -2 1 99.39 14.9
-9 -2 -1 95.69 10
9 -2 1 97.79 10.9
9 -2 1 105.49 10.9
-9 -2 -1 90.19 10.7
9 2 1 90.79 12.3
-9 2 -1 102.09 16.6
9 2 1 86.59 8.8
-9 2 -1 93.59 11.7
-9 2 -1 92.29 9.3
9 2 1 87.69 10.1
-9 2 -1 80.99 12.5
-10 -2 -1 -7.9 7.5
10 -2 1 -7.9 7
-10 -2 -1 18.5 6.2
10 -2 1 -15 12.2
-10 -2 -1 8.6 9
-10 -2 -1 -0.5 5.2
10 -2 1 -3.8 6.6
-10 2 -1 4.6 8.7
10 2 1 2.4 6.4
-10 2 -1 2.4 5.1
-10 2 -1 0.2 16.1
10 2 1 7.2 7.2
-10 2 -1 -2.6 6.5
-11 -2 -1 23.2 8
11 -2 1 3.7 8.9
11 -2 1 -25 15.5
-11 -2 -1 22.8 7.2
-11 2 -1 4.5 6.6
11 2 1 12.5 7.6
11 2 1 22.7 10.5
-11 2 -1 -14.2 9.4
-11 2 -1 19.8 12.2
12 -2 1 -3.2 10.2
-12 -2 -1 16.5 7.6
-12 -2 -1 18 9.7
-12 2 -1 4 14.2
12 2 1 7.3 12.3
-12 2 -1 8 8.5
-11 -3 1 -2.3 9.3
11 -3 -1 15 11.5
-11 -3 1 33.1 10.7
11 3 -1 -1.2 12.2
-11 3 1 5.4 14.2
-11 3 1 4 9.6
10 -3 -1 307.47 18.5
10 -3 -1 361.66 21.2
-10 -3 1 369.26 20.8
-10 -3 1 376.46 20.9
-10 3 1 370.06 27.8
10 3 -1 364.36 22
-10 3 1 363.06 18.7
-9 -3 1 178.48 16.4
9 -3 -1 190.58 13.7
-9 -3 1 187.38 17.1
-9 -3 1 208.88 15.6
9 -3 -1 223.78 16.7
-9 3 1 204.38 21.5
-9 3 1 200.18 14.1
9 3 -1 185.68 16.4
-8 -3 1 527.65 20
-8 -3 1 552.44 21.7
8 -3 -1 579.24 28.8
8 -3 -1 574.94 22.5
-8 -3 1 521.45 22.7
8 -3 -1 587.94 17.9
-8 -3 1 566.34 20
-8 -3 1 591.84 21.6
-8 3 1 584.54 20.3
8 3 -1 583.94 22.3
-8 3 1 551.34 31.3
-8 3 1 588.24 28.4
-8 3 1 558.84 20.8
-7 -3 1 111.89 9.9
-7 -3 1 112.99 8.8
-7 -3 1 101.89 10.6
7 -3 -1 111.79 11.9
7 -3 -1 131.59 7.9
-7 -3 1 108.09 13.8
-7 -3 1 130.69 11.1
-7 3 1 116.59 15.2
7 3 -1 118.59 11
-7 3 1 114.89 9.8
-7 3 1 103.89 9.7
-7 3 1 118.09 16.4
-6 -3 1 10.7 4.7
-6 -3 1 13.4 5.2
6 -3 -1 10.4 7.7
-6 -3 1 5.3 3.9
-6 -3 1 4.2 7.1
-6 -3 1 9.2 3.7
6 -3 -1 9.3 5.9
-6 3 1 8.3 7.4
-6 3 1 5.8 4.2
6 3 -1 6.5 5
-6 3 1 20.6 9.4
-6 3 1 3.8 3.8
-5 -3 1 803.32 19.4
-5 -3 1 809.32 21.3
5 -3 -1 849.02 26.1
5 -3 -1 838.82 28.6
-5 -3 1 839.52 24.2
-5 -3 1 825.32 24.7
-5 -3 1 823.12 21.8
5 -3 -1 801.12 19.4
-5 3 1 811.62 22.7
-5 3 1 775.52 27.3
-5 3 1 822.52 29.4
-5 3 1 796.02 20.6
4 -3 -1 -2 5.3
4 -3 -1 -3.2 5.2
-4 -3 1 0.2 3.6
4 -3 -1 1.2 1.8
-4 -3 1 4.9 3.3
-4 -3 1 -0.9 4.4
-4 -3 1 2.1 2.3
4 -3 -1 1.8 2.4
4 -3 -1 0.1 1.2
-4 -3 1 2.5 2.8
-4 3 1 -1.3 2.4
-4 3 1 -1.4 3.1
-3 -3 1 136.89 8.9
-3 -3 1 136.39 9.5
3 -3 -1 127.29 4.6
-3 -3 1 140.49 8.1
3 -3 -1 137.39 12.1
-3 -3 1 140.19 8
3 -3 -1 140.49 10.8
-3 -3 1 138.79 4.8
3 -3 -1 122.79 5.8
3 -3 -1 134.09 6.9
-3 3 1 135.79 5.4
2 -3 -1 137.39 11.5
2 -3 -1 129.19 7.3
-2 -3 1 138.59 8.3
-2 -3 1 150.98 8.1
2 -3 -1 137.69 10.5
-2 -3 1 131.99 9.9
2 -3 -1 135.39 5.4
2 -3 -1 144.39 6.8
-1 -3 1 400.76 16.5
1 -3 -1 344.87 15.3
-1 -3 1 372.56 12.6
-1 -3 1 378.96 12.9
1 -3 -1 379.16 10.5
1 -3 -1 393.26 17
1 -3 -1 387.56 13.1
-1 -3 1 378.66 14.6
1 -3 -1 371.76 11.8
0 -3 -1 193.18 11.2
0 -3 1 193.68 9.9
0 -3 -1 210.18 10
0 -3 1 176.08 10.4
0 -3 1 199.78 12.6
0 -3 -1 198.48 8.9
0 -3 1 185.38 9.1
0 -3 1 183.58 8.5
0 -3 -1 195.18 9.8
0 -3 -1 196.78 11.9
0 -3 -1 183.28 7.3
1 -3 1 832.22 19.9
1 -3 1 841.42 27
-1 -3 -1 863.91 23.6
-1 -3 -1 823.02 24.9
1 -3 1 877.91 22.4
-1 -3 -1 869.21 22.2
1 -3 1 837.62 24.2
-1 -3 -1 868.21 22.1
2 -3 1 345.17 12.1
2 -3 1 321.37 14.4
-2 -3 -1 337.07 12.4
2 -3 1 347.87 17.1
2 -3 1 323.77 8.9
-2 -3 -1 330.17 14.5
-2 -3 -1 334.07 13.4
-2 -3 -1 357.06 13
2 -3 1 350.56 10
-2 -3 -1 354.76 12.6
-3 -3 -1 151.08 8.9
-3 -3 -1 150.98 7.9
-3 -3 -1 157.78 10.2
3 -3 1 165.08 11.3
3 -3 1 153.98 5.7
-3 -3 -1 150.78 5.2
3 -3 1 162.18 8
3 -3 1 159.28 4.7
3 -3 1 154.08 12.9
-3 -3 -1 170.18 9.2
-3 3 -1 144.49 6.1
-3 3 -1 153.88 9.5
-3 3 -1 148.19 5.6
-4 -3 -1 2.2 3.7
-4 -3 -1 1.2 3.1
4 -3 1 2.5 6.9
-4 -3 -1 7.4 4.7
-4 -3 -1 -2 2.4
4 -3 1 1.9 2.6
4 -3 1 -4 4.8
-4 -3 -1 -0.7 2.5
-4 3 -1 1.5 3.4
-4 3 -1 -1.4 2.4
-5 -3 -1 51.89 8
-5 -3 -1 56.69 7.4
-5 -3 -1 55.49 7.1
5 -3 1 60.09 5.8
5 -3 1 53.29 9.5
5 -3 1 47.3 7.4
-5 -3 -1 50.19 5.2
-5 -3 -1 47 5.5
-5 3 -1 47.9 6.7
-5 3 -1 55.69 9.5
-5 3 -1 47.2 5.4
-6 -3 -1 29.3 4.7
6 -3 1 29.3 4.6
-6 -3 -1 19.6 5.5
-6 -3 -1 19.5 4.8
6 -3 1 23.3 6.6
-6 -3 -1 12 6.4
-6 -3 -1 34.8 6.4
6 -3 1 18.6 8.5
-6 3 -1 21.8 4.8
-6 3 -1 20.2 5.2
-6 3 -1 24.4 9.9
6 3 1 17 5.8
-7 -3 -1 46.2 8.9
-7 -3 -1 35 5.8
7 -3 1 48.5 6.8
7 -3 1 55.39 8.8
-7 -3 -1 48.2 7.9
7 -3 1 50.69 10.5
-7 -3 -1 46.6 7.3
-7 -3 -1 35.5 6.8
-7 3 -1 38.2 7.1
-7 3 -1 37.3 6.3
7 3 1 26.4 9
-7 3 -1 33.6 12.4
-8 -3 -1 614.94 22.6
8 -3 1 596.14 18.6
8 -3 1 597.34 29.6
8 -3 1 548.95 21.9
-8 -3 -1 564.64 22.2
-8 -3 -1 726.43 34
-8 -3 -1 557.44 20.9
-8 3 -1 575.04 28.7
8 3 1 617.24 23.7
-8 3 -1 566.44 21.2
-8 3 -1 638.54 32.9
-8 3 -1 538.85 21.1
9 -3 1 2.7 6.5
-9 -3 -1 -4.3 7.1
-9 -3 -1 -8.1 6.8
9 -3 1 -5.4 7.7
-9 3 -1 1.6 9.3
-9 3 -1 8 6.9
-9 3 -1 -57.89 25.3
-9 3 -1 8.7 7.5
9 3 1 6.7 8.7
10 -3 1 935.61 31
10 -3 1 823.72 28.7
-10 -3 -1 910.21 30.9
-10 -3 -1 910.81 27.9
10 3 1 952.6 33.6
-10 3 -1 909.81 40.3
-10 3 -1 954.9 30.8
-11 -3 -1 38.7 10
11 -3 1 66.59 13.6
-11 3 -1 50.99 12.4
11 3 1 52.69 14
9 -4 -1 32.7 12.8
-9 -4 1 -17.2 11.3
-9 -4 1 -7.3 9.7
-9 4 1 28.8 11.5
-8 -4 1 23.5 8.4
8 -4 -1 14.6 11
-8 -4 1 12.6 9.2
8 -4 -1 33.4 7.4
-8 4 1 24.5 9.8
-8 4 1 34 8.3
7 -4 -1 194.48 11
-7 -4 1 148.29 17.1
-7 -4 1 151.08 14.9
-7 -4 1 154.88 12.2
7 -4 -1 154.18 18.2
-7 4 1 149.99 12.1
-7 4 1 156.28 15.1
-6 -4 1 2.2 5.6
-6 -4 1 -2 5
6 -4 -1 5 4.5
6 -4 -1 1.8 9.1
-6 -4 1 -0.7 7.8
-6 4 1 -2.5 4.4
-6 4 1 2.6 6.8
-6 4 1 -3.2 3.7
5 -4 -1 240.18 23
-5 -4 1 242.78 14.8
-5 -4 1 275.17 13.4
5 -4 -1 250.07 11.3
-5 -4 1 264.77 14.9
-5 -4 1 258.77 19.3
-5 -4 1 229.28 8
-5 4 1 251.67 8.6
-5 4 1 255.67 9.3
-4 -4 1 8.5 5.1
4 -4 -1 -3.8 7.8
-4 -4 1 -6.5 8.1
-4 -4 1 9.8 4.9
4 -4 -1 3.7 2.2
4 -4 -1 13 4.3
4 -4 -1 10.7 3.5
-4 -4 1 8 7
4 -4 -1 18.1 10.1
-4 -4 1 7.5 8.4
-4 -4 1 12.6 6.1
-3 -4 1 226.28 14.8
3 -4 -1 201.68 7.2
3 -4 -1 199.18 9.3
-3 -4 1 205.88 16.7
-3 -4 1 185.58 16.1
3 -4 -1 186.68 10.5
-3 -4 1 201.38 12.3
-3 -4 1 215.68 13.3
3 -4 -1 189.18 16.3
3 -4 -1 234.88 18.7
-3 -4 1 200.18 12
2 -4 -1 120.89 9.5
2 -4 -1 114.89 8.6
-2 -4 1 116.59 12.1
-2 -4 1 136.99 13.1
-2 -4 1 113.59 10.4
-2 -4 1 109.09 14.8
-2 -4 1 101.19 10.4
-2 -4 1 110.79 10
2 -4 -1 128.29 16.8
2 -4 -1 108.99 6.2
2 -4 -1 138.59 14.4
1 -4 -1 11.4 6.7
1 -4 -1 13 7.7
-1 -4 1 7.3 6.6
-1 -4 1 19.3 6.3
1 -4 -1 17.9 6.4
-1 -4 1 3.9 8.3
1 -4 -1 15.8 5.2
-1 -4 1 13.5 7.2
1 -4 -1 8.5 8.9
-1 -4 1 9.1 5.3
1 -4 -1 7.1 3.2
-1 -4 1 13.8 5.3
0 -4 1 366.96 14.7
0 -4 -1 378.66 15.5
0 -4 -1 379.86 16.5
0 -4 1 367.76 21.7
0 -4 1 406.46 17.2
0 -4 -1 410.46 21.3
0 -4 -1 407.86 20
0 -4 1 374.76 12.8
0 -4 1 382.06 19.2
0 -4 -1 395.56 16.7
0 -4 -1 390.96 12.9
0 -4 1 372.76 15.5
-1 -4 -1 154.18 8.8
-1 -4 -1 148.79 12.6
1 -4 1 142.49 11.3
1 -4 1 142.09 11.6
-1 -4 -1 153.88 14.7
1 -4 1 155.28 14.1
-1 -4 -1 138.39 11.7
-1 -4 -1 169.28 11.7
-1 -4 -1 164.28 15.8
-1 -4 -1 149.29 10.5
1 -4 1 155.28 9.8
-1 -4 -1 158.98 11.9
1 -4 1 150.18 17.5
1 -4 1 157.38 7.5
2 -4 1 287.07 21
-2 -4 -1 286.07 13.8
-2 -4 -1 288.17 14.2
-2 -4 -1 270.87 17.4
2 -4 1 284.77 17.4
-2 -4 -1 296.47 12.4
-2 -4 -1 284.07 16.5
-2 -4 -1 289.57 14.7
2 -4 1 287.97 9.3
-2 -4 -1 313.07 15.7
2 -4 1 295.47 11.4
2 -4 1 282.27 13.7
3 -4 1 1748.72 44.9
-3 -4 -1 1769.42 45.3
3 -4 1 1690.43 33.3
3 -4 1 1722.33 35
-3 -4 -1 1758.52 43
-3 -4 -1 1719.93 40.2
3 -4 1 1702.43 39.1
3 -4 1 1696.03 49.5
-3 -4 -1 1749.12 40.6
-3 -4 -1 1735.03 45.2
-3 -4 -1 1763.92 42
-4 -4 -1 752.12 21.8
-4 -4 -1 718.23 26.4
4 -4 1 745.23 21
-4 -4 -1 747.03 26.3
-4 -4 -1 708.13 23.1
4 -4 1 723.23 15
4 -4 1 719.43 26.6
-4 -4 -1 736.03 27.9
4 -4 1 731.53 31.6
-5 -4 -1 1570.64 39.7
-5 -4 -1 1524.15 38
-5 -4 -1 1511.25 29.5
5 -4 1 1480.85 41.2
-5 -4 -1 1489.55 30
-5 -4 -1 1557.94 41.4
5 -4 1 1539.45 35
-5 -4 -1 1480.05 41.7
-5 -4 -1 1566.24 35.9
-5 4 -1 1578.24 31.5
-5 4 -1 1560.24 40.7
-5 4 -1 1534.95 32.2
-6 -4 -1 744.53 18.3
6 -4 1 741.23 27.1
-6 -4 -1 729.73 27.3
6 -4 1 737.93 20.9
-6 -4 -1 752.62 25.9
-6 -4 -1 746.73 25.7
-6 -4 -1 718.93 21.6
-6 4 -1 729.93 20.6
-6 4 -1 726.73 19.3
-6 4 -1 740.53 26.5
-7 -4 -1 17.4 6.4
-7 -4 -1 16.5 8.2
-7 -4 -1 17 10.3
7 -4 1 36.1 10.3
-7 4 -1 33.5 7.5
-7 4 -1 23.2 5.6
-8 -4 -1 30.6 9.8
8 -4 1 32.8 11.6
-8 -4 -1 43.1 9.7
-8 4 -1 64.39 12
-8 4 -1 59.19 9.6
-8 4 -1 56.39 8.1
9 -4 1 33.5 12.3
-9 -4 -1 -4.2 11.1
-9 4 -1 34.3 12.8
-9 4 -1 11.5 8
6 -5 -1 16.8 15.6
-6 -5 1 -13.5 8.5
-6 -5 1 3.8 10.2
-6 -5 1 11.1 9.4
5 -5 -1 46.9 16.3
-5 -5 1 31 9.7
-5 -5 1 28.6 9.3
-5 -5 1 16.7 9.4
-4 -5 1 416.76 32.1
-4 -5 1 432.26 22.6
4 -5 -1 448.56 20.3
-4 -5 1 466.25 20.5
-4 -5 1 483.45 21.4
4 -5 -1 484.75 30
-3 -5 1 59.39 11.9
3 -5 -1 54.49 15.1
-3 -5 1 93.59 13.7
-3 -5 1 79.39 15.7
3 -5 -1 83.09 10.6
-3 -5 1 86.19 18
-3 -5 1 65.49 11.3
-3 -5 1 77.99 10
3 -5 -1 76.79 7.5
2 -5 -1 212.28 10.6
-2 -5 1 261.67 22.4
2 -5 -1 238.98 25.3
-2 -5 1 250.47 24.9
-2 -5 1 229.68 17.5
2 -5 -1 226.68 15.9
-2 -5 1 240.08 17.9
2 -5 -1 245.58 17
-2 -5 1 238.48 18.9
2 -5 -1 209.28 21.5
-2 -5 1 231.78 14.5
1 -5 -1 14.7 11.2
-1 -5 1 2.7 7.5
-1 -5 1 7.2 5.4
-1 -5 1 20 11.8
-1 -5 1 -4.8 9.8
1 -5 -1 10.3 9.4
-1 -5 1 -0.7 8.4
-1 -5 1 -10.8 9.6
-1 -5 1 12 13.1
1 -5 -1 3 12.9
1 -5 -1 -5.6 6.4
1 -5 -1 -4.3 4.7
1 -5 -1 -3.4 9
0 -5 -1 17 9.3
0 -5 1 38.1 9.8
0 -5 1 36 13.1
0 -5 -1 22.4 9.6
0 -5 -1 23.9 11.2
0 -5 1 36 11.3
0 -5 1 41.5 10.9
0 -5 -1 28.7 13.8
0 -5 -1 38.3 6.3
0 -5 -1 23.1 7.8
0 -5 1 24.4 6.5
0 -5 -1 18.1 9.7
0 -5 1 32.4 10.6
-1 -5 -1 -7.1 10.3
1 -5 1 3.1 5.1
-1 -5 -1 11.1 15.4
1 -5 1 7.3 9.7
1 -5 1 11.7 10.2
1 -5 1 10.3 12.9
-1 -5 -1 12.7 7.4
-1 -5 -1 19.4 11.1
-1 -5 -1 -5.1 8
-1 -5 -1 6.3 10.9
-1 -5 -1 5.1 5.6
1 -5 1 11 8.6
-1 -5 -1 24.8 14.6
-2 -5 -1 2.1 15.1
2 -5 1 15.4 4.8
2 -5 1 11.2 11.1
-2 -5 -1 7.3 6.5
-2 -5 -1 23.2 11.2
2 -5 1 1.2 9
2 -5 1 9.7 8.2
-2 -5 -1 17.6 14.9
2 -5 1 10.3 13
-2 -5 -1 8.6 7.9
-2 -5 -1 10.5 13.5
-2 -5 -1 22.7 8
-3 -5 -1 86.19 16.8
-3 -5 -1 71.99 17.2
3 -5 1 72.49 6.7
-3 -5 -1 66.59 10.3
-3 -5 -1 64.89 11.3
3 -5 1 64.89 15.1
-3 -5 -1 95.49 12.2
3 -5 1 78.29 11.4
-4 -5 -1 6.8 8.3
-4 -5 -1 -5.7 7.4
4 -5 1 6.5 14.1
4 -5 1 16.2 8.8
-4 -5 -1 43 17.6
-4 -5 -1 6.8 7.9
5 -5 1 30.1 15.5
-5 -5 -1 9.7 8.6
-5 -5 -1 13.6 8.7
-5 -5 -1 0.5 8.6
6 -5 1 20.2 15.2
-6 -5 -1 -9.4 10.5
-6 -5 -1 8.9 10
-6 -5 -1 21.1 12
-13 0 2 75.09 17
-13 0 2 85.29 10.8
13 0 -2 78.19 12
-13 0 2 90.29 14.7
12 0 -2 141.89 15.6
-12 0 2 143.69 13
12 0 -2 129.69 14.1
-12 0 2 178.78 21.3
-12 0 2 149.59 10.6
-12 0 2 169.18 17.6
-11 0 2 26.9 6.2
-11 0 2 24.2 5
11 0 -2 22.5 7.4
11 0 -2 31.2 7.4
-11 0 2 18.8 11.3
-11 0 2 44.2 9.7
11 0 -2 25.6 8.1
-11 0 2 36.4 9.2
-10 0 2 567.64 22.1
-10 0 2 526.95 23.8
10 0 -2 533.95 19.8
-10 0 2 531.45 16.6
10 0 -2 546.65 19.1
10 0 -2 544.15 19.8
-10 0 2 519.55 21.9
-10 0 2 542.35 17.1
-9 0 2 445.56 18.7
-9 0 2 463.05 18.5
9 0 -2 485.25 17.5
-9 0 2 469.85 14.7
9 0 -2 492.75 17.2
-9 0 2 480.45 20.4
9 0 -2 460.55 16.2
-9 0 2 473.15 14.7
-8 0 2 461.85 16.9
-8 0 2 473.35 14
-8 0 2 455.95 17.7
-8 0 2 446.16 17.5
8 0 -2 472.65 15.6
8 0 -2 462.75 15
8 0 -2 429.36 18.2
-8 0 2 448.56 13.9
-7 0 2 603.34 15.8
-7 0 2 589.84 19.4
7 0 -2 629.04 17.4
7 0 -2 611.54 18.3
-7 0 2 587.24 16
7 0 -2 607.84 17
-6 0 2 59.99 7
6 0 -2 82.39 6.7
-6 0 2 68.49 5.2
-6 0 2 69.49 4.6
6 0 -2 79.09 5.5
-6 0 2 65.89 6.4
6 0 -2 67.79 5
6 0 -2 72.39 4.7
5 0 -2 1507.55 31
-5 0 2 1566.24 31.1
5 0 -2 1574.04 31.9
5 0 -2 1549.84 32
-5 0 2 1523.85 31.4
5 0 -2 1620.74 33.9
-5 0 2 1512.75 34.3
-5 0 2 1560.84 33.4
-4 0 2 64.99 4.5
-4 0 2 57.89 5.9
4 0 -2 73.29 5.5
4 0 -2 65.79 3.9
4 0 -2 57.99 3.3
4 0 -2 64.49 3.7
-4 0 2 59.09 3.4
-4 0 2 69.69 4.1
3 0 -2 3820.22 70.39
-3 0 2 3944.71 71.69
3 0 -2 3867.71 70.59
-3 0 2 3998 71.59
3 0 -2 3896.11 70.99
-3 0 2 3843.62 70.49
3 0 -2 3990 72.29
-3 0 2 3916.71 72.89
-3 0 2 3920.91 70.29
2 0 -2 1991.4 36.7
-2 0 2 2065.49 38.5
-2 0 2 1984.5 36.6
2 0 -2 2084.79 37.8
2 0 -2 2042.7 37.3
-2 0 2 1837.72 36.6
-2 0 2 2112.29 37.7
2 0 -2 1959.8 36.7
1 0 -2 3096.19 55.69
-1 0 2 3150.68 55.79
-1 0 -2 1041.3 19
1 0 2 1036.1 18.5
1 0 2 980 18.9
-1 0 -2 920.51 19.2
1 0 2 1014.1 18.7
1 0 2 1034.3 19
-1 0 -2 1024.5 18.4
-2 0 -2 330.37 7.7
2 0 2 325.87 7.9
-2 0 -2 318.17 7.5
2 0 2 310.17 7.6
2 0 2 295.97 8
4 0 2 192.08 8.3
-4 0 -2 176.08 6.2
4 0 2 202.08 7.4
-4 0 -2 187.78 6.1
-4 0 -2 175.28 7.2
-4 0 -2 187.38 6.9
4 0 2 192.28 6.7
5 0 2 9952.4 177.68
-5 0 -2 9557.74 177.48
5 0 2 9996.4 176.68
-5 0 -2 9999 176.78
-5 0 -2 9821.72 174.78
5 0 2 9741.13 175.98
-6 0 -2 -3.5 1.6
-6 0 -2 0.5 2.8
-6 0 -2 2.2 2.7
6 0 2 0 2
-6 0 -2 1.4 1.9
6 0 2 0.5 3
6 0 2 6.4 4.6
7 0 2 1410.56 32.6
-7 0 -2 1402.76 33.2
7 0 2 1369.36 31.4
7 0 2 1445.26 34.1
-7 0 -2 1373.66 29.9
-7 0 -2 1352.76 33.5
-7 0 -2 1379.66 30.2
-8 0 -2 108.79 9.4
8 0 2 109.39 8.1
8 0 2 131.69 9.6
-8 0 -2 116.29 10.5
-8 0 -2 111.69 7
-8 0 -2 114.59 7.3
8 0 2 131.59 10.7
-9 0 -2 2257.37 52.59
-9 0 -2 2218.48 52.19
-9 0 -2 2254.07 47.4
-9 0 -2 2262.17 46.7
9 0 2 2264.27 49.7
9 0 2 2207.48 49.2
9 0 2 2327.07 50.69
10 0 2 21 7
-10 0 -2 25 7.4
10 0 2 18.1 6.7
10 0 2 25.2 6.6
-10 0 -2 23.6 5.1
-10 0 -2 15 9.7
-10 0 -2 22.2 5.3
-11 0 -2 1343.17 33.2
11 0 2 1383.96 36.8
-11 0 -2 1411.56 34.3
11 0 2 1381.96 36.1
-11 0 -2 1325.67 39.6
-11 0 -2 1412.56 31.1
-12 0 -2 25.2 10.3
-12 0 -2 39 7.4
12 0 2 27.3 10
12 0 2 37.7 9.8
-12 0 -2 33.9 5.7
-12 0 -2 40.6 8.6
-13 0 -2 3.7 6.3
13 0 2 -2.3 10.5
-13 0 -2 24 12.5
-13 0 -2 -8.1 8.3
13 -1 -2 264.17 21.2
-13 -1 2 290.67 15.9
-13 -1 2 297.17 23.3
13 1 -2 223.18 20.6
-13 1 2 238.48 25.1
-13 1 2 264.87 15.9
13 1 -2 192.98 19.7
-12 -1 2 11.4 8.6
-12 -1 2 18.7 5.6
-12 -1 2 -18.7 11.3
12 -1 -2 -1.2 7.8
-12 -1 2 16.5 8.8
-12 1 2 3.1 5.4
12 1 -2 -6 7.9
-12 1 2 6.8 5.2
-12 1 2 -6 12.2
12 1 -2 -6.2 7.8
-12 1 2 7.9 9.8
-11 -1 2 140.19 14.2
11 -1 -2 117.99 16
-11 -1 2 137.99 14.2
-11 -1 2 153.88 10.9
11 -1 -2 129.69 12.7
11 -1 -2 124.39 13
-11 -1 2 124.09 13.3
-11 1 2 126.09 7.9
-11 1 2 156.98 16.5
-11 1 2 133.39 16.7
-11 1 2 127.59 9.6
11 1 -2 131.39 12.5
11 1 -2 118.09 12.6
11 1 -2 124.99 15.2
-10 -1 2 81.09 9
-10 -1 2 105.79 12.4
-10 -1 2 92.89 11.1
-10 -1 2 84.09 11.4
10 -1 -2 86.99 10.7
10 -1 -2 92.69 14.3
10 -1 -2 79.09 10
-10 -1 2 83.69 11.2
10 1 -2 76.99 11.6
-10 1 2 81.99 6.3
-10 1 2 88.69 10.9
-10 1 2 82.59 12.7
10 1 -2 84.09 9.6
-10 1 2 93.39 7.4
10 1 -2 92.49 10.2
-10 1 2 70.49 13
9 -1 -2 61.79 7.5
-9 -1 2 84.79 9.6
9 -1 -2 62.49 8.1
-9 -1 2 72.39 9.6
9 -1 -2 65.09 12.3
-9 -1 2 63.19 8.3
-9 -1 2 56.29 7.2
-9 -1 2 62.19 9.7
9 1 -2 56.49 7.4
-9 1 2 66.59 5.1
-9 1 2 70.69 6
9 1 -2 77.09 9.5
-9 1 2 37.7 9.5
-9 1 2 60.19 8.2
9 1 -2 63.89 7.9
-9 1 2 77.69 11.2
-8 -1 2 122.89 9.7
-8 -1 2 104.99 9.5
-8 -1 2 97.39 8.3
8 -1 -2 97.09 8.3
-8 -1 2 116.19 11.6
-8 -1 2 118.19 9.2
8 -1 -2 112.19 14.5
8 1 -2 105.99 7.6
8 1 -2 111.49 9.1
-8 1 2 104.39 5.2
-8 1 2 101.09 6.2
-8 1 2 82.29 9.1
-8 1 2 89.19 10.3
-8 1 2 103.99 12.3
8 1 -2 107.59 7.9
7 -1 -2 14.1 3.6
-7 -1 2 17.7 4.1
-7 -1 2 8.8 3.7
-7 -1 2 16.7 6
-7 -1 2 13.8 4.2
-7 -1 2 17 4.4
7 -1 -2 18.4 3.9
7 -1 -2 23.2 8.8
-7 1 2 11.6 4.1
-7 1 2 11.3 5.2
7 1 -2 10.8 3.6
-7 1 2 13.4 2.9
7 1 -2 12.9 3.5
7 1 -2 15.1 3.5
-7 1 2 13.7 2.3
-7 1 2 12.3 5.4
6 -1 -2 56.79 3.3
6 -1 -2 55.29 5.7
-6 -1 2 56.59 5.4
-6 -1 2 58.89 5.5
6 -1 -2 70.49 5.7
6 -1 -2 65.09 10.1
-6 1 2 57.29 3.9
6 1 -2 65.69 5
6 1 -2 60.69 5.7
-6 1 2 48.7 6.8
6 1 -2 58.09 4.8
-6 1 2 55.99 3.1
-6 1 2 54.89 7.3
-6 1 2 54.19 5.9
5 -1 -2 1946.91 37.5
5 -1 -2 1948.91 40.5
5 -1 -2 1882.71 35.6
5 -1 -2 1975 43.1
-5 -1 2 1877.81 39.2
-5 -1 2 1940.61 38.6
-5 -1 2 1892.91 39.3
-5 -1 2 1887.71 39.3
-5 1 2 1895.11 36.8
5 1 -2 1899.41 38.4
5 1 -2 1896.91 38.4
5 1 -2 1880.91 40
-5 1 2 1885.51 42.9
-5 1 2 1938.21 35.2
-5 1 2 1949.01 42.8
-4 -1 2 266.57 9
4 -1 -2 248.78 11
-4 -1 2 254.07 8.2
-4 -1 2 272.97 8.2
4 -1 -2 269.97 6.4
-4 -1 2 272.47 8.7
4 -1 -2 263.57 9.9
-4 -1 2 263.07 8.9
4 -1 -2 268.17 7.3
4 1 -2 270.47 8.2
4 1 -2 260.67 8.9
-4 1 2 257.37 7.1
-4 1 2 260.47 10.8
-4 1 2 247.08 10.6
4 1 -2 263.07 8.3
-4 1 2 268.67 8.9
-4 1 2 257.07 5.9
-3 -1 2 1900.11 36.4
3 -1 -2 1997.1 39.4
3 -1 -2 1880.81 34.8
-3 -1 2 1872.21 36.5
-3 -1 2 1872.31 37.6
-3 -1 2 1938.21 36.1
3 -1 -2 1900.41 39.4
-3 -1 2 1888.41 37.3
3 1 -2 1865.01 37.4
-3 1 2 1857.21 34.1
-3 1 2 1889.61 40.1
-3 1 2 1996.9 40
3 1 -2 1887.11 36.2
-3 1 2 1850.51 35.2
3 1 -2 1893.21 36.8
-2 -1 2 808.62 17.4
2 -1 -2 816.82 19.2
-2 -1 2 831.02 16.4
-2 -1 2 815.62 16.5
2 -1 -2 841.52 19.5
-2 -1 2 821.12 17.7
2 -1 -2 818.22 15.6
2 1 -2 813.52 16.7
2 1 -2 808.32 17.7
-2 1 2 803.92 16.9
-2 1 2 818.82 15.3
-2 1 2 798.32 19.5
-2 1 2 762.82 16.2
2 1 -2 834.92 17.8
-2 1 2 833.22 19.6
1 -1 -2 6746.23 118.19
-1 1 2 6331.97 117.89
0 -1 -2 97.59 4.2
0 -1 2 81.29 4
0 -1 2 96.99 4.3
0 -1 2 96.49 3.4
0 -1 2 97.79 2.8
0 -1 -2 98.79 2.6
0 -1 -2 101.19 3.3
0 1 2 97.19 4.3
0 1 -2 99.09 3.5
0 1 -2 94.09 2.7
0 1 2 100.99 2.5
0 1 -2 94.79 4.3
2 -1 2 25.2 2.7
2 -1 2 24.1 3.7
-2 -1 -2 25.2 2
-2 -1 -2 33.5 2.8
2 -1 2 27.4 2.3
-2 -1 -2 31.3 2.7
-2 1 -2 25.5 3.4
2 1 2 28.2 2.6
-2 1 -2 26.9 2.5
-2 1 -2 31.2 3.6
2 1 2 28.8 2.7
-3 -1 -2 24.9 3.3
-3 -1 -2 25.2 2.9
3 -1 2 18.9 3.5
-3 -1 -2 23.2 2
3 -1 2 21.1 2.2
3 -1 2 20.6 2.6
-3 1 -2 20.5 3.3
3 1 2 23.1 2.9
3 1 2 21.8 1.9
-3 1 -2 20.5 2.5
3 1 2 23.6 3.2
-3 1 -2 28.9 4.4
-4 -1 -2 163.38 7.1
-4 -1 -2 173.28 6.9
4 -1 2 169.08 6.9
4 -1 2 164.08 5.9
-4 -1 -2 170.98 6.8
4 -1 2 154.58 8.5
-4 -1 -2 169.98 7.5
-4 1 -2 169.18 6.4
4 1 2 161.58 5.3
4 1 2 169.18 7.2
-4 1 -2 161.18 8.7
4 1 2 164.48 6.8
-4 1 -2 166.68 8.2
-5 -1 -2 631.34 16.1
5 -1 2 592.14 18.6
5 -1 2 622.14 15.1
-5 -1 -2 607.64 16.5
-5 -1 -2 627.54 16.6
-5 -1 -2 607.24 16
5 -1 2 607.04 15.9
5 1 2 617.64 17
5 1 2 615.34 14.3
5 1 2 614.74 16.4
-5 1 -2 596.64 13.9
-5 1 -2 625.64 15.5
-5 1 -2 626.54 19.4
-5 1 -2 633.24 18.2
-5 1 -2 563.94 12.5
-6 -1 -2 208.78 9.3
-6 -1 -2 184.18 9.1
-6 -1 -2 200.58 9.3
6 -1 2 191.78 11.8
6 -1 2 215.08 9
6 -1 2 205.18 8.8
-6 -1 -2 217.08 9.8
-6 1 -2 203.88 5.1
-6 1 -2 204.08 11.3
-6 1 -2 191.58 10.8
-6 1 -2 196.78 5.6
-6 1 -2 198.38 8
6 1 2 199.08 7.4
6 1 2 197.38 9.1
7 -1 2 0.9 3.6
7 -1 2 -0.6 3.3
7 -1 2 -1 7.5
-7 -1 -2 -1.9 3.4
-7 -1 -2 -1.5 3.1
-7 -1 -2 -3.1 3.1
-7 -1 -2 1.7 6.3
7 1 2 0.3 3.3
-7 1 -2 0.5 1.2
-7 1 -2 -1.1 2
-7 1 -2 1.2 1.6
-7 1 -2 -3.2 4.5
7 1 2 -3.8 2.9
-7 1 -2 -1.8 3.5
7 1 2 1.3 2.3
-8 -1 -2 105.89 8.9
-8 -1 -2 89.69 7.9
8 -1 2 97.89 9.2
8 -1 2 87.89 13.4
-8 -1 -2 91.19 7.8
8 -1 2 98.69 8.1
-8 -1 -2 88.49 8.9
-8 1 -2 99.69 4.1
-8 1 -2 92.89 6.9
8 1 2 107.09 9.3
-8 1 -2 96.99 11.6
-8 1 -2 99.49 10.6
8 1 2 91.29 8.2
8 1 2 99.59 6.7
-8 1 -2 96.99 5
-9 -1 -2 231.38 12.4
9 -1 2 233.88 13.4
-9 -1 -2 223.78 12.3
9 -1 2 218.78 18.2
9 -1 2 227.98 12.1
-9 -1 -2 217.28 12.9
-9 -1 -2 196.38 13.8
9 1 2 230.08 14.4
-9 1 -2 234.48 7
-9 1 -2 213.48 16.9
-9 1 -2 245.88 11.1
-9 1 -2 231.68 15.6
-9 1 -2 218.58 7.9
9 1 2 218.58 10.5
9 1 2 235.88 13.7
10 -1 2 37.7 12.2
10 -1 2 41 7.6
-10 -1 -2 51.09 8.2
-10 -1 -2 40.9 10.1
-10 -1 -2 53.99 7.4
10 -1 2 34.5 7.8
-10 -1 -2 64.59 9.1
10 1 2 42.3 7.9
-10 1 -2 39.5 13
-10 1 -2 45.3 5.8
-10 1 -2 46.8 10.1
10 1 2 44.9 6.7
-10 1 -2 56.39 7.8
-10 1 -2 39.6 4.1
10 1 2 39.1 8.7
11 -1 2 13 9.9
-11 -1 -2 38.9 6.5
11 -1 2 35.4 8
-11 -1 -2 23.9 8.6
-11 -1 -2 26.4 9
11 -1 2 2.1 13.8
11 1 2 30.3 7.6
-11 1 -2 32.4 4.8
-11 1 -2 32.8 6.2
-11 1 -2 27.4 11
11 1 2 23.7 8.4
-11 1 -2 30.4 3.6
-12 -1 -2 19 6.3
-12 -1 -2 6 6.5
12 -1 2 12.5 9.3
-12 -1 -2 25.1 9.9
-12 -1 -2 -8.8 9.7
-12 1 -2 19.9 11.7
12 1 2 8.5 8.9
12 1 2 18.8 10.1
-12 1 -2 -1.8 3.4
-12 1 -2 19.2 7.5
-12 1 -2 8.3 18.6
-13 -1 -2 610.74 30.2
-13 -1 -2 668.43 24.4
-13 -1 -2 628.04 22.9
13 -1 2 583.24 27.5
13 1 2 559.74 28.9
-13 1 -2 627.14 34.2
-13 1 -2 656.93 25.5
-12 -2 2 206.68 16.1
12 -2 -2 200.98 18.4
-12 -2 2 267.57 19.8
-12 2 2 224.58 16
12 2 -2 166.68 19
-12 2 2 182.08 24.8
12 2 -2 195.28 19.7
11 -2 -2 29.9 9.4
-11 -2 2 62.79 10
11 -2 -2 45.1 9.7
-11 -2 2 93.49 13.7
11 2 -2 56.19 9.8
-11 2 2 66.69 13.9
11 2 -2 49.7 10.6
-11 2 2 45.2 7.8
-10 -2 2 567.84 23
-10 -2 2 538.15 22.6
10 -2 -2 551.64 20.2
10 -2 -2 546.85 21.2
10 -2 -2 453.15 29
-10 -2 2 544.45 22.8
-10 -2 2 524.65 23.5
-10 -2 2 554.24 21.3
-10 2 2 578.24 27.9
-10 2 2 558.64 33
-10 2 2 528.65 22.9
10 2 -2 544.45 19.9
-10 2 2 557.64 18.9
10 2 -2 537.25 21.1
9 -2 -2 3632.14 81.99
9 -2 -2 3721.73 71.39
-9 -2 2 3521.65 73.79
-9 -2 2 3566.54 74.19
-9 -2 2 3536.35 73.29
9 -2 -2 3527.55 73.99
-9 -2 2 3552.84 74.19
-9 -2 2 3488.25 74.89
-9 2 2 3519.45 70.79
9 2 -2 3187.88 80.29
-9 2 2 3521.55 82.49
9 2 -2 3592.04 72.09
-9 2 2 3562.84 82.59
-9 2 2 3612.64 75.19
8 -2 -2 426.46 17.3
-8 -2 2 430.36 18.3
-8 -2 2 422.96 16.9
8 -2 -2 430.76 14.7
-8 -2 2 426.06 16.5
-8 -2 2 445.16 17.3
8 -2 -2 453.95 23.1
-8 -2 2 452.45 16.7
-8 2 2 411.16 21.1
-8 2 2 445.36 14.7
-8 2 2 434.46 23.1
-8 2 2 422.46 17.5
8 2 -2 414.26 16.2
8 2 -2 437.56 15.8
-7 -2 2 1870.01 41.9
-7 -2 2 1978.7 41.8
7 -2 -2 1959.2 44.3
-7 -2 2 1899.21 41.8
-7 -2 2 1869.41 43.1
7 -2 -2 1911.21 48.5
7 -2 -2 1945.51 39.6
-7 -2 2 1888.11 43.3
7 2 -2 1930.31 41.8
-7 2 2 1931.21 49.6
-7 2 2 1890.31 40.4
-7 2 2 1885.31 48.6
7 2 -2 1931.91 42.5
-7 2 2 1855.41 42.6
-6 -2 2 24.8 4.6
-6 -2 2 19.1 4.7
-6 -2 2 23.3 4.1
6 -2 -2 24.8 3.6
6 -2 -2 25.9 5.8
-6 -2 2 27.7 4.6
6 -2 -2 29.5 7.6
6 2 -2 25.8 4.6
-6 2 2 24.7 3.9
6 2 -2 27.8 4.6
-6 2 2 25.1 7.6
-6 2 2 29.2 7.2
-5 -2 2 169.68 8.8
5 -2 -2 166.88 10
-5 -2 2 177.58 7.8
-5 -2 2 169.58 7.6
5 -2 -2 164.68 6.2
-5 2 2 161.78 8.1
-5 2 2 177.68 12
-5 2 2 172.08 7.4
5 2 -2 169.38 8.2
5 2 -2 166.78 8.5
-5 2 2 165.58 11.3
-4 -2 2 10.7 2.6
4 -2 -2 14.2 1.6
-4 -2 2 15.1 3.9
-4 -2 2 9.8 2.5
-4 -2 2 8.3 3.1
4 -2 -2 8.6 4.2
4 -2 -2 1.5 4
4 -2 -2 7.6 1.8
-4 -2 2 12.7 2.7
4 2 -2 10 2.8
-4 2 2 7.3 2.8
-4 2 2 10.5 4
-4 2 2 9 4.5
-4 2 2 10 2.3
3 -2 -2 943.11 20.1
3 -2 -2 977.4 26.1
3 -2 -2 967.8 18.6
-3 -2 2 978.2 22.4
-3 -2 2 993.1 23.9
3 -2 -2 982.6 25.7
-3 -2 2 974.3 20.1
-3 -2 2 1004.9 23.4
-3 -2 2 974.9 21.3
3 2 -2 970.5 22.3
-3 2 2 966.1 21.8
-3 2 2 977.2 21
-3 2 2 973 26.9
-3 2 2 971.4 25.5
-2 -2 2 512.15 14.4
-2 -2 2 531.75 11.1
2 -2 -2 531.65 12.7
-2 -2 2 531.25 13
2 -2 -2 516.25 11.2
2 -2 -2 516.65 16.8
-2 -2 2 536.75 14.3
2 -2 -2 541.25 16.6
-2 2 2 509.25 13.5
-2 2 2 516.05 17
-2 2 2 517.15 11.6
-1 -2 2 1625.94 32.4
1 -2 -2 1597.04 36
-1 -2 2 1600.94 29.4
-1 -2 2 1634.74 33.1
1 -2 -2 1666.63 32.9
-1 -2 2 1659.73 35.4
1 -2 -2 1614.64 31.1
1 -2 -2 1636.24 36.3
0 -2 -2 666.73 16.7
0 -2 -2 670.23 12.7
0 -2 2 661.63 16.9
0 -2 2 680.03 17.6
0 -2 -2 668.33 15.1
0 -2 2 673.73 15.5
0 -2 -2 681.53 18.4
1 -2 2 651.53 17.3
-1 -2 -2 685.03 17.9
-1 -2 -2 651.13 16.8
1 -2 2 675.83 14.7
1 -2 2 693.93 17.1
-1 -2 -2 675.13 12.7
1 -2 2 684.23 20.1
-1 -2 -2 671.53 16.5
-1 2 -2 649.83 17.7
-1 2 -2 689.83 13.5
-2 -2 -2 19.9 3.4
2 -2 2 13.6 4.2
-2 -2 -2 17.3 2.5
2 -2 2 25.1 3.4
2 -2 2 17.9 3.4
2 -2 2 18.1 2.1
-2 -2 -2 20.3 3.2
-2 2 -2 18.1 2.2
-2 2 -2 14.2 3.5
-2 2 -2 25.4 3.8
-3 -2 -2 1229.78 27.3
-3 -2 -2 1193.78 26.7
-3 -2 -2 1185.98 24.9
3 -2 2 1220.08 31.5
3 -2 2 1203.18 27.9
3 -2 2 1214.38 25.9
-3 -2 -2 1241.78 28
3 2 2 1193.78 28
-3 2 -2 1198.78 27.7
-3 2 -2 1212.48 29.3
4 -2 2 9.9 3.2
-4 -2 -2 11.9 3.2
4 -2 2 11.7 2.5
-4 -2 -2 16.6 2.5
-4 -2 -2 19.3 3.5
-4 -2 -2 16.3 3.6
4 -2 2 18.9 5.6
-4 2 -2 7.3 4
4 2 2 14.7 3.3
-4 2 -2 17 4.7
-4 2 -2 14 3
5 -2 2 179.48 7.2
-5 -2 -2 166.38 12.9
-5 -2 -2 180.18 9.4
5 -2 2 156.88 11.6
5 -2 2 168.18 8.9
-5 -2 -2 167.08 6.7
-5 -2 -2 180.38 9.5
5 2 2 176.78 9.2
-5 2 -2 180.58 11.8
-5 2 -2 163.28 8.4
-5 2 -2 167.88 11.5
-6 -2 -2 30.8 5.7
-6 -2 -2 35.6 5.6
6 -2 2 19.5 6.7
-6 -2 -2 25.6 4.6
6 -2 2 28.8 5
-6 -2 -2 47.1 6.9
6 2 2 28 5
-6 2 -2 21.2 4.2
-6 2 -2 20.4 5.9
6 2 2 28.2 5.1
6 2 2 30.4 4.7
-6 2 -2 30.5 8.3
7 -2 2 76.99 6.6
-7 -2 -2 70.59 9.2
-7 -2 -2 76.59 8.6
7 -2 2 92.39 11.7
-7 -2 -2 74.39 8.5
-7 -2 -2 66.19 8.3
7 -2 2 67.19 7.9
-7 2 -2 75.19 11.2
7 2 2 60.29 8.6
7 2 2 77.19 8.4
7 2 2 75.29 6.3
-7 2 -2 77.89 10.8
-7 2 -2 67.69 6.9
8 -2 2 84.69 12.4
-8 -2 -2 47.1 7.9
8 -2 2 75.59 9
-8 -2 -2 67.29 8.5
8 -2 2 60.89 8.3
-8 -2 -2 61.99 8.7
-8 -2 -2 64.89 9.8
8 2 2 64.39 8.3
-8 2 -2 74.09 7.9
-8 2 -2 68.29 12.6
8 2 2 58.99 6.9
8 2 2 67.69 9.9
-8 2 -2 75.79 11.7
-9 -2 -2 704.23 23.2
-9 -2 -2 697.33 21.2
9 -2 2 741.13 23.5
-9 -2 -2 672.53 24
9 -2 2 721.63 31
-9 -2 -2 748.63 25.6
9 -2 2 705.23 22.7
-9 2 -2 735.63 23
-9 2 -2 733.73 29.8
-9 2 -2 712.33 32.2
9 2 2 748.33 20.6
9 2 2 755.22 25.1
-10 -2 -2 19.1 6.1
10 -2 2 -17.3 12.5
10 -2 2 -10.1 7.2
-10 -2 -2 -9.7 9.3
10 -2 2 3.6 6.6
-10 -2 -2 -2.1 5.4
-10 2 -2 4.4 9
10 2 2 7 5.9
-10 2 -2 11 6.2
10 2 2 17.4 8.5
-10 2 -2 -2.6 17
-11 -2 -2 226.38 15.5
11 -2 2 211.48 16.3
-11 -2 -2 199.68 14.1
-11 2 -2 206.58 15.5
11 2 2 157.28 14.2
-11 2 -2 149.19 22.5
11 2 2 216.08 19
12 -2 2 3.6 10.9
-12 -2 -2 9.8 6.4
-12 -2 -2 8.7 8.1
-12 2 -2 6.3 13.6
12 2 2 -2.3 11.7
-12 2 -2 0.7 8.5
-11 -3 2 64.49 16.8
-11 -3 2 61.19 12.1
11 -3 -2 63.39 12.8
-11 3 2 109.39 21.2
-11 3 2 93.69 12.1
11 3 -2 84.99 15.4
10 -3 -2 173.78 17.4
-10 -3 2 136.79 17.8
-10 -3 2 139.29 15.6
10 -3 -2 129.09 14.9
-10 3 2 169.98 16.9
10 3 -2 138.19 17.5
-10 3 2 201.78 24.4
9 -3 -2 16 8.4
-9 -3 2 13.8 7.3
-9 -3 2 21.5 9.3
9 -3 -2 3.1 6.5
-9 -3 2 -7 8.4
-9 3 2 28.2 11.9
-9 3 2 16.4 6.4
9 3 -2 6 8
-8 -3 2 209.58 14.2
-8 -3 2 205.58 13.6
-8 -3 2 193.58 12.7
-8 -3 2 176.68 14.6
8 -3 -2 218.18 15.7
8 -3 -2 241.48 21.7
8 -3 -2 204.58 10.9
-8 3 2 210.48 12.3
-8 3 2 196.88 24.3
8 3 -2 160.48 18.4
-8 3 2 181.98 13.5
-8 3 2 239.18 20
7 -3 -2 238.18 9.7
-7 -3 2 232.48 13.5
-7 -3 2 229.18 11.4
7 -3 -2 228.68 15.2
-7 -3 2 212.28 11.4
-7 -3 2 246.08 14.9
-7 -3 2 224.78 13
7 -3 -2 267.07 19.5
-7 3 2 210.18 11.6
-7 3 2 253.37 18.9
7 3 -2 228.48 13.6
-7 3 2 213.68 20.8
-7 3 2 236.68 12.2
6 -3 -2 93.09 11.6
-6 -3 2 101.19 9.2
6 -3 -2 137.39 15.7
-6 -3 2 88.29 7.8
-6 -3 2 109.99 12
-6 -3 2 110.79 9.4
6 -3 -2 105.09 6.2
-6 -3 2 100.49 7.8
-6 3 2 104.49 7.9
-6 3 2 90.69 12.8
-6 3 2 108.59 13.9
-6 3 2 88.79 8
6 3 -2 100.79 9.6
-5 -3 2 505.05 14.2
5 -3 -2 506.05 13.6
-5 -3 2 553.74 16.3
-5 -3 2 533.15 19.2
5 -3 -2 532.35 22.5
5 -3 -2 489.05 20.4
-5 -3 2 519.05 18.3
-5 -3 2 506.45 16.1
-5 3 2 520.25 16.7
-5 3 2 521.05 22.5
5 3 -2 502.25 17.6
-5 3 2 498.05 15
-5 3 2 511.15 22.9
4 -3 -2 317.37 17.4
-4 -3 2 344.97 12
-4 -3 2 324.67 12.3
4 -3 -2 325.37 16.1
-4 -3 2 341.87 14.7
4 -3 -2 332.37 10.4
-4 -3 2 348.77 9.7
4 -3 -2 329.37 8
-4 -3 2 350.06 14.2
4 -3 -2 338.97 9.1
-4 3 2 347.87 12.8
-4 3 2 335.57 10.5
-4 3 2 361.16 17.9
3 -3 -2 162.38 7.3
-3 -3 2 173.78 9.8
3 -3 -2 160.58 5.4
-3 -3 2 164.88 8.7
3 -3 -2 167.28 11.9
-3 -3 2 163.88 8.2
-3 -3 2 154.68 5.2
3 -3 -2 167.58 12.7
3 -3 -2 163.98 6.8
-3 -3 2 164.28 10
-3 3 2 160.78 5.7
2 -3 -2 537.35 20.7
-2 -3 2 525.45 16.7
2 -3 -2 513.65 14
-2 -3 2 521.75 15
-2 -3 2 536.45 18.5
2 -3 -2 507.15 12.4
2 -3 -2 507.95 19.1
-2 -3 2 520.75 16.6
2 -3 -2 523.75 14.8
-1 -3 2 462.45 16.3
1 -3 -2 422.26 13.1
1 -3 -2 439.06 17.7
1 -3 -2 451.25 17.5
-1 -3 2 428.86 13.4
1 -3 -2 431.26 11.6
-1 -3 2 452.65 15.8
-1 -3 2 439.16 17.9
1 -3 -2 430.96 13.9
-1 -3 2 420.56 13.8
0 -3 2 136.99 8.8
0 -3 -2 137.59 6.4
0 -3 -2 139.49 8.4
0 -3 2 140.09 7.9
0 -3 -2 145.99 8
0 -3 -2 141.89 10.3
0 -3 2 142.49 9.3
0 -3 -2 141.69 10.4
0 -3 2 134.19 7.4
0 -3 -2 148.69 9
1 -3 2 982.3 26
-1 -3 -2 995.2 24.5
-1 -3 -2 967.6 22.4
1 -3 2 977.7 24.7
-1 -3 -2 958.4 25.5
1 -3 2 938.61 29.1
-1 -3 -2 946.71 24
-1 -3 -2 962.7 24.5
1 -3 2 973.5 21.9
-1 -3 -2 976 27
2 -3 2 365.26 10.3
2 -3 2 361.96 12.8
2 -3 2 340.97 14.5
-2 -3 -2 378.36 13.1
-2 -3 -2 352.56 13.6
-2 -3 -2 371.46 14.9
-2 -3 -2 367.36 12.7
2 -3 2 360.66 9.3
2 -3 2 377.06 17.8
-2 3 -2 378.76 14.5
-2 3 -2 362.96 8.3
-2 3 -2 358.76 8.6
3 -3 2 29.4 7.7
-3 -3 -2 28.6 4.6
-3 -3 -2 22.6 4.9
-3 -3 -2 26.3 3.3
-3 -3 -2 27.3 4.8
3 -3 2 25.5 3.1
-3 -3 -2 23.4 4.3
3 -3 2 26.5 6.1
3 -3 2 25.8 2.3
-3 -3 -2 26.2 5.6
-3 -3 -2 25.9 2.7
3 -3 2 30.5 4.4
-3 3 -2 26.9 3.3
-3 3 -2 24.4 5.1
-3 3 -2 25.7 3.2
-4 -3 -2 816.12 22.6
4 -3 2 780.12 27.8
4 -3 2 758.42 20.3
-4 -3 -2 810.02 21.8
-4 -3 -2 801.12 23.9
-4 -3 -2 791.42 19.8
4 -3 2 791.32 23.4
-4 3 -2 783.12 23.2
-4 3 -2 762.62 18.7
-4 3 -2 785.12 19.5
-5 -3 -2 292.67 13
5 -3 2 268.07 13.7
-5 -3 -2 286.57 15.1
5 -3 2 295.57 10.9
-5 -3 -2 280.67 10.2
-5 -3 -2 291.07 13.2
5 -3 2 286.17 17.8
-5 3 -2 290.87 13.5
-5 3 -2 283.67 11.2
-5 3 -2 292.07 17.1
6 -3 2 596.04 20.6
-6 -3 -2 621.14 22.6
6 -3 2 615.24 26
6 -3 2 632.54 17.3
-6 -3 -2 621.44 20.2
-6 -3 -2 592.64 16.6
-6 -3 -2 600.74 20.8
-6 3 -2 606.04 20.7
-6 3 -2 592.54 18.6
-6 3 -2 618.34 26.1
6 3 2 606.94 21.9
7 -3 2 45.7 11.8
-7 -3 -2 19.3 6
7 -3 2 20 6.7
-7 -3 -2 20.4 6.5
7 -3 2 32.9 5
-7 -3 -2 16.8 5.4
-7 -3 -2 20.5 6.9
-7 -3 -2 13.5 8.6
-7 3 -2 16 5.5
-7 3 -2 36 12.3
-7 3 -2 13.7 5.6
7 3 2 17.2 7.1
8 -3 2 388.96 15.1
-8 -3 -2 371.46 19
8 -3 2 489.35 33.8
-8 -3 -2 348.97 16.5
-8 -3 -2 366.46 18.4
8 -3 2 387.76 17.8
-8 3 -2 391.66 28.6
8 3 2 404.96 19.6
-8 3 -2 373.46 17.9
-8 3 -2 365.46 17.8
9 -3 2 342.07 16.7
-9 -3 -2 321.17 16.2
9 -3 2 305.67 17.9
-9 -3 -2 334.37 18.5
9 3 2 342.57 20.2
-9 3 -2 326.47 18.3
-10 -3 -2 264.07 14.1
-10 -3 -2 186.38 17.1
10 -3 2 227.68 18.5
10 3 2 193.08 20.6
-10 3 -2 198.18 17.4
-11 -3 -2 8 8.7
-11 -3 -2 28.7 10
11 -3 2 21.8 11.9
11 3 2 29.8 14
-11 3 -2 22.8 11.5
9 -4 -2 12.5 12.9
-9 -4 2 4.3 9.7
-9 -4 2 -2.4 12
-9 4 2 6.9 12.2
8 -4 -2 30.4 7.2
-8 -4 2 18.5 8.2
-8 -4 2 5.1 7.8
8 -4 -2 18.8 11.4
-8 4 2 17.3 9.2
-8 4 2 11.6 8
-7 -4 2 15.9 9.2
7 -4 -2 6.9 10.3
-7 -4 2 7.4 6.3
-7 -4 2 9.9 6.9
-7 4 2 12.3 6
-7 4 2 9.3 7.2
6 -4 -2 -0.7 4.1
-6 -4 2 1.5 5.8
-6 -4 2 3 5.3
-6 -4 2 4 7.5
6 -4 -2 7.5 9.8
-6 4 2 -1.4 4.3
5 -4 -2 38.9 10.7
5 -4 -2 25.7 4.8
5 -4 -2 56.39 13.3
-5 -4 2 21.7 6.3
-5 -4 2 26 7.5
-5 -4 2 18.7 5.6
-5 -4 2 20.7 10.3
-5 -4 2 20 8.5
-5 -4 2 18.1 3.5
-5 4 2 22.6 3.5
-5 4 2 21.8 3.8
-4 -4 2 -6.3 5.4
4 -4 -2 2.5 3.9
-4 -4 2 -0.7 7.6
4 -4 -2 -0.7 8.8
-4 -4 2 0.5 4.6
-4 -4 2 -4.4 4.8
-4 -4 2 -3.4 6.3
4 -4 -2 -2 2.2
4 -4 -2 -2.3 3.5
4 -4 -2 23.7 10.6
-3 -4 2 66.19 8.8
3 -4 -2 66.89 7.6
-3 -4 2 72.19 9.3
3 -4 -2 53.99 11.3
3 -4 -2 60.69 4.9
3 -4 -2 92.59 13.8
-3 -4 2 83.79 11.6
3 -4 -2 69.29 7.4
-3 -4 2 83.89 12.7
-3 -4 2 79.79 10.2
-3 -4 2 75.99 9.6
-2 -4 2 14.7 6.8
-2 -4 2 21.9 6.1
2 -4 -2 20.6 3.3
-2 -4 2 21.8 6
-2 -4 2 22.2 7.6
2 -4 -2 20.6 5.2
-2 -4 2 14.2 5.5
2 -4 -2 12.3 8.3
-2 -4 2 31.9 9.8
-2 -4 2 23.3 6.1
2 -4 -2 18.1 5.1
2 -4 -2 20.6 9.5
-1 -4 2 49 7.5
-1 -4 2 44.9 10.7
1 -4 -2 45 5.5
1 -4 -2 45 10.2
1 -4 -2 52.09 8.8
1 -4 -2 50.29 10.1
-1 -4 2 43.7 7
1 -4 -2 46 6.8
-1 -4 2 55.89 8.9
-1 -4 2 40.5 6.7
1 -4 -2 42.8 7
-1 -4 2 52.19 8.4
0 -4 2 28.5 7.7
0 -4 -2 37.6 9.5
0 -4 2 26.5 5.8
0 -4 -2 26.6 6.8
0 -4 2 31 6.4
0 -4 -2 32.5 6.8
0 -4 -2 34.3 6.6
0 -4 -2 41.2 8.9
0 -4 -2 27.9 4.6
0 -4 2 25.3 9.4
0 -4 -2 27.2 5.5
0 -4 2 30.8 7
1 -4 2 0.9 8.6
-1 -4 -2 0.5 7.5
-1 -4 -2 -9.9 5.6
1 -4 2 2.6 2.8
1 -4 2 11.9 5.7
-1 -4 -2 0.8 4.2
-1 -4 -2 0.6 4
1 -4 2 7.7 6.8
-1 -4 -2 0.6 5.3
1 -4 2 -1.1 5.4
-1 -4 -2 -1.9 5.6
-1 -4 -2 3.9 3.2
1 -4 2 -2.6 4.2
-1 -4 -2 6.6 7.4
2 -4 2 52.39 7.1
2 -4 2 55.69 12.9
2 -4 2 47.2 9
2 -4 2 40.2 4.8
2 -4 2 43.9 6.9
-2 -4 -2 47.2 8.1
-2 -4 -2 49.99 7.2
-2 -4 -2 54.39 10
-2 -4 -2 44.8 6.9
-2 -4 -2 60.69 9
-2 -4 -2 56.79 9.1
-2 -4 -2 48.7 6.2
3 -4 2 691.93 25
-3 -4 -2 657.23 24
-3 -4 -2 692.63 22.2
3 -4 2 633.14 14.6
-3 -4 -2 661.33 22.1
-3 -4 -2 662.53 25.2
-3 -4 -2 662.73 24.7
-3 -4 -2 660.63 20.4
3 -4 2 652.63 16
3 -4 2 702.33 29.9
3 -4 2 664.13 20.6
-4 -4 -2 149.09 15.6
4 -4 2 190.08 20.9
-4 -4 -2 144.09 10.8
-4 -4 -2 151.68 15.8
4 -4 2 158.88 14.9
-4 -4 -2 148.79 9.8
4 -4 2 153.28 10.4
-4 -4 -2 148.39 13.1
-4 -4 -2 142.29 14
-4 4 -2 141.79 6.1
-4 4 -2 148.99 5.7
-5 -4 -2 174.78 14.5
-5 -4 -2 151.28 7.9
-5 -4 -2 176.88 15.5
-5 -4 -2 160.38 7.1
-5 -4 -2 180.58 12.1
5 -4 2 183.58 11.1
5 -4 2 185.88 15.7
-5 -4 -2 227.38 21
-5 -4 -2 167.28 10.2
-5 -4 -2 149.49 12.9
-5 4 -2 161.98 8.1
-5 4 -2 188.28 14.7
-5 4 -2 167.38 9
-6 -4 -2 35.8 9.8
-6 -4 -2 27.6 7.9
6 -4 2 51.69 10.2
-6 -4 -2 33 6.2
-6 -4 -2 37.9 5.4
6 -4 2 60.49 9.2
-6 -4 -2 41.9 10.1
-6 4 -2 31.7 6.1
-6 4 -2 41.9 11
-6 4 -2 38.9 5.4
7 -4 2 22.6 9.8
-7 -4 -2 38.5 8.2
-7 -4 -2 38.1 7.2
-7 -4 -2 33.7 6.8
-7 -4 -2 45.4 10.9
-7 -4 -2 22.3 8.5
-7 4 -2 39.5 6.4
-7 4 -2 40.5 10.2
-7 4 -2 33.1 7.5
-8 -4 -2 61.99 12.6
-8 -4 -2 60.19 10
-8 -4 -2 51.59 10.8
8 -4 2 55.19 12.2
-8 4 -2 50.99 9.9
-8 4 -2 64.89 12.6
-8 4 -2 66.39 8.7
-9 -4 -2 68.19 12.3
9 -4 2 54.09 13.6
-9 -4 -2 31.8 12
-9 4 -2 69.19 14.3
-9 4 -2 45.4 9.4
-6 -5 2 100.59 15.8
6 -5 -2 61.99 18.2
-6 -5 2 65.19 12.2
-5 -5 2 346.87 21.6
-5 -5 2 323.27 19.4
5 -5 -2 316.57 29.3
4 -5 -2 550.14 32.1
-4 -5 2 480.65 23.5
-4 -5 2 499.05 22.1
-4 -5 2 445.06 23.9
-3 -5 2 379.66 20
-3 -5 2 372.26 20.9
-3 -5 2 411.36 26.9
3 -5 -2 420.16 29.3
-3 -5 2 376.36 17.8
-3 -5 2 391.96 21.4
3 -5 -2 401.46 18.1
3 -5 -2 380.46 12.5
-2 -5 2 426.36 27.1
-2 -5 2 429.76 18.1
-2 -5 2 434.96 24.7
-2 -5 2 504.95 22.9
2 -5 -2 409.36 14
2 -5 -2 434.56 28.8
-2 -5 2 410.56 21.5
2 -5 -2 421.66 19.8
-2 -5 2 444.16 22
2 -5 -2 431.06 19.7
-1 -5 2 -5.7 9.5
1 -5 -2 -5.8 11.5
1 -5 -2 -2.2 12.7
1 -5 -2 -0.8 9.2
-1 -5 2 -3.6 5.6
-1 -5 2 4.8 13.1
1 -5 -2 11.5 4.9
-1 -5 2 -2 7.3
-1 -5 2 0.1 10.1
-1 -5 2 -1.9 7.6
1 -5 -2 -1.9 8
1 -5 -2 3.5 8.8
0 -5 -2 32 6.2
0 -5 -2 34.1 11.1
0 -5 2 40.9 10.8
0 -5 -2 48.4 10.6
0 -5 -2 41.3 10.5
0 -5 2 34.3 10.3
0 -5 -2 83.89 17.1
0 -5 2 37 10
0 -5 2 38 11.6
0 -5 -2 47.5 9.2
0 -5 -2 52.69 14.9
0 -5 2 22.5 6.5
0 -5 2 26.8 16
0 -5 -2 55.79 12.6
-1 -5 -2 10.5 18
-1 -5 -2 12.1 5.7
1 -5 2 18.2 9.8
-1 -5 -2 7.3 11.2
1 -5 2 8.5 4.8
-1 -5 -2 11.7 7
1 -5 2 8.7 10.4
-1 -5 -2 1.9 10.9
1 -5 2 6.1 8.5
-1 -5 -2 15.4 8.5
-1 -5 -2 21.4 14.7
1 -5 2 20.2 10.1
1 -5 2 12.8 12.7
-1 -5 -2 16.7 13.7
2 -5 2 54.99 5.6
-2 -5 -2 69.29 15.8
-2 -5 -2 40.9 13
-2 -5 -2 53.69 8.2
2 -5 2 61.99 14.1
-2 -5 -2 60.69 16.5
-2 -5 -2 48.5 8.8
2 -5 2 48.8 12
-2 -5 -2 52.19 10.1
2 -5 2 33.7 10.1
3 -5 2 7.9 12.5
-3 -5 -2 0.6 7.7
3 -5 2 0.9 12.7
-3 -5 -2 15.2 15.3
-3 -5 -2 -0.2 7.4
3 -5 2 6.5 3.8
3 -5 2 21.2 9.3
-3 -5 -2 -2.7 6.8
-3 -5 -2 5.7 14.7
-4 -5 -2 160.38 15.2
4 -5 2 244.28 23.7
-4 -5 -2 204.38 15.3
-4 -5 -2 173.38 17.2
5 -5 2 20.1 13.9
-5 -5 -2 -8.7 8.6
-5 -5 -2 10.4 15.7
-5 -5 -2 -7.1 8.2
-13 0 3 18.7 11.5
-13 0 3 8 5.6
-13 0 3 4 15.3
13 0 -3 1.8 9.1
-13 0 3 6.5 8.9
12 0 -3 1.4 8.6
-12 0 3 -2 8.2
-12 0 3 -3.3 6.8
12 0 -3 10.7 7.9
-12 0 3 -0.8 4.4
-12 0 3 -2.2 11.3
-11 0 3 2.9 3.9
-11 0 3 6.7 10.9
11 0 -3 -1.4 5.9
-11 0 3 1.4 8.3
-11 0 3 2.9 8.3
11 0 -3 -5.1 6.6
-11 0 3 -1 5
11 0 -3 -0.7 6.3
-10 0 3 1.8 5.1
10 0 -3 -4.4 5
-10 0 3 5.1 3.2
10 0 -3 -5.7 4.6
-10 0 3 0.3 6.2
-10 0 3 -2.1 4
10 0 -3 3.3 5.7
-10 0 3 17.2 7.8
9 0 -3 0.6 4.5
-9 0 3 1.4 2.7
-9 0 3 10 6.6
-9 0 3 -0.8 5.1
9 0 -3 3.4 3.7
-9 0 3 -3 4.6
9 0 -3 3.8 3.7
-9 0 3 -0.6 3.3
-8 0 3 -4.1 2.5
8 0 -3 -1 3.8
-8 0 3 -4.1 3.5
-8 0 3 1.2 2.6
-8 0 3 -5.3 4.2
8 0 -3 -2.3 2.7
-8 0 3 -6.6 4.7
8 0 -3 -2.7 3
-7 0 3 -2.9 3.1
-7 0 3 -0.1 2.7
7 0 -3 2.4 3.2
7 0 -3 -0.7 2.2
7 0 -3 1 2
7 0 -3 -0.5 2.5
-7 0 3 -4.8 3.8
-7 0 3 -0.8 3.7
-7 0 3 1.5 2.1
-6 0 3 -1.3 1.6
-6 0 3 -3.5 3.8
6 0 -3 0.2 1.7
6 0 -3 1.9 2.2
-6 0 3 0 2.5
-6 0 3 -0.8 3
-6 0 3 0.8 2.3
6 0 -3 1.7 2.7
6 0 -3 -0.7 1.9
-5 0 3 -1.4 1.8
-5 0 3 4.2 2.1
-5 0 3 1.1 2.1
-5 0 3 0.7 3.9
5 0 -3 -0.3 2.5
5 0 -3 1.1 1.3
5 0 -3 -2.2 1.3
-5 0 3 -1.2 1.2
5 0 -3 1.3 1.6
4 0 -3 0 1.1
-4 0 3 -0.5 1.4
-4 0 3 0.2 1.1
4 0 -3 -0.3 1
4 0 -3 2.2 1.9
-4 0 3 2.7 3.5
4 0 -3 0.1 1.4
-4 0 3 3.2 1.7
-4 0 3 1.9 2.2
3 0 -3 -0.2 0.8
-3 0 3 0.7 1.3
-3 0 3 -1.2 0.8
3 0 -3 2 1.5
-3 0 3 0.2 1.1
3 0 -3 -0.3 0.8
3 0 -3 1.3 1.2
-2 0 3 0 0.9
-2 0 3 0.4 0.7
2 0 -3 2 1.2
2 0 -3 0.2 0.6
-2 0 3 -0.4 1
2 0 -3 0 0.8
-1 0 3 -0.7 0.7
1 0 -3 0.3 0.6
1 0 -3 -0.4 0.6
1 0 -3 1 0.6
-1 0 3 -0.2 0.4
-1 0 3 0.2 0.5
-1 0 3 0.7 0.6
1 0 -3 -1 0.7
0 0 3 0.8 0.5
0 0 3 0.1 0.3
0 0 3 0 0.4
0 0 -3 -0.1 0.4
0 0 -3 0.7 0.5
0 0 -3 -0.1 0.4
0 0 -3 0 0.4
0 0 3 0.2 0.4
0 0 -3 0 0.5
1 0 3 0.4 0.4
-1 0 -3 0.4 0.6
1 0 3 -0.2 0.6
-1 0 -3 -0.7 0.5
-1 0 -3 0.7 0.5
-2 0 -3 0.9 0.9
2 0 3 -1.3 0.8
-2 0 -3 0 0.6
3 0 3 0.7 1.6
-3 0 -3 -0.8 1.2
3 0 3 1.2 1.2
-3 0 -3 -0.1 0.7
-3 0 -3 -1 1.1
-4 0 -3 0.3 1.6
4 0 3 -0.7 1.9
-4 0 -3 -1.5 1.4
4 0 3 -1.1 2.8
4 0 3 1.4 1.6
-4 0 -3 0.3 1.2
5 0 3 4.5 2.7
-5 0 -3 -2.9 1.9
-5 0 -3 2.4 2.2
-5 0 -3 -0.8 1.6
5 0 3 -0.2 3.6
-5 0 -3 -1.5 1.6
5 0 3 2.7 2.1
-6 0 -3 0.9 2.1
-6 0 -3 -1.8 2.4
6 0 3 10.5 5.1
6 0 3 1.9 2.2
6 0 3 2 3.2
-6 0 -3 -0.3 2.9
7 0 3 -1.4 2.4
-7 0 -3 -0.7 3.1
-7 0 -3 -0.7 2.5
7 0 3 1.7 3.4
7 0 3 8 5.7
-7 0 -3 4.8 3.9
-7 0 -3 -2.5 2
-8 0 -3 -2.6 2.3
8 0 3 -3.6 5.1
-8 0 -3 4.3 4.8
-8 0 -3 -3.5 3.1
-8 0 -3 -0.3 3.7
8 0 3 -0.2 3.3
8 0 3 -2.7 4.1
-9 0 -3 1.3 2.7
-9 0 -3 1.2 2.9
9 0 3 -1.9 3.8
9 0 3 3.8 5.7
-9 0 -3 0.1 6.3
9 0 3 -4.1 5.2
-9 0 -3 4.8 4.9
-9 0 -3 2.6 4
10 0 3 -2.1 5.7
-10 0 -3 -9.2 8.5
-10 0 -3 -0.1 6.1
-10 0 -3 4.2 4.7
10 0 3 8.8 6
-10 0 -3 1.9 3.4
10 0 3 -5.8 6.1
-10 0 -3 -0.6 3
-11 0 -3 -8.2 6
-11 0 -3 -0.2 3.6
11 0 3 7 7.7
-11 0 -3 -0.6 4.1
11 0 3 13.4 7.1
-11 0 -3 4.4 7.4
-12 0 -3 9.6 5.8
12 0 3 -17.6 8.3
-12 0 -3 -0.3 8
12 0 3 -2.6 9.1
-12 0 -3 1.7 9.5
-12 0 -3 0.2 4.7
-13 0 -3 7.1 11.9
-13 0 -3 6.9 6.8
13 0 3 22.5 12.2
-13 -1 3 236.08 14.5
-13 -1 3 259.47 22.4
13 -1 -3 200.08 19.4
13 1 -3 173.38 19
-13 1 3 215.48 24.5
-13 1 3 216.48 14.7
-12 -1 3 167.78 16.5
-12 -1 3 250.87 18.8
12 -1 -3 182.68 15.6
-12 -1 3 212.48 22.2
-12 -1 3 227.18 13.8
12 -1 -3 208.48 17.3
-12 1 3 219.58 10.8
-12 1 3 204.28 12.3
12 1 -3 194.38 16.4
12 1 -3 232.98 16.7
-12 1 3 229.58 22.5
-12 1 3 225.78 21
11 -1 -3 329.77 16.7
11 -1 -3 318.37 21.9
-11 -1 3 378.76 19.4
-11 -1 3 356.76 20.5
-11 -1 3 375.76 15.9
-11 -1 3 334.57 16.9
11 -1 -3 343.67 17
11 1 -3 316.37 19
-11 1 3 372.06 22.1
11 1 -3 352.36 17.2
-11 1 3 373.86 21
11 1 -3 354.76 17.3
-11 1 3 358.46 11.8
10 -1 -3 13.3 5.4
-10 -1 3 15.3 6.5
-10 -1 3 8.5 5.1
-10 -1 3 9.3 5.4
-10 -1 3 5.8 7.6
10 -1 -3 11.7 5.9
-10 -1 3 6.6 6.8
10 -1 -3 6 9.3
-10 1 3 10.7 7.6
-10 1 3 -12.8 10
-10 1 3 -2.4 6.3
10 1 -3 10.8 5.5
10 1 -3 7.4 5.1
-10 1 3 12.5 3.8
-10 1 3 12.1 3.5
10 1 -3 4.3 6.4
-9 -1 3 393.66 17.1
-9 -1 3 383.76 15.4
9 -1 -3 400.86 14.7
9 -1 -3 392.16 21.3
-9 -1 3 391.76 15.5
-9 -1 3 385.76 17.9
9 -1 -3 369.86 15.4
-9 -1 3 385.26 17.3
-9 1 3 393.86 21.2
9 1 -3 380.06 14.8
9 1 -3 393.36 16.6
-9 1 3 386.46 12.7
-9 1 3 391.66 19.2
-9 1 3 388.26 11.1
-9 1 3 400.56 17.5
9 1 -3 402.16 15.2
-8 -1 3 420.86 15.2
8 -1 -3 448.76 14.6
-8 -1 3 434.46 16.2
-8 -1 3 437.16 18.6
8 -1 -3 412.46 15.1
8 -1 -3 466.95 21.3
-8 -1 3 447.66 16.5
-8 -1 3 439.86 15.7
-8 1 3 433.46 11.3
8 1 -3 424.66 14.6
8 1 -3 434.16 14.7
-8 1 3 416.16 19.6
-8 1 3 427.36 16.6
-8 1 3 411.16 18.7
8 1 -3 434.26 16.2
-8 1 3 425.26 12.7
-7 -1 3 1376.56 32.2
-7 -1 3 1343.77 34.1
7 -1 -3 1327.77 27.5
7 -1 -3 1406.76 30.2
7 -1 -3 1381.86 37
-7 -1 3 1375.56 31.5
-7 -1 3 1344.07 31.5
7 -1 -3 1329.87 31.9
-7 1 3 1344.77 28.5
-7 1 3 1335.07 35.7
7 1 -3 1373.86 30.7
7 1 -3 1355.66 32.4
7 1 -3 1367.26 30.8
-7 1 3 1343.17 35.9
-7 1 3 1335.67 26.8
-7 1 3 1365.26 32.6
-6 -1 3 189.48 9
6 -1 -3 192.38 6.4
6 -1 -3 182.78 9.2
6 -1 -3 220.48 8.3
-6 -1 3 221.58 9
-6 -1 3 225.18 11.3
-6 -1 3 208.98 8.9
-6 -1 3 204.48 9
6 -1 -3 191.68 12.8
-6 1 3 173.68 10.7
6 1 -3 190.38 8.8
-6 1 3 196.78 6.8
-6 1 3 195.58 11.5
6 1 -3 206.28 9.3
-6 1 3 193.28 6
6 1 -3 204.18 8.2
6 1 -3 209.18 8.5
-6 1 3 189.98 9.2
-5 -1 3 1138.59 25
-5 -1 3 1154.48 26
-5 -1 3 1150.38 25.9
-5 -1 3 1159.48 25.8
5 -1 -3 1155.38 27.3
-5 -1 3 1154.38 25.9
5 -1 -3 1179.58 24
5 -1 -3 1152.48 22.8
5 -1 -3 1187.08 29.9
5 1 -3 1131.29 26.1
-5 1 3 1140.59 23.2
-5 1 3 1104.99 28.9
-5 1 3 1162.48 29
5 1 -3 1149.78 24.9
5 1 -3 1158.78 25.5
-5 1 3 1158.38 22.2
-4 -1 3 175.58 7.1
-4 -1 3 172.28 7
4 -1 -3 173.78 9.5
4 -1 -3 171.08 8
-4 -1 3 180.58 6.8
4 -1 -3 175.78 5.1
-4 -1 3 176.78 6.9
4 -1 -3 180.68 5.8
-4 -1 3 181.48 6.4
-4 1 3 170.88 8.9
-4 1 3 159.88 8.5
4 1 -3 172.38 6.7
-4 1 3 170.28 4.6
4 1 -3 161.28 6.9
-4 1 3 169.08 5.2
-4 1 3 172.48 7
4 1 -3 170.38 6.2
-3 -1 3 278.27 8.2
3 -1 -3 264.97 10.2
3 -1 -3 282.27 6.5
3 -1 -3 279.47 10.1
-3 -1 3 271.07 7.9
-3 -1 3 289.87 8.7
3 -1 -3 276.97 6.4
-3 -1 3 258.17 8.6
-3 -1 3 278.67 7.4
-3 1 3 276.57 6.2
3 1 -3 289.17 8.8
-3 1 3 261.67 10.1
3 1 -3 266.97 8.3
-3 1 3 284.27 10.5
3 1 -3 264.97 7.4
-3 1 3 277.37 6.6
2 -1 -3 18.7 1.2
2 -1 -3 18.2 3.5
-2 -1 3 18.1 1.9
-2 -1 3 23.4 2.3
2 -1 -3 19 2.2
-2 -1 3 21.2 1.7
-2 -1 3 20.6 2.4
2 -1 -3 16.8 2.8
-2 1 3 18.5 1.5
2 1 -3 21.6 2.5
2 1 -3 18.3 1.8
-2 1 3 15.5 2.8
-2 1 3 19.9 1.4
2 1 -3 21.6 1.9
-2 1 3 18.9 2.9
2 1 -3 16.9 2.2
-2 1 3 19.4 1.9
1 -1 -3 8373.16 150.08
0 -1 3 3243.68 60.69
0 -1 3 3333.17 58.79
0 -1 -3 3086.79 58.69
0 -1 -3 3358.06 58.99
0 -1 3 3290.27 58.89
0 -1 3 3300.07 58.49
0 -1 -3 3338.27 59.99
0 1 -3 3293.77 58.99
0 1 -3 3233.88 58.39
0 1 3 3267.27 60.19
0 1 -3 3275.47 61.09
-2 -1 -3 2.3 0.7
2 -1 3 4 2.2
2 -1 3 1.3 1.2
2 -1 3 2.7 1.1
-2 -1 -3 4.4 1.7
-2 -1 -3 4.8 1.6
-2 1 -3 3 0.6
-2 1 -3 2.3 1.7
-2 1 -3 1.2 1.1
2 1 3 1 1.1
2 1 3 3.2 1.5
-3 -1 -3 2577.54 48.5
3 -1 3 2558.54 51.69
3 -1 3 2595.54 48.1
3 -1 3 2507.55 47.5
-3 -1 -3 2525.35 48.6
3 1 3 2597.74 49.2
-3 1 -3 2645.34 49.7
-3 1 -3 2492.15 51.69
3 1 3 2309.87 46.4
3 1 3 2544.95 49
-3 1 -3 2547.05 48.5
4 -1 3 1658.83 33
-4 -1 -3 1739.33 34.3
-4 -1 -3 1677.23 32.7
4 -1 3 1670.73 37.3
4 -1 3 1676.03 33.8
-4 -1 -3 1724.03 34.6
-4 1 -3 1640.24 30.1
-4 1 -3 1671.53 35.8
-4 1 -3 1654.93 33.9
-4 1 -3 1670.63 37.9
4 1 3 1660.03 34.7
-4 1 -3 1626.54 29.7
4 1 3 1717.93 35.2
4 1 3 1629.14 31.5
-5 -1 -3 80.79 5.9
-5 -1 -3 89.79 5.8
5 -1 3 82.99 5.1
5 -1 3 65.99 7.4
-5 -1 -3 67.99 5.2
-5 -1 -3 88.39 6.4
5 -1 3 96.49 5.7
-5 1 -3 85.99 7.3
-5 1 -3 88.59 5.2
5 1 3 83.99 5.8
-5 1 -3 88.99 3.2
5 1 3 85.19 4.1
-5 1 -3 88.99 7.3
-6 -1 -3 284.17 11
-6 -1 -3 249.08 12.7
6 -1 3 284.27 10.5
-6 -1 -3 242.28 9.7
6 -1 3 273.07 13.4
-6 -1 -3 288.77 11
6 -1 3 287.17 10.5
6 1 3 270.47 8.6
-6 1 -3 287.77 12.9
-6 1 -3 276.77 10
-6 1 -3 294.17 13.5
6 1 3 278.57 14.5
-6 1 -3 283.27 6.5
6 1 3 282.47 11
-6 1 -3 287.87 7.3
7 -1 3 434.36 14.4
7 -1 3 471.05 15.5
-7 -1 -3 414.86 13.9
-7 -1 -3 434.66 14.6
-7 -1 -3 465.35 15.4
-7 -1 -3 415.66 17.3
-7 1 -3 446.86 10.7
7 1 3 442.36 12.5
-7 1 -3 447.36 9.8
7 1 3 458.95 16.1
-7 1 -3 446.06 18
-7 1 -3 442.66 17.6
-7 1 -3 438.36 13.9
7 1 3 426.66 15
-8 -1 -3 72.79 7.2
-8 -1 -3 76.09 8.9
8 -1 3 88.49 11.7
8 -1 3 70.89 8.6
-8 -1 -3 68.29 7.2
8 -1 3 82.79 7.6
-8 -1 -3 66.29 8.3
8 1 3 76.99 8.6
-8 1 -3 77.59 3.6
-8 1 -3 78.39 4.8
-8 1 -3 95.29 12
-8 1 -3 78.09 10.1
8 1 3 69.59 8
8 1 3 75.09 6.1
-8 1 -3 86.49 6.9
-9 -1 -3 284.77 13.9
-9 -1 -3 268.57 15.2
-9 -1 -3 246.88 12.9
9 -1 3 265.47 14.3
9 -1 3 252.07 18.9
-9 -1 -3 243.38 13.7
9 -1 3 260.97 12.8
9 1 3 269.97 15
-9 1 -3 241.38 16.2
-9 1 -3 222.88 17.3
-9 1 -3 256.97 8.6
9 1 3 242.18 17.2
-9 1 -3 261.87 11.9
9 1 3 258.07 11
-9 1 -3 262.47 7.4
-10 -1 -3 310.87 13.3
10 -1 3 263.07 16.6
-10 -1 -3 305.87 16.3
-10 -1 -3 301.57 15.5
10 -1 3 276.27 14.8
10 -1 3 260.17 21.5
-10 -1 -3 295.67 18.6
-10 1 -3 291.17 22.5
10 1 3 308.97 16
-10 1 -3 282.37 8.3
10 1 3 281.27 17.1
-10 1 -3 304.07 13.8
-10 1 -3 292.17 9.9
-10 1 -3 290.27 18.5
-11 -1 -3 337.47 15.1
11 -1 3 309.37 17.3
-11 -1 -3 322.57 17.8
-11 -1 -3 292.87 17.9
-11 -1 -3 341.27 14.5
11 -1 3 245.28 25.2
11 1 3 306.57 18.4
-11 1 -3 350.96 16
-11 1 -3 317.77 10.9
-11 1 -3 319.37 21.5
-11 1 -3 305.37 9.1
11 1 3 316.07 15.2
12 -1 3 30.8 10.8
-12 -1 -3 15.6 10.6
-12 -1 -3 44.9 7.5
-12 -1 -3 26.6 12.9
-12 -1 -3 26.4 6.9
-12 1 -3 22.8 7.9
-12 1 -3 30.4 12.2
12 1 3 30.9 11.6
-13 -1 -3 478.35 20.6
13 -1 3 505.95 26.8
-13 -1 -3 587.04 26.9
-13 1 -3 506.55 33.8
-13 1 -3 496.45 23.4
13 -2 -3 25.6 19.5
-13 -2 3 41.9 13.4
-13 2 3 47.8 10.7
13 2 -3 50.49 14.6
12 -2 -3 124.89 14.6
12 -2 -3 102.99 13.5
-12 -2 3 122.69 14.5
12 2 -3 132.39 18.1
-12 2 3 155.38 21.1
12 2 -3 115.19 14.1
-12 2 3 138.89 14.1
11 -2 -3 5 8.4
-11 -2 3 10.8 8.6
11 -2 -3 -6.5 7.4
-11 -2 3 -6.2 6.3
11 2 -3 18.1 8.7
11 2 -3 10.8 8.4
-11 2 3 10.8 9.9
-11 2 3 2.2 10.6
-10 -2 3 -6.8 8
10 -2 -3 -7.6 5.9
10 -2 -3 -25 11.3
-10 -2 3 -9.7 7.1
10 -2 -3 6 6.6
-10 -2 3 -7.3 8.1
-10 -2 3 8.3 6.2
-10 -2 3 7.6 7.7
-10 2 3 1.2 7.8
10 2 -3 1.5 6
10 2 -3 3 6.4
-10 2 3 6.3 8.5
-10 2 3 15.5 14.6
-10 2 3 -3.7 4.4
9 -2 -3 -7.2 4.5
-9 -2 3 0.3 6
-9 -2 3 8.3 6.9
-9 -2 3 4.8 6.5
9 -2 -3 -1.2 5.9
-9 -2 3 1.4 5.2
-9 -2 3 -3 7
9 -2 -3 0.1 10.2
9 2 -3 4.1 5.4
9 2 -3 6.5 5
-9 2 3 8.7 10.7
-9 2 3 -6.4 5.7
-9 2 3 3.7 3.6
-9 2 3 4.9 6.8
-8 -2 3 18.7 5.3
-8 -2 3 13 5
8 -2 -3 18.6 5.9
-8 -2 3 8.1 4.2
8 -2 -3 14.7 9.7
-8 -2 3 18.7 6.5
-8 -2 3 8 4.9
8 -2 -3 11.2 4.5
8 2 -3 11.3 4.6
8 2 -3 8.8 4.6
-8 2 3 11.7 7.1
-8 2 3 -1.6 8.9
-8 2 3 2.5 4.8
-8 2 3 9.9 3.7
-7 -2 3 9.3 4
-7 -2 3 13.8 4.4
7 -2 -3 9.5 8.1
-7 -2 3 2.9 3.9
-7 -2 3 14.4 4.8
7 -2 -3 10.2 4.7
-7 -2 3 6.9 4.2
7 -2 -3 18.5 4.1
-7 2 3 3.9 3.6
7 2 -3 18.1 4.5
-7 2 3 14.2 3.3
-7 2 3 14.4 5.6
-7 2 3 21.8 8
7 2 -3 18.3 4.3
6 -2 -3 1009.6 21.8
-6 -2 3 1011.7 23.9
-6 -2 3 977.1 25.7
6 -2 -3 960.4 27.2
-6 -2 3 977.6 25.6
-6 -2 3 994.9 24.3
-6 -2 3 1004.6 24.2
6 -2 -3 962.3 29.7
-6 2 3 969.1 30.3
-6 2 3 1018.4 30.2
-6 2 3 967 22.8
-6 2 3 954.6 18.4
6 2 -3 1002.6 25.1
6 2 -3 979.7 24.5
5 -2 -3 415.76 9.4
-5 -2 3 434.26 13.2
-5 -2 3 434.06 12.7
5 -2 -3 438.26 16.2
-5 -2 3 443.56 21.5
-5 -2 3 430.86 14.6
5 -2 -3 428.46 10.8
-5 2 3 432.66 9.2
-5 2 3 421.46 17.6
-5 2 3 414.16 13.4
5 2 -3 430.46 13.3
-5 2 3 419.36 17.7
-5 2 3 432.06 12.3
5 2 -3 447.36 14.3
4 -2 -3 4585.54 82.39
-4 -2 3 4733.33 88.19
-4 -2 3 4676.43 85.09
-4 -2 3 4674.43 88.89
4 -2 -3 4558.54 83.29
4 -2 -3 4681.83 91.69
-4 -2 3 4700.33 85.39
-4 -2 3 4527.05 86.79
4 -2 -3 4735.83 91.59
-4 2 3 4467.45 86.09
-4 2 3 4574.74 85.39
4 2 -3 4541.35 86.39
-4 2 3 4858.41 92.39
4 2 -3 4665.13 88.39
-4 2 3 4657.33 93.39
3 -2 -3 1430.06 34.1
3 -2 -3 1399.16 33.7
-3 -2 3 1391.16 28.6
-3 -2 3 1382.66 30.5
3 -2 -3 1429.66 27.5
-3 -2 3 1453.55 31.1
3 -2 -3 1374.86 26.5
-3 -2 3 1428.86 28
3 2 -3 1408.66 29.7
-3 2 3 1465.15 34.1
-3 2 3 1410.46 29.1
-3 2 3 1376.16 28.5
-3 2 3 1424.56 35
2 -2 -3 1848.72 34.5
-2 -2 3 1825.32 37.6
-2 -2 3 1822.92 35.7
2 -2 -3 1838.02 40.7
-2 -2 3 1841.42 34.3
2 -2 -3 1865.11 41.1
-2 -2 3 1837.82 38.5
2 -2 -3 1869.11 35.5
-2 2 3 1883.01 41.7
-2 2 3 1840.22 34.8
1 -2 -3 141.39 4.4
-1 -2 3 132.19 5.3
1 -2 -3 140.29 5.7
1 -2 -3 126.79 7.7
1 -2 -3 131.99 4.8
-1 -2 3 136.69 3.9
-1 -2 3 135.99 7.4
1 -2 -3 128.19 7.9
-1 -2 3 124.49 6.7
-1 -2 3 128.69 5.9
-1 2 3 131.29 7.6
-1 2 3 126.29 3.4
0 -2 3 340.87 10.7
0 -2 -3 340.77 9.3
0 -2 3 356.36 11.7
0 -2 3 354.86 9.7
0 -2 -3 354.46 11.9
0 -2 -3 347.37 7.6
0 2 -3 356.36 7.5
-1 -2 -3 363.36 10.5
1 -2 3 369.76 14.1
1 -2 3 365.06 11.4
1 -2 3 361.26 9.2
-1 -2 -3 367.66 11.5
-1 -2 -3 352.66 10
1 -2 3 364.96 11.5
-1 -2 -3 360.76 11.6
-1 -2 -3 364.26 7.9
-1 2 -3 357.56 8.4
-1 2 -3 358.66 12.2
-2 -2 -3 297.97 7.5
-2 -2 -3 294.17 8.7
-2 -2 -3 287.87 9.6
-2 -2 -3 309.57 10.4
2 -2 3 285.77 7.1
2 -2 3 298.67 9.8
-2 -2 -3 290.07 9.9
2 -2 3 292.47 10.5
2 -2 3 302.07 13.3
-2 2 -3 292.17 8.2
-2 2 -3 292.97 10.8
-2 2 -3 294.67 10.9
-3 -2 -3 4.6 2.3
-3 -2 -3 5.9 2.6
3 -2 3 2.5 3.7
3 -2 3 2.8 2.6
3 -2 3 4.6 2.1
-3 -2 -3 5 1.7
-3 2 -3 4.5 2.5
3 2 3 7.4 3
-3 2 -3 4.3 3.6
-4 -2 -3 549.65 16.7
4 -2 3 525.75 15.6
-4 -2 -3 520.95 12.7
4 -2 3 558.84 14.4
-4 -2 -3 560.54 16.1
-4 -2 -3 565.44 15.7
-4 2 -3 526.75 16
4 2 3 529.85 16.4
-4 2 -3 543.25 18.1
-5 -2 -3 64.29 4.5
5 -2 3 63.79 8.8
5 -2 3 58.79 4.9
-5 -2 -3 70.19 7.1
-5 -2 -3 59.69 6.4
5 -2 3 72.69 6.3
-5 -2 -3 59.99 7
5 2 3 56.49 6.5
5 2 3 62.89 6.6
-5 2 -3 72.39 8.6
-5 2 -3 52.49 7.9
-5 2 -3 60.59 6
-6 -2 -3 349.87 14.4
-6 -2 -3 352.36 13.2
6 -2 3 336.67 12.8
6 -2 3 331.67 11.1
6 -2 3 330.17 16.8
-6 -2 -3 339.77 12.2
-6 -2 -3 349.96 14
-6 2 -3 338.77 17.1
6 2 3 328.67 13.8
-6 2 -3 344.57 13.2
6 2 3 344.87 14.4
-6 2 -3 322.97 16.9
-7 -2 -3 50.09 6.6
7 -2 3 45.2 6.1
-7 -2 -3 45.4 6.6
7 -2 3 59.09 9.9
7 -2 3 49.4 6.4
-7 -2 -3 50.39 8.1
-7 -2 -3 50.19 7.3
-7 2 -3 56.09 9.3
7 2 3 47.9 7.4
-7 2 -3 44.3 6.2
-7 2 -3 56.79 9.8
7 2 3 51.29 5.7
7 2 3 56.19 7.7
8 -2 3 118.19 9.7
8 -2 3 124.59 15.2
-8 -2 -3 119.49 12
-8 -2 -3 111.19 13.4
-8 -2 -3 111.19 8.2
8 -2 3 120.49 9.5
-8 -2 -3 122.59 11.8
-8 2 -3 114.39 13.5
-8 2 -3 125.19 14.6
-8 2 -3 122.49 9.7
8 2 3 121.59 7.7
8 2 3 116.19 11.7
9 -2 3 17.2 10.8
-9 -2 -3 12.2 4.8
-9 -2 -3 3.3 7.8
9 -2 3 3.2 5.6
-9 -2 -3 0.4 4.8
-9 -2 -3 4.4 7.6
9 -2 3 -0.8 6.3
9 2 3 -1.9 6.2
9 2 3 12.2 7.2
9 2 3 10.9 4.7
-9 2 -3 26.7 12.4
-9 2 -3 4.1 6.9
-10 -2 -3 16.6 15.5
-10 -2 -3 36.8 6.8
10 -2 3 17.2 7.5
10 -2 3 9.9 8.7
10 -2 3 4 13.3
-10 -2 -3 26.4 6.6
-10 2 -3 20.6 6.6
-10 2 -3 18.1 10.2
10 2 3 20.4 8.4
10 2 3 23 6.1
11 -2 3 12.4 8.6
-11 -2 -3 2 5.3
-11 -2 -3 4.4 7.5
-11 -2 -3 12.8 7.3
-11 2 -3 12 7.3
11 2 3 -5.9 10.4
-11 2 -3 10.9 11.6
12 -2 3 81.79 14
-12 -2 -3 46.1 9.5
12 2 3 38.2 14.2
-12 2 -3 71.79 12.1
-12 2 -3 58.99 17.7
11 -3 -3 366.66 23.3
-11 -3 3 358.86 22.6
-11 -3 3 351.16 24
11 3 -3 399.16 24.3
-11 3 3 385.56 31.9
-11 3 3 410.66 20.7
10 -3 -3 60.89 10.5
10 -3 -3 90.29 13.2
-10 -3 3 51.79 13.2
-10 -3 3 59.19 10.6
-10 3 3 84.79 12.5
-10 3 3 88.09 17.3
10 3 -3 64.89 11.7
9 -3 -3 25.7 7.1
-9 -3 3 25.6 9.1
9 -3 -3 20.3 8.4
-9 -3 3 24.6 8.3
-9 -3 3 23 9.8
9 3 -3 37.8 9
-9 3 3 28.1 11.5
-9 3 3 35.5 6.9
8 -3 -3 0.5 7.4
-8 -3 3 -9.4 7.3
-8 -3 3 1.9 6.6
8 -3 -3 6.7 4.9
-8 -3 3 12.1 6.1
-8 -3 3 8.5 5.9
8 -3 -3 14.1 11.6
-8 -3 3 -3.1 6.2
-8 3 3 11.7 5.3
-8 3 3 22.4 14.5
8 3 -3 19.5 7.4
-8 3 3 14.2 8.4
-8 3 3 5.9 6
7 -3 -3 171.18 8.2
7 -3 -3 143.09 14.5
7 -3 -3 196.18 17.9
-7 -3 3 158.48 10.1
-7 -3 3 151.88 10.4
-7 -3 3 147.19 12.7
-7 -3 3 160.88 11.5
-7 -3 3 171.58 11.7
-7 3 3 151.78 10.5
-7 3 3 163.88 16.5
-7 3 3 150.88 9.9
-7 3 3 143.79 18.8
7 3 -3 151.78 11.5
6 -3 -3 31.2 4.5
6 -3 -3 32.4 7.8
-6 -3 3 27.3 5.1
-6 -3 3 30.6 6.2
6 -3 -3 42 9.2
-6 -3 3 30.1 5.8
-6 -3 3 29 7.3
-6 -3 3 26.8 5.1
6 3 -3 31.4 6.1
-6 3 3 32.5 5.2
-6 3 3 24.3 9.9
-6 3 3 33 5
-6 3 3 33.5 7.9
5 -3 -3 408.76 9.9
5 -3 -3 410.56 11.5
5 -3 -3 408.76 9.4
5 -3 -3 444.46 19.4
-5 -3 3 435.36 16.6
-5 -3 3 419.16 14.6
5 -3 -3 418.96 20.3
-5 -3 3 420.16 12.6
-5 -3 3 425.76 14
-5 -3 3 417.16 16.5
-5 3 3 426.86 20.6
-5 3 3 412.16 14.2
-5 3 3 422.86 13.3
-4 -3 3 -0.4 3.1
4 -3 -3 5.8 2.3
-4 -3 3 6.7 2.6
-4 -3 3 7.8 4.5
4 -3 -3 -2.2 5.4
4 -3 -3 8.5 1.7
4 -3 -3 7.8 6.6
-4 -3 3 7.7 3.5
-4 -3 3 8.2 4.1
-4 3 3 4.6 5.4
-4 3 3 6.5 3.1
-4 3 3 9.2 2.7
-3 -3 3 136.49 8.4
3 -3 -3 136.39 5.2
-3 -3 3 138.79 7.4
-3 -3 3 147.59 5.1
3 -3 -3 142.19 6.6
-3 -3 3 145.39 10.5
3 -3 -3 135.89 12
-3 -3 3 138.59 9
3 -3 -3 147.29 11.7
-3 3 3 136.29 5.2
-2 -3 3 27.1 4
-2 -3 3 18.3 5.2
2 -3 -3 21.5 3.7
2 -3 -3 4.8 9
2 -3 -3 20.8 2.7
-2 -3 3 18.7 4
2 -3 -3 24.5 6.6
-2 -3 3 19.8 4.1
1 -3 -3 394.66 12.8
-1 -3 3 387.16 14.9
1 -3 -3 385.76 10.9
-1 -3 3 374.26 14.1
-1 -3 3 387.86 12.9
-1 -3 3 413.36 12.4
1 -3 -3 415.46 16.8
1 -3 -3 396.56 16.7
0 -3 3 351.76 11.4
0 -3 -3 330.47 10.5
0 -3 -3 354.86 12.8
0 -3 -3 338.87 11.7
0 -3 3 354.26 11.7
0 -3 3 350.66 16.5
0 -3 -3 341.67 15.2
0 -3 3 341.27 13.6
0 -3 3 336.87 13.7
0 -3 -3 355.76 15
0 -3 -3 335.87 14.2
-1 -3 -3 606.34 19.8
-1 -3 -3 592.44 16
1 -3 3 589.64 18.7
1 -3 3 607.24 22.5
-1 -3 -3 610.14 17.2
-1 -3 -3 621.44 18.9
1 -3 3 612.64 18.3
1 -3 3 602.64 15.4
-2 -3 -3 217.08 10.6
-2 -3 -3 241.48 11.3
2 -3 3 230.28 7.7
-2 -3 -3 226.68 11.5
-2 -3 -3 222.78 9.6
2 -3 3 214.48 14.8
2 -3 3 216.58 11.3
-2 -3 -3 221.98 9.7
2 -3 3 229.18 11.5
-2 -3 -3 228.78 9.4
-2 3 -3 217.08 6.3
-2 3 -3 217.08 6.6
-2 3 -3 225.98 11.6
3 -3 3 46.7 3.1
-3 -3 -3 35.6 5.6
-3 -3 -3 44.6 7
-3 -3 -3 47.2 4.9
3 -3 3 33.1 8
-3 -3 -3 39.5 5.8
3 -3 3 45.5 2.6
3 -3 3 43.1 6.4
-3 -3 -3 46.9 5.9
-3 -3 -3 42.4 3.4
3 -3 3 31.5 4.8
-3 3 -3 34.8 5.8
-3 3 -3 49.4 4
-4 -3 -3 1755.32 41
-4 -3 -3 1732.83 39.2
4 -3 3 1704.03 39.7
4 -3 3 1750.32 37.1
-4 -3 -3 1727.63 38.7
-4 -3 -3 1692.43 35.7
-4 -3 -3 1730.43 39
-4 3 -3 1690.63 42.6
-4 3 -3 1709.23 35.5
-4 3 -3 1735.73 41
5 -3 3 8 3.4
-5 -3 -3 9.7 4.4
5 -3 3 5 4.7
-5 -3 -3 10.6 3.2
-5 -3 -3 11 6.3
5 -3 3 9.6 7.6
-5 -3 -3 10.6 5
-5 3 -3 5.6 4.3
-5 3 -3 6.1 3
-5 3 -3 21.3 8
-6 -3 -3 351.96 11.8
-6 -3 -3 368.96 16.2
-6 -3 -3 401.76 16.4
6 -3 3 372.16 22
-6 -3 -3 363.26 18.2
6 -3 3 345.67 15.5
6 -3 3 371.46 12.9
-6 3 -3 382.26 16.4
-6 3 -3 339.27 21
6 3 3 376.16 17.5
-7 -3 -3 52.79 8.6
7 -3 3 75.79 7.6
-7 -3 -3 59.79 7.8
-7 -3 -3 57.69 10.1
-7 -3 -3 48.2 7.9
7 -3 3 86.49 13.6
7 -3 3 61.89 8.3
7 3 3 58.59 8.9
-7 3 -3 72.19 14.5
-7 3 -3 65.09 9.2
-7 3 -3 71.59 9.4
-8 -3 -3 9.6 8.4
-8 -3 -3 4.6 5.8
8 -3 3 9.7 7.1
-8 -3 -3 5.5 6.8
8 -3 3 14 5.7
-8 3 -3 9.4 8.5
-8 3 -3 -7.9 13.9
8 3 3 7.9 7.6
-8 3 -3 -7.2 7.1
9 -3 3 9 8.2
-9 -3 -3 -10.1 6.4
-9 -3 -3 27.4 6
9 -3 3 13 7.5
-9 3 -3 23.9 8.1
-9 3 -3 7.3 7.6
-9 3 -3 -5.2 27.8
9 3 3 -6.5 8.8
-10 -3 -3 8.5 7.8
-10 -3 -3 18.7 7.9
10 -3 3 30.5 10.8
-10 -3 -3 45.2 11.5
-10 3 -3 13.8 9.3
10 3 3 28.6 13
-11 -3 -3 -9.2 9.3
11 -3 3 -17.8 11.4
-11 -3 -3 1.5 9
11 3 3 -15.3 14.2
-11 3 -3 8.6 11.6
-9 -4 3 17.2 10.7
-9 -4 3 24.8 11.3
9 -4 -3 43.2 13.7
-9 4 3 44.8 11.2
8 -4 -3 96.79 14.3
-8 -4 3 101.29 15.5
-8 -4 3 102.49 15.2
8 -4 -3 109.99 11.4
-8 4 3 121.19 13.1
-8 4 3 100.49 14.5
-7 -4 3 7.8 6.1
7 -4 -3 12.4 5.1
-7 -4 3 -6.1 8.3
7 -4 -3 0.1 10.3
-7 -4 3 -6 5.9
-7 4 3 8 5.5
-6 -4 3 93.49 10.3
-6 -4 3 96.99 10.6
6 -4 -3 113.49 8.1
-6 -4 3 84.79 12.1
6 -4 -3 98.49 14.2
-6 4 3 92.49 8.4
-5 -4 3 34 4
5 -4 -3 32 3.9
-5 -4 3 50.89 8
5 -4 -3 45.6 6.5
-5 -4 3 34 7.7
-5 -4 3 26.7 9.2
5 -4 -3 48.9 11.9
-5 -4 3 45.4 10.2
5 -4 -3 31.7 3.9
-5 -4 3 28.8 6.5
5 -4 -3 59.19 13.4
-5 4 3 34.6 3.8
-5 4 3 37.5 4.1
4 -4 -3 167.58 25.3
-4 -4 3 206.58 12.2
-4 -4 3 227.88 15.3
4 -4 -3 205.18 9.4
-4 -4 3 209.08 14.1
-4 -4 3 212.58 17.4
-4 -4 3 219.28 12.8
4 -4 -3 216.48 7.4
3 -4 -3 -3.6 4.2
-3 -4 3 -0.2 4.5
-3 -4 3 2.9 4.9
3 -4 -3 12.8 8.3
3 -4 -3 4.7 2.5
-3 -4 3 -2.4 7.2
-3 -4 3 -10.5 8
3 -4 -3 -9.8 7.7
-3 -4 3 -5.2 5.8
-2 -4 3 360.16 17.6
2 -4 -3 360.96 14.4
2 -4 -3 369.46 20.6
2 -4 -3 348.07 11
-2 -4 3 379.66 16.2
2 -4 -3 364.36 20.3
-2 -4 3 375.66 21.4
-2 -4 3 337.57 18.2
-2 -4 3 359.46 16.4
2 -4 -3 327.67 15.4
-2 -4 3 385.96 14.5
-1 -4 3 5.9 6.1
1 -4 -3 -1.9 5
1 -4 -3 -0.8 7.3
-1 -4 3 9.4 6.9
-1 -4 3 6.8 5.1
-1 -4 3 5.6 4.5
1 -4 -3 -0.5 6.4
-1 -4 3 8.5 5.2
-1 -4 3 -6.5 8.1
1 -4 -3 -3.6 7.5
1 -4 -3 0.3 2.9
1 -4 -3 -0.6 4.6
0 -4 -3 455.05 17.6
0 -4 3 431.36 18.3
0 -4 3 436.76 15.9
0 -4 -3 435.96 21.4
0 -4 -3 452.75 16.1
0 -4 -3 435.56 13.9
0 -4 3 435.76 23.5
0 -4 3 442.46 19.1
0 -4 -3 427.26 18.1
0 -4 3 454.65 15.8
0 -4 -3 458.05 21.8
0 -4 -3 420.06 17
0 -4 3 419.36 19
1 -4 3 17.2 6
-1 -4 -3 20 8.7
-1 -4 -3 16.2 5.4
-1 -4 -3 17.1 4.6
1 -4 3 20.3 7.6
1 -4 3 14 3.6
-1 -4 -3 23.8 7.2
-1 -4 -3 17.2 5.2
-1 -4 -3 18.7 6.7
-1 -4 -3 20.4 7.2
1 -4 3 26.6 5.1
1 -4 3 21.6 6.5
-1 -4 -3 19.6 8
1 -4 3 28.9 10.3
-2 -4 -3 87.09 9
-2 -4 -3 78.09 11.9
2 -4 3 89.69 13.7
-2 -4 -3 73.09 8.8
-2 -4 -3 92.19 13.4
-2 -4 -3 75.49 8.6
-2 -4 -3 72.69 7.5
2 -4 3 92.99 10.6
2 -4 3 82.09 7.2
2 -4 3 91.29 10.2
2 -4 3 78.59 5.3
-2 -4 -3 101.49 13
-3 -4 -3 7.5 4.8
-3 -4 -3 6.1 5
-3 -4 -3 -3.4 7.8
-3 -4 -3 15.5 4.8
3 -4 3 17.6 5.4
3 -4 3 13.6 3.4
-3 -4 -3 16.5 7.7
-3 -4 -3 8 6.3
3 -4 3 13.7 2.4
3 -4 3 27.2 7.9
-3 -4 -3 4.3 7.6
3 -4 3 20.1 11.5
4 -4 3 3.4 7.3
4 -4 3 9.3 5.2
-4 -4 -3 5.6 4.5
-4 -4 -3 6.1 7.3
-4 -4 -3 17.9 9.2
4 -4 3 32.5 12.1
-4 -4 -3 11.1 7.3
-4 -4 -3 8.2 4.2
-4 4 -3 8 2.8
-4 4 -3 8.2 3
-5 -4 -3 152.18 15.1
-5 -4 -3 154.68 13.6
-5 -4 -3 168.58 7.4
5 -4 3 128.39 14.3
-5 -4 -3 164.58 10
5 -4 3 174.48 11.3
-5 -4 -3 143.79 8.3
-5 -4 -3 176.78 12.1
-5 4 -3 159.48 9.2
-5 4 -3 179.58 15.6
-5 4 -3 169.68 8.2
-6 -4 -3 160.78 10.1
6 -4 3 157.38 15.6
6 -4 3 187.18 11.9
-6 -4 -3 179.68 13.6
-6 -4 -3 159.58 14.5
-6 -4 -3 180.78 9.6
-6 -4 -3 178.58 16
-6 4 -3 153.88 11.2
-6 4 -3 159.18 16.4
-6 4 -3 148.89 9.5
-7 -4 -3 52.09 12.5
-7 -4 -3 49.6 7.7
-7 -4 -3 44.7 10.2
-7 -4 -3 40.8 8.7
7 -4 3 64.39 11.3
-7 -4 -3 45.2 7.3
-7 4 -3 47.5 8.4
-7 4 -3 55.49 7.2
-7 4 -3 55.79 12
8 -4 3 713.33 27.5
-8 -4 -3 711.03 26
-8 -4 -3 695.03 28.2
-8 4 -3 766.32 30.4
-8 4 -3 769.52 31.3
-8 4 -3 707.53 23.2
-9 -4 -3 672.43 29.1
9 -4 3 695.73 29.2
-9 4 -3 701.03 32.2
-6 -5 3 6.3 10
-6 -5 3 8.8 9.7
6 -5 -3 1.6 16.9
5 -5 -3 35.8 16.9
-5 -5 3 107.39 23.3
-5 -5 3 39.4 10.7
-5 -5 3 38.2 10.6
-4 -5 3 27.1 11.6
-4 -5 3 31 10.2
4 -5 -3 14.6 16.2
-4 -5 3 22.6 14.4
4 -5 -3 25.2 5.6
-4 -5 3 37.7 9.7
-3 -5 3 205.68 23.7
-3 -5 3 244.08 17.8
-3 -5 3 234.28 18.6
3 -5 -3 256.67 26.7
3 -5 -3 219.38 10.3
-3 -5 3 229.58 19.1
3 -5 -3 248.38 15
2 -5 -3 19.9 14
2 -5 -3 10.9 4.7
-2 -5 3 10.7 8.8
-2 -5 3 25.8 12.3
2 -5 -3 -5.1 6.4
-2 -5 3 12.7 6.2
2 -5 -3 9.7 9.2
2 -5 -3 4.4 8.5
-2 -5 3 9.7 9.6
-2 -5 3 -2.8 7.9
1 -5 -3 -2.8 13.2
1 -5 -3 -2.1 7
-1 -5 3 29.3 12.5
1 -5 -3 -7.2 8.8
-1 -5 3 5.9 9
1 -5 -3 3.7 6
-1 -5 3 -2.5 10
-1 -5 3 -4 5.5
-1 -5 3 4.4 9
1 -5 -3 -6.9 8.6
0 -5 -3 -0.7 5
0 -5 -3 -2.9 13.3
0 -5 3 13.2 9.5
0 -5 -3 3.3 10.3
0 -5 3 12.7 12.3
0 -5 -3 27.1 14.5
0 -5 -3 -0.1 6.6
0 -5 3 -18.2 8.7
0 -5 3 3 9.3
0 -5 -3 14.4 8.7
0 -5 -3 -9.4 9.2
0 -5 3 6.5 5.1
-1 -5 -3 229.88 25.9
-1 -5 -3 215.28 15.3
-1 -5 -3 178.48 20.5
-1 -5 -3 269.97 26.6
1 -5 3 218.18 24.1
1 -5 3 183.18 10.7
-1 -5 -3 203.38 16.4
-1 -5 -3 197.98 12.8
1 -5 3 227.48 15.5
-1 -5 -3 209.58 20
1 -5 3 179.68 17.8
1 -5 3 191.48 18.8
2 -5 3 8.5 4.7
2 -5 3 26.1 11.3
-2 -5 -3 2.3 12.5
-2 -5 -3 4 7.2
2 -5 3 7.2 14
-2 -5 -3 21.5 14.9
-2 -5 -3 -1.5 6.3
-2 -5 -3 19.9 15.1
-2 -5 -3 11.6 8.1
-3 -5 -3 51.59 9.7
-3 -5 -3 51.19 9.6
-3 -5 -3 37.2 16.1
-3 -5 -3 47.4 8.4
3 -5 3 54.19 14.5
3 -5 3 45.8 13.5
-3 -5 -3 65.69 15.4
-4 -5 -3 -1.4 8
-4 -5 -3 6.2 8.3
-4 -5 -3 -7.8 8.4
4 -5 3 1.4 12.2
-5 -5 -3 21.1 8.3
-5 -5 -3 22.2 10.5
5 -5 3 32.7 13.7
-5 -5 -3 40.8 9.9
13 0 -4 289.97 20.2
-13 0 4 300.97 25.2
-13 0 4 329.57 15.3
-13 0 4 329.57 18.2
-13 0 4 293.97 27.2
12 0 -4 806.72 30.3
12 0 -4 744.73 27.4
-12 0 4 803.32 31.8
-12 0 4 751.82 23.4
-12 0 4 704.93 31.9
-12 0 4 796.32 22.9
12 0 -4 766.12 26.3
-11 0 4 589.04 32.3
-11 0 4 552.24 27.7
-11 0 4 615.44 18.8
11 0 -4 600.44 22.4
11 0 -4 636.24 21.8
-11 0 4 633.14 25.7
11 0 -4 585.14 22.3
-11 0 4 610.44 19.2
-10 0 4 65.99 7.9
-10 0 4 71.39 7
-10 0 4 77.99 10.2
-10 0 4 92.49 13
-10 0 4 66.69 11
10 0 -4 77.79 10.5
10 0 -4 68.09 9.3
-9 0 4 1014.4 24.3
-9 0 4 956.8 23.9
-9 0 4 921.21 29
9 0 -4 1000 27.1
9 0 -4 1020.7 26.5
9 0 -4 984.7 25.9
-9 0 4 943.81 29.6
-9 0 4 953.1 28
-8 0 4 15.7 6.6
-8 0 4 17.6 5
-8 0 4 21.3 4.2
-8 0 4 16.5 3.7
8 0 -4 17.6 3.8
8 0 -4 12.1 3.8
8 0 -4 22 5.1
-8 0 4 13.2 5.4
-7 0 4 1389.26 30.1
7 0 -4 1411.16 32.4
-7 0 4 1369.46 32.6
-7 0 4 1319.97 34.4
7 0 -4 1394.06 31.2
-7 0 4 1388.26 34.5
7 0 -4 1376.86 30.2
-7 0 4 1379.76 29.6
7 0 -4 1414.66 31.2
-6 0 4 1730.73 38.8
-6 0 4 1759.52 35.7
6 0 -4 1791.32 36.4
-6 0 4 1725.13 40.2
-6 0 4 1761.62 35.4
6 0 -4 1722.43 35.7
6 0 -4 1711.33 36.5
6 0 -4 1799.12 38
-5 0 4 1260.77 27.8
5 0 -4 1233.88 26.2
5 0 -4 1260.87 26.2
-5 0 4 1217.88 25.9
-5 0 4 1206.58 28.3
-5 0 4 1284.77 30.2
5 0 -4 1252.87 27.8
-5 0 4 1241.08 25.7
5 0 -4 1223.08 26.6
4 0 -4 3117.89 59.29
-4 0 4 3218.98 62.89
-4 0 4 3228.58 60.99
4 0 -4 3311.37 61.09
-4 0 4 3201.28 59.19
4 0 -4 3241.68 59.49
4 0 -4 3186.98 60.19
-4 0 4 3105.79 59.09
-4 0 4 3245.48 61.39
-3 0 4 957.5 20.9
3 0 -4 928.41 19.5
-3 0 4 924.11 19.2
-3 0 4 919.11 19
3 0 -4 968.4 20.2
3 0 -4 969.4 20.6
3 0 -4 938.21 19.3
-3 0 4 987.6 22.2
-3 0 4 974.8 20.5
-2 0 4 89.69 3.9
2 0 -4 78.29 4.3
2 0 -4 85.89 3.4
-2 0 4 103.49 4.5
-2 0 4 87.99 4.2
-2 0 4 82.69 3.2
2 0 -4 84.39 3.8
2 0 -4 89.19 3.8
-1 0 4 3306.47 59.59
-1 0 4 3296.97 58.99
1 0 -4 3320.97 59.69
0 0 4 413.96 8.7
0 0 -4 425.96 9
0 0 -4 422.46 8.8
0 0 4 421.66 8.9
0 0 4 421.76 8.8
0 0 -4 440.46 9.4
-1 0 -4 4371.06 76.89
-1 0 -4 4364.36 77.79
1 0 4 4270.17 77.09
-2 0 -4 1417.26 26.7
-2 0 -4 1359.46 26.5
2 0 4 1408.46 26.1
2 0 4 1399.26 26.8
-2 0 -4 1372.86 25.8
2 0 4 1383.86 26.9
2 0 4 1345.97 26.5
3 0 4 1649.93 32.2
-3 0 -4 1596.04 30.6
-3 0 -4 1712.03 32.2
-3 0 -4 1575.84 31.6
3 0 4 1630.94 32.1
3 0 4 1648.14 32.1
-3 0 -4 1639.64 32.6
4 0 4 687.93 16.3
4 0 4 665.93 16.7
-4 0 -4 669.73 15.7
4 0 4 697.73 16.9
-4 0 -4 695.23 16.5
-4 0 -4 690.83 14.7
-4 0 -4 692.63 17
-5 0 -4 238.88 9.4
5 0 4 245.88 8.8
-5 0 -4 238.98 7.1
-5 0 -4 243.68 9.1
5 0 4 247.78 9.6
-5 0 -4 232.98 8.1
5 0 4 239.48 10.4
6 0 4 494.45 15.3
6 0 4 440.06 13.7
-6 0 -4 470.45 14.7
6 0 4 479.25 16.1
-6 0 -4 449.46 14.8
-6 0 -4 440.46 11.6
-6 0 -4 452.85 12.9
-6 0 -4 450.25 13.1
-7 0 -4 96.59 5.1
-7 0 -4 93.09 6.4
7 0 4 114.09 8.9
7 0 4 114.19 10.8
-7 0 -4 88.79 7.8
-7 0 -4 96.39 6.2
-7 0 -4 94.69 8.4
7 0 4 99.19 7.1
-8 0 -4 56.89 5.7
-8 0 -4 57.29 4.7
8 0 4 63.09 7
8 0 4 65.59 10.2
-8 0 -4 51.79 7.6
-8 0 -4 72.39 9
8 0 4 59.89 7.5
-8 0 -4 62.79 6.5
-9 0 -4 210.88 8.5
9 0 4 210.38 13.6
-9 0 -4 224.88 11
-9 0 -4 213.98 10.4
-9 0 -4 219.88 13.5
-9 0 -4 207.98 15.1
9 0 4 225.88 12.5
-10 0 -4 28 9.7
10 0 4 36.7 7.4
-10 0 -4 34.4 5.8
-10 0 -4 25.6 7.7
10 0 4 19.4 6.8
10 0 4 19.1 7.7
-10 0 -4 31.1 4.5
-10 0 -4 32.6 6.4
-11 0 -4 134.69 10.6
-11 0 -4 143.99 8.8
-11 0 -4 128.89 15.2
11 0 4 142.09 14.2
-11 0 -4 129.19 12.6
11 0 4 133.79 13.5
-12 0 -4 1174.98 44.9
-12 0 -4 1324.97 30.4
-12 0 -4 1295.77 34.1
-12 0 -4 1378.06 35.7
12 0 4 1312.87 36.3
12 0 4 1346.27 38.7
-13 0 -4 7.1 12.9
-13 0 -4 6.9 8.2
13 0 4 9.9 14.4
-13 -1 4 53.69 12.5
13 -1 -4 4.2 10
-13 -1 4 30.2 7
-13 1 4 18 7.6
-13 1 4 27.3 12.7
13 1 -4 29.4 10.8
-12 -1 4 23.7 12.1
12 -1 -4 50.69 9.8
12 -1 -4 32 8.8
-12 -1 4 57.69 11.2
-12 -1 4 46.7 10.2
-12 -1 4 55.39 8.1
-12 1 4 49.8 7.3
-12 1 4 63.19 13.7
-12 1 4 46 7.3
12 1 -4 58.89 10.1
12 1 -4 38 9.3
-12 1 4 53.39 13.1
-11 -1 4 26.1 11.4
11 -1 -4 20.6 6.5
-11 -1 4 5.5 6.7
11 -1 -4 -2 9.7
-11 -1 4 0.8 8.6
-11 -1 4 19.6 7.6
-11 -1 4 11.8 5.1
11 -1 -4 11.5 6.6
11 1 -4 20.3 7.6
-11 1 4 11.6 4.2
11 1 -4 10.7 6.9
-11 1 4 7.9 4.2
-11 1 4 4.4 9.1
-11 1 4 17.3 8.7
10 -1 -4 534.65 19.7
-10 -1 4 534.15 22.4
10 -1 -4 563.34 19
-10 -1 4 548.45 19.5
-10 -1 4 530.55 22.4
-10 -1 4 560.64 22.5
10 -1 -4 529.95 24.4
-10 1 4 557.54 27.6
10 1 -4 553.84 19.5
10 1 -4 540.25 21.1
-10 1 4 544.85 14.6
-10 1 4 552.34 16.5
-10 1 4 587.24 22.7
10 1 -4 542.95 26.4
-9 -1 4 2.4 5.2
9 -1 -4 7.7 4.4
-9 -1 4 8.8 4.9
9 -1 -4 1.2 7.9
-9 -1 4 2.3 5.4
-9 -1 4 9.5 6.9
-9 -1 4 9.1 4.9
9 -1 -4 5.3 4.3
-9 1 4 13.3 5.9
-9 1 4 6.7 2.7
-9 1 4 10.1 8.2
-9 1 4 9.2 3.1
9 1 -4 7.8 4.1
9 1 -4 8 4.7
9 1 -4 3.3 4.2
-9 1 4 2.9 5.4
8 -1 -4 2252.47 44.7
-8 -1 4 2084.39 46.1
-8 -1 4 2162.78 46
8 -1 -4 2204.18 52.49
-8 -1 4 2172.48 47.6
-8 -1 4 2087.59 49.5
-8 -1 4 2222.18 47.6
8 -1 -4 2105.39 42.1
8 -1 -4 2104.39 46.7
8 1 -4 2122.49 47.4
-8 1 4 2044.1 51.29
-8 1 4 2100.19 47.8
-8 1 4 2134.49 41.1
-8 1 4 2086.69 42.6
-8 1 4 2138.29 52.09
8 1 -4 2120.69 45.4
-7 -1 4 3 3.1
7 -1 -4 8.8 7.1
-7 -1 4 7.9 5.6
-7 -1 4 1 2.8
7 -1 -4 -6.4 2.7
7 -1 -4 1.5 1.9
-7 -1 4 2 3.8
7 -1 -4 2.8 2.7
-7 -1 4 2 3.4
-7 1 4 2.6 5.3
-7 1 4 -1.3 1.5
7 1 -4 -0.4 2.5
7 1 -4 2 2.7
7 1 -4 4.3 2.7
-7 1 4 -2.5 3.2
-7 1 4 -1.2 1.6
-6 -1 4 427.26 13.4
6 -1 -4 442.86 18
-6 -1 4 418.86 13.2
6 -1 -4 434.86 12
6 -1 -4 411.16 10.7
-6 -1 4 414.76 13.3
-6 -1 4 408.56 13.6
-6 -1 4 435.56 15.1
6 -1 -4 411.46 14.2
6 1 -4 413.26 13.4
6 1 -4 415.36 12.4
-6 1 4 416.76 10.2
-6 1 4 412.76 14
-6 1 4 393.16 15.9
-6 1 4 418.16 16.6
6 1 -4 419.46 13
-6 1 4 415.86 10.8
-5 -1 4 54.29 4.6
-5 -1 4 52.79 5
5 -1 -4 68.39 4.3
-5 -1 4 55.49 5
5 -1 -4 54.49 3.3
-5 -1 4 63.59 4.7
-5 -1 4 58.79 4.9
5 -1 -4 60.59 8.7
5 -1 -4 60.29 5.8
-5 1 4 50.69 6.2
-5 1 4 54.89 3.1
-5 1 4 54.89 7
5 1 -4 57.29 4.5
5 1 -4 57.69 4.9
-5 1 4 58.89 3
5 1 -4 53.09 4
4 -1 -4 687.13 18.5
-4 -1 4 671.03 16.4
-4 -1 4 692.53 16.9
4 -1 -4 698.63 14.5
4 -1 -4 685.63 14.4
-4 -1 4 692.03 15.6
-4 -1 4 676.93 17
4 -1 -4 681.33 19.8
-4 -1 4 670.13 16.4
-4 1 4 663.93 13.9
-4 1 4 630.54 18.8
4 1 -4 654.93 16.5
-4 1 4 678.23 13.8
4 1 -4 671.23 16.9
-4 1 4 705.33 17
-4 1 4 698.53 19.6
4 1 -4 677.43 15.4
3 -1 -4 101.79 6.4
3 -1 -4 97.29 7.2
-3 -1 4 103.69 4.1
-3 -1 4 97.79 4.6
3 -1 -4 95.79 4.7
3 -1 -4 104.89 3.4
-3 -1 4 101.29 4.8
-3 -1 4 98.09 4.9
3 -1 -4 103.39 3.6
3 1 -4 98.59 3.9
-3 1 4 89.19 5.9
3 1 -4 99.99 4.9
-3 1 4 102.59 3.3
-3 1 4 84.69 4.1
-3 1 4 99.89 6.5
3 1 -4 103.39 4.5
3 1 -4 105.09 5.1
-2 -1 4 315.37 7.1
2 -1 -4 311.47 6
-2 -1 4 306.87 8
2 -1 -4 317.67 8.5
2 -1 -4 311.17 10.4
2 -1 -4 312.67 7.2
2 -1 -4 304.07 10.3
-2 -1 4 328.37 8.9
-2 -1 4 318.37 9
-2 1 4 283.17 9.8
2 1 -4 318.17 9.3
2 1 -4 315.17 8.1
-2 1 4 322.17 10.5
2 1 -4 307.57 8.8
-2 1 4 316.37 6.5
-2 1 4 315.07 7.2
2 1 -4 295.97 7.2
1 -1 -4 271.97 6.4
1 -1 -4 264.97 5.8
-1 -1 4 265.47 6.7
-1 -1 4 259.77 7.2
1 -1 -4 261.47 8.9
1 -1 -4 265.87 6.8
1 -1 -4 262.27 5.5
1 -1 -4 258.97 8.4
-1 -1 4 264.87 5.5
-1 1 4 259.07 8.4
1 1 -4 263.17 6.8
1 1 -4 264.67 7.4
-1 1 4 258.27 6.5
-1 1 4 268.97 6.7
-1 -1 -4 520.55 11.6
1 -1 4 496.95 10.9
1 -1 4 508.25 10.3
-1 -1 -4 524.85 12.7
-1 -1 -4 497.15 11.5
-1 -1 -4 503.65 10.5
1 -1 4 516.15 12.4
-1 -1 -4 522.35 11.1
-1 1 -4 501.55 11.6
-1 1 -4 502.25 11.5
-1 1 -4 498.35 10.6
1 1 4 497.65 11.6
-1 1 -4 509.15 12.9
-2 -1 -4 1390.16 28
2 -1 4 1419.16 31.3
-2 -1 -4 1408.46 27.9
2 -1 4 1416.96 27.3
-2 -1 -4 1411.56 28.6
2 -1 4 1386.86 28
-2 1 -4 1396.56 25.7
-2 1 -4 1423.76 29.1
2 1 4 1459.35 28.5
2 1 4 1373.96 29.1
-2 1 -4 1392.96 28.4
3 -1 4 109.59 4.7
-3 -1 -4 110.29 4.8
3 -1 4 103.39 6.7
3 -1 4 102.59 4.6
-3 -1 -4 100.19 3.8
-3 -1 -4 99.59 5.2
-3 -1 -4 105.99 5.6
3 1 4 113.19 5.5
-3 1 -4 97.89 5.1
-3 1 -4 100.79 5.6
3 1 4 105.09 5.5
3 1 4 102.89 3.1
-3 1 -4 100.09 2.9
-4 -1 -4 1030.8 22.8
4 -1 4 1016.9 25.7
-4 -1 -4 1020 22.8
-4 -1 -4 978.7 20.2
4 -1 4 1004.5 21.7
4 -1 4 1014 22.1
-4 1 -4 1014.6 22.7
-4 1 -4 1008 25.9
4 1 4 1056.99 23.6
4 1 4 1030.8 23.5
4 1 4 990 19.5
-4 1 -4 846.12 18.7
-4 1 -4 1023.4 24
-5 -1 -4 8.4 2.9
-5 -1 -4 7.2 2.7
5 -1 4 3.3 2.3
5 -1 4 8.2 2.6
-5 -1 -4 3.2 2.2
5 -1 4 2.2 3.3
-5 1 -4 6.1 1.4
-5 1 -4 7.8 1.1
5 1 4 8.5 2.8
-5 1 -4 5.9 2.3
5 1 4 7.5 2.6
-5 1 -4 13.4 4.1
5 1 4 6.6 1.7
-5 1 -4 7 3
-6 -1 -4 442.46 14
6 -1 4 407.26 16.2
-6 -1 -4 376.56 11.8
-6 -1 -4 397.36 13.2
-6 -1 -4 441.26 14.1
6 -1 4 414.76 13.1
6 1 4 404.86 13.8
-6 1 -4 411.96 16.4
-6 1 -4 438.56 16
-6 1 -4 421.86 9
6 1 4 405.16 10.8
-6 1 -4 416.36 9.9
-6 1 -4 419.96 13.1
6 1 4 426.16 14.5
7 -1 4 37.5 5.9
7 -1 4 29.3 4.8
-7 -1 -4 29.4 5
-7 -1 -4 28.3 4.5
-7 -1 -4 31 4.8
-7 -1 -4 31.7 5.3
-7 1 -4 31.2 3.4
-7 1 -4 33.6 4.8
7 1 4 33.5 4.1
-7 1 -4 38 7.2
-7 1 -4 26.3 6
-7 1 -4 31.2 2.4
7 1 4 30.2 5.3
7 1 4 35.9 6.1
8 -1 4 16.2 7.9
-8 -1 -4 1.6 3.5
8 -1 4 4 4.6
-8 -1 -4 3.3 2.9
-8 -1 -4 -1 4.5
-8 -1 -4 3.9 4.6
8 -1 4 -2.1 3.4
-8 1 -4 4.4 5.2
-8 1 -4 2 2.8
8 1 4 1.1 4
8 1 4 -0.3 3.7
8 1 4 1.8 3
-8 1 -4 4.9 1.6
-8 1 -4 6.9 6.6
-8 1 -4 4.2 2.4
-9 -1 -4 18.8 4.6
-9 -1 -4 27.7 6.8
-9 -1 -4 16.5 6.7
9 -1 4 5.9 9.2
9 -1 4 24.6 6.5
9 -1 4 11.9 6.1
-9 -1 -4 24.6 5.8
-9 -1 -4 21.1 4.3
9 1 4 21.7 4.5
-9 1 -4 23.8 4.8
9 1 4 22.5 6.6
-9 1 -4 29.7 9.5
-9 1 -4 22.6 2.6
-9 1 -4 17 3.4
9 1 4 22.3 6.1
-9 1 -4 23.6 7.5
-10 -1 -4 11.3 7.4
-10 -1 -4 11.4 4.2
10 -1 4 -18.8 10.8
-10 -1 -4 6.9 9.2
10 -1 4 -3.4 7.1
-10 -1 -4 -5 3.9
-10 -1 -4 -5 5.3
10 -1 4 6.3 5.8
-10 1 -4 1.4 4.7
10 1 4 -1.8 6.6
10 1 4 0 4.7
-10 1 -4 -3.1 3.6
-10 1 -4 -3.9 10.8
-10 1 -4 4 7.1
10 1 4 6.6 7
-10 1 -4 0.4 2.2
-11 -1 -4 16 5.5
-11 -1 -4 -0.3 4.9
11 -1 4 11.2 8
-11 -1 -4 22.9 9.1
-11 -1 -4 11.8 7.5
-11 1 -4 9.1 9.3
-11 1 -4 8 4.5
11 1 4 2.4 6.3
-11 1 -4 11.7 5.9
11 1 4 14.2 8.2
-11 1 -4 9.9 3
-12 -1 -4 99.29 11.3
12 -1 4 90.79 12.7
-12 -1 -4 100.99 16.2
-12 -1 -4 70.49 8.7
-12 1 -4 67.79 14.9
12 1 4 85.59 13.5
-12 1 -4 80.39 10.3
-13 -2 4 41.7 13
13 -2 -4 -20.1 18
-13 -2 4 18.2 9.7
-13 2 4 24 9.4
13 2 -4 28 13.7
-13 2 4 3.6 16.7
-12 -2 4 33 10.9
12 -2 -4 31.7 11.5
-12 -2 4 31.3 9
12 -2 -4 28.2 10.6
12 2 -4 20 10.7
12 2 -4 26.6 10.4
-12 2 4 27.4 8
-12 2 4 31.1 14
-11 -2 4 168.38 21.3
11 -2 -4 179.08 16.4
-11 -2 4 164.08 14.7
11 -2 -4 148.39 13.6
11 2 -4 196.78 15.5
-11 2 4 183.38 12.3
-11 2 4 170.98 20.3
11 2 -4 152.28 15.1
-10 -2 4 148.99 15.5
-10 -2 4 161.78 15.6
10 -2 -4 149.88 11.7
-10 -2 4 157.98 13.3
10 -2 -4 162.58 13.8
10 -2 -4 112.29 17.4
-10 -2 4 141.49 15.7
-10 -2 4 162.28 15.7
10 2 -4 157.68 12.9
-10 2 4 177.88 15.5
-10 2 4 111.99 19.3
-10 2 4 152.98 10
10 2 -4 176.18 13.2
-10 2 4 137.79 17.5
9 -2 -4 456.95 15.9
9 -2 -4 434.36 18.7
-9 -2 4 452.05 19.1
-9 -2 4 423.66 18.5
-9 -2 4 421.06 20.4
-9 -2 4 450.45 18.2
-9 -2 4 458.55 18.7
9 -2 -4 416.76 25.2
-9 2 4 437.06 25.9
9 2 -4 456.45 17.4
-9 2 4 428.16 14.7
-9 2 4 460.75 23.3
9 2 -4 459.35 17.5
-9 2 4 441.46 19.2
8 -2 -4 56.69 8.5
-8 -2 4 46.1 7.6
8 -2 -4 59.29 7.4
-8 -2 4 64.49 9.8
-8 -2 4 64.99 7.8
-8 -2 4 56.49 7.7
8 -2 -4 61.59 11.8
-8 -2 4 61.79 7.8
-8 2 4 46 8.7
8 2 -4 60.19 7.7
-8 2 4 63.39 6.1
8 2 -4 58.89 8.4
-8 2 4 62.69 8
-8 2 4 58.99 2.9
-8 2 4 63.79 12.7
-7 -2 4 664.53 19
7 -2 -4 675.83 26.1
7 -2 -4 669.23 17.1
-7 -2 4 665.93 20.8
7 -2 -4 660.53 21.9
-7 -2 4 665.13 19.7
7 -2 -4 639.64 13.9
-7 -2 4 672.13 19.8
-7 -2 4 647.94 20.3
-7 2 4 665.73 17.4
7 2 -4 642.54 22.5
-7 2 4 648.94 20.5
7 2 -4 672.23 19.3
-7 2 4 667.73 25.1
-7 2 4 702.53 25.8
-7 2 4 639.84 13.2
6 -2 -4 901.11 28.8
6 -2 -4 899.71 18.3
6 -2 -4 874.61 25.9
6 -2 -4 915.01 20.2
-6 -2 4 887.21 24.3
-6 -2 4 918.31 22.8
-6 -2 4 903.41 22.9
-6 -2 4 923.01 24.2
-6 -2 4 917.71 22.3
-6 2 4 928.61 28.8
-6 2 4 895.41 17.6
-6 2 4 880.01 20.9
-6 2 4 840.12 28.2
6 2 -4 917.41 23.9
6 2 -4 900.31 22.7
-5 -2 4 653.73 19.1
5 -2 -4 669.83 14.7
5 -2 -4 673.93 14
-5 -2 4 604.84 18.6
-5 -2 4 669.73 17.8
-5 -2 4 639.94 21.3
5 -2 -4 679.93 21.6
-5 -2 4 687.63 16.9
-5 2 4 669.83 17.9
5 2 -4 679.63 19.1
-5 2 4 550.34 25.4
-5 2 4 690.33 23.1
-5 2 4 667.63 13.7
-5 2 4 664.83 16.1
5 2 -4 690.53 17.6
-4 -2 4 373.66 12
4 -2 -4 353.06 15.2
-4 -2 4 358.36 13
-4 -2 4 365.46 10.6
-4 -2 4 364.16 12.5
-4 -2 4 374.16 10.6
4 -2 -4 367.86 15
4 -2 -4 370.56 8.8
4 -2 -4 367.46 8.7
-4 2 4 361.46 8.7
-4 2 4 360.56 15.1
4 2 -4 356.66 12.5
-4 2 4 363.06 10.2
4 2 -4 367.66 11.2
-4 2 4 338.97 11.3
4 2 -4 367.96 12.9
-3 -2 4 587.14 15.9
-3 -2 4 577.94 13.4
3 -2 -4 577.24 12.2
3 -2 -4 582.34 12.3
-3 -2 4 569.34 13.5
3 -2 -4 543.45 18.3
3 -2 -4 565.04 18.2
3 2 -4 544.75 15.8
-3 2 4 571.84 13.9
-3 2 4 568.34 13.7
-3 2 4 569.04 18.9
3 2 -4 566.44 14.4
2 -2 -4 1.3 1.5
-2 -2 4 0.9 2.1
2 -2 -4 2.1 3.1
2 -2 -4 -1.5 2.6
2 -2 -4 2 1.1
-2 -2 4 3.7 2.2
-2 -2 4 1.4 1.4
-2 -2 4 1.5 1.2
2 -2 -4 3.3 1.3
-2 -2 4 4.2 2.2
-2 2 4 1.8 1.3
-2 2 4 2.5 2.7
1 -2 -4 1140.59 22.2
1 -2 -4 1128.89 22.7
-1 -2 4 1087.99 26.2
-1 -2 4 1126.79 26.7
1 -2 -4 1137.79 26.9
-1 -2 4 1136.39 21.8
1 -2 -4 1092.29 27.6
-1 -2 4 1129.39 22.7
-1 -2 4 1142.99 24.4
1 -2 -4 1128.49 23.4
1 2 -4 1114.89 21.4
1 2 -4 1092.19 24.4
-1 2 4 1128.79 27.3
-1 2 4 1142.29 21.2
0 -2 4 8766.82 159.18
0 -2 4 8886.31 156.98
0 -2 -4 8827.72 158.88
0 -2 4 8837.32 155.98
0 -2 -4 8858.91 153.88
0 2 -4 8725.53 160.18
0 2 -4 8611.54 153.88
0 2 -4 8636.84 156.18
-1 -2 -4 1060.89 22.8
-1 -2 -4 1073.59 20.6
-1 -2 -4 1068.29 24.1
1 -2 4 1072.49 23.5
-1 -2 -4 1065.49 24.6
1 -2 4 1071.59 21.5
1 -2 4 1026.7 27.8
-1 -2 -4 1049.99 22.9
1 -2 4 1083.79 24.7
-1 2 -4 1058.89 25.8
-1 2 -4 1059.79 21.8
-1 2 -4 1049.89 21.2
2 -2 4 7083.59 124.79
-2 -2 -4 6956.9 126.69
2 -2 4 7059.49 129.09
-2 -2 -4 7038.1 128.29
-2 -2 -4 7131.69 125.69
-2 -2 -4 7112.49 129.59
2 -2 4 7314.97 128.69
-2 -2 -4 7096.09 128.29
2 -2 4 7163.28 134.89
-2 -2 -4 7142.79 128.19
-2 2 -4 6948.8 130.99
-2 2 -4 7170.58 129.69
-2 2 -4 6992.7 126.69
-3 -2 -4 221.18 7.9
3 -2 4 221.78 8.3
-3 -2 -4 241.38 9.2
3 -2 4 223.88 8.8
-3 -2 -4 227.48 9.2
3 -2 4 211.18 11.8
-3 -2 -4 221.68 6.6
-3 2 -4 212.28 10.3
-3 2 -4 221.48 8
3 2 4 227.68 10
-3 2 -4 222.28 9.7
4 -2 4 114.09 6.8
-4 -2 -4 105.09 4.4
-4 -2 -4 108.79 7.2
-4 -2 -4 123.89 7.6
4 -2 4 109.09 10.1
4 -2 4 112.39 6
-4 2 -4 104.29 7
4 2 4 106.59 7.2
-4 2 -4 111.09 9.2
4 2 4 115.19 7.6
-5 -2 -4 3.9 3.6
5 -2 4 -2.5 4.3
5 -2 4 3.6 3.2
-5 -2 -4 8.3 3.9
-5 -2 -4 9.3 3.1
-5 -2 -4 0.3 3.1
5 2 4 3.1 3.1
5 2 4 -1.9 3.2
-5 2 -4 6.6 5.5
-5 2 -4 1.1 2.7
-6 -2 -4 19.7 4.9
6 -2 4 23.8 4.5
6 -2 4 26.8 4.1
-6 -2 -4 25 4.5
-6 -2 -4 29 5.7
6 -2 4 31.9 7.1
-6 -2 -4 29.8 5.8
6 2 4 28.8 5.9
-6 2 -4 18.4 4.5
6 2 4 25 5.3
-6 2 -4 26 7.5
7 -2 4 -2.1 4
-7 -2 -4 4.1 4.3
7 -2 4 6.4 3.5
7 -2 4 11 7.2
-7 -2 -4 3.3 3.2
-7 -2 -4 4.3 4.8
-7 -2 -4 5.6 5.7
7 2 4 -1.5 4.7
-7 2 -4 4.1 5.7
-7 2 -4 0.9 7.8
7 2 4 -3.1 4.5
-7 2 -4 6.7 3.9
-8 -2 -4 374.36 17.6
-8 -2 -4 365.96 15.3
8 -2 4 370.86 14.8
-8 -2 -4 361.06 12.4
-8 -2 -4 348.17 16.3
8 -2 4 358.56 15
8 -2 4 368.96 20.6
8 2 4 375.06 17.8
-8 2 -4 398.86 23
-8 2 -4 357.26 15.5
8 2 4 343.97 16.5
8 2 4 339.37 11.8
-8 2 -4 366.86 20.4
-9 -2 -4 89.09 10.7
-9 -2 -4 131.79 10.2
9 -2 4 111.49 12.6
9 -2 4 149.69 18.4
9 -2 4 123.79 11.2
-9 -2 -4 124.09 9.3
-9 -2 -4 129.69 10.8
-9 -2 -4 127.79 13
9 2 4 114.29 15
9 2 4 111.89 8.6
-9 2 -4 112.59 11
9 2 4 104.09 12.5
-9 2 -4 127.69 16.4
-9 2 -4 126.29 16.1
-10 -2 -4 157.28 11.6
-10 -2 -4 141.69 11.9
10 -2 4 136.49 13.4
10 -2 4 94.39 17.2
-10 -2 -4 156.78 12.1
10 -2 4 108.19 15.7
10 2 4 137.49 10.4
-10 2 -4 141.79 12.9
10 2 4 121.59 15.1
-10 2 -4 145.19 18.6
-11 -2 -4 105.19 12.9
-11 -2 -4 98.09 13
11 -2 4 82.49 12.1
-11 -2 -4 129.59 12
-11 2 -4 95.19 14
-11 2 -4 83.69 15.3
11 2 4 99.79 13.3
-12 -2 -4 166.58 15.7
12 -2 4 171.38 20
-12 -2 -4 140.49 15.5
12 2 4 116.49 17
-12 2 -4 151.78 18.3
-11 -3 4 182.78 19
-11 -3 4 193.98 21.6
11 -3 -4 194.68 21.1
-11 3 4 195.98 27.7
11 3 -4 222.18 21
10 -3 -4 26.2 8.9
-10 -3 4 41.1 10.2
10 -3 -4 27.6 9.8
-10 3 4 45.3 8.4
10 3 -4 33.8 10.1
-10 3 4 24.8 15.2
-9 -3 4 77.79 11.8
9 -3 -4 92.59 12
-9 -3 4 85.39 11.3
9 -3 -4 82.69 8.8
-9 -3 4 79.69 10.6
-9 3 4 85.69 12.4
9 3 -4 78.69 11
-9 3 4 74.69 10
-9 3 4 119.19 17.8
-8 -3 4 20.8 6.7
-8 -3 4 14.1 6.9
8 -3 -4 22.4 8.5
-8 -3 4 10.4 6.5
-8 -3 4 9.1 8.6
8 -3 -4 13.8 12.3
-8 -3 4 23.7 6.4
8 3 -4 21 6.8
-8 3 4 20.6 5.5
-8 3 4 9.7 6.3
-8 3 4 18.8 13.1
-8 3 4 22.3 10.7
-7 -3 4 46.6 7.3
-7 -3 4 39.1 6.1
-7 -3 4 42.2 7.6
7 -3 -4 50.09 11
7 -3 -4 42.3 6
-7 -3 4 34.8 6.3
-7 -3 4 39.8 8.4
-7 3 4 49.6 6.9
-7 3 4 26.9 5.8
7 3 -4 37.2 6.7
-7 3 4 61.59 13.4
-7 3 4 49 11.6
6 -3 -4 94.99 5.6
-6 -3 4 80.49 10.3
-6 -3 4 96.09 8
6 -3 -4 117.79 12.6
6 -3 -4 92.69 3.9
-6 -3 4 75.09 8.3
-6 -3 4 86.89 7.9
6 -3 -4 114.59 14.7
-6 -3 4 93.49 9.2
-6 3 4 85.29 7.4
-6 3 4 93.19 12.5
-6 3 4 88.39 12.3
6 3 -4 84.79 8.9
-6 3 4 96.29 7.7
5 -3 -4 109.29 13.7
5 -3 -4 98.29 4.3
-5 -3 4 94.39 6.7
-5 -3 4 94.49 9.6
-5 -3 4 97.19 8.7
-5 -3 4 105.09 7.8
5 -3 -4 95.79 11.1
5 -3 -4 108.99 5.3
-5 3 4 88.39 7
-5 3 4 112.09 12.3
-5 3 4 81.99 6.6
-4 -3 4 250.97 12.1
-4 -3 4 246.18 12.5
4 -3 -4 262.97 15.6
-4 -3 4 258.27 8.4
4 -3 -4 251.67 8.1
4 -3 -4 270.17 15.3
-4 -3 4 245.68 9.8
-4 -3 4 241.58 11
4 -3 -4 246.48 7.2
-4 3 4 244.28 8.7
-4 3 4 255.57 15.4
-3 -3 4 220.78 10.6
3 -3 -4 215.88 7.8
-3 -3 4 224.08 6.7
-3 -3 4 202.98 10.6
-3 -3 4 218.98 12.5
3 -3 -4 219.48 13.8
3 -3 -4 220.58 14
-3 -3 4 225.18 8.8
3 -3 -4 220.28 7
-3 3 4 212.58 6.7
-3 3 4 209.98 13.3
2 -3 -4 109.39 10.9
-2 -3 4 83.29 5.9
2 -3 -4 84.39 4.6
2 -3 -4 95.99 5.9
-2 -3 4 86.29 3.6
-2 -3 4 89.19 7.2
-2 -3 4 85.69 8.9
-2 -3 4 89.79 7.5
-1 -3 4 651.63 16.6
1 -3 -4 641.14 15.7
-1 -3 4 639.04 18.8
-1 -3 4 666.23 17.9
1 -3 -4 666.53 21.7
-1 -3 4 627.34 20.1
1 -3 -4 643.84 22.2
-1 -3 4 685.03 20.9
1 -3 -4 657.23 17.5
0 -3 -4 36.4 5.2
0 -3 -4 35.4 6.2
0 -3 4 33.6 6
0 -3 4 33.5 4.4
0 -3 4 42.2 6
0 -3 -4 39.6 6.7
0 -3 4 30 7.1
0 -3 -4 30.3 4
0 -3 -4 34.7 4.6
0 -3 4 27.5 4
-1 -3 -4 482.65 16.7
-1 -3 -4 475.25 13.6
1 -3 4 440.56 15.6
-1 -3 -4 480.05 14.4
1 -3 4 435.76 17.2
-1 -3 -4 485.65 16.1
1 -3 4 456.05 19.9
1 -3 4 485.75 13
2 -3 4 159.28 8.9
-2 -3 -4 171.58 5.1
-2 -3 -4 164.28 8.3
2 -3 4 158.28 6.2
-2 -3 -4 162.18 10.1
2 -3 4 166.48 10.1
2 -3 4 178.08 13.2
-2 -3 -4 159.68 8
-2 -3 -4 158.68 7.9
-2 -3 -4 178.18 9.9
-2 3 -4 164.88 10.5
-2 3 -4 165.58 5.7
-3 -3 -4 4.1 2.7
3 -3 4 5 1.4
3 -3 4 8.1 6.9
3 -3 4 -2.9 3.9
3 -3 4 8.7 3.8
-3 -3 -4 10.9 3.7
-3 -3 -4 7.7 4.2
-3 -3 -4 1.6 2.9
-3 -3 -4 2.9 4
-3 -3 -4 5.2 2.2
-3 -3 -4 4.5 4.2
3 -3 4 3.2 1.6
-3 3 -4 6.4 2.5
-3 3 -4 1 3.6
-4 -3 -4 2027.2 39.9
-4 -3 -4 2037.2 40.8
-4 -3 -4 2056.09 44.9
-4 -3 -4 2079.19 44.9
-4 -3 -4 2061.59 43.9
-4 -3 -4 2076.29 46.8
4 -3 4 2044.6 44.7
4 -3 4 2024.3 43
4 -3 4 2017.8 52.29
-4 -3 -4 2051.69 43.9
-4 3 -4 2015.8 47.2
-4 3 -4 2056.09 41.5
-4 3 -4 2028.8 47.2
5 -3 4 11.9 3.7
-5 -3 -4 16.2 3.3
-5 -3 -4 20 4.8
-5 -3 -4 15 4.6
-5 -3 -4 20 5.9
5 -3 4 16.3 8.6
-5 -3 -4 9 4.5
5 -3 4 13.7 5.2
-5 -3 -4 17.9 6.5
-5 3 -4 13.2 5.2
-5 3 -4 9 3.6
-5 3 -4 14.1 7.6
-6 -3 -4 1161.78 30.5
-6 -3 -4 1117.89 25.3
6 -3 4 1122.29 29.5
6 -3 4 1154.98 37.5
6 -3 4 1166.08 27.5
-6 -3 -4 1210.28 33.6
-6 -3 -4 1142.99 29.2
-6 -3 -4 1143.69 30.8
-6 3 -4 1128.99 35.8
6 3 4 1016.9 38.4
-6 3 -4 1145.19 28.4
-6 3 -4 1176.38 32.4
7 -3 4 319.57 12.9
-7 -3 -4 318.57 16
7 -3 4 324.07 23
-7 -3 -4 302.57 19
-7 -3 -4 343.07 14.8
7 -3 4 325.67 15.4
-7 -3 -4 324.17 16.9
-7 -3 -4 302.67 12.8
7 3 4 349.67 18.5
-7 3 -4 306.67 16.5
-7 3 -4 345.67 24.2
-8 -3 -4 20.7 5.2
8 -3 4 25.8 5.8
-8 -3 -4 13.6 5.8
-8 -3 -4 13.5 7.2
8 -3 4 12.8 7.1
-8 3 -4 -4.4 14.3
8 3 4 18.5 8.6
-8 3 -4 10.4 6.6
9 -3 4 240.88 16.6
-9 -3 -4 286.97 11.7
-9 -3 -4 246.48 15.2
-9 -3 -4 254.67 16.5
9 -3 4 270.47 19.2
-9 3 -4 247.58 18
9 3 4 254.37 20.3
-10 -3 -4 25.6 8.1
-10 -3 -4 38 8.2
10 -3 4 40.6 10.9
-10 3 -4 42.4 11
10 3 4 39.5 13.4
-9 -4 4 31 10.8
9 -4 -4 73.89 15.5
-9 -4 4 40.1 11.2
-9 4 4 46.1 10.8
-8 -4 4 33 9.1
-8 -4 4 11.4 11.1
8 -4 -4 35.5 12.9
-8 -4 4 35.1 9.4
-8 4 4 23.3 8.8
-8 4 4 51.99 8.6
-7 -4 4 27.6 8.5
7 -4 -4 21.6 11.4
-7 -4 4 55.99 9.9
-7 -4 4 33.6 9
-7 4 4 36.4 6.7
-6 -4 4 13.5 6.9
-6 -4 4 33.5 8.2
6 -4 -4 4.7 11.2
-6 -4 4 30 7.2
-6 4 4 28.4 5.1
-5 -4 4 10.9 3.6
5 -4 -4 7.2 2.7
5 -4 -4 -8.2 8.4
-5 -4 4 5.6 8.6
5 -4 -4 15.4 3.8
5 -4 -4 11.2 3.9
-5 -4 4 5.7 6.2
-5 -4 4 -0.6 9.1
-5 -4 4 6.8 5.4
5 -4 -4 41.5 12.1
-5 -4 4 8 6.1
-5 4 4 4.3 3.1
-4 -4 4 84.29 11
-4 -4 4 66.99 11.6
4 -4 -4 66.99 12.6
-4 -4 4 69.69 9.5
-4 -4 4 88.89 11
-4 -4 4 73.69 9.6
4 -4 -4 65.09 5.1
4 -4 -4 66.19 6.6
4 -4 -4 69.99 7.8
-3 -4 4 1.3 7.3
3 -4 -4 5.2 8.2
3 -4 -4 2.8 2.7
-3 -4 4 2.2 6.9
-3 -4 4 3.3 4.8
3 -4 -4 13.8 8.9
-3 -4 4 5.1 5.2
-3 -4 4 9.4 5.3
3 -4 -4 8.7 4.8
3 -4 -4 3.1 3.9
2 -4 -4 2.5 7.7
2 -4 -4 2 2.7
-2 -4 4 9 6.1
2 -4 -4 -1.1 4
2 -4 -4 4.8 7.5
-2 -4 4 2.5 4.7
-2 -4 4 1.1 6.9
2 -4 -4 0 4.7
-2 -4 4 4.9 4.6
-2 -4 4 -4.6 8
-2 -4 4 -3.9 6
-1 -4 4 27.6 10.2
1 -4 -4 27.3 7.8
-1 -4 4 25.8 7.5
1 -4 -4 26.7 9.3
-1 -4 4 26.2 6.2
-1 -4 4 25.3 6.2
1 -4 -4 16.7 6
1 -4 -4 36.2 8.8
-1 -4 4 23.5 7.4
1 -4 -4 25.6 4.4
1 -4 -4 29.5 5.2
0 -4 -4 44.2 7.2
0 -4 -4 53.99 7.8
0 -4 -4 56.59 10.2
0 -4 -4 53.29 9.9
0 -4 -4 44.6 6
0 -4 4 51.49 9.1
0 -4 4 54.59 11.6
0 -4 4 41.6 6.2
0 -4 -4 47.2 7.2
0 -4 4 40.4 7.7
0 -4 4 41.7 9.6
0 -4 4 28.6 7
0 -4 -4 53.89 8.9
-1 -4 -4 48.9 7.3
1 -4 4 49.9 8.4
1 -4 4 52.69 11.9
1 -4 4 59.79 8.5
1 -4 4 47.6 8.4
-1 -4 -4 51.09 8.2
-1 -4 -4 48.8 8.5
-1 -4 -4 51.19 6.8
-1 -4 -4 62.09 10.2
-1 -4 -4 70.69 10.7
-1 -4 -4 54.29 7.7
1 -4 4 49.4 6.1
-1 -4 -4 47.4 8.6
2 -4 4 7.6 2.5
-2 -4 -4 6.8 6.9
2 -4 4 16.5 6.8
2 -4 4 10.8 10.6
-2 -4 -4 15.2 7.4
-2 -4 -4 -0.8 6.2
-2 -4 -4 4.9 4.1
-2 -4 -4 8 4.3
2 -4 4 7.3 5.4
-2 -4 -4 10.2 4.8
-2 -4 -4 20.7 7.3
2 -4 4 5.7 3.9
3 -4 4 4.2 2.9
-3 -4 -4 -1.2 4.1
3 -4 4 5.7 6.6
-3 -4 -4 5 6.7
3 -4 4 11.7 10.9
-3 -4 -4 2.2 3.9
-3 -4 -4 10.7 8.2
-3 -4 -4 2 4.5
3 -4 4 -2.4 1.9
-3 -4 -4 1 7.3
3 -4 4 -1.5 5.2
4 -4 4 5.4 10.5
-4 -4 -4 8.8 7.6
-4 -4 -4 1.9 4.8
4 -4 4 9.5 5.4
-4 -4 -4 2.5 9.1
4 -4 4 6.7 6.9
-4 -4 -4 -5.3 7.4
-4 -4 -4 0.6 4.1
-4 4 -4 1.4 2.7
-4 4 -4 3.9 3.4
-4 4 -4 -5.4 6.8
-5 -4 -4 57.49 7.4
-5 -4 -4 55.59 8.1
-5 -4 -4 38.6 9.2
5 -4 4 57.19 9.7
-5 -4 -4 64.09 8.2
-5 -4 -4 44.4 8.4
5 -4 4 67.29 9.8
-5 -4 -4 72.99 10
-5 -4 -4 50.39 6.4
-5 4 -4 62.09 7.8
-5 4 -4 67.49 11.3
-5 4 -4 47.6 5.4
6 -4 4 173.78 12.6
6 -4 4 126.19 17
-6 -4 -4 150.68 14.9
-6 -4 -4 150.98 9.6
-6 -4 -4 168.88 9.7
-6 -4 -4 123.19 13.9
-6 -4 -4 168.68 13.5
-6 4 -4 159.08 11.7
-6 4 -4 180.68 17.1
-6 4 -4 152.68 9.9
-7 -4 -4 -1.7 6.4
-7 -4 -4 -11.6 7.2
7 -4 4 -3.5 8.4
-7 -4 -4 0.1 6.5
-7 4 -4 -2.4 9.8
-7 4 -4 8.9 7.2
-7 4 -4 0.2 5.3
-8 -4 -4 70.49 10.5
-8 -4 -4 55.89 11.9
8 -4 4 60.59 11.9
-8 4 -4 72.39 14.1
-8 4 -4 68.19 8.8
6 -5 -4 44.1 19.2
-6 -5 4 38.1 11
-6 -5 4 37.3 12.1
-5 -5 4 96.89 13.5
-5 -5 4 96.89 12.6
5 -5 -4 79.69 19.1
4 -5 -4 -3.8 14.8
-4 -5 4 -29.3 13
4 -5 -4 -3.1 4.6
-4 -5 4 7.4 10.5
-4 -5 4 -0.7 8.6
-4 -5 4 4.4 9.1
3 -5 -4 121.69 19.2
-3 -5 4 109.59 27.3
3 -5 -4 142.99 19.4
3 -5 -4 105.59 12.4
-3 -5 4 112.69 12.3
3 -5 -4 103.79 9.1
-3 -5 4 109.59 15.4
-3 -5 4 113.89 16.7
2 -5 -4 79.39 8.9
-2 -5 4 102.49 15.5
-2 -5 4 104.99 15.9
2 -5 -4 86.69 10.7
2 -5 -4 106.69 12
2 -5 -4 91.49 10.3
2 -5 -4 103.49 17.8
-2 -5 4 122.59 14.2
-2 -5 4 103.59 13.3
-2 -5 4 98.09 11.7
1 -5 -4 144.39 10.5
-1 -5 4 162.18 18
1 -5 -4 154.48 12.7
-1 -5 4 143.39 16.2
1 -5 -4 133.19 18.9
1 -5 -4 138.09 15.6
-1 -5 4 139.99 16.2
-1 -5 4 137.99 12.1
-1 -5 4 145.79 16.9
1 -5 -4 144.79 18
0 -5 -4 253.07 17.7
0 -5 4 232.88 19.3
0 -5 -4 227.98 12.4
0 -5 -4 240.58 20.6
0 -5 4 273.47 17.5
0 -5 -4 312.67 26
0 -5 4 251.17 22
0 -5 4 214.58 12.6
0 -5 -4 264.37 28
0 -5 -4 221.28 18.3
0 -5 4 223.48 17.3
1 -5 4 154.38 10
1 -5 4 169.78 16.6
-1 -5 -4 162.48 20
1 -5 4 148.29 17.2
-1 -5 -4 159.78 12
1 -5 4 164.58 14.5
-1 -5 -4 157.68 13.8
-1 -5 -4 157.78 18.9
1 -5 4 154.78 18.5
-1 -5 -4 159.88 15.6
2 -5 4 39.5 5
-2 -5 -4 63.69 15.7
-2 -5 -4 40.9 9.5
2 -5 4 37.3 11.2
-2 -5 -4 41.9 15.7
-2 -5 -4 18 13
-2 -5 -4 48.8 9
2 -5 4 49.6 13.1
-2 -5 -4 43.7 8
3 -5 4 104.19 15
-3 -5 -4 84.49 11.5
3 -5 4 89.19 14.6
-3 -5 -4 100.39 13.1
-3 -5 -4 93.79 14.6
-4 -5 -4 73.19 11.9
-4 -5 -4 85.99 12.6
4 -5 4 88.89 14.6
-4 -5 -4 88.79 10.7
-5 -5 -4 175.48 16.6
-5 -5 -4 150.58 18.3
5 -5 4 147.69 16.6
-13 0 5 -6.9 14
13 0 -5 14.7 9.7
-13 0 5 -3.1 8.5
-13 0 5 4.5 5.5
-13 0 5 12.7 10.5
12 0 -5 0 8.8
-12 0 5 8 4.6
-12 0 5 3.3 6.9
-12 0 5 6.5 11.7
12 0 -5 -13.9 8.9
-12 0 5 12.9 8.8
12 0 -5 -2.4 7.2
-11 0 5 -3.1 7.5
11 0 -5 1.2 5.5
-11 0 5 11.7 10.4
-11 0 5 10.9 7.6
-11 0 5 0.9 5
11 0 -5 -9.2 6.1
11 0 -5 6.3 6.9
-10 0 5 2.2 3.2
-10 0 5 -2 3.9
-10 0 5 -2.8 5.6
-10 0 5 -4.4 6.3
10 0 -5 1.8 4.8
10 0 -5 -4.5 5.3
-10 0 5 1.3 8.4
-9 0 5 -2.1 5.3
-9 0 5 0.7 5.3
9 0 -5 0.6 3.7
9 0 -5 -8 2.9
-9 0 5 -1 3
-9 0 5 -3.9 5.6
9 0 -5 -4.1 4.2
9 0 -5 1.1 3.6
8 0 -5 5.1 4
-8 0 5 -9.7 4.9
-8 0 5 -2.1 3.9
-8 0 5 -2 3
8 0 -5 -4.4 2.8
8 0 -5 0.3 3.1
8 0 -5 1.2 2.6
-8 0 5 -1.9 4.7
-8 0 5 -3.2 2.6
7 0 -5 -0.3 2.6
7 0 -5 -3.5 1.9
-7 0 5 1.1 2.4
-7 0 5 0.6 2.9
7 0 -5 -0.4 3
-7 0 5 -6.7 5.1
-7 0 5 -1.5 4.2
7 0 -5 0.2 2.6
-7 0 5 1.4 3.3
-6 0 5 1.3 1.9
6 0 -5 -1.7 1.9
-6 0 5 0.6 2.3
6 0 -5 0.8 2.7
6 0 -5 -0.5 1.9
6 0 -5 -2.3 2.1
-6 0 5 2.8 4.7
-6 0 5 -2.5 2.5
-6 0 5 -1.5 2.7
5 0 -5 2 1.8
-5 0 5 2.4 2.2
-5 0 5 3.4 1.7
-5 0 5 2.4 2.7
5 0 -5 0.9 1.5
5 0 -5 0.7 2
-5 0 5 3.2 1.9
5 0 -5 2.3 1.7
-5 0 5 5.4 4.4
-4 0 5 0.8 1.1
-4 0 5 1 2.1
4 0 -5 -1.3 1.4
4 0 -5 1.8 1.3
4 0 -5 -1.4 1.4
-4 0 5 0.3 1.7
-4 0 5 -0.4 1.1
4 0 -5 3.7 1.4
-4 0 5 3.3 3.1
4 0 -5 -0.5 1.4
3 0 -5 0.2 1.2
-3 0 5 1.3 1.5
3 0 -5 -0.1 1
3 0 -5 -0.1 1.3
-3 0 5 0.8 1.8
-3 0 5 -0.5 0.9
3 0 -5 0.9 1.4
-3 0 5 0.7 0.9
2 0 -5 0.8 1.4
-2 0 5 1.5 1.5
2 0 -5 0.4 0.9
2 0 -5 -0.6 0.9
-2 0 5 0 1
-2 0 5 0 0.7
-2 0 5 1.1 1.1
2 0 -5 -0.5 0.8
-1 0 5 0.2 0.8
1 0 -5 0.1 1
1 0 -5 -0.2 0.7
-1 0 5 0.4 0.7
-1 0 5 -0.5 0.6
1 0 -5 0.3 0.8
0 0 -5 5.4 1.1
0 0 -5 6.5 1
0 0 5 3.9 0.9
0 0 -5 5.3 1.2
0 0 5 2.6 0.7
-1 0 -5 0.2 0.7
1 0 5 0 0.8
-1 0 -5 0.2 0.6
-1 0 -5 -0.2 0.8
1 0 5 0.1 0.7
2 0 5 -0.1 1.1
2 0 5 1 0.9
-2 0 -5 -0.4 0.6
-2 0 -5 -0.3 1
-2 0 -5 -0.4 0.8
2 0 5 -1.7 1.1
2 0 5 -0.3 0.7
3 0 5 -1.8 1.1
-3 0 -5 1.6 1.4
-3 0 -5 -1.5 0.9
-3 0 -5 -0.7 0.7
3 0 5 0.8 1.4
-4 0 -5 -1.5 1.4
-4 0 -5 -1.4 1.7
-4 0 -5 0.7 1.1
4 0 5 -1.3 1.5
4 0 5 1.8 2.2
5 0 5 -1 2.6
-5 0 -5 -0.8 1.1
5 0 5 -5.3 3.3
-5 0 -5 2.7 2.2
-5 0 -5 -0.8 1.4
-5 0 -5 0.3 2
5 0 5 -1.1 1.8
-6 0 -5 0.6 1.5
-6 0 -5 -1.8 1.6
6 0 5 9.1 5.1
6 0 5 2.5 2.4
-6 0 -5 -1.9 2.3
-6 0 -5 0.7 2.5
6 0 5 5.4 4.2
-6 0 -5 -2.1 3
7 0 5 -2.4 2.7
-7 0 -5 -3.4 1.8
-7 0 -5 -2.6 3.2
7 0 5 2.1 4.5
-7 0 -5 1.7 4.2
-7 0 -5 0.5 1.8
-7 0 -5 1.1 2.7
7 0 5 5.2 5.6
8 0 5 -5.2 4.3
-8 0 -5 -1.9 1.9
-8 0 -5 1.7 3.7
-8 0 -5 3.4 5.2
-8 0 -5 2.8 3.3
8 0 5 -0.5 5.7
8 0 5 1.3 4.1
-8 0 -5 -0.3 2.5
-9 0 -5 -1.7 2.5
-9 0 -5 -4.1 5
-9 0 -5 0.9 3.6
9 0 5 -6.7 5.5
-9 0 -5 2.6 7.6
-10 0 -5 2.1 6
10 0 5 2.5 6
-10 0 -5 -1.1 9.1
10 0 5 -4.2 5.9
-10 0 -5 -0.9 5.1
-10 0 -5 0.5 3.2
-10 0 -5 -2.6 3.6
10 0 5 -14.5 7.5
-11 0 -5 1.8 4
11 0 5 10.9 7.6
-11 0 -5 10.9 5.2
11 0 5 -4.1 7.6
-11 0 -5 2.4 7
-11 0 -5 0.1 8.1
-12 0 -5 11.8 6.4
12 0 5 0.2 9.9
12 0 5 -2.8 10.2
-12 0 -5 4.6 5.1
13 -1 -5 23.4 10.4
-13 -1 5 20.2 6.9
13 1 -5 3.2 10
-13 1 5 10.7 6.4
-13 1 5 5.2 12.3
-12 -1 5 35.8 10.3
12 -1 -5 20.7 8.3
-12 -1 5 24.9 6.9
-12 -1 5 7.9 12.1
12 -1 -5 22.1 8.9
-12 -1 5 7 8.8
-12 1 5 22 5.5
-12 1 5 29.9 12.1
12 1 -5 13.4 9.4
-12 1 5 28.6 11.9
12 1 -5 14 7.9
-12 1 5 22.5 6
-11 -1 5 61.29 8.3
11 -1 -5 60.09 12
-11 -1 5 27.8 10.8
-11 -1 5 65.29 11.5
11 -1 -5 57.59 8.1
11 -1 -5 49.4 8.9
-11 -1 5 50.99 8.5
11 1 -5 58.39 8.2
-11 1 5 60.09 6.9
-11 1 5 58.39 7.3
-11 1 5 57.69 11.5
-11 1 5 77.29 12.2
11 1 -5 40.8 8.3
10 -1 -5 481.05 16.9
-10 -1 5 424.46 20.8
10 -1 -5 459.05 18.2
-10 -1 5 444.26 20.3
-10 -1 5 474.25 17.8
-10 -1 5 439.06 20.9
-10 -1 5 370.96 19.8
10 -1 -5 458.35 22.2
10 1 -5 470.35 18.1
-10 1 5 457.95 14.4
-10 1 5 436.06 13
-10 1 5 450.05 25.8
-10 1 5 457.15 20.4
-10 1 5 410.76 32.7
-9 -1 5 1992.6 45.4
-9 -1 5 2062.89 45.3
9 -1 -5 2027.5 46.1
-9 -1 5 2056.99 47.9
9 -1 -5 2102.69 51.59
9 -1 -5 2011.4 41.6
-9 -1 5 2035.4 50.09
-9 -1 5 2106.19 48
9 -1 -5 2067.49 44.1
-9 1 5 2007.7 51.79
9 1 -5 2099.19 46.1
-9 1 5 2039.7 40.5
-9 1 5 2039.8 48.2
9 1 -5 2077.09 45.2
-9 1 5 2017.7 41.8
-9 1 5 2073.99 52.89
8 -1 -5 2629.04 59.29
-8 -1 5 2494.05 53.99
-8 -1 5 2582.84 54.49
-8 -1 5 2451.85 56.69
8 -1 -5 2558.24 50.79
-8 -1 5 2457.15 52.69
-8 -1 5 2500.35 52.49
8 -1 -5 2494.25 49.1
8 -1 -5 2471.85 53.69
8 1 -5 2517.05 52.89
-8 1 5 2436.96 58.19
8 1 -5 2530.75 51.99
-8 1 5 2511.55 48
-8 1 5 2546.05 54.89
8 1 -5 2529.25 53.19
-8 1 5 2442.76 48.8
-8 1 5 2563.94 59.09
-7 -1 5 1093.49 26.7
7 -1 -5 1046.1 27.1
-7 -1 5 1079.19 29.7
7 -1 -5 1065.99 23.2
7 -1 -5 1096.19 31.6
-7 -1 5 1042.3 26.1
7 -1 -5 1057.69 24
-7 -1 5 1061.19 27
7 1 -5 1042.2 25
-7 1 5 1069.09 27.5
-7 1 5 1019.5 29.9
7 1 -5 1069.79 26.5
-7 1 5 1090.19 30.8
-7 1 5 1057.59 22.2
-7 1 5 1038.4 22.6
7 1 -5 1042.3 26
6 -1 -5 2041.5 39.5
-6 -1 5 2073.69 42.9
-6 -1 5 1958.3 42.1
-6 -1 5 2083.49 42.2
6 -1 -5 2128.99 47.5
6 -1 -5 2031.3 39.8
6 -1 -5 2016.3 44
-6 -1 5 2072.69 42.4
-6 -1 5 2064.79 43.9
-6 1 5 1932.11 46
-6 1 5 2000.7 46.6
6 1 -5 2053.19 42.5
-6 1 5 2026.9 43.3
-6 1 5 1968.8 38.6
6 1 -5 2001.6 42.7
6 1 -5 2030.5 41
-6 1 5 1999 38.5
-5 -1 5 545.95 15.4
5 -1 -5 592.44 13.2
-5 -1 5 550.94 15.5
5 -1 -5 579.44 13.3
-5 -1 5 572.24 15.5
5 -1 -5 609.94 19.6
-5 -1 5 589.14 15
-5 -1 5 542.95 15.3
5 1 -5 554.24 15.6
-5 1 5 569.34 12.5
-5 1 5 555.44 12.4
5 1 -5 562.44 15.5
-5 1 5 531.35 17.9
5 1 -5 559.04 14.1
-5 1 5 569.04 18.6
4 -1 -5 705.73 20.2
-4 -1 5 690.13 17.3
-4 -1 5 705.13 16.8
4 -1 -5 723.03 14.3
-4 -1 5 692.23 15.8
4 -1 -5 701.63 19.2
4 -1 -5 679.33 14.8
-4 -1 5 720.43 17.1
-4 -1 5 667.93 16.8
-4 1 5 669.33 19.5
4 1 -5 669.53 17
-4 1 5 632.34 19
-4 1 5 670.13 13.7
-4 1 5 688.33 17
-4 1 5 681.43 14.3
4 1 -5 668.73 17.1
4 1 -5 654.63 15.3
3 -1 -5 480.75 14.8
3 -1 -5 506.25 15.4
3 -1 -5 491.15 11
-3 -1 5 509.45 12.9
-3 -1 5 492.75 12.3
-3 -1 5 475.65 12.7
3 -1 -5 503.25 9.8
-3 -1 5 497.15 11.2
3 -1 -5 476.95 12.6
-3 1 5 451.75 14.3
3 1 -5 482.95 12.9
-3 1 5 481.35 9.6
3 1 -5 485.15 10.9
-3 1 5 495.35 15.1
3 1 -5 497.15 13.1
-3 1 5 474.05 10.5
3 1 -5 487.75 12.3
-2 -1 5 1318.07 28.6
2 -1 -5 1356.56 26.9
-2 -1 5 1381.56 24.9
2 -1 -5 1368.76 29.3
2 -1 -5 1329.87 25.5
-2 -1 5 1383.96 26.6
-2 -1 5 1303.27 27.5
-2 -1 5 1362.86 27.1
2 -1 -5 1319.27 29.6
2 1 -5 1344.77 27.4
-2 1 5 1397.86 29.7
2 1 -5 1191.78 25.2
2 1 -5 1361.66 26.7
2 1 -5 1342.47 28.1
-2 1 5 1313.57 28.8
-2 1 5 1355.26 25.4
1 -1 -5 201.88 7.7
1 -1 -5 202.18 6
-1 -1 5 206.28 4.1
1 -1 -5 210.08 4.3
-1 -1 5 201.28 6.2
-1 -1 5 197.88 5.8
1 -1 -5 192.88 5.4
-1 -1 5 198.98 7
-1 -1 5 200.38 7.3
1 -1 -5 190.28 7.8
-1 1 5 198.18 5.6
-1 1 5 187.58 7
1 1 -5 200.58 7.4
-1 1 5 199.38 5.8
1 1 -5 200.18 7.4
1 1 -5 201.38 6.3
1 1 -5 202.28 6
0 -1 -5 109.09 3.9
0 -1 5 109.49 3.9
0 -1 -5 96.69 3.8
0 -1 5 101.39 2.5
0 -1 5 114.29 4.2
0 -1 -5 102.69 4.8
0 -1 5 101.69 4.9
0 -1 -5 104.69 3.6
0 -1 5 97.99 4.9
0 1 -5 99.69 5.1
0 1 5 102.59 4
0 1 5 101.89 3.5
0 1 -5 99.79 3.9
0 1 5 102.49 4.3
0 1 5 113.59 3.9
0 1 -5 109.49 4
1 -1 5 242.38 7.7
-1 -1 -5 251.97 6.9
-1 -1 -5 240.88 7.9
1 -1 5 236.88 6.3
1 -1 5 234.28 5.8
-1 -1 -5 235.88 6.7
-1 -1 -5 246.38 5.9
-1 1 -5 243.08 6.2
1 1 5 243.18 7
-1 1 -5 247.68 7.1
-1 1 -5 245.18 6.7
1 1 5 243.68 6.9
2 -1 5 2131.09 44.2
2 -1 5 2091.79 40.9
2 -1 5 2133.69 39.5
-2 -1 -5 2102.29 40.5
2 -1 5 2097.39 38.1
-2 -1 -5 2169.78 41.6
-2 -1 -5 2175.18 40.7
-2 -1 -5 2044.9 40.3
-2 1 -5 2118.09 42
-2 1 -5 2098.29 38.6
2 1 5 2167.18 41.1
2 1 5 2086.69 42
-2 1 -5 2147.89 41.1
-2 1 -5 2185.58 40.8
-3 -1 -5 1.3 1.3
3 -1 5 1.4 2.2
-3 -1 -5 3 2
3 -1 5 2.3 1.5
3 -1 5 1.9 0.7
3 -1 5 1.2 1.4
-3 -1 -5 2.6 1.7
-3 1 -5 4.1 2.1
3 1 5 2.9 1.9
-3 1 -5 3.1 0.9
3 1 5 3.3 1.7
-3 1 -5 2.1 1.7
-4 -1 -5 4666.93 83.29
-4 -1 -5 4497.35 82.09
-4 -1 -5 4385.36 82.59
4 -1 5 4477.15 86.69
4 -1 5 4408.46 81.89
-4 -1 -5 4197.58 79.39
4 -1 5 4501.75 82.09
-4 1 -5 4575.34 84.19
-4 1 -5 4397.86 83.29
4 1 5 4518.85 83.89
4 1 5 4501.45 84.09
-4 1 -5 4319.67 78.49
-5 -1 -5 -2.5 1.8
-5 -1 -5 -2.3 1.6
5 -1 5 -2 3.3
-5 -1 -5 1.7 2.4
5 -1 5 1 2.1
5 -1 5 -1.6 1.9
-5 -1 -5 1.6 2.4
-5 1 -5 -0.1 0.8
5 1 5 3 2.9
5 1 5 0.8 2.4
-5 1 -5 0.5 1.8
5 1 5 0.1 1.2
-5 1 -5 2.5 3.2
-5 1 -5 0.9 2.8
-6 -1 -5 1279.47 29
-6 -1 -5 1270.17 28.2
6 -1 5 1278.47 28.9
6 -1 5 1322.67 29.1
6 -1 5 1265.77 32.5
-6 -1 -5 1266.37 27.4
-6 -1 -5 1349.96 30.1
-6 1 -5 1288.07 31.9
-6 1 -5 1315.87 25.4
-6 1 -5 1314.57 29.6
-6 1 -5 1249.57 24.2
6 1 5 1250.17 30.2
6 1 5 1275.07 25.8
6 1 5 1297.87 30.9
-6 1 -5 1261.57 33.3
-7 -1 -5 5.7 4.1
-7 -1 -5 4.5 2.9
-7 -1 -5 4 4.2
7 -1 5 4.9 3.3
-7 -1 -5 5.2 3
-7 -1 -5 7.7 3.3
7 -1 5 8.4 4.2
-7 1 -5 12.3 3.7
-7 1 -5 6.8 2.3
7 1 5 4.4 3.7
7 1 5 2.3 3.9
-7 1 -5 8.3 4.9
-7 1 -5 5.8 1.5
7 1 5 8.9 2.6
-7 1 -5 -0.5 5.1
8 -1 5 377.46 15.6
-8 -1 -5 376.46 15.8
-8 -1 -5 394.16 13.1
-8 -1 -5 373.16 13.5
-8 -1 -5 375.46 15.5
8 -1 5 390.66 14.5
8 -1 5 368.66 18.9
-8 -1 -5 367.06 13.4
8 1 5 379.16 15.4
-8 1 -5 382.06 18.7
-8 1 -5 366.86 9
8 1 5 368.46 11.6
-8 1 -5 378.86 14.2
-8 1 -5 371.66 10.5
8 1 5 389.86 16.4
-8 1 -5 382.36 18
9 -1 5 72.89 11.1
-9 -1 -5 85.19 8.8
9 -1 5 85.69 12.3
-9 -1 -5 92.59 11.5
-9 -1 -5 88.99 7.4
-9 -1 -5 94.29 10.8
-9 -1 -5 90.79 7.8
-9 1 -5 82.49 6.1
9 1 5 71.59 8.7
-9 1 -5 77.79 12.3
-9 1 -5 79.19 12.4
9 1 5 84.09 11.5
-9 1 -5 83.89 4.3
-9 1 -5 73.09 8.4
9 1 5 91.49 7.2
-10 -1 -5 1023.1 27.2
10 -1 5 981.1 35.3
10 -1 5 940.11 30.6
10 -1 5 1015.5 29
-10 -1 -5 983.4 29.2
-10 -1 -5 1002.1 28.1
-10 -1 -5 1025.9 26.2
-10 1 -5 973 33.8
-10 1 -5 981.7 20.5
10 1 5 1005.3 24.9
-10 1 -5 951.2 35.9
-10 1 -5 1008.4 22.2
-10 1 -5 1023.7 28.7
10 1 5 995.7 30.3
11 -1 5 -3.4 15
-11 -1 -5 29.9 6
11 -1 5 41.5 9.1
-11 -1 -5 42.7 7.3
-11 -1 -5 39.8 9.1
-11 1 -5 47.1 11.2
-11 1 -5 32.7 3.6
11 1 5 30.8 9.7
11 1 5 28.1 7.9
-11 1 -5 32.7 7.2
12 -1 5 248.68 19.5
-12 -1 -5 264.27 15.4
-12 -1 -5 281.17 14.9
-12 -1 -5 252.77 19.1
-12 1 -5 281.87 18.2
-12 1 -5 255.17 25.2
12 1 5 232.58 20.8
13 -2 -5 8.6 12.8
-13 -2 5 38.6 10.5
-13 2 5 33.7 17.7
13 2 -5 22.2 13.7
-13 2 5 34 9.6
12 -2 -5 73.69 11.8
-12 -2 5 44.7 10.8
12 -2 -5 43.4 10.6
-12 -2 5 77.79 13.6
12 2 -5 68.69 12.1
-12 2 5 70.49 9.5
-12 2 5 52.19 15.7
12 2 -5 44.9 12.3
-11 -2 5 100.99 14.5
11 -2 -5 85.79 12.2
11 -2 -5 97.69 12.3
-11 -2 5 89.89 13.2
11 2 -5 95.59 12
-11 2 5 46.6 11.8
-11 2 5 93.39 10.1
-11 2 5 82.99 14
11 2 -5 101.09 11.9
10 -2 -5 7.4 12.3
-10 -2 5 16.6 8.2
-10 -2 5 19.9 6.5
-10 -2 5 18.3 8.4
-10 -2 5 26.7 9.8
-10 -2 5 15.9 9.9
10 -2 -5 26 7.8
10 -2 -5 29.3 6.7
10 2 -5 27.2 7.4
-10 2 5 12.8 8.4
-10 2 5 6.5 15.3
-10 2 5 22 8.4
-10 2 5 33.4 5.6
10 2 -5 29.2 7.8
-10 2 5 24.7 3.3
-9 -2 5 262.77 15.2
-9 -2 5 264.07 14.3
9 -2 -5 260.77 15.3
-9 -2 5 267.87 15.3
9 -2 -5 232.58 21.2
-9 -2 5 238.18 14.5
-9 -2 5 262.47 17.3
-9 2 5 253.57 10.8
-9 2 5 288.57 23.4
9 2 -5 252.47 13.3
-9 2 5 265.47 18.7
-9 2 5 249.68 14.9
-9 2 5 265.87 6.9
9 2 -5 262.37 14
-8 -2 5 -0.2 4.6
8 -2 -5 3.2 2
8 -2 -5 -0.2 5
8 -2 -5 -16.7 7.8
-8 -2 5 2.6 3.6
-8 -2 5 1.4 5.2
-8 -2 5 -3.6 4.7
8 -2 -5 -2.7 3.4
-8 -2 5 10.9 5.4
8 2 -5 -1.6 3.7
8 2 -5 4 4.6
-8 2 5 -0.3 1.5
-8 2 5 21.4 9.3
-8 2 5 -5.9 3.9
-8 2 5 1.6 2.7
-8 2 5 2.2 5.1
7 -2 -5 170.28 6.1
7 -2 -5 181.18 12.1
7 -2 -5 180.08 8.3
-7 -2 5 181.08 11
-7 -2 5 182.18 9.6
-7 -2 5 170.78 9.9
-7 -2 5 167.08 9.8
-7 -2 5 176.48 10.4
7 -2 -5 183.58 16.4
-7 2 5 182.08 15.6
-7 2 5 184.78 10.7
-7 2 5 177.18 7.7
7 2 -5 166.78 9.1
-7 2 5 178.48 5.4
7 2 -5 170.28 10.2
-7 2 5 163.88 13
-6 -2 5 128.39 7.7
-6 -2 5 127.59 7.5
6 -2 -5 121.29 5
6 -2 -5 135.39 10.4
6 -2 -5 109.29 13.8
-6 -2 5 119.09 8.1
-6 -2 5 121.69 8.8
-6 -2 5 111.29 7.9
6 -2 -5 133.99 6.5
6 2 -5 124.69 8.5
-6 2 5 126.59 6.1
-6 2 5 115.79 13
-6 2 5 126.29 4.5
6 2 -5 114.59 7.3
-6 2 5 109.59 10.6
-5 -2 5 37.6 5.3
5 -2 -5 30.2 3.4
-5 -2 5 32.2 4
5 -2 -5 28.9 8.8
5 -2 -5 33.7 6.6
5 -2 -5 21.8 2.8
-5 -2 5 32.4 4.2
-5 -2 5 28.5 4.3
-5 -2 5 26.6 4.4
5 2 -5 30.7 4
5 2 -5 25.6 4.2
-5 2 5 23 5.7
-5 2 5 34 8.9
-5 2 5 33.3 3.3
-5 2 5 34.1 4.7
-5 2 5 27.1 2.6
5 2 -5 25.4 4.7
4 -2 -5 1603.24 38.2
-4 -2 5 1582.44 32.2
-4 -2 5 1557.74 34.2
-4 -2 5 1568.74 35.6
-4 -2 5 1607.64 34.8
4 -2 -5 1554.54 30.1
4 -2 -5 1560.84 29.4
4 -2 -5 1594.74 37.8
-4 -2 5 1612.44 31.6
-4 2 5 1555.54 30.1
4 2 -5 1604.44 35.7
4 2 -5 1578.34 35
-4 2 5 1468.85 33.1
-4 2 5 1513.55 38.5
-4 2 5 1635.74 38.7
-4 2 5 1580.64 31.1
4 2 -5 1568.74 32.5
3 -2 -5 31 5.8
-3 -2 5 24 3.6
-3 -2 5 27.8 3.1
-3 -2 5 29.7 3.3
3 -2 -5 22.9 5
-3 -2 5 33.5 4.2
3 -2 -5 27 2.1
3 -2 -5 32.3 2.5
-3 2 5 32.2 5.5
-3 2 5 29.1 2.7
-3 2 5 31.3 3.5
3 2 -5 30.7 3.5
3 2 -5 27.6 4.1
2 -2 -5 482.85 12
2 -2 -5 488.55 10.8
2 -2 -5 469.45 15.3
-2 -2 5 478.85 15.5
-2 -2 5 441.56 14
-2 -2 5 486.25 11.3
2 -2 -5 445.16 16.2
-2 -2 5 481.85 11
2 -2 -5 489.45 11.1
-2 -2 5 465.45 13.3
-2 2 5 480.75 11.2
2 2 -5 469.15 11
2 2 -5 470.45 13.5
-2 2 5 473.35 15.9
1 -2 -5 726.03 20.8
-1 -2 5 714.53 15.3
1 -2 -5 748.73 16.3
1 -2 -5 734.63 15.7
1 -2 -5 715.03 19.1
1 -2 -5 733.43 15.7
-1 -2 5 723.03 15.4
-1 -2 5 737.33 17.3
-1 -2 5 741.43 19.8
1 -2 -5 731.43 16
-1 -2 5 710.53 19.4
-1 2 5 713.03 19.7
1 2 -5 707.23 17.5
-1 2 5 732.13 14.8
1 2 -5 736.33 15.3
0 -2 5 1051.39 21.5
0 -2 5 1085.19 25.4
0 -2 -5 1078.19 22.4
0 -2 5 1075.69 22.4
0 -2 -5 1069.99 21
0 -2 -5 1055.79 22
0 -2 5 1049.4 22.6
0 -2 -5 1063.99 24.5
0 2 -5 1052.49 21.2
0 2 -5 1038.5 26.1
0 2 -5 1041.8 22.7
-1 -2 -5 972.8 21.1
1 -2 5 960 19.9
-1 -2 -5 981.9 19.5
-1 -2 -5 974.4 22.1
1 -2 5 986.1 26.8
1 -2 5 954.8 21.3
-1 -2 -5 997.8 23.5
-1 -2 -5 933.01 21.1
1 -2 5 991.3 23.4
-1 2 -5 967 20.1
-1 2 -5 980.6 24.6
-1 2 -5 939.21 20.3
2 -2 5 1042.7 20.4
-2 -2 -5 1064.29 24.9
-2 -2 -5 1063.19 23.7
2 -2 5 1069.89 24.5
-2 -2 -5 1083.59 21.7
-2 -2 -5 1079.09 22.9
2 -2 5 1074.99 23.2
-2 -2 -5 1052.89 21.7
2 -2 5 1049.4 28.9
-2 -2 -5 1043.1 23.4
-2 2 -5 1074.79 26.2
-2 2 -5 1046.5 24.5
-2 2 -5 1019.1 20.9
-2 2 -5 1044 22.5
-3 -2 -5 970.7 20.6
3 -2 5 950.6 17.6
3 -2 5 960 21.9
-3 -2 -5 988.5 21.1
-3 -2 -5 943.71 19.2
-3 -2 -5 961.8 23.3
3 -2 5 971.7 28
3 -2 5 979.4 22.6
-3 -2 -5 964.2 22.8
-3 -2 -5 965.5 22.4
3 2 5 965.5 23.6
-3 2 -5 1001.4 24.4
-3 2 -5 950 24.5
-3 2 -5 951.7 21.9
3 2 5 958.2 24.8
4 -2 5 10.5 3.1
4 -2 5 4.9 2.4
-4 -2 -5 10 3.1
-4 -2 -5 17.3 3.9
-4 -2 -5 8 3.3
-4 -2 -5 8.5 1.8
-4 2 -5 6.3 4.3
4 2 5 2.5 2.8
4 2 5 5.2 3.3
-4 2 -5 8.2 3.2
5 -2 5 1157.98 26.3
-5 -2 -5 1224.58 28.3
-5 -2 -5 1177.08 27.3
5 -2 5 1181.18 33.4
5 -2 5 1178.28 26.8
-5 -2 -5 1148.79 28.2
-5 -2 -5 1114.19 23.8
5 2 5 1161.58 29.6
5 2 5 1141.59 29.3
-5 2 -5 1160.68 29.2
-5 2 -5 1186.48 31.5
-6 -2 -5 29.7 5.7
-6 -2 -5 30.7 4.9
-6 -2 -5 30.2 5.4
6 -2 5 27.7 4.2
-6 -2 -5 42.1 6.8
-6 -2 -5 28.5 3.7
6 -2 5 26 6.8
6 -2 5 40.8 5.4
6 2 5 31.6 5.9
6 2 5 31.9 6
-6 2 -5 29.5 5.4
-6 2 -5 39 8.2
7 -2 5 426.66 15.2
-7 -2 -5 429.16 15.8
-7 -2 -5 443.06 16.8
-7 -2 -5 407.66 17.3
7 -2 5 448.26 20.9
7 -2 5 429.06 14.5
-7 -2 -5 407.96 11.7
-7 -2 -5 432.06 15.1
-7 2 -5 416.66 21
-7 2 -5 428.16 16.3
7 2 5 424.16 17.7
7 2 5 395.86 16.9
-8 -2 -5 5.3 3.3
8 -2 5 1.8 4.6
8 -2 5 11.8 7.8
-8 -2 -5 3.1 6.3
8 -2 5 3.8 4.5
-8 -2 -5 4.1 6.8
-8 -2 -5 -3 4.2
-8 2 -5 -7.4 4
8 2 5 3.8 5.8
8 2 5 0.7 5.7
-8 2 -5 -3.3 9.8
-9 -2 -5 60.19 7.7
-9 -2 -5 53.79 7.8
9 -2 5 27.2 7.9
-9 -2 -5 53.29 7.6
9 -2 5 44.2 8.1
-9 -2 -5 29.9 9.1
9 -2 5 74.39 13.2
-9 -2 -5 53.09 16
-9 2 -5 58.79 14.5
9 2 5 61.59 13.6
-9 2 -5 49.99 7.8
9 2 5 49.99 9
10 -2 5 19.9 18.3
-10 -2 -5 21.4 6.2
-10 -2 -5 16.5 5.2
10 -2 5 5.3 7.2
-10 -2 -5 14.9 6.2
10 2 5 3.3 8.8
10 2 5 5.2 5.5
-10 2 -5 15.6 7.6
11 -2 5 34.8 10.3
-11 -2 -5 44.2 7.5
-11 -2 -5 25.2 7.9
-11 2 -5 28.6 9.9
11 2 5 17.3 11.7
12 -2 5 0.4 11.5
-12 2 -5 9.6 10.6
-11 -3 5 -25.1 12.4
11 -3 -5 -7.9 10.9
-11 -3 5 -19.5 8.5
-11 3 5 5 8
11 3 -5 -0.3 11.3
11 3 -5 12.3 12.7
-11 3 5 14.8 15.1
10 -3 -5 6.7 7.5
10 -3 -5 26.9 10.9
-10 -3 5 13.9 8.9
-10 -3 5 9.5 11.7
-10 3 5 36.9 14
-10 3 5 28.3 7.3
-10 3 5 -23.8 8.9
10 3 -5 27.3 10
10 3 -5 21.9 11.2
9 -3 -5 78.99 10.2
-9 -3 5 76.29 10.3
-9 -3 5 106.09 12.3
-9 -3 5 92.79 12
9 -3 -5 98.49 12.3
-9 3 5 110.79 12.3
-9 3 5 96.59 10.3
9 3 -5 100.59 11.5
-9 3 5 108.89 16.6
8 -3 -5 527.35 23.1
-8 -3 5 518.85 20.6
-8 -3 5 534.25 19.6
-8 -3 5 516.55 19.5
8 -3 -5 513.85 15.8
-8 -3 5 499.35 19
-8 -3 5 506.45 22
8 -3 -5 502.65 28.9
-8 3 5 525.05 27
-8 3 5 523.85 29.9
-8 3 5 516.55 19.4
-8 3 5 515.65 17.1
8 3 -5 557.34 20.3
-7 -3 5 152.58 10.3
-7 -3 5 160.28 10.5
-7 -3 5 163.08 11.1
7 -3 -5 143.29 8
-7 -3 5 154.38 13.4
7 -3 -5 144.59 17
-7 -3 5 145.79 11.5
7 -3 -5 186.48 18.5
7 3 -5 151.78 11.3
-7 3 5 164.48 10.4
-7 3 5 158.48 16.4
-7 3 5 158.68 9.2
-7 3 5 157.88 19.7
-6 -3 5 513.25 16.1
6 -3 -5 487.85 11.5
-6 -3 5 500.35 17.1
6 -3 -5 520.75 23.6
-6 -3 5 490.55 19.2
6 -3 -5 507.55 22.2
-6 -3 5 507.65 15.6
6 -3 -5 523.45 13
-6 -3 5 496.45 18.8
-6 3 5 499.65 15.3
-6 3 5 503.75 16
-6 3 5 483.15 24.4
-6 3 5 501.55 23.9
6 3 -5 510.65 17.4
-5 -3 5 84.09 7.2
5 -3 -5 89.29 11.4
-5 -3 5 77.19 9.5
5 -3 -5 88.69 4.7
-5 -3 5 80.69 6.6
-5 -3 5 75.59 7.4
5 -3 -5 101.99 13.3
5 -3 -5 75.59 4.5
-5 -3 5 79.89 8.5
-5 3 5 79.29 6.4
-5 3 5 76.89 11.3
4 -3 -5 838.82 18.3
4 -3 -5 786.32 27.3
-4 -3 5 851.01 24
-4 -3 5 880.31 20.6
-4 -3 5 847.12 26.9
-4 -3 5 869.41 19.2
4 -3 -5 840.42 18.1
4 -3 -5 861.11 27.8
-4 -3 5 864.61 25.1
-4 -3 5 833.42 23.2
-4 3 5 866.71 19.7
-4 3 5 839.02 28.6
3 -3 -5 231.08 14.4
3 -3 -5 237.68 8
-3 -3 5 253.07 11.7
-3 -3 5 271.07 11.8
-3 -3 5 259.37 9.2
3 -3 -5 250.17 15.1
-3 -3 5 252.97 7.6
-3 -3 5 256.07 13.8
3 -3 -5 243.78 7.7
-3 3 5 244.08 14.5
-3 3 5 254.07 7.4
-2 -3 5 903.51 25.8
-2 -3 5 863.71 17.8
-2 -3 5 849.22 24.2
2 -3 -5 831.22 29
-2 -3 5 893.11 20.1
-2 -3 5 889.61 23.2
2 -3 -5 852.31 27.4
2 -3 -5 868.01 20.1
2 -3 -5 867.11 19.2
1 -3 -5 12.9 3
-1 -3 5 18.6 3.4
1 -3 -5 9.6 4.8
-1 -3 5 18.5 4.3
-1 -3 5 8 4.2
-1 -3 5 11.4 3.8
1 -3 -5 10.7 2.5
1 -3 -5 9.2 5.1
1 -3 -5 12.7 3.4
-1 -3 5 11.7 3.8
0 -3 5 36.2 5.2
0 -3 -5 38.8 4.4
0 -3 -5 27.3 5.9
0 -3 -5 33.7 6.1
0 -3 5 37.7 4.9
0 -3 -5 34 2.9
0 -3 -5 37.7 5.7
0 -3 5 38 6
0 -3 5 42.5 8.4
0 -3 5 33.9 4.4
0 -3 -5 29.9 3.9
-1 -3 -5 74.19 7.9
1 -3 5 70.89 5.4
-1 -3 -5 65.69 5.6
1 -3 5 75.59 7.2
1 -3 5 67.29 10.2
-1 -3 -5 68.49 7.9
1 -3 5 76.59 7.6
-1 -3 -5 72.69 3.7
-1 -3 -5 75.39 5.5
-1 3 -5 66.79 3.6
-2 -3 -5 118.79 7
2 -3 5 127.79 8.4
2 -3 5 126.19 12.8
-2 -3 -5 125.99 4.9
2 -3 5 124.29 8.6
-2 -3 -5 119.49 7.4
2 -3 5 120.69 5.4
-2 -3 -5 132.09 9.2
-2 -3 -5 126.39 9
-2 -3 -5 130.49 7.1
-2 3 -5 112.99 5.3
-2 3 -5 115.39 9.5
3 -3 5 213.28 5.9
3 -3 5 237.88 10.6
-3 -3 -5 225.08 8.4
-3 -3 -5 223.28 7.4
3 -3 5 236.88 16.1
3 -3 5 218.68 5.8
-3 -3 -5 225.88 11.6
-3 -3 -5 222.28 10.7
-3 -3 -5 232.78 10.6
-3 -3 -5 242.38 10.2
-3 3 -5 217.48 12.4
-3 3 -5 221.48 8.1
-4 -3 -5 1129.39 27.1
-4 -3 -5 1143.29 31
-4 -3 -5 1139.89 29
4 -3 5 1188.68 28.5
-4 -3 -5 1145.29 24.6
-4 -3 -5 1169.08 24.9
4 -3 5 1120.79 35.9
4 -3 5 1171.58 27.8
-4 -3 -5 1179.18 29.6
-4 -3 -5 1145.69 28.2
-4 3 -5 1173.78 31.8
-4 3 -5 1163.58 31.2
-4 3 -5 1118.49 26
-5 -3 -5 355.26 10.4
-5 -3 -5 366.66 12.1
5 -3 5 361.86 21
-5 -3 -5 374.26 14.2
-5 -3 -5 372.66 12.7
-5 -3 -5 374.26 15.3
5 -3 5 381.36 14.4
5 -3 5 368.56 13.3
-5 -3 -5 351.86 16.7
-5 -3 -5 337.07 15.3
-5 3 -5 373.96 18.9
-5 3 -5 372.96 13
-5 3 -5 369.56 16.5
6 -3 5 311.67 12.4
-6 -3 -5 303.87 11.3
6 -3 5 304.97 13.6
-6 -3 -5 326.17 17.4
6 -3 5 323.47 21.5
-6 -3 -5 276.97 10.8
-6 -3 -5 299.07 13.4
-6 -3 -5 274.77 15.2
-6 -3 -5 299.87 15.4
-6 3 -5 291.57 20.1
-6 3 -5 299.67 15.8
6 3 5 317.57 16.9
-6 3 -5 274.87 12.5
-7 -3 -5 85.89 7.5
7 -3 5 118.69 19
-7 -3 -5 78.39 9.5
7 -3 5 113.19 8.9
-7 -3 -5 80.29 7.1
7 -3 5 85.49 9
-7 -3 -5 94.69 9.6
-7 -3 -5 91.49 10.8
-7 -3 -5 81.79 13
-7 3 -5 74.59 16.1
-7 3 -5 78.89 15
-7 3 -5 92.79 9.6
7 3 5 107.59 12.9
8 -3 5 3.4 7.1
-8 -3 -5 2.2 6.3
-8 -3 -5 -5.7 5.3
8 -3 5 14.6 5.8
-8 3 -5 -11 14
-8 3 -5 -1.4 6.7
8 3 5 12 8.5
-9 -3 -5 243.08 15.2
-9 -3 -5 207.88 15.5
9 -3 5 221.28 16.3
9 3 5 242.78 20.4
-9 3 -5 220.68 17.9
-10 -3 -5 27 8.2
10 -3 5 33.3 10.5
-10 -3 -5 17.1 8.3
10 3 5 21.5 13.7
-10 3 -5 29 10.7
-9 -4 5 260.37 21
9 -4 -5 240.58 25.3
-9 -4 5 276.77 19.7
-9 4 5 271.87 29.7
-9 4 5 269.37 18.9
-8 -4 5 92.99 13.5
-8 -4 5 87.49 12.9
8 -4 -5 72.59 14.3
-8 -4 5 77.29 12.3
-8 4 5 84.99 16.3
-8 4 5 105.59 13.2
7 -4 -5 235.68 22.4
-7 -4 5 254.47 17.2
7 -4 -5 260.97 11
-7 -4 5 252.67 17.6
-7 -4 5 273.17 15.8
-7 4 5 250.27 12.9
6 -4 -5 51.29 13
6 -4 -5 46.1 4.4
-6 -4 5 51.49 8.4
6 -4 -5 49.9 5.3
-6 -4 5 56.09 8.4
-6 -4 5 38.8 8.2
-6 4 5 50.59 5.7
5 -4 -5 178.18 7.9
-5 -4 5 141.39 18.6
-5 -4 5 154.18 7.8
5 -4 -5 170.98 9.1
-5 -4 5 192.68 12.3
-5 -4 5 191.28 16.8
5 -4 -5 176.08 7.2
-5 -4 5 175.08 14.1
5 -4 -5 143.59 19
-5 4 5 166.18 7.1
-4 -4 5 21.9 9.3
4 -4 -5 44.3 5.1
-4 -4 5 42.3 6.7
4 -4 -5 40 5.8
-4 -4 5 36.7 7
4 -4 -5 37.3 10.9
4 -4 -5 41.7 5.7
-4 -4 5 44.8 8.2
-4 -4 5 42.8 9
3 -4 -5 367.76 11.3
3 -4 -5 376.96 12.4
3 -4 -5 381.46 14.3
-3 -4 5 376.46 19.9
-3 -4 5 368.26 14.2
3 -4 -5 430.36 22.4
-3 -4 5 383.46 17
-3 -4 5 394.66 17.7
-2 -4 5 2.3 6.6
-2 -4 5 10.5 6.3
-2 -4 5 21.5 7.8
2 -4 -5 8.2 4
-2 -4 5 11.2 9.2
-2 -4 5 11.5 5.6
2 -4 -5 27.9 8.7
2 -4 -5 11.4 5.3
2 -4 -5 7.9 2.9
2 -4 -5 -0.4 8.2
-2 -4 5 12 4.9
2 -4 -5 10.5 4.2
-1 -4 5 598.94 21.5
1 -4 -5 616.24 16.8
-1 -4 5 636.04 23.4
-1 -4 5 612.74 27.9
1 -4 -5 606.94 26.8
1 -4 -5 628.94 24.7
-1 -4 5 627.74 18.2
1 -4 -5 644.34 23.5
1 -4 -5 625.64 18.5
1 -4 -5 632.34 19.2
1 -4 -5 639.14 20.5
-1 -4 5 657.13 20.2
-1 -4 5 620.64 25.1
0 -4 -5 7 5.5
0 -4 -5 1.7 3.1
0 -4 5 -2.7 4.7
0 -4 -5 5.3 3.6
0 -4 5 4.5 5.8
0 -4 -5 -1.4 4.8
0 -4 -5 10.5 7
0 -4 5 -12.7 9.1
0 -4 5 2.7 4.5
0 -4 -5 8.1 6.6
0 -4 5 7.3 6.2
0 -4 -5 -0.9 8.2
1 -4 5 183.38 10.9
1 -4 5 176.88 18.9
-1 -4 -5 189.48 13
-1 -4 -5 197.48 15.1
-1 -4 -5 177.38 13.8
1 -4 5 170.58 9.6
-1 -4 -5 178.18 13.4
1 -4 5 167.78 13.3
-1 -4 -5 192.18 9.7
1 -4 5 175.48 12.9
-1 -4 -5 182.48 10.5
-2 -4 -5 100.79 12.7
-2 -4 -5 89.09 12.1
-2 -4 -5 84.49 10.2
2 -4 5 91.09 10.8
2 -4 5 108.89 16
2 -4 5 89.49 5.7
2 -4 5 91.49 7.1
-2 -4 -5 97.39 13.2
-2 -4 -5 98.79 8.6
-2 -4 -5 94.39 8.9
2 -4 5 75.29 9.5
3 -4 5 107.39 12
3 -4 5 103.79 5.5
-3 -4 -5 121.69 10.4
-3 -4 -5 94.69 11
3 -4 5 109.39 4.7
-3 -4 -5 101.19 12.6
-3 -4 -5 124.69 13.2
3 -4 5 111.99 11.2
-3 -4 -5 121.29 8.6
-3 -4 -5 115.79 9.6
3 -4 5 139.09 20.7
-4 -4 -5 31.4 4.2
-4 -4 -5 40.1 6.6
4 -4 5 40.4 7.2
-4 -4 -5 33.5 5.4
4 -4 5 42.6 8.1
-4 -4 -5 40.1 10.5
-4 -4 -5 31.6 3.8
-4 -4 -5 43.7 9.5
-4 -4 -5 42.6 8.8
-4 4 -5 31.3 8.9
-4 4 -5 30.8 4.6
-4 4 -5 35.9 4.3
5 -4 5 307.87 16.1
-5 -4 -5 315.37 10.9
5 -4 5 296.57 14.8
-5 -4 -5 309.17 11.7
-5 -4 -5 302.37 14.8
-5 -4 -5 286.57 16.3
-5 -4 -5 334.07 16.7
-5 4 -5 324.27 13.1
-5 4 -5 306.47 11.6
-5 4 -5 319.57 19.4
-6 -4 -5 2.5 5.5
6 -4 5 17.3 7.1
-6 -4 -5 0.1 7.2
-6 -4 -5 -1.1 4.6
-6 -4 -5 15.4 7.5
-6 -4 -5 -1.1 6
-6 4 -5 9 5.1
-6 4 -5 -1.1 5.9
-6 4 -5 -12.6 8
-7 -4 -5 118.79 12.7
7 -4 5 120.89 12.6
-7 -4 -5 119.89 15.3
-7 -4 -5 104.39 12.9
-7 -4 -5 136.79 15.3
-7 4 -5 139.39 11.4
-7 4 -5 135.09 18.6
-7 4 -5 121.89 13.8
-8 -4 -5 45.6 11.1
-8 -4 -5 31.1 8.8
8 -4 5 43.2 11.7
-8 4 -5 47 8.4
-8 4 -5 88.89 14.8
-6 -5 5 7.6 10.1
-6 -5 5 9.2 11
6 -5 -5 19.7 18.7
-5 -5 5 405.46 24.4
-5 -5 5 426.66 22.1
5 -5 -5 432.56 33.6
-4 -5 5 0.7 9
4 -5 -5 19.6 16.9
-4 -5 5 -8.2 9.2
4 -5 -5 -2.3 4.7
4 -5 -5 0.8 6.5
-3 -5 5 179.78 16.9
-3 -5 5 147.59 17.1
-3 -5 5 178.08 18
3 -5 -5 155.78 10.1
3 -5 -5 136.59 21.4
3 -5 -5 158.88 13
-3 -5 5 175.18 17.8
-2 -5 5 11.7 9.3
-2 -5 5 -7.3 11.6
2 -5 -5 -13.6 14.4
2 -5 -5 8.1 4.8
2 -5 -5 1.7 9.6
2 -5 -5 2.4 6.3
-2 -5 5 -2.7 11.6
2 -5 -5 -10.2 7.6
-2 -5 5 15.3 8.8
-2 -5 5 -5.8 8.2
1 -5 -5 24.4 7.4
1 -5 -5 10.9 8.9
1 -5 -5 20.5 14.7
-1 -5 5 28.6 10.4
-1 -5 5 32.6 9.2
1 -5 -5 20.7 5.8
-1 -5 5 25.6 10.1
-1 -5 5 39.2 12
1 -5 -5 36.9 11.4
0 -5 5 17.9 11.6
0 -5 -5 29 9.1
0 -5 -5 24.9 15.4
0 -5 -5 75.89 15.6
0 -5 -5 20.3 12.2
0 -5 5 32.9 10.2
0 -5 -5 35.7 6.6
0 -5 -5 44 8
0 -5 5 37 6.6
0 -5 5 37.7 11.3
0 -5 -5 37 10.4
0 -5 5 50.19 10.1
-1 -5 -5 2.6 5.8
-1 -5 -5 32.8 15.3
1 -5 5 24.2 9.5
1 -5 5 6.4 11.1
-1 -5 -5 -3.8 6.7
1 -5 5 4 5
-1 -5 -5 35.4 12.8
1 -5 5 10.9 11.7
1 -5 5 8.5 9.5
-1 -5 -5 11.2 11.3
-1 -5 -5 7.3 8
-2 -5 -5 5 6.9
-2 -5 -5 -10.2 14.8
-2 -5 -5 -9.7 12.2
-2 -5 -5 46 16.4
2 -5 5 6.6 12.2
2 -5 5 8 10.7
-2 -5 -5 46 13.5
2 -5 5 11.3 11.6
2 -5 5 12.8 4.6
-2 -5 -5 5.1 7.1
-3 -5 -5 29.9 8.6
3 -5 5 39.9 13.6
-3 -5 -5 19.9 9.3
-3 -5 -5 36.7 8.2
4 -5 5 21.2 11.6
-4 -5 -5 -5.4 8.5
-4 -5 -5 9.6 8.3
-4 -5 -5 2.2 7.1
5 -5 5 34.9 12.8
-5 -5 -5 23.8 9.2
-5 -5 -5 -5 10.8
-14 0 6 230.88 14.9
14 0 -6 144.99 20.6
-14 0 6 215.68 27.8
-13 0 6 402.76 26.6
13 0 -6 348.67 20.8
-13 0 6 389.26 19.6
-13 0 6 413.06 28.9
-13 0 6 404.96 16.9
-12 0 6 154.18 13.1
12 0 -6 141.09 13.9
12 0 -6 120.19 16
-12 0 6 183.48 18.1
12 0 -6 135.59 17.4
-12 0 6 156.58 10.2
-12 0 6 134.19 16.1
-11 0 6 396.56 25
-11 0 6 369.06 14.7
11 0 -6 378.76 16.9
-11 0 6 366.16 20.7
11 0 -6 374.46 17.6
11 0 -6 376.46 18.3
-11 0 6 382.36 20.2
-11 0 6 392.06 15.4
10 0 -6 763.42 23.8
-10 0 6 767.92 26.1
-10 0 6 777.02 29.2
-10 0 6 768.12 21.2
10 0 -6 680.93 26.2
-10 0 6 792.42 21.1
10 0 -6 775.72 24.5
-10 0 6 780.32 27.6
9 0 -6 2310.17 48.7
-9 0 6 2284.07 47.6
9 0 -6 2311.77 49.99
-9 0 6 2353.46 52.69
9 0 -6 2300.17 49.7
-9 0 6 2233.08 47.9
9 0 -6 2358.46 51.39
-9 0 6 2280.97 54.59
-9 0 6 2387.96 55.29
-8 0 6 2723.93 60.19
-8 0 6 2761.62 54.39
8 0 -6 2756.92 56.19
8 0 -6 2810.52 57.69
-8 0 6 2776.72 58.59
-8 0 6 2701.53 54.59
8 0 -6 2737.03 56.19
8 0 -6 2761.62 55.49
-8 0 6 2656.43 60.99
7 0 -6 4511.95 86.89
-7 0 6 4667.23 90.99
-7 0 6 4526.05 85.59
-7 0 6 4547.15 92.49
7 0 -6 4733.73 88.89
7 0 -6 4573.24 87.19
7 0 -6 4601.44 86.59
-7 0 6 4701.63 89.49
-7 0 6 4463.45 85.69
-6 0 6 3254.87 61.59
6 0 -6 3259.87 62.39
-6 0 6 3195.78 67.19
6 0 -6 3240.88 62.89
-6 0 6 3282.47 65.79
-6 0 6 3174.18 61.59
6 0 -6 3303.07 64.19
6 0 -6 3269.47 62.39
5 0 -6 203.88 8.4
-5 0 6 209.68 9.6
-5 0 6 207.78 8.6
5 0 -6 203.68 7.7
5 0 -6 195.48 7.9
-5 0 6 227.38 11.5
-5 0 6 199.18 7.2
-5 0 6 205.68 7.3
4 0 -6 2124.49 41.9
-4 0 6 2091.29 41.9
4 0 -6 2051.39 40.6
-4 0 6 2099.09 44.2
4 0 -6 2102.39 41.4
-4 0 6 2159.18 43.1
-4 0 6 2088.29 40.3
-4 0 6 2016 39.7
4 0 -6 2111.19 42
-3 0 6 204.48 8
-3 0 6 203.08 6.1
-3 0 6 204.88 7.8
3 0 -6 201.08 6.6
3 0 -6 207.48 7.1
-3 0 6 200.08 6.3
3 0 -6 205.08 7.1
-3 0 6 205.28 7.2
3 0 -6 203.28 7.3
2 0 -6 1797.92 34.9
2 0 -6 1853.01 35.9
-2 0 6 1783.42 35.6
2 0 -6 1847.22 35.4
-2 0 6 1856.91 36
2 0 -6 1869.61 35.8
-2 0 6 1855.31 34.7
-2 0 6 1856.11 35.7
-2 0 6 1829.82 34.7
-1 0 6 2888.31 52.79
1 0 -6 2852.01 53.19
-1 0 6 2890.31 52.19
1 0 -6 2874.51 52.59
-1 0 6 2900.91 53.19
1 0 -6 2970.1 52.89
1 0 -6 2862.61 52.49
-1 0 6 2845.62 52.19
1 0 -6 2826.92 52.99
0 0 6 4375.56 76.69
0 0 -6 4080.09 76.79
0 0 -6 4256.37 76.09
1 0 6 1158.18 22.9
1 0 6 1185.48 22.7
-1 0 -6 1152.18 23.3
-1 0 -6 1175.18 22.7
-1 0 -6 1213.48 23
-1 0 -6 1200.88 24.1
1 0 6 1175.78 23.2
1 0 6 1188.38 22.8
2 0 6 4545.04 79.19
-2 0 -6 4303.87 79.89
-2 0 -6 4374.16 78.79
-2 0 -6 4435.56 80.99
-2 0 -6 4470.55 79.69
2 0 6 4303.67 79.89
2 0 6 4487.45 80.29
3 0 6 619.94 14.6
-3 0 -6 594.14 14.2
-3 0 -6 611.54 13.2
3 0 6 604.94 14.5
3 0 6 599.54 14.5
-3 0 -6 619.54 14.4
-4 0 -6 1556.94 32.7
4 0 6 1564.94 32.9
-4 0 -6 1660.93 33.3
-4 0 -6 1615.34 31.2
4 0 6 1641.14 33.3
4 0 6 1676.63 33.7
5 0 6 192.08 9.2
-5 0 -6 187.38 8.3
5 0 6 198.78 9.2
-5 0 -6 199.58 6.5
-5 0 -6 186.38 7.5
5 0 6 198.28 8.2
-5 0 -6 196.88 8.5
-6 0 -6 461.85 11.9
-6 0 -6 458.15 13.6
-6 0 -6 451.85 14.8
6 0 6 470.55 15.5
6 0 6 456.25 14.3
6 0 6 467.15 16
-7 0 -6 19 2.9
-7 0 -6 25 5.7
7 0 6 19.4 4.4
-7 0 -6 25.5 5
7 0 6 31.3 7
-7 0 -6 25.3 4.3
7 0 6 20.3 5.2
-7 0 -6 17.9 3.8
-8 0 -6 272.07 11.6
-8 0 -6 279.37 13.4
8 0 6 274.47 14.2
8 0 6 279.67 12.7
-8 0 -6 297.67 9.7
-8 0 -6 275.07 14.4
8 0 6 281.87 15
-8 0 -6 276.57 11.5
-9 0 -6 474.55 16.4
9 0 6 463.35 19.6
-9 0 -6 497.45 16.7
-9 0 -6 496.15 13.9
-9 0 -6 497.95 19.2
9 0 6 464.55 20.1
9 0 6 499.15 18.3
-9 0 -6 487.05 21.3
-10 0 -6 255.67 10.3
-10 0 -6 287.27 16.2
10 0 6 304.57 27.7
-10 0 -6 276.07 13.2
10 0 6 267.57 14.8
-10 0 -6 232.68 19.5
-10 0 -6 246.18 13.6
10 0 6 284.17 15.6
11 0 6 237.28 17.1
11 0 6 247.48 16
-11 0 -6 234.38 13.6
-11 0 -6 239.48 17.6
-11 0 -6 251.97 10.9
-11 0 -6 245.28 15.4
-12 0 -6 274.27 16.3
-12 0 -6 251.77 12.3
12 0 6 287.47 20.8
-12 0 -6 217.38 23.4
13 -1 -6 22 11
-13 -1 6 36.2 12.3
-13 -1 6 35.9 7.7
-13 1 6 39.7 14.1
-13 1 6 42.5 7.6
13 1 -6 34.2 10.5
12 -1 -6 -11.4 7.1
12 -1 -6 6 8.1
-12 -1 6 38.4 9.9
-12 -1 6 -4.1 11.4
-12 -1 6 6.2 8.6
-12 -1 6 18.6 6.8
-12 1 6 13.6 5.5
12 1 -6 19.4 8.4
-12 1 6 12 4.9
12 1 -6 1.6 9.5
-12 1 6 2.2 9.5
-12 1 6 12 12.6
11 -1 -6 -5.2 6.1
-11 -1 6 -1.2 6.5
-11 -1 6 5.8 5.4
-11 -1 6 11.3 9
-11 -1 6 17.8 8.2
-11 -1 6 0.5 10.7
11 -1 -6 -5.2 8.5
11 -1 -6 3.1 6.2
-11 1 6 5.8 3.8
-11 1 6 5.8 5.3
-11 1 6 6.1 7.7
-11 1 6 6.5 8.8
11 1 -6 7.1 6.3
11 1 -6 1.9 6.5
10 -1 -6 35 9.7
-10 -1 6 46.5 10.4
10 -1 -6 56.09 8.2
-10 -1 6 38.1 7.2
10 -1 -6 38.2 6.9
-10 -1 6 44.8 10.2
-10 -1 6 46.8 9.5
-10 -1 6 44.1 7.3
10 -1 -6 40.9 5.5
-10 1 6 30.7 13
-10 1 6 46.8 9.2
-10 1 6 45.3 5.1
10 1 -6 46.8 7.7
-10 1 6 40 9.5
-10 1 6 39.9 5.4
10 1 -6 35.6 7.3
9 -1 -6 158.78 14.7
9 -1 -6 176.98 11.4
-9 -1 6 181.88 13.6
-9 -1 6 175.88 11
9 -1 -6 175.08 8.5
-9 -1 6 160.98 10.8
-9 -1 6 199.88 15.1
-9 -1 6 196.58 13
-9 1 6 214.98 17.7
9 1 -6 188.78 11.2
-9 1 6 182.08 12.8
9 1 -6 181.08 10.3
-9 1 6 176.48 7.8
-9 1 6 176.88 7.8
9 1 -6 196.68 11.7
-9 1 6 181.48 14.6
-8 -1 6 68.59 8.7
-8 -1 6 65.89 8.2
8 -1 -6 69.69 10.1
-8 -1 6 76.99 7.7
8 -1 -6 62.09 5.9
-8 -1 6 92.49 12.5
-8 -1 6 54.99 7.2
8 -1 -6 65.39 5.6
8 -1 -6 62.19 7.5
-8 1 6 50.49 7
8 1 -6 55.59 6.9
-8 1 6 61.79 5
8 1 -6 66.79 7.4
-8 1 6 56.19 4.5
-8 1 6 71.39 10.6
-8 1 6 50.79 8.8
8 1 -6 52.69 6.4
-7 -1 6 45.2 5.7
7 -1 -6 47.3 8.8
-7 -1 6 34.5 4.7
-7 -1 6 42 5.9
7 -1 -6 34.2 5.6
-7 -1 6 42.1 5.6
7 -1 -6 40.4 4.4
-7 -1 6 60.89 9.9
7 -1 -6 31.6 4.3
7 1 -6 43.6 5
7 1 -6 43.6 5.6
7 1 -6 36.8 5.3
-7 1 6 33.6 7
-7 1 6 33.8 5
-7 1 6 39.2 3.8
-7 1 6 44.7 8.5
-7 1 6 30.1 3.3
6 -1 -6 14.6 6.1
6 -1 -6 0.2 1.7
-6 -1 6 -0.3 2
-6 -1 6 2.1 3.1
6 -1 -6 -2.3 2.8
-6 -1 6 -2 2.5
-6 -1 6 0.1 2.6
-6 -1 6 2 2.6
6 -1 -6 2 1.8
-6 1 6 0.4 1.5
6 1 -6 0.1 2.1
-6 1 6 -0.1 4.9
-6 1 6 0.9 2.7
6 1 -6 3.1 2.5
6 1 -6 -1.4 2.2
-6 1 6 -2.5 1.1
5 -1 -6 979.5 25.2
5 -1 -6 1003.5 20.4
-5 -1 6 959.1 23.3
5 -1 -6 981.5 21.1
5 -1 -6 1023 27.4
-5 -1 6 978.6 23.6
-5 -1 6 991.4 23.3
-5 -1 6 1030.9 22.8
-5 -1 6 991.8 23.1
-5 1 6 980.2 26.7
5 1 -6 993.5 23.6
-5 1 6 1048.5 26.3
5 1 -6 999.9 21.7
-5 1 6 924.21 26.1
-5 1 6 1002.1 20.3
5 1 -6 971.1 23.5
-5 1 6 955.2 19.5
4 -1 -6 10.2 3
4 -1 -6 9.9 1.8
4 -1 -6 8.6 3.2
-4 -1 6 9.1 2.2
-4 -1 6 13.5 2.9
4 -1 -6 12.7 1.6
4 -1 -6 16.7 5.3
-4 -1 6 11.6 2.4
-4 -1 6 11.5 2.5
-4 -1 6 8.2 2.2
4 1 -6 10.8 2.5
-4 1 6 13 1.8
4 1 -6 13.1 2.6
-4 1 6 9.8 1.3
4 1 -6 10.6 1.9
4 1 -6 8.9 2.3
-4 1 6 13.3 2.8
-4 1 6 8.9 3.5
3 -1 -6 2881.21 56.59
-3 -1 6 2818.62 53.79
-3 -1 6 2783.12 54.09
-3 -1 6 2903.51 51.99
3 -1 -6 2837.42 56.99
-3 -1 6 2840.42 53.39
3 -1 -6 2824.52 51.89
3 -1 -6 2875.21 54.09
-3 1 6 2847.81 56.99
-3 1 6 2700.53 55.99
3 1 -6 2834.52 53.59
-3 1 6 2803.72 51.49
3 1 -6 2734.43 51.29
3 1 -6 2804.02 54.49
3 1 -6 2833.12 54.19
-2 -1 6 33.1 3.1
2 -1 -6 32.8 3
2 -1 -6 42.6 5.7
-2 -1 6 33.7 3.1
2 -1 -6 29 3.9
-2 -1 6 35.9 3.6
-2 -1 6 34.1 2.9
2 -1 -6 35.7 2.3
-2 1 6 36.2 2.4
2 1 -6 37.7 3.1
2 1 -6 27.6 1.9
-2 1 6 25.6 3.6
2 1 -6 26.3 2.9
2 1 -6 33.2 3.4
1 -1 -6 1164.48 22.7
1 -1 -6 1207.88 23.6
-1 -1 6 1178.48 23.4
-1 -1 6 1167.18 25.3
1 -1 -6 1241.08 25
-1 -1 6 1166.18 24.9
-1 -1 6 1180.78 23.5
1 -1 -6 1114.79 20.7
1 1 -6 1144.79 25.6
1 1 -6 1151.28 23.8
1 1 -6 1163.68 23.4
-1 1 6 1075.09 22.9
-1 1 6 1167.68 22.9
1 1 -6 1183.68 25.6
-1 1 6 1114.89 24.5
-1 1 6 1143.59 21.1
0 -1 -6 1.9 1
0 -1 6 3.5 1.1
0 -1 6 2.6 1.6
0 -1 -6 10.8 2.2
0 -1 -6 4.8 1.2
0 -1 -6 3.9 1.2
0 -1 6 5.5 1.5
0 1 -6 1.8 1.5
0 1 6 3.1 1.4
0 1 -6 4.3 1.2
0 1 6 4.4 1
0 1 6 4.8 1.3
0 1 -6 5.5 1.3
-1 -1 -6 1356.36 26
-1 -1 -6 1268.07 25.1
-1 -1 -6 1275.27 23.5
-1 -1 -6 1286.77 27.2
1 -1 6 1291.87 26.9
1 -1 6 1288.07 24.5
1 -1 6 1258.77 24.7
-1 -1 -6 1285.87 25.7
1 1 6 1278.87 24.1
1 1 6 1324.17 26.2
-1 1 -6 1279.67 27.8
-1 1 -6 1303.07 25.1
-1 1 -6 1333.87 26.4
-1 1 -6 1304.67 25
1 1 6 1335.07 25.8
-2 -1 -6 3.8 1.9
-2 -1 -6 7 1.8
2 -1 6 0.6 1.2
2 -1 6 3 2.4
2 -1 6 3.2 1.2
2 -1 6 4.8 1
-2 -1 -6 1 1.1
-2 -1 -6 0.3 1.5
-2 1 -6 0.8 1
-2 1 -6 1.1 1.5
2 1 6 3.8 1.8
-2 1 -6 3.3 1.8
-2 1 -6 3 1.7
2 1 6 3.1 1.9
3 -1 6 855.81 18.2
-3 -1 -6 846.62 18.8
-3 -1 -6 831.12 18.9
3 -1 6 850.81 22.5
3 -1 6 875.51 16.5
3 -1 6 839.62 19
-3 -1 -6 853.41 19.8
3 1 6 819.02 20.4
-3 1 -6 819.12 16.6
3 1 6 855.41 20.1
-3 1 -6 854.41 20.3
-3 1 -6 843.62 19.6
-3 1 -6 852.91 20.1
4 -1 6 71.29 4.6
-4 -1 -6 66.29 4.4
-4 -1 -6 77.29 5.5
-4 -1 -6 68.39 5
4 -1 6 67.69 6.7
4 -1 6 69.49 4.6
-4 1 -6 66.49 5.8
-4 1 -6 66.39 2.8
-4 1 -6 67.09 5
4 1 6 75.69 6
4 1 6 70.79 5.6
-5 -1 -6 302.57 10.5
5 -1 6 316.87 13.5
-5 -1 -6 307.87 10
5 -1 6 317.97 10.5
-5 -1 -6 320.87 11.5
5 -1 6 307.27 10.3
-5 -1 -6 314.17 8.5
5 1 6 316.87 11.9
-5 1 -6 318.07 11.2
-5 1 -6 322.37 12.4
5 1 6 310.67 7.5
-5 1 -6 310.17 7.4
5 1 6 343.67 12.4
-6 -1 -6 90.09 7.3
6 -1 6 70.09 9.1
6 -1 6 91.79 7.2
-6 -1 -6 74.79 6.2
-6 -1 -6 82.39 5.6
6 -1 6 91.29 6.4
-6 -1 -6 90.19 5.3
6 1 6 103.49 8.3
-6 1 -6 90.99 9
6 1 6 82.09 4.2
-6 1 -6 85.89 8.2
-6 1 -6 87.59 3.5
-6 1 -6 91.79 4.6
-6 1 -6 84.69 6.5
6 1 6 95.69 7.6
-7 -1 -6 162.88 10.4
-7 -1 -6 154.88 8.3
7 -1 6 164.68 10.1
-7 -1 -6 160.28 10
-7 -1 -6 152.08 7.7
-7 -1 -6 166.78 7.8
7 -1 6 169.88 9
-7 1 -6 166.78 9
-7 1 -6 156.88 12.1
-7 1 -6 155.28 6.4
7 1 6 162.28 10.4
7 1 6 148.09 9.8
-7 1 -6 158.88 5.1
7 1 6 157.28 6.4
-7 1 -6 169.88 11.9
8 -1 6 45.1 6.8
-8 -1 -6 43 7.2
-8 -1 -6 52.89 6.4
8 -1 6 54.09 9.4
-8 -1 -6 45.2 6.3
8 -1 6 57.89 7.4
-8 -1 -6 44 5.6
-8 -1 -6 56.39 7.6
-8 1 -6 48.3 6.8
-8 1 -6 52.19 8.7
-8 1 -6 42.3 4.9
-8 1 -6 45.5 3.3
8 1 6 50.79 5.2
-8 1 -6 47.6 9.6
8 1 6 54.19 7.9
8 1 6 46.8 7.1
-9 -1 -6 231.78 11.3
9 -1 6 232.18 18.5
9 -1 6 203.68 12.7
-9 -1 -6 207.08 14.9
-9 -1 -6 226.98 10.6
-9 -1 -6 248.08 14.4
9 -1 6 199.18 14.4
-9 -1 -6 226.98 11.6
-9 1 -6 194.28 18.6
9 1 6 208.38 14.5
-9 1 -6 224.18 12.2
-9 1 -6 209.48 6.8
-9 1 -6 219.48 8.9
9 1 6 235.08 14.1
-9 1 -6 218.18 16
9 1 6 216.88 9.5
-10 -1 -6 2.1 7.6
-10 -1 -6 17.9 5.1
10 -1 6 -5.9 11.1
10 -1 6 15.7 6.8
-10 -1 -6 17.9 6.4
-10 1 -6 19.4 2.9
10 1 6 20.7 8.2
-10 1 -6 13 5.5
-10 1 -6 15.8 4.4
10 1 6 9.9 5
-10 1 -6 27.2 13.3
-10 1 -6 22.5 9.2
11 -1 6 50.59 9.5
-11 -1 -6 26.9 11.1
-11 -1 -6 56.19 9.3
-11 -1 -6 42.6 7
-11 -1 -6 76.79 10
11 1 6 64.19 11.3
-11 1 -6 69.59 10.3
11 1 6 56.19 7.8
-11 1 -6 49.6 5.3
-12 -1 -6 2.6 6.4
12 -1 6 19.1 10.8
-12 -1 -6 12.9 6.9
12 1 6 19.4 12.2
-12 1 -6 -9 7.6
13 -2 -6 102.99 19.1
-13 -2 6 108.49 16.4
13 2 -6 132.99 15.8
-13 2 6 87.79 17.9
-12 -2 6 114.59 13.3
12 -2 -6 103.39 11.8
-12 -2 6 126.09 18.7
12 -2 -6 72.29 12.1
12 2 -6 79.89 15
-12 2 6 107.99 12.7
12 2 -6 118.49 13.9
-12 2 6 90.69 16.6
11 -2 -6 3.4 8.7
-11 -2 6 6.6 10.5
11 -2 -6 0.5 7
-11 -2 6 -1.3 7
-11 2 6 0.3 2.6
-11 2 6 -10 9.6
11 2 -6 0.5 8.5
-11 2 6 7.4 10.3
11 2 -6 0.3 7.5
-11 2 6 7.1 5.2
-10 -2 6 124.59 15.6
-10 -2 6 149.19 14.9
-10 -2 6 148.69 14.8
10 -2 -6 144.49 13.9
-10 -2 6 137.39 16.6
-10 -2 6 144.09 12.8
10 -2 -6 132.99 10.3
-10 2 6 153.98 17.4
-10 2 6 146.89 14.7
-10 2 6 155.08 25.3
10 2 -6 139.89 13.3
10 2 -6 140.99 12.6
-10 2 6 149.69 5.7
-10 2 6 153.38 9.6
-9 -2 6 39.8 7.7
-9 -2 6 31.9 7.7
-9 -2 6 40.8 7.4
9 -2 -6 53.89 8.5
9 -2 -6 53.59 4.9
-9 -2 6 51.19 8.3
-9 -2 6 52.69 10.5
9 -2 -6 32.4 11.9
9 -2 -6 47.9 6.1
-9 2 6 41.1 8
-9 2 6 36.2 9.3
-9 2 6 42.2 5.9
-9 2 6 39.9 3.7
9 2 -6 47.9 7.3
9 2 -6 51.29 7.9
-9 2 6 42.4 13.3
-8 -2 6 647.54 21.7
-8 -2 6 628.64 20.6
8 -2 -6 650.33 17.1
-8 -2 6 649.93 21.4
8 -2 -6 628.04 22.5
8 -2 -6 631.74 15.1
-8 -2 6 628.64 20.1
8 -2 -6 620.44 27
-8 -2 6 635.04 20.9
-8 2 6 626.74 27.2
-8 2 6 628.14 13.9
8 2 -6 640.54 21
-8 2 6 604.24 25.7
-8 2 6 628.94 16.8
-8 2 6 640.04 21.2
8 2 -6 637.94 19.4
-7 -2 6 33.3 5.6
7 -2 -6 37 4
7 -2 -6 31.6 4.1
-7 -2 6 33 5.8
-7 -2 6 20.1 5.2
7 -2 -6 18.5 8.2
-7 -2 6 41.1 6.4
-7 -2 6 24.8 4.9
7 -2 -6 37.7 7.2
-7 2 6 31.4 3.1
-7 2 6 25.1 5.2
7 2 -6 30.5 5.6
7 2 -6 25.3 5
-7 2 6 37 10
7 2 -6 32.2 4.8
-7 2 6 26.9 7
-7 2 6 29 4.1
-6 -2 6 997.1 26.1
-6 -2 6 981.6 26.3
6 -2 -6 1005.3 21.1
-6 -2 6 966.7 25
6 -2 -6 1016 21.3
-6 -2 6 1002.1 24.5
6 -2 -6 954.6 30.8
6 -2 -6 1002.9 28.6
-6 -2 6 995.8 23.5
-6 2 6 1004 31.1
-6 2 6 974.6 30.6
6 2 -6 1017.1 23.9
-6 2 6 989.4 21.7
-6 2 6 993.2 20.2
6 2 -6 1026.9 26.6
-5 -2 6 54.99 5.4
-5 -2 6 55.49 5.4
-5 -2 6 51.79 5.9
5 -2 -6 59.69 4
5 -2 -6 56.09 3.8
5 -2 -6 65.69 10.3
5 -2 -6 41.3 7.1
-5 -2 6 49.9 6.4
-5 -2 6 61.09 5.1
-5 2 6 56.49 3.7
-5 2 6 55.19 3.4
-5 2 6 48.9 7.5
5 2 -6 57.19 6.4
5 2 -6 50.59 5.9
5 2 -6 50.29 4.9
-5 2 6 51.59 7.8
-5 2 6 56.69 5.9
4 -2 -6 511.95 12
4 -2 -6 493.35 18.5
-4 -2 6 511.05 15.3
-4 -2 6 506.45 15.5
-4 -2 6 526.15 12.9
-4 -2 6 533.15 13.9
4 -2 -6 522.45 10.7
4 -2 -6 521.85 18.6
-4 2 6 434.66 15.7
4 2 -6 504.65 13.3
4 2 -6 542.75 16.7
4 2 -6 524.45 15.8
-4 2 6 516.95 18.7
-4 2 6 489.05 18.3
-4 2 6 519.05 12.1
-4 2 6 516.85 12
-3 -2 6 1191.48 27.9
3 -2 -6 1187.38 29.9
3 -2 -6 1184.38 31.1
3 -2 -6 1224.08 22.4
-3 -2 6 1200.78 25
3 -2 -6 1223.78 24.2
3 -2 -6 1188.78 26
-3 -2 6 1239.78 24.1
-3 -2 6 1235.88 27.5
3 2 -6 1226.58 27.9
-3 2 6 1209.08 25.5
3 2 -6 1176.68 24.9
-3 2 6 1188.78 30.8
-3 2 6 1217.98 24.5
3 2 -6 1188.88 24.9
-2 -2 6 238.48 7.3
-2 -2 6 239.38 9.7
-2 -2 6 234.48 10.4
2 -2 -6 237.88 7.9
-2 -2 6 243.98 9
2 -2 -6 245.98 11.8
2 -2 -6 240.18 7.1
2 -2 -6 235.18 10.8
2 -2 -6 238.88 6.2
-2 -2 6 239.88 6.4
2 -2 -6 233.38 6.2
-2 2 6 236.78 10.9
2 2 -6 243.78 7.3
-2 2 6 239.08 7.5
2 2 -6 238.58 9.1
-2 2 6 234.38 7.1
1 -2 -6 454.25 15.6
1 -2 -6 432.06 11
1 -2 -6 436.66 10.2
-1 -2 6 429.06 9.7
1 -2 -6 418.36 13.5
-1 -2 6 424.16 14.2
1 -2 -6 438.76 10.9
-1 -2 6 429.46 10.9
-1 -2 6 440.36 10.7
-1 -2 6 455.35 12.1
1 -2 -6 437.86 11
-1 -2 6 430.46 14
1 2 -6 432.96 12.3
-1 2 6 420.56 14.1
1 2 -6 428.96 10.6
-1 2 6 440.16 10.1
0 -2 -6 772.92 17
0 -2 6 804.32 20.6
0 -2 -6 784.92 17.6
0 -2 6 799.42 17.3
0 -2 -6 801.12 16.8
0 -2 6 773.72 17.1
0 -2 -6 768.42 19.1
0 -2 6 801.02 17.7
0 2 -6 783.12 17
0 2 -6 756.72 21.3
0 2 -6 790.82 18.1
-1 -2 -6 6333.97 111.89
-1 -2 -6 6270.17 113.49
1 -2 6 6401.26 116.09
1 -2 6 6359.46 111.89
1 -2 6 6233.48 112.29
-1 -2 -6 6393.56 116.19
-1 -2 -6 6223.98 113.09
-1 -2 -6 6121.89 113.39
-1 2 -6 6141.49 112.39
-1 2 -6 6210.78 117.69
-1 2 -6 6244.58 112.49
-2 -2 -6 1976.4 37.7
2 -2 6 1961.4 37
2 -2 6 2039.9 39.1
-2 -2 -6 2039.6 42.2
-2 -2 -6 2023 38.7
-2 -2 -6 1965.8 40.1
2 -2 6 2024.1 41.5
2 -2 6 2070.89 46.8
-2 -2 -6 2008.9 40.3
-2 -2 -6 2020.4 38.7
-2 2 -6 2015.1 41
-2 2 -6 2019.9 39.6
-2 2 -6 1961.7 37.8
-2 2 -6 2038.1 43.8
-3 -2 -6 606.44 16.4
-3 -2 -6 603.14 14.8
3 -2 6 594.34 20.8
3 -2 6 608.14 16.2
-3 -2 -6 593.94 15.7
-3 -2 -6 593.64 16.9
3 -2 6 587.54 11.5
3 -2 6 600.44 14.9
-3 -2 -6 623.24 13.9
-3 2 -6 586.64 17.4
-3 2 -6 594.14 15.6
-3 2 -6 586.54 17.9
-3 2 -6 550.34 12.7
3 2 6 586.24 16.9
-4 -2 -6 1100.39 26
4 -2 6 1024.6 27
4 -2 6 1063.59 31.4
4 -2 6 1103.09 24.3
-4 -2 -6 1095.99 26.4
-4 -2 -6 1088.49 25.3
-4 2 -6 1072.59 28
4 2 6 1129.29 27.2
-4 2 -6 1091.19 25.6
4 2 6 1104.79 28
-4 2 -6 1092.29 27.8
5 -2 6 6391.16 125.09
-5 -2 -6 6388.86 118.29
-5 -2 -6 6113.99 117.59
5 -2 6 6330.27 116.39
-5 -2 -6 6189.28 116.99
5 -2 6 6234.58 116.19
-5 2 -6 6479.15 121.49
5 2 6 6285.47 120.49
-5 2 -6 6297.07 120.09
5 2 6 6494.95 120.19
-6 -2 -6 248.28 12.2
6 -2 6 223.18 10.3
6 -2 6 245.98 15.4
-6 -2 -6 234.28 11.3
-6 -2 -6 221.08 12.4
6 -2 6 245.28 10.1
-6 -2 -6 240.38 10.4
-6 2 -6 231.38 11.8
6 2 6 236.88 12.5
-6 2 -6 213.48 14.8
6 2 6 230.18 12.4
-7 -2 -6 900.61 26.8
7 -2 6 892.01 23.4
-7 -2 -6 868.21 25.3
7 -2 6 896.81 30.1
-7 -2 -6 854.61 24.2
7 -2 6 865.61 23.6
-7 -2 -6 877.81 23.6
7 2 6 884.71 26.9
7 2 6 919.81 27.3
-7 2 -6 923.01 26.3
-7 2 -6 876.71 29.8
8 -2 6 21.6 5.8
-8 -2 -6 30.7 5.9
8 -2 6 28.3 6
-8 -2 -6 35 6
-8 -2 -6 26.6 8.5
8 -2 6 38.6 9.8
-8 -2 -6 26.6 8.6
8 2 6 30.9 7.7
-8 2 -6 21.1 10.7
8 2 6 32 8.5
-8 2 -6 20.1 6.6
9 -2 6 14.1 10.3
9 -2 6 -4.3 7
-9 -2 -6 8.4 4.4
-9 -2 -6 0.7 4.5
-9 -2 -6 -0.2 3.5
9 -2 6 1.8 5.9
-9 -2 -6 1.8 9.4
-9 2 -6 -3.3 5.2
9 2 6 -0.3 6.8
-9 2 -6 9.1 13.4
-10 -2 -6 23.9 6.2
-10 -2 -6 18.9 4.9
-10 -2 -6 11 6.3
10 -2 6 18.6 7.8
-10 2 -6 5.6 6.9
10 2 6 18.8 9.5
-11 -2 -6 142.79 13.7
11 -2 6 111.39 13.1
-11 -2 -6 133.29 12.8
-11 2 -6 106.19 15.8
11 2 6 152.38 17.2
-11 -3 6 158.78 20.2
11 -3 -6 179.98 21.5
-11 -3 6 152.98 18.1
-11 3 6 176.48 15.1
11 3 -6 171.38 23.5
-11 3 6 200.28 26.9
11 3 -6 165.78 19.7
-10 -3 6 21 12.2
10 -3 -6 20.2 7
10 -3 -6 16 11
-10 -3 6 15.4 7.4
-10 -3 6 1.2 11.1
10 3 -6 18.8 11.4
-10 3 6 10.8 9.8
10 3 -6 17.3 9.7
-10 3 6 13.8 12.2
-10 3 6 22.8 6.7
9 -3 -6 648.14 19.7
9 -3 -6 669.23 27.1
-9 -3 6 661.43 24.4
-9 -3 6 659.53 24.8
9 3 -6 689.83 24.1
-9 3 6 691.43 20.5
-9 3 6 613.74 23.9
9 3 -6 680.43 26.6
-9 3 6 696.33 33.2
8 -3 -6 96.49 15.8
8 -3 -6 94.19 11.8
-8 -3 6 99.49 11.1
8 -3 -6 89.09 8.3
-8 -3 6 97.69 12.2
-8 -3 6 108.89 10.9
-8 -3 6 90.79 9.6
-8 -3 6 101.29 11.7
-8 3 6 93.49 11.4
-8 3 6 88.79 14
-8 3 6 128.99 18.3
8 3 -6 112.59 11.4
-8 3 6 110.09 8.6
-7 -3 6 285.17 16.5
-7 -3 6 272.87 13.1
7 -3 -6 294.07 22.1
7 -3 -6 266.87 9.9
7 -3 -6 272.67 17.9
7 -3 -6 270.47 7.9
-7 -3 6 272.57 14.6
-7 -3 6 254.37 12.9
-7 -3 6 268.97 13.2
-7 3 6 278.77 22.1
-7 3 6 293.47 20.5
-7 3 6 278.37 11.2
-7 3 6 282.17 12.9
7 3 -6 286.47 13.7
-6 -3 6 31.3 6.6
6 -3 -6 40.4 4.3
-6 -3 6 37.2 6
-6 -3 6 50.69 6.3
6 -3 -6 37.9 9.5
6 -3 -6 38.9 4.5
6 -3 -6 29.5 9.6
-6 -3 6 42.8 6.9
-6 -3 6 36.8 5.4
-6 3 6 26.9 4.9
-6 3 6 36.1 9.8
-6 3 6 41.6 5
6 3 -6 47.1 6.4
5 -3 -6 480.25 21.4
-5 -3 6 530.65 18.5
-5 -3 6 500.75 17.1
5 -3 -6 496.45 11.7
5 -3 -6 484.55 12.3
-5 -3 6 503.25 14.4
-5 -3 6 480.95 14.4
-5 -3 6 508.35 18.8
5 -3 -6 487.95 22
-5 3 6 523.55 23
-5 3 6 508.45 14.9
4 -3 -6 46.2 3.5
-4 -3 6 50.69 5.6
-4 -3 6 42.3 4.9
-4 -3 6 46.6 8.3
4 -3 -6 47.6 3.9
4 -3 -6 38.4 8.3
-4 -3 6 35.7 6
-4 -3 6 41.7 6.3
4 -3 -6 48.8 8.8
-4 3 6 51.19 8.9
-4 3 6 45.5 4.8
-3 -3 6 1696.73 39.3
3 -3 -6 1688.33 41.9
-3 -3 6 1723.83 33.4
-3 -3 6 1733.13 38.4
3 -3 -6 1690.53 33.1
3 -3 -6 1733.43 33.8
-3 -3 6 1657.03 41.7
3 -3 -6 1621.34 43.2
-3 -3 6 1739.53 34.4
-3 3 6 1738.63 33.1
-3 3 6 1689.43 43.6
-2 -3 6 185.68 6.3
-2 -3 6 183.48 7.2
2 -3 -6 182.58 7.2
-2 -3 6 181.38 11.6
2 -3 -6 179.58 7.2
2 -3 -6 159.18 12
2 -3 -6 172.68 6.8
2 -3 -6 184.28 13.4
-2 -3 6 179.28 10.3
-2 3 6 178.98 4.9
1 -3 -6 702.33 17.9
-1 -3 6 709.43 18.7
-1 -3 6 685.23 16.4
1 -3 -6 681.73 15.5
-1 -3 6 693.43 21.7
1 -3 -6 692.43 23.6
1 -3 -6 717.03 17.1
1 -3 -6 686.03 21.6
-1 -3 6 721.63 22
1 -3 -6 685.63 16.8
-1 -3 6 666.03 18.6
0 -3 -6 60.89 6.4
0 -3 6 58.49 6.6
0 -3 -6 70.09 8.3
0 -3 -6 55.49 4
0 -3 -6 48.2 7.6
0 -3 6 52.39 7.3
0 -3 6 56.59 5.1
0 -3 -6 55.69 4.9
0 -3 6 62.59 5.8
0 -3 -6 54.79 4.7
0 -3 6 62.99 7.5
0 -3 6 57.19 9.3
0 3 -6 62.29 3.4
1 -3 6 11.8 3.1
-1 -3 -6 18.5 3.5
1 -3 6 12.1 4.5
1 -3 6 9.3 6.5
1 -3 6 14 4.1
-1 -3 -6 16.1 5.1
-1 -3 -6 15.9 2.5
-1 -3 -6 15.7 3.2
-1 -3 -6 15.3 4.8
-1 3 -6 16.7 2.4
-1 3 -6 17.5 4.6
-2 -3 -6 19.9 3.7
2 -3 6 22.5 7.4
2 -3 6 21.8 3
-2 -3 -6 24.3 4.2
-2 -3 -6 25.6 4
2 -3 6 24 4.6
-2 -3 -6 23.5 5.8
2 -3 6 16.6 4.2
-2 -3 -6 20.8 2.9
-2 -3 -6 25.8 4.9
-2 3 -6 16.8 3
-2 3 -6 19.1 5.1
3 -3 6 52.79 7.1
-3 -3 -6 50.89 6.7
3 -3 6 55.29 10.4
-3 -3 -6 48.9 4.6
3 -3 6 81.59 7.1
3 -3 6 55.99 3.1
-3 -3 -6 64.99 7.1
-3 -3 -6 52.79 6.7
-3 -3 -6 66.99 5
-3 -3 -6 79.89 6.7
-3 3 -6 64.59 5.3
-3 3 -6 83.39 9.1
-4 -3 -6 141.39 5.9
4 -3 6 127.09 8.5
-4 -3 -6 144.79 7.2
-4 -3 -6 137.19 8.1
-4 -3 -6 135.49 8.6
4 -3 6 163.38 15.6
-4 -3 -6 144.09 9.7
-4 -3 -6 144.89 10.6
4 -3 6 133.39 8.7
-4 3 -6 143.49 12.3
-4 3 -6 134.29 7.5
-4 3 -6 123.79 10.6
5 -3 6 8 4.6
-5 -3 -6 3.3 5.8
-5 -3 -6 14.8 4.1
5 -3 6 16.6 4.4
-5 -3 -6 16 6.3
-5 -3 -6 15.2 2.9
-5 -3 -6 12 5.1
5 -3 6 8.2 8.6
-5 -3 -6 18.7 3.9
-5 3 -6 13.9 5.7
-5 3 -6 12.7 8.1
-6 -3 -6 67.99 9.3
6 -3 6 75.79 8.9
6 -3 6 101.89 15.8
-6 -3 -6 69.59 7.9
-6 -3 -6 81.29 8.7
-6 -3 -6 79.99 10.9
6 -3 6 70.39 8
-6 3 -6 75.19 12.7
-6 3 -6 67.99 9.5
-6 3 -6 66.39 7.7
-7 -3 -6 373.56 19.2
-7 -3 -6 429.36 16.6
7 -3 6 398.56 16.3
-7 -3 -6 398.06 17.6
7 -3 6 432.36 15.6
7 -3 6 422.56 25.8
-7 -3 -6 418.06 16.7
-7 -3 -6 533.45 32.8
-7 3 -6 403.86 16.4
-7 3 -6 397.36 19.4
-7 3 -6 367.06 25.4
7 3 6 400.16 20.6
8 -3 6 30.7 6.9
8 -3 6 18.1 7.4
-8 -3 -6 15.4 6.8
-8 -3 -6 8.3 5.7
-8 3 -6 38.3 15.5
-8 3 -6 11.6 6.2
-8 3 -6 6.8 7.3
8 3 6 9.4 9.2
-9 -3 -6 459.45 19.5
-9 -3 -6 465.45 20.1
9 -3 6 513.15 21
9 3 6 443.56 25.1
-9 3 -6 449.26 23.7
-9 3 -6 443.36 20.4
-10 -3 -6 39.5 9.2
-10 -3 -6 48.8 10
10 -3 6 41.8 11.1
-10 3 -6 42.5 9.7
-10 3 -6 37.7 12
10 3 6 30.1 14.3
-9 -4 6 42.6 12.3
-9 -4 6 51.19 12.2
9 -4 -6 53.79 15.1
-9 4 6 54.09 19.5
-8 -4 6 90.79 12.7
8 -4 -6 67.29 13.9
-8 -4 6 85.89 12.9
-8 -4 6 92.29 11.6
-8 4 6 99.59 12.9
-8 4 6 80.19 18.6
-7 -4 6 171.78 15.8
7 -4 -6 165.58 21.2
7 -4 -6 173.68 9.5
-7 -4 6 168.78 16
-7 -4 6 171.58 14
-7 4 6 144.49 21.8
-7 4 6 185.08 11.8
6 -4 -6 36.6 13.2
6 -4 -6 59.59 5.9
6 -4 -6 36.6 4.2
-6 -4 6 51.89 9.7
6 -4 -6 43.1 5.3
-6 -4 6 45.5 8.2
-6 -4 6 44.3 7.9
-6 4 6 47.5 5.7
5 -4 -6 16.5 10.8
-5 -4 6 23.3 7.9
-5 -4 6 19.1 6.3
5 -4 -6 36.1 11.4
-5 -4 6 11.8 4.2
-5 -4 6 15.3 6.2
5 -4 -6 12.7 4.9
-5 -4 6 10.6 8.7
5 -4 -6 21.3 3.7
5 -4 -6 17.4 3.7
-5 -4 6 5.1 10.3
-5 4 6 16.7 3.3
-4 -4 6 1.5 7.5
4 -4 -6 1.1 9.7
4 -4 -6 9.8 3.3
4 -4 -6 8 3.3
-4 -4 6 1.5 6.4
-4 -4 6 6.5 5.1
-4 -4 6 5.5 2.9
-4 -4 6 18.6 8.3
-4 -4 6 -3.3 8.4
4 -4 -6 24.9 10.5
-3 -4 6 0.4 4.3
-3 -4 6 11.1 8.3
3 -4 -6 4.5 3.5
-3 -4 6 -7.6 6
3 -4 -6 23.8 8.7
3 -4 -6 1.1 2.8
3 -4 -6 0 3.5
3 -4 -6 8.3 10
-3 -4 6 2 6.5
2 -4 -6 3.1 4
2 -4 -6 -2 2.7
2 -4 -6 4.9 3.6
2 -4 -6 17.9 8.2
2 -4 -6 1.9 15.2
-2 -4 6 0.9 6
-2 -4 6 -13.3 6.6
-2 -4 6 7.4 8.6
-2 -4 6 1.3 4.2
-2 -4 6 -0.9 6.1
-1 -4 6 127.19 14.4
1 -4 -6 119.19 8.2
1 -4 -6 115.89 7.4
-1 -4 6 124.49 10.8
1 -4 -6 122.59 9.5
1 -4 -6 162.48 15.1
-1 -4 6 115.39 8.7
-1 -4 6 123.69 16.6
-1 -4 6 106.89 13.2
-1 -4 6 126.79 11.4
1 -4 -6 142.39 14
0 -4 6 56.39 9.1
0 -4 -6 59.09 9.8
0 -4 -6 44.8 6.7
0 -4 6 51.49 8.5
0 -4 6 42.4 6.5
0 -4 -6 48.9 6.5
0 -4 6 55.49 11.4
0 -4 -6 41.7 10.9
0 -4 6 51.39 8
0 -4 -6 79.29 12.8
0 -4 6 56.49 6.6
-1 -4 -6 8.2 4.4
-1 -4 -6 10.8 4.4
1 -4 6 14.9 6.2
-1 -4 -6 13.6 6.8
-1 -4 -6 8.5 7.1
1 -4 6 18.8 5.5
1 -4 6 19.9 12
-1 -4 -6 5.5 6.2
1 -4 6 10.9 6.2
-1 -4 -6 8.6 6.5
1 -4 6 5.7 4.4
2 -4 6 55.59 6.5
2 -4 6 64.29 8.2
-2 -4 -6 62.99 10.1
2 -4 6 40 12.7
-2 -4 -6 59.29 7.5
-2 -4 -6 68.29 10
-2 -4 -6 66.69 7.9
-2 -4 -6 40.9 8.6
-2 -4 -6 56.29 8.8
-2 -4 -6 45 6
2 -4 6 57.99 8.7
-3 -4 -6 15.1 6
-3 -4 -6 17.1 5.2
-3 -4 -6 25.2 4.9
3 -4 6 20.7 6.6
3 -4 6 22.8 6.8
3 -4 6 14.9 2.9
3 -4 6 14.9 11.7
-3 -4 -6 27.4 8.9
3 -4 6 15 2.3
-3 -4 -6 26.8 8.9
-3 -4 -6 37.3 8
-3 4 -6 17.5 3.3
-3 4 -6 23.2 3.4
-4 -4 -6 15.7 8.8
4 -4 6 18.1 6.8
-4 -4 -6 10.6 4.4
4 -4 6 21.3 6.6
-4 -4 -6 19.9 4
-4 -4 -6 13.9 5.6
-4 -4 -6 29.5 7.3
-4 -4 -6 6.9 14
-4 4 -6 21.3 4.5
-4 4 -6 20.7 8.3
-4 4 -6 18.5 4
5 -4 6 31.1 7.2
-5 -4 -6 21.7 7.5
5 -4 6 26.2 7.5
-5 -4 -6 39.1 7.6
-5 -4 -6 31.8 5.3
-5 -4 -6 25.8 6.8
-5 -4 -6 37.4 5.1
-5 4 -6 32.8 9.5
-5 4 -6 20.3 5.2
-5 4 -6 22.7 5.6
-6 -4 -6 -10.6 7
-6 -4 -6 5 6.2
-6 -4 -6 -0.9 5.7
6 -4 6 3.3 7.9
-6 -4 -6 22.3 6.9
-6 4 -6 -1.4 6.1
-6 4 -6 -0.6 9.3
-6 4 -6 3.8 5.1
-7 -4 -6 1.8 7.3
7 -4 6 11 9
-7 -4 -6 -5.2 7.9
-7 4 -6 -14.6 7.3
-7 4 -6 10.3 11
-7 4 -6 6.3 6.2
-8 -4 -6 3.7 9.2
-8 -4 -6 0.9 8.6
8 -4 6 -6.8 9.9
-8 4 -6 15.1 8
-8 4 -6 19.6 12.9
-6 -5 6 20.6 11.6
-6 -5 6 28.2 10.7
6 -5 -6 -2.1 19.4
-5 -5 6 381.76 21.7
-5 -5 6 429.36 24.6
-5 -5 6 442.06 28.4
5 -5 -6 389.56 33.7
4 -5 -6 112.99 9.6
4 -5 -6 111.69 11.4
-4 -5 6 120.19 15.1
-4 -5 6 146.59 17.2
-4 -5 6 122.89 16.6
4 -5 -6 82.79 19.5
-3 -5 6 463.05 24.2
-3 -5 6 409.16 22.7
3 -5 -6 433.96 16.7
3 -5 -6 457.55 15
3 -5 -6 448.26 32.9
-3 -5 6 411.06 25.9
-2 -5 6 22.7 11.8
2 -5 -6 35.3 15.9
2 -5 -6 21.9 6.7
-2 -5 6 12.5 11.4
2 -5 -6 27.8 10.9
-2 -5 6 20.3 10.2
-1 -5 6 61.19 12.7
-1 -5 6 38.8 11.1
1 -5 -6 31.8 16.2
1 -5 -6 46.1 12.3
-1 -5 6 70.19 12.6
1 -5 -6 37.7 6.5
1 -5 -6 37.7 7.6
1 -5 -6 40.3 9.2
-1 -5 6 43.7 10.9
0 -5 6 206.28 24.4
0 -5 6 163.88 16.8
0 -5 -6 169.58 11.6
0 -5 6 181.78 18.9
0 -5 -6 147.89 16.3
0 -5 6 157.98 19.1
0 -5 -6 161.78 13
0 -5 6 178.38 11.8
0 -5 -6 232.38 28.6
0 -5 -6 177.58 18.6
0 -5 -6 177.78 17.6
-1 -5 -6 16.4 6.3
-1 -5 -6 39.6 16.7
1 -5 6 31.5 11.1
-1 -5 -6 34.4 9.3
-1 -5 -6 23.5 12
1 -5 6 29.3 5.9
-1 -5 -6 17 8.3
1 -5 6 25.6 10.2
2 -5 6 55.49 12.9
2 -5 6 59.69 11.8
-2 -5 -6 67.89 10
-2 -5 -6 58.39 8.2
-2 -5 -6 62.69 14.7
-2 -5 -6 47.2 9.4
-2 -5 -6 65.29 18.8
2 -5 6 59.59 7.3
-3 -5 -6 117.69 13
-3 -5 -6 121.69 13.8
3 -5 6 118.89 13.3
-3 -5 -6 89.59 11.9
-4 -5 -6 -18.3 8.7
-4 -5 -6 10.8 7.6
4 -5 6 -14.4 10.9
-14 0 7 9.4 6.5
14 0 -7 9.4 14.1
-14 0 7 39.8 15
-13 0 7 -9.3 8.9
-13 0 7 -6.3 13.8
13 0 -7 2.5 9.1
-13 0 7 13.7 5.4
-13 0 7 14 12.7
-12 0 7 9.5 6.7
-12 0 7 20 9.2
-12 0 7 4.2 4.5
-12 0 7 -0.4 10.5
12 0 -7 -6.1 7
-11 0 7 -6.8 7.8
-11 0 7 5.3 5.4
-11 0 7 2.8 6.8
11 0 -7 -2.7 5.8
-11 0 7 0.6 3.6
-11 0 7 10.4 12.1
11 0 -7 -4.3 7.2
11 0 -7 -1.5 5.8
10 0 -7 3.3 5.5
10 0 -7 -0.2 4.5
10 0 -7 -2.6 4.7
-10 0 7 4.2 4.3
-10 0 7 -7.1 6.1
-10 0 7 1.1 6.2
10 0 -7 0.3 4.5
-10 0 7 -3.7 3.1
-10 0 7 4.2 9.4
-9 0 7 -1.8 3
9 0 -7 -1.9 3.7
9 0 -7 -0.6 3.3
-9 0 7 0.1 5.5
9 0 -7 -2.9 4.2
9 0 -7 -0.8 3.5
-9 0 7 3.5 3.6
-9 0 7 5.3 6.9
-9 0 7 1.2 5.1
-8 0 7 1.6 5.4
-8 0 7 2.6 3.6
8 0 -7 3 3.7
-8 0 7 -1.2 3.1
8 0 -7 0.7 3.6
8 0 -7 1.3 3.2
8 0 -7 -3.8 2.8
-8 0 7 -4.9 5.9
-8 0 7 -4.9 3.8
-7 0 7 2.5 3
-7 0 7 -1.3 3.3
7 0 -7 0.1 2.5
-7 0 7 -1.7 2.3
7 0 -7 3.9 3
-7 0 7 4 4.5
-7 0 7 3.7 5.9
6 0 -7 1.5 2.4
-6 0 7 2.9 2.3
6 0 -7 1.5 2.4
-6 0 7 -1.4 2.8
-6 0 7 1.1 2.1
-6 0 7 5.2 5.1
6 0 -7 -0.3 2
-6 0 7 3.3 3.9
-5 0 7 2.5 1.6
5 0 -7 1 2.3
-5 0 7 -0.5 1.7
-5 0 7 1.8 3.1
5 0 -7 0.1 1.8
5 0 -7 -1 1.5
-5 0 7 6.9 4.6
5 0 -7 1.7 2
-5 0 7 0.6 2.1
-4 0 7 -1.8 2.2
-4 0 7 -0.6 1.6
4 0 -7 -1.4 1.5
4 0 -7 -0.9 1.5
-4 0 7 0.2 1
-4 0 7 5.9 3.8
-4 0 7 0.3 1.4
4 0 -7 2.2 1.9
4 0 -7 1.6 1.8
3 0 -7 0.1 1.4
3 0 -7 0.2 1.3
-3 0 7 -0.4 2
3 0 -7 0.3 1.3
3 0 -7 -4.2 1.9
-3 0 7 -0.3 1.1
-3 0 7 3 2
-3 0 7 3.1 2.2
2 0 -7 1 1.1
-2 0 7 -0.2 1
-2 0 7 0.2 1.2
2 0 -7 -0.5 1.4
-2 0 7 0.8 1.1
-2 0 7 1.3 1.1
-2 0 7 -0.3 1.5
2 0 -7 1.9 1.3
2 0 -7 0.3 1.1
1 0 -7 -0.2 0.9
-1 0 7 1.1 1.1
-1 0 7 1.1 0.9
-1 0 7 -0.8 0.7
-1 0 7 0.1 0.8
1 0 -7 -0.3 0.9
1 0 -7 0.6 1
1 0 -7 0.3 1.3
1 0 -7 -0.7 1.1
0 0 -7 7.1 1.3
0 0 7 6.9 1.3
0 0 -7 7.7 1.7
0 0 7 6.5 1.2
0 0 7 5.5 1.1
0 0 -7 7.1 1.4
-1 0 -7 0.4 1.2
1 0 7 0.1 0.7
1 0 7 0.7 1.3
-1 0 -7 0.3 0.9
1 0 7 -0.2 0.9
-1 0 -7 0.2 0.7
1 0 7 0.8 1
-1 0 -7 0.5 1
1 0 7 0.9 1.1
-2 0 -7 -0.5 1.2
2 0 7 0.8 1.2
2 0 7 -0.2 1.1
2 0 7 0.1 1.3
-2 0 -7 -0.3 0.8
-2 0 -7 1.5 1.4
2 0 7 -1 0.9
-2 0 -7 1.5 1.2
3 0 7 -0.7 1.1
-3 0 -7 -0.2 1
-3 0 -7 5.2 2.7
3 0 7 -0.4 1.6
3 0 7 -0.9 1.4
-3 0 -7 -1.3 1.2
3 0 7 -0.7 1.4
-3 0 -7 1.8 1.6
4 0 7 2 2.4
-4 0 -7 1.3 1.2
-4 0 -7 -1.1 1.4
-4 0 -7 -1.1 1.7
4 0 7 -2.9 1.8
4 0 7 -3.5 2
-5 0 -7 0.5 2.6
-5 0 -7 -0.2 1.5
5 0 7 -4.2 3.1
5 0 7 -0.7 2.1
-5 0 -7 -0.9 1.3
5 0 7 0.7 2.9
-6 0 -7 -0.5 2.7
6 0 7 -1.4 3.6
-6 0 -7 1.2 2.1
-6 0 -7 -3 3.1
6 0 7 0.2 2.6
-6 0 -7 0.1 1.5
6 0 7 6.7 4.9
-7 0 -7 -1.1 1.8
-7 0 -7 1.9 2.4
7 0 7 5 5.7
-7 0 -7 -1.1 3.2
7 0 7 3.5 3.6
-7 0 -7 2.5 3.5
-7 0 -7 -7.2 4.2
7 0 7 5.9 4.3
-8 0 -7 2.6 2.9
-8 0 -7 1 6
-8 0 -7 -1.7 3.9
8 0 7 -0.8 4.4
-8 0 -7 6.2 4
8 0 7 -6.8 6.3
-8 0 -7 -2.8 2.1
8 0 7 -3.3 4.6
9 0 7 -3.6 6.2
9 0 7 -5.7 6.4
-9 0 -7 -3.6 4.9
-9 0 -7 -2.6 7.8
-9 0 -7 0.9 4
9 0 7 4.5 5.2
-9 0 -7 0.2 2.9
-9 0 -7 -9.3 4.5
10 0 7 -2.5 6.3
-10 0 -7 -5.5 6.6
10 0 7 -7 6.4
-10 0 -7 9 6.2
-10 0 -7 -2.8 3.4
-10 0 -7 2.4 4.1
11 0 7 2.7 8.7
11 0 7 4.9 8
-11 0 -7 -2.1 5
-11 0 -7 19.6 8.4
-11 0 -7 2.6 4.3
12 0 7 -8.9 10
-12 0 -7 8.3 8
-12 0 -7 5.1 5.6
-13 -1 7 320.67 17.1
-13 -1 7 403.76 25.7
13 -1 -7 261.97 20.3
-13 1 7 331.87 27.5
13 1 -7 351.26 20.9
-13 1 7 317.67 15.5
-12 -1 7 508.95 25.4
-12 -1 7 477.15 19.5
-12 -1 7 458.95 26.3
12 -1 -7 498.25 21.7
-12 -1 7 430.26 21.2
12 -1 -7 473.95 21.2
-12 1 7 441.06 17.1
12 1 -7 471.85 23
12 1 -7 500.95 21.3
-12 1 7 472.75 29.7
-12 1 7 515.75 27.9
-12 1 7 477.05 15.9
-11 -1 7 387.76 17
11 -1 -7 357.86 16.8
11 -1 -7 372.06 17.8
-11 -1 7 380.16 17.7
-11 -1 7 384.36 21.2
11 -1 -7 322.97 20.2
-11 -1 7 365.36 21.2
-11 -1 7 342.37 23.1
11 1 -7 354.06 18.1
-11 1 7 362.26 12.9
-11 1 7 365.96 13.2
-11 1 7 384.16 21.4
11 1 -7 373.26 17
-11 1 7 388.26 22.4
-10 -1 7 333.37 15.3
-10 -1 7 304.57 17.7
-10 -1 7 321.07 19.8
-10 -1 7 323.67 15.3
10 -1 -7 332.77 15.6
-10 -1 7 319.77 19.3
10 -1 -7 333.87 12.4
10 -1 -7 324.97 14
10 -1 -7 330.17 18.4
-10 1 7 330.77 24.3
-10 1 7 312.37 11.2
-10 1 7 312.77 19.3
10 1 -7 314.47 14.4
-10 1 7 334.67 11.5
10 1 -7 339.97 15.9
-10 1 7 324.87 17.9
-9 -1 7 8.5 7.5
-9 -1 7 5 4.3
-9 -1 7 1.5 5.5
-9 -1 7 6.3 4.4
9 -1 -7 3.2 6.3
-9 -1 7 7.9 6.6
9 -1 -7 2.1 3.1
9 -1 -7 -6.7 4.4
9 -1 -7 5.2 3.8
-9 1 7 9.4 6.4
-9 1 7 2.3 2.2
9 1 -7 4 4
-9 1 7 1 2.9
9 1 -7 6.7 4.3
-9 1 7 4.9 6.1
9 1 -7 8.9 4.8
-9 1 7 0.4 8.5
8 -1 -7 37.6 5.2
-8 -1 7 47.5 9.2
8 -1 -7 31.4 7.3
8 -1 -7 39.2 4.7
-8 -1 7 35.1 5.4
-8 -1 7 30.3 6.2
-8 -1 7 47.1 6.7
8 -1 -7 45.4 6.9
-8 -1 7 39.6 6.6
8 1 -7 45.5 6.3
-8 1 7 35.5 8.6
8 1 -7 36.3 4.9
-8 1 7 32 3.7
8 1 -7 39.4 6
-8 1 7 39.8 4.6
-8 1 7 39.8 8
-8 1 7 25.6 5.4
-7 -1 7 65.69 7.4
7 -1 -7 84.19 11.2
7 -1 -7 63.99 4.9
7 -1 -7 60.39 5.1
-7 -1 7 49 6.3
-7 -1 7 59.69 6
-7 -1 7 58.59 7.1
-7 -1 7 75.69 9.8
7 -1 -7 55.29 6.9
-7 1 7 57.39 3.9
-7 1 7 62.69 7.4
-7 1 7 81.49 10.4
7 1 -7 48.9 5.3
7 1 -7 66.99 6.6
-7 1 7 63.59 9.7
-7 1 7 54.79 4.3
-6 -1 7 1313.27 29.7
-6 -1 7 1332.27 29.7
-6 -1 7 1316.07 31
6 -1 -7 1353.96 34.5
6 -1 -7 1276.27 27.3
6 -1 -7 1306.67 31.9
-6 -1 7 1322.87 30.2
6 -1 -7 1298.47 26.6
-6 -1 7 1266.07 29.6
-6 1 7 1285.67 26.3
-6 1 7 1249.38 25.4
6 1 -7 1269.87 27.9
-6 1 7 1316.77 34.2
-6 1 7 1301.37 30.5
6 1 -7 1298.47 30.2
-6 1 7 1259.37 33.5
6 1 -7 1287.47 30.1
5 -1 -7 3605.64 67.59
-5 -1 7 3640.84 69.99
-5 -1 7 3578.74 70.39
-5 -1 7 3595.94 69.69
5 -1 -7 3644.34 70.59
5 -1 -7 3781.72 72.89
5 -1 -7 3830.52 74.49
5 -1 -7 3627.14 66.19
-5 -1 7 3575.64 70.19
-5 -1 7 3789.92 69.39
5 1 -7 3626.44 70.29
-5 1 7 3624.54 66.59
-5 1 7 3442.16 65.19
-5 1 7 3538.55 73.49
-5 1 7 3687.13 71.09
5 1 -7 3616.54 67.69
5 1 -7 3670.13 70.59
-5 1 7 3726.93 74.19
-4 -1 7 3110.29 59.29
4 -1 -7 3157.48 62.89
4 -1 -7 3145.09 62.79
-4 -1 7 3165.88 58.09
-4 -1 7 3056.89 59.69
4 -1 -7 2991.6 57.19
-4 -1 7 3060.89 59.19
4 -1 -7 3116.29 59.89
-4 1 7 2994 56.49
4 1 -7 3122.09 59.49
4 1 -7 3014.1 56.79
-4 1 7 3023 62.39
-4 1 7 3216.08 63.49
-4 1 7 3101.69 59.59
4 1 -7 2959.9 59.49
4 1 -7 3081.79 60.09
-3 -1 7 4357.86 80.19
3 -1 -7 4391.36 83.89
-3 -1 7 4256.07 80.89
-3 -1 7 4348.17 80.39
3 -1 -7 4398.46 80.79
3 -1 -7 4360.66 78.69
-3 -1 7 4481.55 78.59
3 -1 -7 4415.06 83.29
-3 1 7 4331.77 80.79
-3 1 7 4311.17 78.29
3 1 -7 4244.38 77.49
3 1 -7 4320.07 80.39
3 1 -7 4307.67 81.39
3 1 -7 4238.08 80.79
-3 1 7 4583.24 83.99
-3 1 7 4155.48 82.69
2 -1 -7 183.28 5.7
2 -1 -7 178.58 8.5
2 -1 -7 206.88 8.8
2 -1 -7 182.98 6.7
-2 -1 7 188.68 6.6
-2 -1 7 183.08 5.2
-2 -1 7 175.88 7.5
-2 -1 7 181.88 6.5
-2 1 7 182.58 5.6
-2 1 7 174.28 8
2 1 -7 177.08 4.3
2 1 -7 176.08 6.5
2 1 -7 184.98 7.5
2 1 -7 179.58 6.7
-1 -1 7 582.74 15
-1 -1 7 585.04 13.4
1 -1 -7 575.04 13.6
-1 -1 7 582.24 13.6
1 -1 -7 596.54 14.6
-1 -1 7 576.24 14.7
1 -1 -7 573.54 12.8
1 -1 -7 573.24 10.9
-1 1 7 553.84 14.3
1 1 -7 566.64 15.4
1 1 -7 555.34 13.5
-1 1 7 576.54 11.2
-1 1 7 588.54 13
1 1 -7 577.74 15.3
1 1 -7 564.04 13.6
0 -1 7 1996.9 39.3
0 -1 7 1943.91 38
0 -1 -7 1876.21 35.7
0 -1 7 1999 37.1
0 -1 -7 1963.8 37.8
0 -1 7 1994.5 39.8
0 -1 -7 2007.3 36.7
0 -1 -7 2032.8 39.6
0 -1 -7 1929.41 37.2
0 1 -7 1965.2 38
0 1 7 2019.6 36.6
0 1 7 1899.31 37.3
0 1 -7 1956.6 37.6
0 1 -7 1970 40.1
-1 -1 -7 2323.57 44.5
1 -1 7 2339.17 43.9
1 -1 7 2270.07 44
1 -1 7 2210.48 40.7
-1 -1 -7 2288.37 43.1
-1 -1 -7 2219.98 40.1
-1 -1 -7 2136.79 41.6
1 -1 7 2221.58 41.4
-1 -1 -7 2255.47 42.7
1 1 7 2313.57 43.2
-1 1 -7 2191.88 42.1
-1 1 -7 2200.38 45
1 1 7 2300.87 42.8
-1 1 -7 2339.77 41.6
1 1 7 2193.08 40.7
-1 1 -7 2322.37 43.6
-2 -1 -7 2474.65 47.2
2 -1 7 2512.05 46
-2 -1 -7 2392.76 46.7
2 -1 7 2414.56 48
2 -1 7 2502.15 45.3
2 -1 7 2534.45 51.69
-2 -1 -7 2568.34 48.8
-2 -1 -7 2489.85 47.9
-2 1 -7 2442.36 49.4
-2 1 -7 2527.55 48.5
2 1 7 2502.75 49.6
2 1 7 2533.95 48.2
-2 1 -7 2494.55 45.9
-2 1 -7 2584.14 47.1
-3 -1 -7 1507.75 30.8
3 -1 7 1416.76 28.8
3 -1 7 1453.85 27.4
-3 -1 -7 1446.16 29.7
3 -1 7 1446.56 30.1
-3 -1 -7 1476.75 30.9
3 -1 7 1462.05 33.8
-3 -1 -7 1404.66 29.4
-3 1 -7 1479.65 31.2
3 1 7 1411.86 31.6
3 1 7 1517.75 31.3
-3 1 -7 1479.25 30.3
-3 1 -7 1426.46 27.5
-3 1 -7 1423.76 31.5
-4 -1 -7 -0.1 1.6
-4 -1 -7 2.7 2.2
4 -1 7 0.4 1.8
4 -1 7 0.1 1.5
-4 -1 -7 -2.2 1.7
4 -1 7 0.7 3
4 1 7 1.6 2.6
4 1 7 -0.3 2.5
-4 1 -7 0.7 1
-4 1 -7 1.4 2.6
-4 1 -7 3.7 2.2
-5 -1 -7 512.95 13.9
5 -1 7 508.55 14.7
5 -1 7 528.55 14.3
5 -1 7 519.55 17.8
-5 -1 -7 495.65 16.2
-5 -1 -7 502.35 14.3
5 1 7 510.75 16.1
-5 1 -7 515.85 11.2
-5 1 -7 523.35 15.6
-5 1 -7 514.75 16.2
-6 -1 -7 211.88 10.4
6 -1 7 192.28 12
-6 -1 -7 206.58 8.5
-6 -1 -7 199.08 9.1
6 -1 7 211.78 9.1
6 -1 7 204.28 9.8
-6 -1 -7 204.38 7.1
6 1 7 203.88 6
6 1 7 204.18 10.7
-6 1 -7 204.28 9.7
-6 1 -7 208.78 5.9
6 1 7 217.48 11.2
7 -1 7 503.95 16.9
-7 -1 -7 481.25 14.4
7 -1 7 489.05 15.8
-7 -1 -7 492.25 17.2
7 -1 7 468.75 20.6
-7 -1 -7 480.05 15.2
-7 -1 -7 499.35 13.6
7 1 7 518.25 18.4
7 1 7 478.55 11.9
-7 1 -7 502.45 16.5
-7 1 -7 470.75 12.6
-7 1 -7 491.45 19.2
-7 1 -7 481.95 11.2
7 1 7 504.85 17.7
8 -1 7 6.3 4.2
-8 -1 -7 2.1 5.3
8 -1 7 7.7 7.2
-8 -1 -7 4.6 2.9
-8 -1 -7 4 3.5
-8 -1 -7 4.2 4.9
8 -1 7 -1.7 5.4
8 1 7 1.6 2.7
8 1 7 15.5 8.8
-8 1 -7 3.3 3
8 1 7 -0.4 4.8
-8 1 -7 14.1 7.8
-8 1 -7 0.9 4
-9 -1 -7 107.29 11.8
-9 -1 -7 114.59 8.4
-9 -1 -7 93.59 8.7
9 -1 7 100.69 10
9 -1 7 108.59 14
9 -1 7 94.19 12.2
-9 -1 -7 92.99 12
-9 -1 -7 105.99 8.5
9 1 7 89.79 7.1
-9 1 -7 109.29 9.9
9 1 7 107.29 11.6
9 1 7 80.29 12.3
-9 1 -7 77.49 13.2
-9 1 -7 87.89 4.9
-9 1 -7 100.59 7.1
10 -1 7 10 7
-10 -1 -7 5.2 9.2
-10 -1 -7 3.9 5.7
-10 -1 -7 8.6 4.9
-10 -1 -7 10.3 4.9
-10 1 -7 1.8 4.4
-10 1 -7 4.7 2.6
10 1 7 3.9 7.6
10 1 7 3.7 4.7
-10 1 -7 15.8 5.9
-11 -1 -7 14.2 5.7
-11 -1 -7 21.7 6.2
-11 -1 -7 21.4 10.9
11 -1 7 28.9 9.3
-11 1 -7 4.5 6.7
11 1 7 7.9 9.7
-12 -1 -7 40.3 9.1
-12 -1 -7 48.8 8.3
12 -1 7 35.7 11.6
12 1 7 34.1 13.4
-12 1 -7 30 10.1
13 -2 -7 39.5 17.7
-13 -2 7 43.4 11.1
13 2 -7 66.49 14.2
-13 2 7 55.59 17.4
-13 2 7 71.79 10.4
-12 -2 7 -9.3 8.1
12 -2 -7 26.8 9.4
12 -2 -7 11.6 10.4
-12 -2 7 12.7 11.7
-12 2 7 23.8 7.2
12 2 -7 12.4 9.9
-12 2 7 17.7 11.2
11 -2 -7 106.59 11.8
11 -2 -7 111.09 13.5
-11 -2 7 88.69 17.5
-11 -2 7 118.69 18.1
-11 -2 7 84.79 13
11 2 -7 118.79 15.8
-11 2 7 112.29 6.2
11 2 -7 120.39 14.2
-11 2 7 132.69 10.3
-11 2 7 141.19 19.4
-10 -2 7 235.78 17.4
10 -2 -7 251.07 9.5
-10 -2 7 231.38 15.1
10 -2 -7 258.67 12.2
-10 -2 7 238.98 16.7
10 -2 -7 252.47 16.2
10 -2 -7 235.48 30.9
-10 -2 7 258.47 17.7
10 2 -7 246.68 14.2
-10 2 7 249.88 8
10 2 -7 240.58 15.7
-10 2 7 247.98 17.1
-10 2 7 226.98 20
-10 2 7 254.57 11.2
9 -2 -7 78.79 7.4
-9 -2 7 73.19 9.8
-9 -2 7 89.09 12.3
9 -2 -7 83.69 6
-9 -2 7 92.19 10.4
-9 -2 7 83.09 9.5
-9 -2 7 80.29 9.8
9 -2 -7 96.39 11.8
9 -2 -7 63.99 14
-9 2 7 75.49 6.4
9 2 -7 80.09 10.6
-9 2 7 84.09 10.4
9 2 -7 77.69 9
-9 2 7 79.49 4.8
-9 2 7 76.69 13.6
-9 2 7 77.49 12
8 -2 -7 230.98 19.7
-8 -2 7 241.98 13.1
-8 -2 7 255.27 14
8 -2 -7 261.57 9.1
-8 -2 7 273.37 14.1
-8 -2 7 258.47 13
8 -2 -7 233.48 14.6
-8 -2 7 261.37 13.7
8 -2 -7 258.77 9.7
8 2 -7 260.27 11.9
-8 2 7 267.27 13.8
-8 2 7 262.47 7.8
8 2 -7 269.17 14
-8 2 7 260.37 9.5
-8 2 7 248.38 16.9
-8 2 7 270.77 20.4
8 2 -7 263.97 13.8
7 -2 -7 122.69 6.1
7 -2 -7 113.89 15.4
-7 -2 7 115.79 8.9
-7 -2 7 124.19 9.7
7 -2 -7 127.29 6.2
-7 -2 7 104.59 8.9
7 -2 -7 117.99 11
-7 -2 7 125.79 8.9
7 2 -7 124.59 9.7
7 2 -7 126.19 9.4
-7 2 7 103.19 11.8
-7 2 7 116.29 5.9
-7 2 7 132.29 15
7 2 -7 125.99 7.9
-7 2 7 112.09 9.1
-7 2 7 118.49 5.2
-6 -2 7 44.1 6.2
-6 -2 7 39.1 5
-6 -2 7 33.4 4.8
6 -2 -7 46.4 3.9
-6 -2 7 40.7 6.1
-6 -2 7 36.8 5.7
6 -2 -7 33.1 6.3
6 -2 -7 38.3 4
6 -2 -7 46.1 10.1
6 2 -7 36.6 5.8
6 2 -7 50.39 6.6
-6 2 7 46.1 3.5
-6 2 7 34.7 7.3
-6 2 7 40.3 3.5
-6 2 7 44.5 8.5
6 2 -7 37.6 4.9
5 -2 -7 195.68 6.8
-5 -2 7 175.48 9.4
-5 -2 7 192.08 8.5
5 -2 -7 189.88 12.3
5 -2 -7 195.58 14.3
-5 -2 7 194.18 9.2
-5 -2 7 191.18 7.6
5 -2 -7 197.68 5.8
-5 -2 7 186.68 9.8
5 2 -7 176.38 9.5
5 2 -7 186.88 10.3
-5 2 7 188.88 6.4
-5 2 7 184.48 12.1
-5 2 7 177.58 8.8
-5 2 7 185.48 6.1
-5 2 7 191.48 13
5 2 -7 187.48 7.7
4 -2 -7 67.09 3.9
-4 -2 7 73.49 5.1
4 -2 -7 73.79 5.6
-4 -2 7 64.99 4.3
4 -2 -7 67.19 8.5
-4 -2 7 70.19 5.8
-4 -2 7 62.89 6.2
4 -2 -7 68.49 10.2
-4 2 7 60.69 7.4
4 2 -7 64.19 4.4
-4 2 7 67.09 4
4 2 -7 66.79 6.1
4 2 -7 75.69 6.9
-3 -2 7 215.88 6.4
3 -2 -7 218.08 11.7
3 -2 -7 205.48 8.2
-3 -2 7 207.48 10.6
-3 -2 7 215.48 7.6
3 -2 -7 212.68 11.8
-3 -2 7 206.48 9.1
-3 -2 7 219.28 9
3 -2 -7 221.68 6.9
-3 2 7 206.18 6.9
-3 2 7 189.18 10.6
3 2 -7 215.88 7.6
3 2 -7 207.68 9.1
3 2 -7 209.88 6.9
-3 2 7 206.98 7.6
-2 -2 7 344.17 12.9
-2 -2 7 344.27 9.6
-2 -2 7 335.27 12
2 -2 -7 342.07 13.1
2 -2 -7 346.87 9.2
-2 -2 7 329.97 10.8
-2 -2 7 336.77 7.8
2 -2 -7 348.27 10.1
2 -2 -7 338.07 14.1
2 -2 -7 310.67 8.9
-2 2 7 349.96 9.4
2 2 -7 340.07 11.3
2 2 -7 343.27 9.6
-2 2 7 348.57 9.7
-2 2 7 323.77 12.9
1 -2 -7 611.54 13.7
1 -2 -7 587.64 16.7
1 -2 -7 598.94 14.3
1 -2 -7 619.94 12.9
1 -2 -7 568.94 18.7
-1 -2 7 560.64 14.7
-1 -2 7 611.74 15.2
-1 -2 7 584.94 17.3
-1 -2 7 597.34 11.9
-1 -2 7 604.84 17.7
-1 -2 7 597.24 14
1 -2 -7 594.84 14.1
-1 2 7 602.54 13.4
1 2 -7 588.84 15.5
-1 2 7 607.04 17.4
-1 2 7 588.04 14.6
1 2 -7 603.34 14.1
0 -2 -7 683.53 15.1
0 -2 -7 695.43 15.5
0 -2 -7 686.93 19
0 -2 7 668.63 13.9
0 -2 -7 669.03 17
0 -2 -7 657.03 15.8
0 -2 7 698.43 15.9
0 -2 7 683.73 18.7
0 -2 7 680.23 15.8
0 -2 7 670.13 14.3
0 2 -7 670.33 16.3
0 2 7 674.83 17.7
0 2 -7 667.63 19.8
0 2 -7 685.03 15.6
-1 -2 -7 1060.59 22.8
-1 -2 -7 1073.89 25.8
1 -2 7 1073.79 21.8
-1 -2 -7 1087.99 22.3
1 -2 7 1063.59 21.4
-1 -2 -7 1084.99 22.9
-1 -2 -7 1052.19 23.2
1 -2 7 1077.09 25.5
-1 2 -7 1056.09 22.5
-1 2 -7 1052.09 22.8
-1 2 -7 1035.8 26.8
2 -2 7 78.49 3.5
2 -2 7 79.39 5.9
2 -2 7 78.19 4.2
-2 -2 -7 83.39 3.5
-2 -2 -7 85.29 6.6
-2 -2 -7 67.19 4.2
2 -2 7 74.69 8.6
-2 -2 -7 83.79 4.7
-2 -2 -7 90.49 5.9
-2 -2 -7 86.79 5.2
2 2 7 85.39 5.7
-2 2 -7 81.89 5
-2 2 -7 88.09 6.2
-2 2 -7 85.99 7
-2 2 -7 82.79 4.1
3 -2 7 233.28 13.7
-3 -2 -7 250.27 9.8
3 -2 7 243.28 8
3 -2 7 238.48 5.7
-3 -2 -7 248.38 11.1
3 -2 7 214.38 10.4
-3 -2 -7 245.98 8.6
-3 -2 -7 253.17 9.2
3 2 7 240.48 10
-3 2 -7 246.78 10.8
-3 2 -7 235.68 6.5
-3 2 -7 230.08 8.9
-3 2 -7 257.97 11.2
-4 -2 -7 80.89 5.8
4 -2 7 81.99 10.1
-4 -2 -7 81.59 7.2
4 -2 7 86.39 6.3
4 -2 7 83.79 5.6
-4 -2 -7 89.69 7.3
-4 -2 -7 76.49 5.9
4 2 7 82.29 7.2
-4 2 -7 90.69 6.5
-4 2 -7 84.89 7.5
-4 2 -7 74.09 8.8
4 2 7 73.29 7.6
-5 -2 -7 154.08 9.5
5 -2 7 127.09 7.6
5 -2 7 118.99 12.1
5 -2 7 141.69 7.9
-5 -2 -7 138.49 7.8
-5 -2 -7 128.39 8.7
-5 2 -7 122.89 8.2
5 2 7 123.69 9.3
-5 2 -7 151.88 9.7
-5 2 -7 163.38 11.8
5 2 7 156.48 10.3
6 -2 7 7.4 3.7
-6 -2 -7 6.2 3
6 -2 7 6.1 6.2
-6 -2 -7 7.9 4
-6 -2 -7 7.5 4.8
6 -2 7 2 2.9
-6 2 -7 6 6.9
6 2 7 12.3 4.8
6 2 7 4.6 5.3
-6 2 -7 4.8 3.8
-7 -2 -7 25 6.6
-7 -2 -7 17.2 4.5
7 -2 7 23.8 4.9
7 -2 7 27.9 5.4
-7 -2 -7 19.7 7
-7 -2 -7 28.6 5.3
7 -2 7 35.8 9.2
7 2 7 23.6 6.2
-7 2 -7 12.9 8.7
7 2 7 17.8 9
-7 2 -7 27.2 6.6
-8 -2 -7 585.94 19.2
8 -2 7 604.04 20.1
-8 -2 -7 594.64 18.9
8 -2 7 624.94 26.6
-8 -2 -7 579.84 21.8
-8 -2 -7 562.94 22.8
8 -2 7 560.24 19.1
-8 2 -7 611.24 21.9
8 2 7 597.44 22.8
8 2 7 554.14 23
-8 2 -7 571.64 27
9 -2 7 54.49 8.2
-9 -2 -7 52.29 7.9
-9 -2 -7 31.2 10.3
-9 -2 -7 71.09 9.1
-9 2 -7 36.3 15.2
-9 2 -7 46.7 9.1
9 2 7 53.39 10.1
-10 -2 -7 559.64 20.5
-10 -2 -7 588.14 20.9
10 -2 7 555.54 22.3
-10 2 -7 601.74 24.7
10 2 7 591.64 26.5
11 -2 7 56.39 11.7
-11 -2 -7 46.7 9.1
11 2 7 55.69 13.5
-11 2 -7 48.4 11.3
11 -3 -7 26.2 12
-11 3 7 15.4 7.7
-11 3 7 22.4 15.9
11 3 -7 21.6 11.9
10 -3 -7 27.3 8.3
-10 -3 7 14.2 11.7
10 -3 -7 33.6 12.3
-10 -3 7 15.2 8.6
-10 -3 7 12.4 11
-10 3 7 12.8 10.2
-10 3 7 36.1 7.4
10 3 -7 29.5 12.4
10 3 -7 47 10.7
-10 3 7 46.7 15.1
9 -3 -7 1.1 4.8
9 -3 -7 -4.5 9.3
-9 -3 7 -6.9 6.9
-9 -3 7 11.2 8.3
-9 -3 7 0.7 6
-9 3 7 -2.9 4.6
-9 3 7 6.2 10.4
-9 3 7 -0.3 6.9
9 3 -7 13.8 9.1
-8 -3 7 31.8 7.1
8 -3 -7 21.8 12.3
8 -3 -7 35.9 9.6
-8 -3 7 25.4 7.3
8 -3 -7 28.4 5
-8 -3 7 24.4 6.2
8 -3 -7 37 4.4
-8 -3 7 24.6 7.4
-8 -3 7 36.4 9.6
-8 3 7 37.2 15.4
-8 3 7 40.2 5.5
-8 3 7 34.1 7.5
8 3 -7 31.9 7.1
-8 3 7 30.5 10.3
7 -3 -7 50.29 5
7 -3 -7 54.99 10.6
-7 -3 7 57.39 7
-7 -3 7 75.19 9.6
-7 -3 7 59.09 7.2
7 -3 -7 51.89 5.9
-7 -3 7 51.79 8.5
-7 -3 7 64.69 8.9
7 -3 -7 75.69 14.1
-7 3 7 61.89 12
-7 3 7 51.59 6.3
-7 3 7 49.2 6.7
-7 3 7 68.59 13
7 3 -7 72.09 8.9
6 -3 -7 54.09 4.9
-6 -3 7 38.8 7.6
-6 -3 7 50.99 7
-6 -3 7 48.8 7.3
-6 -3 7 54.69 7.7
-6 -3 7 55.89 7.3
6 -3 -7 52.39 11.8
6 -3 -7 55.89 10.8
6 -3 -7 44.8 4.7
-6 3 7 58.49 7.2
-6 3 7 59.79 11.7
6 3 -7 62.59 7.1
5 -3 -7 153.28 14.1
-5 -3 7 133.99 12.5
-5 -3 7 153.88 8.1
5 -3 -7 139.89 14.9
-5 -3 7 152.98 11.2
5 -3 -7 148.19 6.4
-5 -3 7 150.18 9.7
-5 -3 7 150.88 8
-5 -3 7 156.58 10.8
5 -3 -7 150.58 5.2
-5 3 7 128.29 7.9
-5 3 7 149.69 13.7
4 -3 -7 5.1 6.5
4 -3 -7 2.3 1.5
-4 -3 7 4.1 4.4
-4 -3 7 -1.1 2.7
-4 -3 7 4.3 5.4
-4 -3 7 4.8 2.9
4 -3 -7 2.6 2.1
-4 -3 7 3.2 3.4
4 -3 -7 11.2 6.7
-4 3 7 4.5 2.6
-4 3 7 -1.8 5.1
-3 -3 7 11 3.9
-3 -3 7 10.7 2.9
3 -3 -7 12 2.5
-3 -3 7 13.7 5.4
3 -3 -7 16.6 6.7
-3 -3 7 10.4 4.3
3 -3 -7 12.3 2.2
3 -3 -7 12.5 2.4
3 -3 -7 11.4 5.9
-3 -3 7 7.9 2.5
-3 3 7 10.5 2.3
-3 3 7 10 5.3
2 -3 -7 29.8 3.9
-2 -3 7 33.6 6.1
-2 -3 7 30.4 4.6
2 -3 -7 25.3 6.7
-2 -3 7 35.5 4
2 -3 -7 18.9 6.3
2 -3 -7 33.4 3.5
2 -3 -7 31.6 4
-2 -3 7 32.8 6.2
-2 -3 7 28.6 3.3
2 -3 -7 25.9 3.2
-2 3 7 27.9 5.8
-2 3 7 34.3 2.8
-1 -3 7 47.3 7.6
-1 -3 7 53.79 7
1 -3 -7 44.6 7.9
-1 -3 7 52.09 4.4
-1 -3 7 38.5 4.9
1 -3 -7 45.8 4.5
-1 -3 7 50.39 6.1
-1 -3 7 50.49 4.3
1 -3 -7 51.59 7.3
1 -3 -7 50.59 4.5
1 -3 -7 45.6 4.2
1 -3 -7 45.6 5.2
1 3 -7 46.3 3.2
0 -3 7 366.26 15.7
0 -3 7 358.26 11.9
0 -3 -7 369.76 15.3
0 -3 7 370.46 12
0 -3 7 387.26 10.7
0 -3 -7 386.46 13
0 -3 -7 377.26 10.2
0 -3 -7 368.06 14.5
0 -3 -7 386.46 11.4
0 -3 -7 361.66 11.6
0 -3 7 371.96 15
0 3 -7 369.26 9.7
-1 -3 -7 2240.88 49.2
1 -3 7 2234.18 44.8
1 -3 7 2261.67 55.09
-1 -3 -7 2225.28 45.5
-1 -3 -7 2225.38 42.6
-1 -3 -7 2211.48 47
1 -3 7 2272.07 49.1
1 -3 7 2250.27 43.7
-1 -3 -7 2243.78 45.3
-1 3 -7 2238.58 51.79
-1 3 -7 2262.47 43.1
2 -3 7 764.12 16.9
2 -3 7 748.63 21.8
-2 -3 -7 782.52 22.8
2 -3 7 751.82 19.2
2 -3 7 790.42 28.4
-2 -3 -7 760.92 18.7
-2 -3 -7 784.92 17.5
-2 -3 -7 767.12 20.3
-2 -3 -7 756.82 20.1
-2 -3 -7 770.82 20.1
-2 3 -7 776.62 18.2
-2 3 -7 794.12 25.1
3 -3 7 1185.88 29
3 -3 7 1169.38 26.6
-3 -3 -7 1155.08 24.8
-3 -3 -7 1167.48 30.1
3 -3 7 1131.59 22
-3 -3 -7 1189.88 28.3
-3 -3 -7 1151.18 24.3
-3 -3 -7 1143.49 25.9
-3 -3 -7 1154.98 27.7
3 -3 7 1156.68 36.6
-3 3 -7 1192.88 26.1
-3 3 -7 1163.68 32.5
-4 -3 -7 3.3 5.4
-4 -3 -7 6.9 2.1
4 -3 7 9.3 7.9
4 -3 7 9.1 4
4 -3 7 2.4 3.4
-4 -3 -7 5.5 3.7
-4 -3 -7 5.7 2.9
-4 -3 -7 6.3 4.5
-4 -3 -7 4.2 3
-4 3 -7 6.9 4.7
-4 3 -7 1.7 3.1
-4 3 -7 -4.1 6.2
-5 -3 -7 40.6 6.7
5 -3 7 50.59 7.6
-5 -3 -7 39.2 6.9
-5 -3 -7 50.19 6.6
5 -3 7 45.6 10.1
-5 -3 -7 46.3 8.6
5 -3 7 40.2 5.8
-5 -3 -7 48.6 5.6
-5 3 -7 41.6 10.1
-5 3 -7 48.5 5.9
-5 3 -7 47.5 8.4
6 -3 7 58.39 11.7
6 -3 7 73.29 8.5
6 -3 7 59.09 7.2
-6 -3 -7 48.5 8.6
-6 -3 -7 46.6 6.7
-6 -3 -7 61.59 7.1
-6 -3 -7 46.6 8.3
-6 -3 -7 68.09 9.6
-6 3 -7 69.99 12.8
-6 3 -7 59.59 9.5
-6 3 -7 52.99 7.1
-7 -3 -7 123.19 11.2
7 -3 7 123.99 11.1
-7 -3 -7 142.79 11.5
7 -3 7 158.78 10.9
-7 -3 -7 140.19 11.2
7 -3 7 193.88 22.5
-7 3 -7 144.59 14.2
-7 3 -7 129.99 17.2
-7 3 -7 140.39 11.1
7 3 7 134.59 15.4
8 -3 7 42.3 8.6
-8 -3 -7 58.39 9.4
-8 -3 -7 41.7 7.6
-8 -3 -7 62.19 9.2
8 3 7 36.5 11.1
-8 3 -7 60.99 10.9
-8 3 -7 37.6 17.2
-8 3 -7 31.8 7.3
-9 -3 -7 224.88 15
9 -3 7 211.08 15.8
-9 -3 -7 193.38 14.7
-9 3 -7 214.38 16.2
-9 3 -7 217.68 19.4
9 3 7 199.48 20.8
-10 -3 -7 18.2 8.9
-10 -3 -7 36.3 8.5
10 -3 7 27.7 11.4
10 3 7 24.3 14.3
-10 3 -7 50.79 13.1
-10 3 -7 30.3 10.2
-9 -4 7 34.7 9.8
-9 -4 7 37.9 11.6
9 -4 -7 68.09 16
-9 4 7 31.3 17.1
-8 -4 7 35.4 9.5
-8 -4 7 34.8 9.7
-8 -4 7 43.1 11
8 -4 -7 44.2 14.1
-8 4 7 32.7 14.2
-8 4 7 47.8 8.8
-7 -4 7 -5 7.2
-7 -4 7 -3 6.9
7 -4 -7 -16.1 12.2
7 -4 -7 1.8 3.6
-7 -4 7 11 8.5
-7 4 7 9.5 12.7
-7 4 7 1.6 5.5
-6 -4 7 296.17 18.2
-6 -4 7 286.87 15.2
6 -4 -7 302.77 11.8
6 -4 -7 315.97 23.8
-6 -4 7 304.17 16.4
6 -4 -7 303.17 10.1
6 -4 -7 293.27 9.5
-6 4 7 283.27 23.1
-6 4 7 299.57 11.6
-5 -4 7 21.5 9.4
5 -4 -7 42.8 4.7
5 -4 -7 27.2 4.2
-5 -4 7 12.5 7.3
-5 -4 7 34.5 7.2
-5 -4 7 26.4 6.4
5 -4 -7 31.7 11.9
-5 -4 7 20.2 4.5
5 -4 -7 50.49 13
-5 4 7 31.2 3.9
4 -4 -7 1245.68 39
-4 -4 7 1176.78 24.9
-4 -4 7 1213.38 35.2
4 -4 -7 1199.18 26.7
-4 -4 7 1229.08 29.4
4 -4 -7 1223.98 26.5
-4 -4 7 1117.69 37.1
4 -4 -7 1202.38 25
4 -4 -7 1249.77 40.5
-4 -4 7 1252.77 33.9
-4 -4 7 1223.88 33.7
-3 -4 7 19.9 6.5
3 -4 -7 19.9 4
-3 -4 7 7.5 6.3
-3 -4 7 20.9 8.7
3 -4 -7 6.5 9.7
-3 -4 7 27.5 8
3 -4 -7 45.1 10.2
-3 -4 7 18.6 4.9
3 -4 -7 22 3.9
3 -4 -7 19 4
2 -4 -7 688.83 18
2 -4 -7 679.23 29.6
2 -4 -7 676.13 17.8
2 -4 -7 686.63 18.2
-2 -4 7 677.63 25.6
-2 -4 7 671.43 24.2
-2 -4 7 707.03 21.9
-2 -4 7 684.43 17.8
2 -4 -7 711.53 25.9
-2 -4 7 661.63 21.6
-1 -4 7 61.49 8
-1 -4 7 62.49 13.3
-1 -4 7 62.89 9.4
1 -4 -7 56.49 11.1
1 -4 -7 53.69 8.1
1 -4 -7 86.59 13
-1 -4 7 66.49 8
-1 -4 7 61.69 6.2
-1 -4 7 66.99 10.2
1 -4 -7 48.7 6.5
1 -4 -7 66.19 6.5
1 -4 -7 62.49 10.8
0 -4 -7 176.98 14.5
0 -4 -7 171.88 13.3
0 -4 7 183.88 11.8
0 -4 7 169.48 9.4
0 -4 7 171.78 10.7
0 -4 -7 167.58 17.7
0 -4 7 189.08 14.3
0 -4 7 172.48 14.5
0 -4 -7 148.29 14.1
0 -4 7 152.48 18.9
0 -4 -7 176.48 9.4
0 -4 -7 165.88 9
-1 -4 -7 80.39 8
-1 -4 -7 95.19 11.5
1 -4 7 78.29 8.4
1 -4 7 84.69 12
1 -4 7 95.19 11.4
1 -4 7 78.29 10.1
-1 -4 -7 89.29 9.3
-1 -4 -7 114.79 12.3
1 -4 7 83.79 7.7
1 -4 7 89.89 14.2
-1 -4 -7 87.89 11.3
-2 -4 -7 270.97 16.7
-2 -4 -7 284.47 15
2 -4 7 250.67 24
-2 -4 -7 289.37 16.8
2 -4 7 260.97 13.1
2 -4 7 281.77 15.2
-2 -4 -7 259.47 16.6
-2 -4 -7 264.27 13
-2 -4 -7 265.77 12.5
2 -4 7 259.47 9.8
-2 -4 -7 265.47 11.9
3 -4 7 2 2.5
3 -4 7 16.9 6.6
-3 -4 -7 6.7 4.7
-3 -4 -7 20.1 6.6
-3 -4 -7 11.8 8.5
-3 -4 -7 4.5 5.4
-3 -4 -7 0.8 7.9
-3 -4 -7 5.1 3.9
3 -4 7 5.8 5.7
3 -4 7 7.1 2.2
-3 -4 -7 8.8 3.5
-3 4 -7 2.4 7.2
-3 4 -7 6 3.5
-3 4 -7 7.8 3.2
-4 -4 -7 258.97 13.6
-4 -4 -7 258.47 10
-4 -4 -7 209.68 16.4
-4 -4 -7 306.47 13.5
-4 -4 -7 261.87 10.2
4 -4 7 251.77 13.6
4 -4 7 273.67 15
-4 4 -7 258.57 10.5
-4 4 -7 257.87 18.6
-4 4 -7 280.87 11.4
-5 -4 -7 37.8 4.8
-5 -4 -7 31.8 8
5 -4 7 42.2 9
-5 -4 -7 46.8 7.7
5 -4 7 48.7 8.1
-5 -4 -7 41.6 6
-5 4 -7 54.59 11.1
-5 4 -7 36.9 5.8
-5 4 -7 37.7 6.8
-6 -4 -7 117.19 14
-6 -4 -7 114.19 12.3
-6 -4 -7 116.89 11.3
6 -4 7 124.69 13.4
-6 4 -7 123.19 12.3
-6 4 -7 122.09 10.6
-6 4 -7 139.99 18.6
-7 -4 -7 106.29 11.6
-7 -4 -7 101.59 12.3
7 -4 7 89.39 11.2
-7 4 -7 83.09 9.5
-7 4 -7 76.19 11
-7 4 -7 117.09 15.9
-8 -4 -7 128.19 16.6
8 -4 7 132.09 14.1
-8 4 -7 176.88 23.9
-8 4 -7 133.59 16.3
-6 -5 7 93.79 14.1
5 -5 -7 -3.1 18
-5 -5 7 41.7 14.5
-5 -5 7 20 10.7
-5 -5 7 20.9 10.4
-4 -5 7 260.87 20
-4 -5 7 309.57 22
4 -5 -7 285.97 12.8
-4 -5 7 291.47 23.5
4 -5 -7 268.87 27.6
-3 -5 7 34.2 10.7
3 -5 -7 38.9 16.7
-3 -5 7 34.3 12.5
-3 -5 7 30.7 10.6
3 -5 -7 35.1 6.7
3 -5 -7 45.3 6.7
2 -5 -7 -1.6 5.7
2 -5 -7 -7.7 5.7
2 -5 -7 -9.6 11.5
-2 -5 7 -6.5 10.3
-2 -5 7 -10.6 8.7
-2 -5 7 -0.4 11.4
2 -5 -7 6.6 15.2
1 -5 -7 -8 15.1
1 -5 -7 -6.7 11.9
-1 -5 7 -3 10.8
-1 -5 7 -10.8 10.4
1 -5 -7 7.3 6.2
-1 -5 7 2.4 8.9
1 -5 -7 7.6 5.6
0 -5 -7 158.58 21.9
0 -5 -7 132.69 12.5
0 -5 -7 148.39 11.7
0 -5 7 184.68 17.5
0 -5 -7 152.28 16.4
0 -5 -7 157.68 18.9
0 -5 7 155.88 18.4
0 -5 7 171.28 18
1 -5 7 -2.3 9.3
-1 -5 -7 10.3 6.8
-1 -5 -7 4 15.6
1 -5 7 7.6 10.7
-1 -5 -7 3.4 11.4
-1 -5 -7 -5.5 13.1
1 -5 7 1.2 5.3
2 -5 7 48.6 10.3
-2 -5 -7 27.7 8.8
2 -5 7 32.9 12
-2 -5 -7 40.1 13.4
-2 -5 -7 51.89 17.7
-2 -5 -7 31.5 7.8
-2 -5 -7 39.9 9
-3 -5 -7 0.8 7
-3 -5 -7 3.7 7.1
3 -5 7 -4.1 9.4
-3 -5 -7 -17.8 8.1
4 -5 7 33 13.7
-4 -5 -7 16.8 10.1
-4 -5 -7 19.1 8.3
14 0 -8 12.5 12.7
-13 0 8 313.37 14.6
-13 0 8 292.67 17.7
13 0 -8 254.77 19
-13 0 8 275.27 24.4
-12 0 8 261.97 22.5
-12 0 8 266.27 12.4
-12 0 8 246.28 14.7
12 0 -8 211.58 15.5
-12 0 8 280.47 21
11 0 -8 228.98 14
-11 0 8 262.47 18.5
-11 0 8 273.87 18.8
-11 0 8 223.08 23.8
11 0 -8 266.57 13.9
-11 0 8 268.37 11.8
11 0 -8 252.57 16.7
-11 0 8 247.38 13.3
-10 0 8 476.85 20.6
10 0 -8 498.55 17.3
-10 0 8 491.35 24.7
-10 0 8 484.95 15.8
-10 0 8 487.95 16.3
10 0 -8 466.55 19.1
-10 0 8 490.15 22.5
10 0 -8 465.95 19
9 0 -8 289.07 13.8
9 0 -8 268.57 12
-9 0 8 269.47 16.7
9 0 -8 254.87 12.2
-9 0 8 274.57 14.7
-9 0 8 261.57 17.3
-9 0 8 254.87 11.1
-9 0 8 247.68 11.2
8 0 -8 7431.46 138.99
-8 0 8 7277.57 143.99
-8 0 8 7511.85 139.99
8 0 -8 7387.06 136.89
-8 0 8 6927.91 138.19
-8 0 8 7180.88 135.19
-8 0 8 7928.41 143.49
8 0 -8 7581.54 137.49
7 0 -8 1400.66 32.2
-7 0 8 1442.96 31.1
-7 0 8 1460.85 34.2
-7 0 8 1456.45 36.4
7 0 -8 1433.16 33.6
-7 0 8 1412.26 30.9
7 0 -8 1425.86 32
-7 0 8 1435.46 37.9
-6 0 8 1356.56 33.2
-6 0 8 1351.26 29.1
-6 0 8 1380.46 35.1
6 0 -8 1334.67 30.3
6 0 -8 1344.97 30
6 0 -8 1378.06 31.3
-6 0 8 1369.16 31.5
-6 0 8 1339.47 28.7
5 0 -8 4590.64 86.69
-5 0 8 4585.84 90.19
-5 0 8 4486.35 83.99
5 0 -8 4659.33 87.29
5 0 -8 4525.15 85.59
5 0 -8 4586.24 86.09
-5 0 8 4806.42 88.59
-5 0 8 4530.95 84.59
-4 0 8 7453.65 134.79
4 0 -8 7326.87 132.49
-4 0 8 7247.87 131.59
-4 0 8 7360.86 133.59
-4 0 8 7376.96 135.79
4 0 -8 7394.86 133.29
4 0 -8 7362.66 133.99
4 0 -8 7267.17 133.29
-3 0 8 3889.61 72.89
3 0 -8 3858.71 71.99
3 0 -8 3745.23 71.19
3 0 -8 3840.72 72.29
-3 0 8 3866.31 72.89
-3 0 8 3890.51 70.89
-3 0 8 3945.01 72.39
-3 0 8 3864.31 70.99
-2 0 8 3686.03 68.39
-2 0 8 3708.63 67.19
-2 0 8 3686.03 67.19
2 0 -8 3649.53 67.69
2 0 -8 3761.62 68.79
2 0 -8 3658.53 68.69
-2 0 8 3656.13 68.39
2 0 -8 3664.93 68.19
1 0 -8 1628.84 31.5
-1 0 8 1601.44 31.7
1 0 -8 1630.24 32.4
1 0 -8 1643.54 31.8
1 0 -8 1587.14 31.6
-1 0 8 1620.44 32.2
1 0 -8 1642.94 32.1
-1 0 8 1607.24 31
-1 0 8 1597.74 31
0 0 8 177.68 5.7
0 0 -8 175.48 6
0 0 -8 181.38 5.9
0 0 8 183.48 6.5
0 0 -8 180.58 6.4
0 0 -8 171.18 5.5
0 0 -8 182.78 5.6
0 0 8 167.08 5.4
0 0 8 177.28 5.4
1 0 8 2364.36 44
-1 0 -8 2323.37 44.8
1 0 8 2324.37 44.1
-1 0 -8 2344.87 43.9
1 0 8 2329.67 44.6
-1 0 -8 2400.16 44.2
-1 0 -8 2428.76 45.7
1 0 8 2398.56 44
-2 0 -8 889.91 19.5
-2 0 -8 893.01 18.9
2 0 8 853.11 18.8
2 0 8 865.41 19.3
2 0 8 901.01 18.6
-2 0 -8 895.11 18.4
2 0 8 896.71 18.6
3 0 8 3386.86 64.09
-3 0 -8 3378.76 62.69
-3 0 -8 3546.65 64.19
-3 0 -8 3384.96 64.39
3 0 8 3429.36 64.59
3 0 8 3448.25 64.49
-3 0 -8 3400.96 65.69
3 0 8 3480.25 63.39
-4 0 -8 191.68 7.6
4 0 8 178.78 7.6
-4 0 -8 191.68 7.8
4 0 8 203.88 8.4
4 0 8 183.08 7.7
-4 0 -8 188.58 6.3
-5 0 -8 1646.54 35
5 0 8 1608.24 39.5
5 0 8 1649.93 35.5
-5 0 -8 1656.13 32.7
-5 0 -8 1685.43 35.5
5 0 8 1659.93 34.9
-6 0 -8 244.88 8.1
6 0 8 252.97 11.8
6 0 8 241.48 11.8
-6 0 -8 221.18 9.5
6 0 8 222.58 10.2
-6 0 -8 246.08 10.8
-7 0 -8 334.17 14.4
-7 0 -8 350.66 10.4
7 0 8 347.37 15
-7 0 -8 337.77 12.5
7 0 8 335.07 13.5
7 0 8 337.07 14.7
-8 0 -8 246.08 14.7
8 0 8 237.68 14.2
8 0 8 241.38 14.5
-8 0 -8 258.77 9.1
8 0 8 248.68 12.7
9 0 8 152.38 11.8
-9 0 -8 131.09 7.4
-9 0 -8 133.29 10.4
9 0 8 131.99 12.6
-9 0 -8 127.19 15.7
-9 0 -8 133.99 9.7
9 0 8 111.09 14
10 0 8 -4.8 6.9
-10 0 -8 3.9 6.7
10 0 8 12.4 7.6
-10 0 -8 3.2 3.8
-10 0 -8 13.6 5.3
-11 0 -8 266.87 11.7
11 0 8 282.87 19.1
11 0 8 233.58 16
-11 0 -8 266.07 17.3
-11 0 -8 251.27 15.4
-12 0 -8 4.2 7.8
12 0 8 -7.1 11.7
13 -1 -8 28.6 11.3
13 -1 -8 23 18.6
-13 -1 8 41.3 8.4
13 1 -8 23.2 10.4
-13 1 8 35.1 7.1
-13 1 8 45.6 13.3
12 -1 -8 471.25 20.9
-12 -1 8 502.25 19.9
12 -1 -8 467.45 22.1
-12 -1 8 514.95 26.3
-12 -1 8 443.76 26.3
12 1 -8 513.55 21.4
-12 1 8 482.35 16.3
-12 1 8 505.85 30.1
-12 1 8 506.55 27.4
-12 1 8 490.05 19.3
11 -1 -8 8.3 9.8
-11 -1 8 -0.6 5.7
11 -1 -8 12.2 6.4
-11 -1 8 2.2 9.1
-11 -1 8 18.1 9.4
-11 -1 8 14.1 6.9
11 -1 -8 10.8 5
11 -1 -8 0.6 6.3
-11 -1 8 12 10.3
-11 1 8 14.1 8.6
11 1 -8 8.6 7.9
-11 1 8 4.5 3.5
-11 1 8 -0.7 9.2
-11 1 8 4.5 4.7
11 1 -8 0.4 5.9
10 -1 -8 115.69 11.1
-10 -1 8 111.89 14.7
-10 -1 8 97.79 11
-10 -1 8 115.39 13.6
10 -1 -8 100.49 9.3
10 -1 -8 100.59 13
10 -1 -8 119.29 8.6
-10 -1 8 100.79 10.2
-10 -1 8 101.69 14.8
-10 1 8 111.79 16.2
10 1 -8 120.49 11
10 1 -8 108.79 11.4
-10 1 8 106.19 13.4
-10 1 8 107.29 6.6
-10 1 8 100.69 14.1
10 1 -8 110.69 10
9 -1 -8 10.8 3.7
-9 -1 8 6.8 4.2
9 -1 -8 15.5 5.2
-9 -1 8 8.6 7.8
-9 -1 8 10.7 6.1
9 -1 -8 8.8 4.1
-9 -1 8 8.4 4.5
9 -1 -8 0.5 5.7
-9 -1 8 6 6.3
-9 1 8 10 2.8
-9 1 8 0.4 6.1
9 1 -8 13.4 5.1
9 1 -8 5.7 4.1
-9 1 8 2.2 9.7
9 1 -8 17.3 5.7
-9 1 8 7.8 6.5
-9 1 8 8 3.3
8 -1 -8 215.98 12
8 -1 -8 216.18 9.3
-8 -1 8 243.28 11.3
-8 -1 8 222.78 11.2
-8 -1 8 244.38 15.9
-8 -1 8 225.98 12.9
8 -1 -8 229.78 9.5
8 -1 -8 228.18 14.2
-8 -1 8 240.68 12.7
-8 1 8 208.78 7.6
8 1 -8 226.78 11.6
-8 1 8 215.88 16.7
-8 1 8 204.28 12.5
8 1 -8 217.88 11.3
8 1 -8 218.88 10.1
-8 1 8 214.88 14.4
-8 1 8 244.68 8.7
7 -1 -8 23.7 6.4
-7 -1 8 20.7 4.4
7 -1 -8 18.4 3.4
7 -1 -8 17.4 3.3
-7 -1 8 11.3 4.5
-7 -1 8 22.1 5.8
7 -1 -8 30.3 5.8
-7 -1 8 16.6 4.9
-7 -1 8 15.8 4
-7 1 8 18.9 5.2
-7 1 8 14.7 6.3
-7 1 8 7.7 5.8
-7 1 8 16.7 2.9
7 1 -8 22.1 3.7
7 1 -8 22.7 4.5
-7 1 8 17.8 2.6
7 1 -8 20.4 4.8
-6 -1 8 214.88 9.9
-6 -1 8 231.08 10.6
-6 -1 8 224.68 9.4
6 -1 -8 223.18 11.2
6 -1 -8 203.08 14.9
-6 -1 8 227.98 9.8
6 -1 -8 228.18 8.3
-6 -1 8 213.68 9.9
6 -1 -8 224.28 7.3
6 1 -8 224.58 10.1
-6 1 8 211.98 10.2
-6 1 8 197.48 6.2
-6 1 8 232.78 13.3
6 1 -8 226.18 8.3
6 1 -8 211.98 9.8
-6 1 8 200.38 12.4
-6 1 8 226.48 7.5
5 -1 -8 -1.3 2.3
-5 -1 8 1.5 2.3
5 -1 -8 1.8 1.7
-5 -1 8 -1.3 1.9
5 -1 -8 2.7 3.3
5 -1 -8 6.5 4.5
-5 -1 8 -2.6 2.3
-5 -1 8 3.1 2.5
-5 -1 8 2.1 2.4
5 1 -8 1.2 2.5
-5 1 8 -3 3.7
5 1 -8 0.6 1.7
-5 1 8 11.9 5.1
-5 1 8 2.4 2.6
5 1 -8 0.7 2
-5 1 8 -0.1 1.4
5 1 -8 2.6 2.2
-4 -1 8 13.2 2.9
4 -1 -8 6.2 3.3
4 -1 -8 16 3.3
-4 -1 8 7.7 2.4
4 -1 -8 14.1 4.4
-4 -1 8 12.2 2.8
4 -1 -8 10.8 2.3
-4 -1 8 9.2 2.3
-4 1 8 4.7 4.1
-4 1 8 6.1 2.3
-4 1 8 8.6 1.7
4 1 -8 11 2.7
-4 1 8 14.6 4.6
4 1 -8 8.2 2.7
4 1 -8 8.3 2.6
4 1 -8 9.1 1.7
-4 1 8 8.3 1
-3 -1 8 19.7 2.6
3 -1 -8 20.2 4.2
-3 -1 8 19.8 3.6
-3 -1 8 17.6 2.9
-3 -1 8 23.3 3.3
3 -1 -8 25.2 4.3
3 -1 -8 19.6 3.2
-3 -1 8 15.5 2.5
3 -1 -8 24.3 2.7
3 1 -8 17 1.9
-3 1 8 21.1 3.1
-3 1 8 11.8 4.2
-3 1 8 20.5 2.4
-3 1 8 14.2 3.8
3 1 -8 18.7 3.1
3 1 -8 20.6 3.4
3 1 -8 16.9 3.1
2 -1 -8 439.56 11
2 -1 -8 455.85 12.3
2 -1 -8 451.95 14.5
-2 -1 8 447.96 9.7
2 -1 -8 491.55 13.4
-2 -1 8 447.26 13.2
-2 -1 8 447.66 12.7
-2 -1 8 454.85 11.9
-2 -1 8 447.36 11.9
2 1 -8 444.86 8.9
2 1 -8 453.45 12.3
-2 1 8 433.96 13.7
2 1 -8 455.15 13.3
2 1 -8 451.85 12.2
-2 1 8 458.35 10.9
-1 -1 8 15.6 2.6
1 -1 -8 16.2 2.1
-1 -1 8 13.4 2.5
-1 -1 8 8.6 1.8
1 -1 -8 11.2 1.3
1 -1 -8 15.5 2.4
1 -1 -8 20.5 2.9
-1 -1 8 15.8 2.3
1 1 -8 17 3.2
-1 1 8 12.7 1.9
1 1 -8 13.3 2.3
1 1 -8 12.5 2.7
-1 1 8 12.2 3.1
1 1 -8 15.2 2.3
0 -1 -8 948.41 18.5
0 -1 8 945.81 21.3
0 -1 8 927.51 19.2
0 -1 -8 933.41 20.2
0 -1 -8 907.01 18
0 -1 8 941.21 20.4
0 -1 -8 936.91 19.5
0 -1 8 929.81 21.6
0 -1 -8 895.81 21.4
0 1 8 957.5 18.9
0 1 -8 927.81 19.8
0 1 8 920.61 19.8
0 1 -8 900.21 22
0 1 8 903.11 19.6
0 1 -8 932.11 20.4
1 -1 8 209.28 8.3
-1 -1 -8 200.08 6
-1 -1 -8 212.78 4.8
-1 -1 -8 207.38 7.2
1 -1 8 208.98 5.3
1 -1 8 208.68 7.7
1 -1 8 211.58 6
-1 -1 -8 214.18 6.9
-1 -1 -8 204.88 8
1 -1 8 216.18 7.7
1 1 8 200.18 5.5
1 1 8 221.98 7.2
-1 1 -8 216.78 7.6
-1 1 -8 205.58 5.8
-1 1 -8 211.58 8.4
-1 1 -8 213.58 6.5
2 -1 8 475.05 12.8
2 -1 8 477.65 11
2 -1 8 469.65 15.4
2 -1 8 487.45 10.6
-2 -1 -8 485.85 12.1
-2 -1 -8 459.55 11.5
-2 -1 -8 472.75 12.7
-2 -1 -8 490.65 13.5
-2 1 -8 481.15 11.8
2 1 8 499.05 13
2 1 8 460.15 12.4
-2 1 -8 472.25 13.9
-2 1 -8 477.85 13.1
2 1 8 483.85 14.1
-2 1 -8 470.05 11.1
3 -1 8 0.6 1.6
3 -1 8 3.4 1.6
-3 -1 -8 -0.4 1.5
-3 -1 -8 1.8 1.7
-3 -1 -8 3.1 2.2
-3 -1 -8 6.2 2.3
3 -1 8 0 2.8
3 -1 8 1.8 1.1
-3 1 -8 1 2.1
-3 1 -8 1.6 1.2
3 1 8 1.4 2.5
-3 1 -8 0.7 1.8
-3 1 -8 -1.1 2
3 1 8 3.9 2.6
-4 -1 -8 1102.29 26
-4 -1 -8 1122.19 24.4
-4 -1 -8 1058.29 24.2
-4 -1 -8 1136.29 25.8
4 -1 8 1111.89 28.5
4 -1 8 1106.69 24.8
4 -1 8 1096.89 24.1
-4 1 -8 1141.79 26.6
-4 1 -8 1127.59 26.5
4 1 8 1177.98 26.9
-4 1 -8 1077.19 21.9
-4 1 -8 1119.49 25.7
4 1 8 1080.29 26.6
-5 -1 -8 71.09 6.4
-5 -1 -8 68.49 5
5 -1 8 61.09 5.6
-5 -1 -8 55.29 5.3
5 -1 8 61.99 8.2
5 -1 8 68.09 5.4
-5 1 -8 79.09 7.4
5 1 8 72.99 6.9
-5 1 -8 67.99 3.5
5 1 8 76.59 7.5
-5 1 -8 70.29 6
-6 -1 -8 1941.91 41.2
-6 -1 -8 1934.91 40.6
6 -1 8 1970.1 45.4
-6 -1 -8 2035.4 43
6 -1 8 2004.9 41.7
6 -1 8 2000.7 42.1
6 1 8 1967.1 36.5
6 1 8 2061.59 44.6
-6 1 -8 1921.71 44.7
-6 1 -8 1937.61 37.2
-6 1 -8 1972.8 43.4
6 1 8 1984.1 44.1
-7 -1 -8 5 5.2
-7 -1 -8 8.2 3.1
7 -1 8 10.5 5.7
7 -1 8 5.6 4.5
7 -1 8 10.1 3.9
-7 -1 -8 11.4 3.4
7 1 8 6.7 2.1
-7 1 -8 9.9 4.3
-7 1 -8 10.5 2
7 1 8 7.6 4.8
7 1 8 3.1 5
-7 1 -8 11.8 6.6
-7 1 -8 9.1 3
-8 -1 -8 123.89 10.9
-8 -1 -8 96.79 10.9
8 -1 8 108.49 13.1
8 -1 8 82.09 11.2
8 -1 8 94.59 8.8
-8 -1 -8 98.59 8
-8 -1 -8 90.09 7.1
8 1 8 97.59 5.5
8 1 8 93.99 11.3
-8 1 -8 116.59 12.8
-8 1 -8 96.49 4.8
-8 1 -8 98.99 9.1
8 1 8 120.09 11.4
-8 1 -8 100.59 6.7
-9 -1 -8 15.6 4.4
9 -1 8 5.4 6.8
9 -1 8 12.6 10.1
-9 -1 -8 15.3 8.5
-9 -1 -8 21.6 7.6
-9 -1 -8 21 4.7
9 -1 8 17.4 5.9
-9 1 -8 19.5 11.6
-9 1 -8 27 6.5
9 1 8 32.7 7.7
-9 1 -8 15.8 2.8
9 1 8 19.4 7.8
9 1 8 17.6 3.9
-9 1 -8 15.6 4.4
-10 -1 -8 70.09 10.5
10 -1 8 96.79 12.6
-10 -1 -8 78.99 9.4
-10 -1 -8 60.99 7.3
10 -1 8 49.8 14.9
10 1 8 67.69 7.7
-10 1 -8 85.49 11.2
10 1 8 75.99 11.9
-10 1 -8 65.79 5.2
-10 1 -8 68.09 8.4
-11 -1 -8 38.7 6.6
11 -1 8 30.2 9.7
-11 -1 -8 26.4 6.8
-11 1 -8 26.4 8.1
11 1 8 18.4 11.6
-12 -1 -8 45 9.2
12 -1 8 45.2 13.5
-12 1 -8 56.09 11.6
12 1 8 90.39 21.1
-13 -2 8 137.69 18.7
-13 -2 8 169.98 24.4
-13 2 8 155.18 15.4
13 2 -8 161.48 17.3
-13 2 8 108.89 19.7
-12 -2 8 22.3 13
-12 -2 8 -3.6 8.6
12 -2 -8 17.7 10.7
-12 2 8 13.6 6.8
12 2 -8 1.9 9.4
-12 2 8 10.6 11.2
-11 -2 8 173.08 21.2
-11 -2 8 136.69 14.1
-11 -2 8 153.98 20
11 -2 -8 180.28 13.1
11 -2 -8 173.68 16.6
-11 2 8 197.18 21.4
-11 2 8 173.78 7.8
-11 2 8 191.48 11.1
11 2 -8 193.88 18
11 2 -8 181.58 15
-10 -2 8 41.5 9.8
10 -2 -8 55.39 5.8
-10 -2 8 59.79 10.2
10 -2 -8 60.49 8.2
-10 -2 8 50.29 8.8
10 -2 -8 36.4 9.5
-10 -2 8 52.49 9.4
-10 -2 8 43 11.9
-10 2 8 45.2 5.2
-10 2 8 54.59 9.8
10 2 -8 56.89 10.1
-10 2 8 40.1 10.8
-10 2 8 60.69 7.1
9 -2 -8 332.27 17.4
-9 -2 8 302.17 15.9
-9 -2 8 300.97 16.5
9 -2 -8 291.67 10.6
-9 -2 8 311.47 18.4
-9 -2 8 296.37 16.1
9 -2 -8 274.87 21.9
-9 -2 8 293.97 15
9 -2 -8 310.87 11.3
-9 2 8 315.07 20.2
9 2 -8 299.17 13.9
-9 2 8 295.77 16
-9 2 8 292.17 9.1
-9 2 8 305.17 10.8
-9 2 8 268.57 23.7
9 2 -8 299.27 15.8
8 -2 -8 52.19 12.1
-8 -2 8 59.89 8.1
-8 -2 8 54.89 8.2
8 -2 -8 55.79 9.2
8 -2 -8 44.6 5.5
-8 -2 8 39.1 6.1
-8 -2 8 46.6 7.2
-8 -2 8 56.59 7.7
8 -2 -8 50.39 5.3
-8 2 8 49 4.5
-8 2 8 57.19 10.5
-8 2 8 58.89 11.9
-8 2 8 48.7 7.3
-8 2 8 59.89 5
8 2 -8 50.89 8.1
8 2 -8 39.6 6.8
8 2 -8 43.9 6.1
-7 -2 8 719.43 21.4
-7 -2 8 716.53 20.6
7 -2 -8 670.93 16.8
-7 -2 8 697.03 21.2
7 -2 -8 670.33 23.7
-7 -2 8 677.33 21.4
-7 -2 8 672.93 19.6
7 -2 -8 697.63 15.9
7 -2 -8 690.43 27.1
7 2 -8 674.83 18.7
-7 2 8 685.23 16.1
7 2 -8 675.93 21.6
-7 2 8 700.73 27.3
7 2 -8 727.13 22.4
-7 2 8 640.84 25.4
-7 2 8 668.43 15.6
-7 2 8 699.63 21.1
-6 -2 8 49.1 6.4
6 -2 -8 51.09 3.3
6 -2 -8 59.09 9.7
-6 -2 8 58.49 7.2
-6 -2 8 52.09 6.6
6 -2 -8 52.69 4.5
-6 -2 8 56.19 6.6
6 -2 -8 45.2 8.3
-6 -2 8 54.09 6.1
6 2 -8 65.09 7.6
-6 2 8 56.89 9.4
-6 2 8 52.49 4
-6 2 8 53.39 3.6
6 2 -8 56.49 5.3
6 2 -8 38.6 5.8
-6 2 8 45.6 9
5 -2 -8 1236.68 25.7
5 -2 -8 1266.77 34.4
-5 -2 8 1239.58 28.1
-5 -2 8 1245.98 26.5
-5 -2 8 1218.48 29.5
-5 -2 8 1234.58 30.7
5 -2 -8 1194.28 33.4
-5 -2 8 1263.27 29.6
-5 2 8 1199.98 34
-5 2 8 1237.38 25.3
5 2 -8 1188.08 30
-5 2 8 1267.57 34.3
-5 2 8 1240.48 28.6
5 2 -8 1247.88 31.7
5 2 -8 1211.78 26.5
4 -2 -8 5.8 2.7
4 -2 -8 12.6 6.6
-4 -2 8 6.6 2.1
-4 -2 8 4.2 2.7
-4 -2 8 4.8 2.9
4 -2 -8 1.5 4.1
4 -2 -8 4.5 1.8
4 2 -8 5.8 2.1
-4 2 8 2 3.8
4 2 -8 5.1 2.5
4 2 -8 7.2 3.7
-4 2 8 2.5 1.6
4 2 -8 5.3 2.6
-3 -2 8 1165.58 26.2
-3 -2 8 1118.09 28.7
3 -2 -8 1123.19 30.3
-3 -2 8 1137.79 24.4
3 -2 -8 1101.69 29.4
-3 -2 8 1120.99 22.1
-3 -2 8 1135.09 27.2
3 -2 -8 1120.89 23.4
-3 2 8 1089.19 29.3
3 2 -8 1103.79 26.5
-3 2 8 1118.29 24.5
-3 2 8 1131.09 23.7
3 2 -8 1123.09 24.6
2 -2 -8 37.4 6.2
-2 -2 8 33.9 3.6
2 -2 -8 33.8 5.7
-2 -2 8 35.8 4.3
-2 -2 8 35.5 2.1
-2 -2 8 40.1 5.7
2 -2 -8 33.5 3.3
-2 -2 8 31.9 4.5
2 -2 -8 34.2 4
2 2 -8 31.2 3.4
-2 2 8 35.1 3.5
-2 2 8 43.6 3.8
2 2 -8 34.1 4.6
-2 2 8 33.3 5.1
-1 -2 8 625.24 15.1
1 -2 -8 606.84 14.8
1 -2 -8 633.74 17.9
-1 -2 8 646.44 18.6
-1 -2 8 647.74 15.8
1 -2 -8 648.14 15.4
1 -2 -8 632.94 13.2
-1 -2 8 596.44 18
1 2 -8 621.94 16.3
1 2 -8 632.44 15.2
-1 2 8 615.64 17.8
-1 2 8 626.84 15.6
-1 2 8 641.44 14.5
0 -2 8 354.26 12.6
0 -2 8 354.56 10
0 -2 -8 339.77 12.7
0 -2 8 350.56 10.3
0 -2 -8 357.56 9.2
0 -2 8 321.07 12.6
0 -2 -8 352.96 10.1
0 -2 8 345.67 7.5
0 -2 8 334.87 7.3
0 -2 -8 336.57 11.5
0 -2 -8 353.46 10
0 2 8 351.36 9.5
0 2 -8 337.87 9.9
0 2 -8 345.37 10.5
0 2 8 340.77 11.2
-1 -2 -8 502.65 13.3
-1 -2 -8 513.75 12.8
-1 -2 -8 514.55 12.9
1 -2 8 503.45 12
-1 -2 -8 504.45 13.1
1 -2 8 483.35 10.7
-1 -2 -8 504.25 15.7
1 -2 8 502.75 15.3
-1 2 -8 494.85 13.2
-1 2 -8 488.85 12.7
-1 2 -8 486.65 16.5
-2 -2 -8 137.79 6.1
-2 -2 -8 135.59 6.9
2 -2 8 137.99 5.1
2 -2 8 125.69 4.5
2 -2 8 120.89 9.9
-2 -2 -8 116.59 8.9
-2 -2 -8 131.79 6.4
2 -2 8 131.99 7.4
-2 -2 -8 116.79 3.9
-2 2 -8 131.99 7.1
-2 2 -8 125.49 8.4
2 2 8 132.99 6.9
-2 2 -8 126.69 5.2
-2 2 -8 130.09 6.4
3 -2 8 646.84 27.5
-3 -2 -8 756.42 20.6
-3 -2 -8 764.72 18.4
-3 -2 -8 761.62 19
3 -2 8 749.82 17.2
3 -2 8 771.52 15
3 -2 8 769.42 19.7
-3 -2 -8 769.42 19
-3 2 -8 770.72 22.1
-3 2 -8 764.42 20.3
3 2 8 757.92 20.1
-3 2 -8 744.43 19
-3 2 -8 745.83 16
4 -2 8 1033.7 31
4 -2 8 1029.8 19.3
-4 -2 -8 1043.8 26.1
-4 -2 -8 1023.2 24.5
-4 -2 -8 1051.29 24.4
4 -2 8 1052.79 24.9
4 -2 8 1026.4 23
-4 -2 -8 1017.5 24.5
4 2 8 1020.2 27.9
-4 2 -8 1011.2 27.5
-4 2 -8 1031.6 25.2
-4 2 -8 1022 20
-4 2 -8 1048.2 27.1
-5 -2 -8 679.93 18.4
-5 -2 -8 639.74 18.4
5 -2 8 646.04 18.2
-5 -2 -8 660.43 20
5 -2 8 678.03 24.5
5 -2 8 653.03 17.3
-5 -2 -8 664.23 19.1
5 2 8 666.73 21.5
-5 2 -8 671.13 21.9
5 2 8 683.43 20.7
-5 2 -8 650.83 21.1
-5 2 -8 647.44 19.3
6 -2 8 458.35 20.8
-6 -2 -8 444.36 15.7
-6 -2 -8 436.36 14.7
6 -2 8 439.36 14.7
-6 -2 -8 438.56 16.8
-6 -2 -8 429.36 14.8
6 -2 8 437.66 14.2
-6 2 -8 451.15 17.5
-6 2 -8 429.66 19.4
6 2 8 458.65 17.6
6 2 8 432.46 17.8
-6 2 -8 445.66 16.2
7 -2 8 282.27 12.5
7 -2 8 317.37 19
7 -2 8 322.87 13.4
-7 -2 -8 303.97 16.2
-7 -2 -8 327.57 15.6
7 2 8 318.27 16.2
-7 2 -8 293.87 19.8
-7 2 -8 304.97 14.6
7 2 8 310.77 16.4
8 -2 8 304.47 19.9
8 -2 8 280.27 14.6
8 -2 8 237.88 13
-8 -2 -8 221.28 15.7
-8 -2 -8 280.17 12.9
-8 -2 -8 283.17 17.6
-8 -2 -8 276.27 12.8
8 2 8 282.37 16.8
8 2 8 242.28 16.7
-8 2 -8 259.27 15.3
-8 2 -8 237.88 22.1
-9 -2 -8 197.38 12
9 -2 8 252.17 21.8
9 -2 8 201.48 13.7
-9 -2 -8 167.98 11.7
9 2 8 190.78 16.8
-9 2 -8 172.98 14.5
-9 2 -8 133.49 19.1
-10 -2 -8 79.49 11.1
-10 -2 -8 56.29 8.7
10 -2 8 56.39 10.5
-10 2 -8 58.09 10.8
10 2 8 40.6 11.5
-11 -2 -8 123.39 14.1
11 -2 8 129.29 14.8
-11 -2 -8 152.48 14.9
-11 2 -8 126.39 15
11 2 8 115.09 16
11 -3 -8 45.6 14.4
-11 -3 8 28.4 10.4
-11 -3 8 24.9 16.4
11 3 -8 70.09 13.9
-11 3 8 59.59 11.1
-11 3 8 66.89 18.6
10 -3 -8 322.27 19.8
-10 -3 8 287.97 22.2
-10 -3 8 300.67 21.8
-10 -3 8 298.67 19.2
10 -3 -8 329.17 22.6
-10 3 8 284.67 26.3
10 3 -8 307.17 19.5
10 3 -8 304.77 23.5
-10 3 8 313.07 13.9
9 -3 -8 38.5 5.6
-9 -3 8 35.3 8.1
9 -3 -8 31.6 10.5
9 -3 -8 47.4 4.1
-9 -3 8 48 9.5
-9 -3 8 23.7 9.1
-9 3 8 45.2 6.1
-9 3 8 54.29 14.1
-9 3 8 40.4 8.4
9 3 -8 31 10.9
9 3 -8 57.09 9.5
-8 -3 8 655.53 26
8 -3 -8 645.04 15.9
-8 -3 8 693.93 24.3
-8 -3 8 662.73 22
-8 -3 8 662.43 23.9
8 -3 -8 648.94 16
8 -3 -8 646.54 27.1
-8 3 8 651.43 17.5
-8 3 8 667.03 22.5
8 3 -8 625.94 21.4
-8 3 8 647.94 32.3
-8 3 8 685.73 30.8
7 -3 -8 22.3 11.8
-7 -3 8 25 6.2
7 -3 -8 27.7 9.1
7 -3 -8 19 3.6
7 -3 -8 19.1 3.3
-7 -3 8 13.8 5.5
-7 -3 8 22.3 6.3
-7 -3 8 18.6 5.8
-7 -3 8 19.7 8
7 3 -8 12 5.4
-7 3 8 22.8 9
-7 3 8 19 5.6
-6 -3 8 544.55 17
-6 -3 8 559.14 23.2
-6 -3 8 551.24 20.5
6 -3 -8 554.74 12.7
-6 -3 8 543.95 19
6 -3 -8 573.04 31.2
-6 -3 8 562.84 16.5
6 -3 -8 568.04 14.5
6 -3 -8 559.14 26.3
6 3 -8 575.14 17.7
-6 3 8 594.14 25.7
-6 3 8 589.84 17.7
5 -3 -8 3 1.9
5 -3 -8 2.7 7.9
-5 -3 8 6.6 4.2
-5 -3 8 8.3 6.4
-5 -3 8 3.8 5.2
-5 -3 8 8.3 3.5
5 -3 -8 5.5 7.5
-5 -3 8 10.6 4.9
-5 -3 8 5.6 3.3
5 -3 -8 5.4 2.5
-5 3 8 0 6.6
5 3 -8 6 5.2
-5 3 8 13.2 3.5
4 -3 -8 5.5 6.1
-4 -3 8 1.3 5.3
4 -3 -8 3.2 1.2
-4 -3 8 0 2.9
-4 -3 8 6.4 3.6
-4 -3 8 -4.3 4.4
4 -3 -8 3.6 6.9
-4 -3 8 4 2.9
4 -3 -8 2.8 2.3
-4 3 8 2.8 2.7
4 3 -8 2.4 4.1
-4 3 8 -0.3 4.9
3 -3 -8 39.7 8.6
-3 -3 8 46.7 6.2
-3 -3 8 42.5 4.8
3 -3 -8 42.4 2.9
3 -3 -8 38.5 4.8
-3 -3 8 51.19 6.9
-3 -3 8 42.1 7.2
3 -3 -8 41.5 3.2
3 -3 -8 45 4.3
-3 -3 8 41.4 4.2
3 -3 -8 55.69 9
-3 3 8 49.6 8.5
-3 3 8 43.5 4.1
3 3 -8 42.2 6.2
-2 -3 8 154.08 9.1
2 -3 -8 151.18 6
-2 -3 8 141.89 9.7
2 -3 -8 149.88 6.8
2 -3 -8 145.19 11.7
2 -3 -8 147.69 13.3
-2 -3 8 155.98 5.8
-2 -3 8 157.08 6.8
-2 -3 8 157.28 11.4
2 -3 -8 160.08 7.4
2 -3 -8 153.38 5.7
-2 -3 8 162.78 7.8
2 3 -8 157.78 5.8
-2 3 8 142.99 10.9
-2 3 8 150.38 5.5
2 3 -8 148.19 9
-1 -3 8 7.7 2.3
-1 -3 8 4.9 4.1
-1 -3 8 5.3 4.3
1 -3 -8 4.6 2.4
1 -3 -8 12.1 3.3
-1 -3 8 11.8 3.2
1 -3 -8 13.9 6.3
-1 -3 8 10 2.8
1 -3 -8 13.3 5.4
-1 -3 8 5.8 3.5
1 -3 -8 11.6 2.6
1 -3 -8 9.6 2.9
1 3 -8 8.5 2.3
1 3 -8 5.2 3.2
0 -3 8 3036.7 57.49
0 -3 -8 2961.3 62.49
0 -3 -8 2962.5 56.69
0 -3 8 2857.11 56.09
0 -3 8 2958.1 64.09
0 -3 8 2908.81 54.89
0 -3 -8 2952 58.69
0 -3 -8 2924.71 57.59
0 -3 8 3057.19 62.89
0 -3 -8 2954.4 60.29
0 -3 -8 2976.1 55.89
0 3 -8 2981.9 58.49
0 3 -8 2986.2 55.69
1 -3 8 195.08 7.8
-1 -3 -8 200.68 8.9
1 -3 8 173.18 7.6
1 -3 8 195.38 11
-1 -3 -8 188.38 11.7
-1 -3 -8 183.58 9.7
-1 -3 -8 194.78 8.7
-1 -3 -8 185.38 7.4
1 -3 8 186.68 14.8
-1 3 -8 188.28 12.3
-1 3 -8 197.58 7.6
2 -3 8 2366.66 45.2
2 -3 8 2405.16 59.29
-2 -3 -8 2312.37 47.6
2 -3 8 2356.06 46.7
-2 -3 -8 2419.76 46.3
-2 -3 -8 2385.16 46.7
-2 -3 -8 2449.66 52.39
-2 -3 -8 2458.85 49
-2 -3 -8 2376.76 49.1
2 -3 8 2379.36 51.39
-2 3 -8 2441.56 47.3
-2 3 -8 2418.76 55.29
-3 -3 -8 82.89 7.8
3 -3 8 84.49 13.9
-3 -3 -8 87.79 6.1
-3 -3 -8 88.49 9.7
3 -3 8 78.09 3.6
-3 -3 -8 80.79 6.1
3 -3 8 75.89 6.3
-3 -3 -8 76.09 6.9
-3 -3 -8 83.59 4.4
3 -3 8 81.19 8.2
-3 3 -8 82.89 9.9
-3 3 -8 73.99 6.1
-4 -3 -8 90.09 7.9
4 -3 8 103.09 7.2
-4 -3 -8 99.49 7.1
4 -3 8 108.09 8.6
-4 -3 -8 101.79 10.5
4 -3 8 94.69 15.3
-4 -3 -8 102.29 8.9
-4 3 -8 119.49 11.4
-4 3 -8 100.09 11.6
-4 3 -8 99.29 7.8
-5 -3 -8 18.4 4.6
5 -3 8 21 5.2
-5 -3 -8 17.9 7
5 -3 8 17.1 9.7
-5 -3 -8 21.5 4.4
5 -3 8 15.8 4.4
-5 -3 -8 16.5 5.6
-5 3 -8 18.2 7.5
-5 3 -8 22.8 4.9
-5 3 -8 13 9.1
-6 -3 -8 3.8 4
-6 -3 -8 3.9 7.1
6 -3 8 9.4 5
-6 -3 -8 4.7 4.6
-6 -3 -8 3.1 7.9
6 -3 8 11.8 10.1
6 -3 8 11.1 5.2
-6 -3 -8 7.4 5.1
-6 3 -8 2.1 4.5
-6 3 -8 6.4 6.6
-6 3 -8 9.6 10.6
7 -3 8 6.6 6
-7 -3 -8 2.4 4.7
7 -3 8 8 5.3
-7 -3 -8 1.9 5
-7 -3 -8 2.7 5.8
-7 3 -8 -8.2 12.3
-7 3 -8 4.2 5.4
7 3 8 5 9
-7 3 -8 12 8.1
-8 -3 -8 51.99 9.4
-8 -3 -8 68.19 10.3
8 -3 8 46.6 8.3
-8 -3 -8 31.1 6.9
-8 3 -8 57.29 18.2
-8 3 -8 28 7.5
8 3 8 48.5 11.4
-8 3 -8 56.89 10.6
9 -3 8 -5.2 8.4
-9 -3 -8 0.9 6.9
9 3 8 1.6 13.1
-9 3 -8 3.7 7.8
-9 3 -8 23.5 10.9
-10 -3 -8 69.19 11.1
10 -3 8 42.2 11.9
10 3 8 69.59 23.3
-10 3 -8 49.6 14.3
-10 3 -8 35.6 10.4
-9 -4 8 -12.9 8.8
9 -4 -8 21.5 14.5
-9 -4 8 -15.7 9.7
-9 4 8 -18.8 14.7
-8 -4 8 413.66 20.7
-8 -4 8 406.96 22.2
-8 -4 8 364.66 21.4
8 -4 -8 365.56 28.1
-8 4 8 434.26 31
-8 4 8 394.66 17.8
7 -4 -8 32.2 14.1
-7 -4 8 69.99 11.2
7 -4 -8 61.39 7
-7 -4 8 71.79 10.2
-7 -4 8 61.99 10.2
-7 4 8 63.09 7.7
-7 4 8 75.09 16.5
-6 -4 8 6.5 7.3
-6 -4 8 10 7.2
-6 -4 8 8.3 6.7
6 -4 -8 20.9 12.5
6 -4 -8 8.2 4
-6 4 8 13.9 11.2
-6 4 8 5.1 4.6
5 -4 -8 444.26 27
-5 -4 8 447.06 21.4
5 -4 -8 452.25 27.1
5 -4 -8 449.06 10.5
5 -4 -8 434.76 11.7
-5 -4 8 420.66 21.1
-5 -4 8 415.26 16.7
5 -4 -8 439.66 13.1
-5 -4 8 451.65 19.5
-5 4 8 436.66 12.2
-4 -4 8 219.08 18.8
4 -4 -8 242.58 7.5
-4 -4 8 240.18 14.6
4 -4 -8 299.27 21.1
-4 -4 8 244.68 11
4 -4 -8 232.78 9.6
4 -4 -8 218.58 20.8
-4 -4 8 216.68 9.1
-4 -4 8 186.98 15.7
4 -4 -8 232.98 8.5
-3 -4 8 509.05 19.8
3 -4 -8 490.25 13
3 -4 -8 501.55 14.6
3 -4 -8 514.15 26.2
3 -4 -8 547.05 24
-3 -4 8 507.05 14.5
-3 -4 8 490.85 13.2
-3 -4 8 488.05 18.2
3 -4 -8 508.55 13.8
-3 -4 8 475.85 23.3
-3 -4 8 505.95 20.5
-2 -4 8 13.2 4.1
-2 -4 8 12.3 8.2
-2 -4 8 8.8 5.7
2 -4 -8 7.9 3.5
-2 -4 8 4.6 6.1
2 -4 -8 25.6 8.4
2 -4 -8 10.2 3.6
2 -4 -8 13 4
2 -4 -8 13.7 10.4
-2 -4 8 17.4 6.6
1 -4 -8 21.9 8.7
1 -4 -8 42.4 9.2
-1 -4 8 23.8 6.2
-1 -4 8 21.3 4.5
-1 -4 8 15.1 6.6
-1 -4 8 12.9 8
-1 -4 8 30.6 6.2
1 -4 -8 27.7 5.5
1 -4 -8 22.3 10
1 -4 -8 19.9 4.4
1 -4 -8 16.3 4
-1 -4 8 23.3 12.3
0 -4 -8 -5.8 8.2
0 -4 8 12.8 11.1
0 -4 -8 27.2 10.4
0 -4 -8 12.4 4
0 -4 8 12.7 5.4
0 -4 8 16.2 4.4
0 -4 -8 12.1 4.4
0 -4 -8 14.2 5.6
0 -4 -8 30.1 7.4
0 -4 8 17.1 7.3
0 -4 8 5.1 5
0 -4 8 9.3 7.6
1 -4 8 30.7 5.3
1 -4 8 25.2 7.8
-1 -4 -8 18.5 8.1
1 -4 8 3.6 12.3
-1 -4 -8 19.1 5
1 -4 8 27.1 5.3
1 -4 8 28.8 7.6
1 -4 8 22.6 5.5
-1 -4 -8 22.3 7
-1 -4 -8 18.3 4.5
2 -4 8 155.38 7.9
-2 -4 -8 158.68 7
-2 -4 -8 168.98 15.7
-2 -4 -8 164.28 10.1
2 -4 8 166.28 10.6
2 -4 8 144.89 21.9
-2 -4 -8 157.88 9.6
-2 -4 -8 151.28 10.8
2 -4 8 156.78 13
-2 -4 -8 186.38 12.3
-2 4 -8 160.28 6.8
-3 -4 -8 16.3 4.1
-3 -4 -8 24 4.7
-3 -4 -8 21.4 6.3
3 -4 8 14.7 2.4
-3 -4 -8 18.9 9.4
-3 -4 -8 23.1 6.1
3 -4 8 17.4 7.1
3 -4 8 16.9 2.8
-3 -4 -8 21.5 8.9
3 -4 8 9.6 5.4
-3 4 -8 12.2 4
-3 4 -8 17.6 8.4
4 -4 8 57.09 9.2
-4 -4 -8 55.69 5.9
-4 -4 -8 65.29 6.3
4 -4 8 61.39 7.6
-4 -4 -8 64.49 8.2
-4 -4 -8 56.69 9.4
-4 4 -8 69.69 7.7
-4 4 -8 70.09 11.9
-5 -4 -8 59.29 8.4
5 -4 8 77.79 8.6
-5 -4 -8 70.89 9.8
-5 -4 -8 73.99 9.7
-5 4 -8 72.99 7.5
-5 4 -8 67.49 12.3
6 -4 8 9 7.2
-6 -4 -8 2.2 7.6
-6 -4 -8 16.4 6.9
-6 -4 -8 2 6.4
-6 4 -8 21 11.2
-6 4 -8 3.2 5.9
-7 -4 -8 10.7 7.7
7 -4 8 9 8.9
-7 -4 -8 3.4 6.9
-7 4 -8 8.4 6.8
-7 4 -8 -7.5 11.5
-5 -5 8 10.4 10.3
5 -5 -8 18.6 19.1
-5 -5 8 0.9 10.4
-4 -5 8 5.2 10.1
4 -5 -8 10.7 6.3
-4 -5 8 11 10
4 -5 -8 22.3 17.9
-4 -5 8 -8 12.6
3 -5 -8 -2.5 6.1
3 -5 -8 -18.4 16.3
-3 -5 8 3.5 9.7
-3 -5 8 21.4 10.9
2 -5 -8 200.98 21.5
-2 -5 8 220.48 19.4
2 -5 -8 173.18 23.2
2 -5 -8 185.18 11.9
-2 -5 8 173.68 20.6
2 -5 -8 173.58 11.5
-2 -5 8 199.18 18.5
1 -5 -8 58.69 19.4
1 -5 -8 43.1 14.3
-1 -5 8 74.49 11.4
-1 -5 8 63.09 12.6
1 -5 -8 36.7 7.6
1 -5 -8 54.29 7.4
-1 -5 8 62.99 10.7
0 -5 -8 484.65 18.8
0 -5 -8 482.95 18.2
0 -5 8 509.05 26.4
0 -5 -8 495.85 22.8
0 -5 -8 427.76 34.2
0 -5 8 488.15 20.8
-1 -5 -8 -5.7 6.2
1 -5 8 1.8 5.6
-1 -5 -8 -16.8 7.1
1 -5 8 2.9 9
1 -5 8 3.9 11.2
-1 -5 -8 -3.8 16.2
-1 -5 -8 11.5 8.5
2 -5 8 134.09 20.8
-2 -5 -8 156.38 13.8
-2 -5 -8 119.19 14.8
-2 -5 -8 183.18 23.6
-2 -5 -8 164.58 13.7
2 -5 8 137.19 16.2
3 -5 8 -15.7 11.2
-3 -5 -8 -9.6 8.5
-3 -5 -8 -0.8 7.5
-4 -5 -8 62.99 12.2
-4 -5 -8 78.89 10.7
-13 0 9 33.8 12.1
13 0 -9 25.8 10.1
-13 0 9 7.9 15.9
-13 0 9 14.7 5.7
-12 0 9 2.2 4.5
-12 0 9 6.2 13
-12 0 9 16.2 9.9
-12 0 9 11.1 7.1
12 0 -9 1.8 7
-11 0 9 18.2 14.1
11 0 -9 0.1 5.5
11 0 -9 1.2 5.8
-11 0 9 1 4
11 0 -9 4.5 7.6
-11 0 9 5.7 9.8
-11 0 9 12.6 5.9
-11 0 9 -1.4 7.3
10 0 -9 -5.6 5.9
10 0 -9 3.2 4.2
-10 0 9 5.7 7.1
-10 0 9 -5.5 4.3
-10 0 9 -1.8 3.3
10 0 -9 -4.5 5.1
-10 0 9 9.1 10.6
-9 0 9 0.7 3.5
-9 0 9 8.8 3.9
-9 0 9 5.1 6.6
-9 0 9 6.5 7.9
9 0 -9 1.3 3.9
-9 0 9 -8.6 5.2
9 0 -9 1.1 4.8
9 0 -9 3 3.9
-8 0 9 -0.5 4.6
-8 0 9 4 7.3
-8 0 9 7.8 6.3
8 0 -9 0.5 3.1
-8 0 9 -2 3.1
8 0 -9 5.1 3.4
8 0 -9 5.7 4.4
-8 0 9 1.8 3.5
-7 0 9 6.3 6.7
-7 0 9 -0.4 2.6
-7 0 9 -4.8 3.5
-7 0 9 2.5 4.7
7 0 -9 -1.1 2.9
-7 0 9 3.1 2.6
7 0 -9 -1.3 2.6
7 0 -9 0.4 3
-6 0 9 6.6 5.7
-6 0 9 -0.8 1.9
6 0 -9 0.1 2.4
6 0 -9 2.4 2.5
6 0 -9 1 2.5
-6 0 9 0.7 2.6
-6 0 9 1.5 3.8
6 0 -9 -1.8 2.2
-6 0 9 0.2 1.9
-5 0 9 -3 2.2
5 0 -9 -2.9 2.1
5 0 -9 0.9 2
5 0 -9 -2.4 2.2
-5 0 9 -0.3 1.7
-5 0 9 -1.8 1.3
-5 0 9 7.8 4.5
-5 0 9 -1.4 3.3
5 0 -9 0.4 2.2
-4 0 9 -0.6 2.2
4 0 -9 -1.4 1.6
4 0 -9 -0.9 1.9
-4 0 9 -1.2 2.7
4 0 -9 -0.3 1.6
-4 0 9 1.7 1.4
4 0 -9 -0.3 2
-4 0 9 5.1 3.2
-4 0 9 -1.6 1.6
3 0 -9 0.7 1.6
3 0 -9 -1.3 1.9
-3 0 9 1.3 2
-3 0 9 1.9 1.8
-3 0 9 -1.8 1.2
3 0 -9 0.6 2.1
-3 0 9 2.7 1.4
-3 0 9 2 2.4
3 0 -9 0.4 1.7
-2 0 9 -2.4 1.3
2 0 -9 -1 1.1
-2 0 9 0.4 1.3
-2 0 9 -0.6 1.1
2 0 -9 -0.8 1.2
2 0 -9 -1.8 1.5
-2 0 9 2.6 1.6
2 0 -9 1.9 1.3
2 0 -9 1.5 2
-1 0 9 0.1 1
-1 0 9 -0.7 1.3
-1 0 9 -0.1 1
1 0 -9 1.8 1.6
-1 0 9 1 1.1
1 0 -9 0.1 1.1
1 0 -9 -0.1 1.3
1 0 -9 0.7 1.2
1 0 -9 -0.6 1.4
0 0 -9 0.8 1.2
0 0 -9 -0.4 1.4
0 0 -9 1.4 1.2
0 0 9 1 1
0 0 9 0.2 1
0 0 9 1.8 1.1
0 0 -9 1.3 1.2
0 0 -9 1.6 1.1
0 0 9 0.4 1.4
-1 0 -9 3.8 1.4
1 0 9 2.2 1.2
-1 0 -9 -0.1 1.5
1 0 9 1.8 1.6
1 0 9 -0.5 1.3
1 0 9 -0.3 1.1
-1 0 -9 -0.2 1.2
-1 0 -9 0.1 1.4
1 0 9 2.1 1.2
2 0 9 0.1 1.2
2 0 9 -0.2 1.2
-2 0 -9 -0.1 1.3
2 0 9 -0.8 1.5
-2 0 -9 -0.6 1.4
2 0 9 1.1 1.4
-2 0 -9 -1.8 1.7
-2 0 -9 -0.6 1
3 0 9 -2 1.9
-3 0 -9 -0.2 1.2
3 0 9 -0.6 1.6
-3 0 -9 0.7 1.9
3 0 9 -0.6 1.9
-3 0 -9 1.4 1.9
3 0 9 -1.4 1.5
-3 0 -9 -0.5 1.4
-4 0 -9 1.1 1.6
-4 0 -9 -0.6 2.4
-4 0 -9 1.1 2.1
4 0 9 -3.4 2.3
-4 0 -9 -0.4 1.3
4 0 9 0.5 2.1
4 0 9 -2 2.2
5 0 9 1.6 3.6
-5 0 -9 0.8 1.6
-5 0 -9 -0.5 2.9
5 0 9 -2.1 2.4
-5 0 -9 1.3 1.9
5 0 9 -6.9 3
-6 0 -9 1.4 1.8
-6 0 -9 3.7 3.5
6 0 9 1 2.9
-6 0 -9 -1 2.3
6 0 9 -3.4 4.4
6 0 9 -2.3 4.1
-7 0 -9 0.4 3
-7 0 -9 1.4 2.2
7 0 9 4.8 4
7 0 9 -2.8 5
7 0 9 -5.3 5.1
-7 0 -9 -5.1 4.9
-8 0 -9 -1.4 3.1
-8 0 -9 -1.7 2.4
-8 0 -9 4 6.1
8 0 9 -5.4 6.6
8 0 9 -4.7 5.4
8 0 9 0 5
-8 0 -9 -2.2 4.5
-9 0 -9 3 4.1
-9 0 -9 -1.7 5.7
9 0 9 -8.9 6.7
-9 0 -9 14.6 9
9 0 9 7.6 5.9
-10 0 -9 8.1 5.2
10 0 9 -6.2 6.9
10 0 9 -1.4 7.3
-10 0 -9 -5.8 7.1
-10 0 -9 -1.2 3.8
-11 0 -9 2.6 11.4
-11 0 -9 -3.3 4.5
11 0 9 -8.7 9.4
-11 0 -9 1.7 6.3
12 0 9 17 13.2
-13 -1 9 357.56 25.6
-13 -1 9 313.87 17.5
13 -1 -9 268.17 20.3
-13 1 9 354.16 27.3
-13 1 9 290.77 14.4
13 1 -9 328.27 21
-12 -1 9 7.1 6.6
-12 -1 9 -4.9 12.3
12 -1 -9 5.3 8.7
-12 -1 9 32.2 10.9
-12 1 9 32.8 11
-12 1 9 12.4 5.8
-12 1 9 11.3 4.7
12 1 -9 2.4 8
-12 1 9 -2.3 13.5
11 -1 -9 46 9.1
-11 -1 9 43.6 13.2
11 -1 -9 39.1 6.3
-11 -1 9 42.6 11.5
-11 -1 9 32.5 11.3
-11 -1 9 31.7 7.6
-11 -1 9 32.8 7.8
-11 1 9 22.2 9.8
-11 1 9 34.2 5.8
11 1 -9 30.8 8.9
-11 1 9 35.6 4.9
11 1 -9 39.5 7.7
-11 1 9 34.7 10.7
11 1 -9 37.8 8.4
10 -1 -9 11.8 6.2
-10 -1 9 11.2 7.9
-10 -1 9 8.4 5.4
-10 -1 9 4.8 6.2
10 -1 -9 15.7 4.5
10 -1 -9 12.6 5
-10 -1 9 5.8 8
10 -1 -9 14.1 7.5
10 1 -9 16.9 7.2
10 1 -9 11.1 6.6
-10 1 9 11.4 7.6
-10 1 9 -7.7 6.9
-10 1 9 10.5 3
-10 1 9 10.9 3.9
10 1 -9 23.3 5.9
-10 1 9 6.9 12.5
9 -1 -9 815.82 26.5
-9 -1 9 781.92 23.2
9 -1 -9 798.32 24.9
9 -1 -9 807.62 21.3
-9 -1 9 860.21 26
-9 -1 9 863.21 26.9
-9 -1 9 789.22 23.4
9 -1 -9 827.22 21.7
-9 -1 9 812.12 29.5
9 1 -9 821.92 25
-9 1 9 785.02 30.8
-9 1 9 792.92 28.7
9 1 -9 824.02 24.7
-9 1 9 792.72 19
-9 1 9 811.22 26
9 1 -9 809.62 22.5
-9 1 9 818.42 19.9
-8 -1 9 637.94 19.3
8 -1 -9 665.43 22.3
-8 -1 9 654.73 21.1
-8 -1 9 668.33 21.6
-8 -1 9 654.73 24.8
8 -1 -9 625.14 17.6
-8 -1 9 661.83 19.6
8 -1 -9 653.93 21.2
-8 1 9 641.64 25.7
-8 1 9 643.94 16.3
-8 1 9 625.74 15.2
8 1 -9 633.64 18.2
8 1 -9 627.04 20.1
8 1 -9 650.73 20.6
-8 1 9 659.23 21.3
-8 1 9 592.94 23.5
-7 -1 9 3167.68 73.59
-7 -1 9 3546.25 73.09
-7 -1 9 3612.24 70.69
7 -1 -9 3645.74 73.09
7 -1 -9 3509.45 67.29
-7 -1 9 3473.55 69.29
-7 -1 9 3542.65 69.29
7 -1 -9 3449.25 71.79
-7 1 9 3586.94 75.59
7 1 -9 3516.05 67.39
7 1 -9 3580.34 70.89
-7 1 9 3484.85 65.49
-7 1 9 3521.35 70.89
-7 1 9 3356.76 63.89
-7 1 9 3447.56 74.89
7 1 -9 3497.25 70.29
-6 -1 9 743.33 20.2
6 -1 -9 729.83 18
-6 -1 9 723.93 19.5
6 -1 -9 729.53 21.9
-6 -1 9 722.63 20.9
6 -1 -9 712.73 24.9
-6 -1 9 737.13 19.9
6 -1 -9 704.83 20.4
-6 1 9 705.63 15
-6 1 9 691.73 23.4
6 1 -9 706.13 20
-6 1 9 736.63 20.5
6 1 -9 731.53 17.6
-6 1 9 705.63 16.7
-5 -1 9 2017.9 42.4
5 -1 -9 1992.7 45.1
-5 -1 9 2013.8 42.9
-5 -1 9 2064.69 41.8
-5 -1 9 2079.49 41.6
5 -1 -9 2126.59 45
-5 -1 9 2054.59 42.3
5 -1 -9 2026.2 40.2
5 -1 -9 2046.4 43.1
5 1 -9 2063.29 43.1
-5 1 9 1906.41 45.6
-5 1 9 2093.59 42.8
5 1 -9 2014.3 39.4
-5 1 9 1914.11 36.6
5 1 -9 1979.7 42.4
5 1 -9 1961.2 42.4
-5 1 9 2023.1 46.3
-5 1 9 1974.6 39.1
-4 -1 9 226.88 9.8
4 -1 -9 239.68 11.2
-4 -1 9 238.18 9.4
-4 -1 9 239.68 8.8
-4 -1 9 231.38 9.1
4 -1 -9 239.98 7.9
-4 -1 9 241.68 8.6
4 -1 -9 245.98 10.7
-4 1 9 224.68 11.6
-4 1 9 233.88 11.5
-4 1 9 244.88 7.4
4 1 -9 246.08 9.4
-4 1 9 237.88 9.4
4 1 -9 242.48 9.7
4 1 -9 229.98 9.3
4 1 -9 238.68 7
-3 -1 9 538.45 15.7
-3 -1 9 548.85 14.3
3 -1 -9 554.84 15.5
3 -1 -9 526.75 14.8
-3 -1 9 530.95 12.9
-3 -1 9 549.45 15.1
3 -1 -9 517.95 16.8
-3 -1 9 541.95 14.4
3 -1 -9 541.95 13.3
3 1 -9 536.95 15.4
-3 1 9 540.95 17
-3 1 9 542.95 14.4
-3 1 9 537.55 12.8
3 1 -9 541.55 11.5
3 1 -9 542.75 14.6
3 1 -9 530.75 14.7
-2 -1 9 1122.69 23.6
2 -1 -9 1063.89 24.2
-2 -1 9 1106.89 23.9
2 -1 -9 1055.09 26.6
-2 -1 9 1082.29 24.8
2 -1 -9 1109.99 22.8
2 -1 -9 1151.68 24.2
-2 -1 9 1096.19 25.3
2 1 -9 1101.59 19.9
-2 1 9 1105.69 26
2 1 -9 1079.39 25.4
2 1 -9 1092.29 24.2
-2 1 9 1067.79 24.1
2 1 -9 1058.59 24
-2 1 9 1110.29 22.6
-1 -1 9 581.74 13.7
-1 -1 9 553.74 15
-1 -1 9 569.94 15.2
1 -1 -9 558.64 11.6
1 -1 -9 575.74 14.4
1 -1 -9 560.14 13.2
-1 -1 9 559.94 14.2
1 -1 -9 571.54 13.4
-1 1 9 566.34 15.2
1 1 -9 572.64 14.4
-1 1 9 579.14 11.8
1 1 -9 558.84 14.2
1 1 -9 561.34 15.9
1 1 -9 562.94 15.9
-1 1 9 562.84 13.4
0 -1 9 324.97 9.9
0 -1 -9 318.77 9.6
0 -1 -9 321.07 9
0 -1 9 323.07 10.3
0 -1 9 327.87 8.7
0 -1 9 307.47 10.5
0 -1 -9 333.17 10.7
0 -1 -9 329.47 8.1
0 -1 -9 323.37 7.8
0 1 -9 310.27 11
0 1 9 342.27 8.6
0 1 -9 322.77 9.8
0 1 9 330.47 9.3
0 1 -9 331.67 9.3
0 1 9 316.27 9.4
-1 -1 -9 53.39 4.6
1 -1 9 55.49 4.2
1 -1 9 53.19 4.6
-1 -1 -9 52.49 3.6
-1 -1 -9 51.89 2.5
1 -1 9 54.29 4.6
1 -1 9 56.09 3.1
-1 -1 -9 51.09 3
-1 -1 -9 47.1 3.8
1 -1 9 50.19 2.6
1 1 9 61.99 4.4
-1 1 -9 52.19 4.7
-1 1 -9 48.5 3.4
1 1 9 50.49 3.8
-1 1 -9 47.9 2.8
-1 1 -9 55.59 4.1
-2 -1 -9 6 2.6
-2 -1 -9 6.3 2.1
2 -1 9 0.7 1.6
2 -1 9 4.8 1.5
-2 -1 -9 1.7 1.3
2 -1 9 4.8 1.4
-2 -1 -9 3 1.5
-2 1 -9 2.5 1.3
2 1 9 1.4 2.3
-2 1 -9 4.4 2.3
2 1 9 7.2 2.6
-2 1 -9 4 2
-2 1 -9 4.7 1.9
2 1 9 4.7 1.8
3 -1 9 1472.75 31.2
3 -1 9 1450.35 29.6
-3 -1 -9 1505.85 31.9
-3 -1 -9 1465.85 30.4
3 -1 9 1495.85 35.1
-3 -1 -9 1501.05 32
3 -1 9 1497.25 28.5
-3 -1 -9 1449.65 30.1
-3 1 -9 1462.95 32.2
-3 1 -9 1476.35 30.6
-3 1 -9 1442.76 28.8
3 1 9 1462.05 33
3 1 9 1524.55 32.2
-3 1 -9 1456.65 32.9
4 -1 9 1454.35 27.8
-4 -1 -9 1340.37 31.4
4 -1 9 1429.56 32.1
4 -1 9 1407.86 34.4
4 -1 9 1430.66 29.6
-4 -1 -9 1418.76 31.6
-4 -1 -9 1372.16 29.8
-4 -1 -9 1427.46 29.8
4 1 9 1386.66 32.5
4 1 9 1443.66 32.3
-4 1 -9 1405.66 32.4
-4 1 -9 1401.76 32.1
-4 1 -9 1427.76 31
-4 1 -9 1400.06 27.6
-5 -1 -9 2847.22 56.39
5 -1 9 2749.92 59.39
-5 -1 -9 2696.13 54.59
-5 -1 -9 2745.63 54.09
5 -1 9 2839.62 55.29
5 -1 9 2719.03 54.49
-5 -1 -9 2854.11 57.19
-5 1 -9 2781.32 57.39
-5 1 -9 2702.03 51.39
5 1 9 2804.02 57.79
-5 1 -9 2865.01 56.89
5 1 9 2840.02 57.69
-5 1 -9 2730.63 57.09
6 -1 9 1845.72 39.8
-6 -1 -9 1862.41 39.8
6 -1 9 1870.11 40.5
-6 -1 -9 1883.71 41.3
-6 -1 -9 1824.22 38.7
6 -1 9 1878.81 43.8
6 1 9 1938.21 43.1
6 1 9 1886.81 42.7
-6 1 -9 1867.51 42
-6 1 -9 1835.02 35.7
-6 1 -9 1875.61 42.5
-7 -1 -9 385.66 16
7 -1 9 404.36 15.8
-7 -1 -9 394.56 13
7 -1 9 401.56 17.5
-7 -1 -9 394.56 13.7
7 -1 9 406.26 14.6
-7 1 -9 387.66 17.7
-7 1 -9 380.26 11.8
-7 1 -9 392.86 10.2
7 1 9 383.66 16.3
-7 1 -9 396.06 15.4
7 1 9 416.06 17.2
-8 -1 -9 193.08 9.4
8 -1 9 183.78 13.7
-8 -1 -9 185.38 13.6
8 -1 9 201.68 11.5
8 -1 9 213.38 15.6
-8 -1 -9 183.38 13.2
-8 -1 -9 178.08 10
8 1 9 196.08 13.5
8 1 9 180.58 14.5
-8 1 -9 162.98 16.5
8 1 9 177.78 6.4
-8 1 -9 172.98 8.5
-8 1 -9 182.68 6.7
-8 1 -9 194.18 11.8
9 -1 9 10.4 6.3
-9 -1 -9 14.1 4.6
-9 -1 -9 6.8 5.3
-9 -1 -9 6.4 7.6
9 -1 9 17.6 10.2
-9 1 -9 12 5.7
-9 1 -9 13.3 3
9 1 9 23 7.8
9 1 9 10.1 3.4
-9 1 -9 12.1 4.8
-9 1 -9 7.6 11.8
10 -1 9 80.99 10.7
-10 -1 -9 84.89 10
10 -1 9 53.19 15.1
-10 -1 -9 67.79 9
-10 -1 -9 61.99 10.9
-10 1 -9 61.99 5.8
-10 1 -9 68.09 9.1
10 1 9 60.19 11.6
-10 1 -9 75.19 11.4
11 -1 9 21.6 10.6
-11 -1 -9 21.7 7
-11 -1 -9 31.2 7.6
-11 1 -9 24.5 9.3
11 1 9 18.5 11.2
-13 -2 9 210.48 25.1
-13 -2 9 132.79 15.3
13 2 -9 156.28 17
12 -2 -9 -10 10.4
-12 -2 9 30.7 13.9
-12 -2 9 -10.2 8.1
12 2 -9 10.4 9.5
-12 2 9 5.1 12.6
-12 2 9 6.1 6.1
-11 -2 9 144.59 16.6
-11 -2 9 171.48 21.3
11 -2 -9 192.48 10.4
11 -2 -9 185.88 13.1
11 -2 -9 187.38 16.8
-11 -2 9 180.38 15.4
11 2 -9 191.68 15.1
-11 2 9 184.88 8.6
-11 2 9 192.38 21.1
-11 2 9 190.48 10.7
11 2 -9 185.18 18.1
-10 -2 9 96.89 12.4
-10 -2 9 89.69 11.4
-10 -2 9 97.79 11.7
-10 -2 9 96.59 14.6
10 -2 -9 105.69 8.2
10 -2 -9 78.69 11.2
10 -2 -9 99.69 8.9
-10 -2 9 105.89 12.6
-10 2 9 114.09 16.6
-10 2 9 117.59 14.8
-10 2 9 92.79 6.4
10 2 -9 98.09 13.5
-10 2 9 103.39 7.8
9 -2 -9 39.6 5
9 -2 -9 41.8 6.1
-9 -2 9 47.9 8.7
9 -2 -9 43.9 9.1
-9 -2 9 44.8 9.4
-9 -2 9 37.6 8
9 -2 -9 15.9 11.6
-9 -2 9 25.3 7.1
-9 -2 9 41.8 7.1
-9 2 9 37 4.8
9 2 -9 42.3 7.9
9 2 -9 43.5 8.4
9 2 -9 35.9 6.5
-9 2 9 51.99 13.9
-9 2 9 51.69 10.7
-9 2 9 50.49 8.6
-9 2 9 36.2 5.2
8 -2 -9 425.06 13.4
-8 -2 9 437.46 17.3
8 -2 -9 440.76 23.8
8 -2 -9 435.26 20.2
-8 -2 9 477.25 17.9
8 -2 -9 444.26 12.3
-8 -2 9 439.26 17.6
-8 -2 9 462.45 18.4
-8 -2 9 459.65 17.3
-8 2 9 441.36 11.9
8 2 -9 448.46 18.5
-8 2 9 450.75 22.7
8 2 -9 475.25 18.5
-8 2 9 454.75 12.3
8 2 -9 457.05 15.3
-8 2 9 441.16 24.5
-8 2 9 426.56 17.3
-7 -2 9 93.89 8.7
-7 -2 9 104.99 9.4
7 -2 -9 80.69 10.7
-7 -2 9 85.49 8.6
7 -2 -9 91.59 6.1
-7 -2 9 92.69 8.5
7 -2 -9 92.29 4.7
-7 -2 9 89.09 8.4
7 -2 -9 103.29 14.5
-7 2 9 88.29 5.2
7 2 -9 99.69 7.1
-7 2 9 94.89 4.8
7 2 -9 103.89 9.2
-7 2 9 95.79 11.5
-7 2 9 108.19 13.9
-7 2 9 99.19 8.6
7 2 -9 101.39 9.7
6 -2 -9 204.68 13.8
-6 -2 9 211.08 10.4
-6 -2 9 208.48 10.5
6 -2 -9 199.78 8
-6 -2 9 212.28 9.5
-6 -2 9 208.38 11
-6 -2 9 201.58 10.9
6 -2 -9 213.28 16.5
6 2 -9 221.28 12.1
-6 2 9 194.88 15.3
-6 2 9 201.88 13.9
6 2 -9 205.58 11.1
-6 2 9 210.08 7.5
6 2 -9 209.08 8.5
-5 -2 9 297.27 11.9
-5 -2 9 294.37 11.2
5 -2 -9 295.27 9.4
-5 -2 9 287.27 13.8
-5 -2 9 287.97 9.8
5 -2 -9 288.67 15.2
5 -2 -9 318.67 17.3
5 -2 -9 295.77 11.8
-5 -2 9 292.17 12
5 2 -9 298.57 12.4
-5 2 9 292.97 11.3
-5 2 9 273.97 14.9
-5 2 9 286.37 8.9
-5 2 9 296.07 16
5 2 -9 295.47 9.4
5 2 -9 283.07 13.1
-4 -2 9 100.59 8.7
4 -2 -9 92.69 9.7
-4 -2 9 95.99 5
4 -2 -9 101.79 6.8
4 -2 -9 99.49 5.1
-4 -2 9 95.79 7.1
-4 -2 9 91.39 8.3
-4 -2 9 93.59 6.3
4 -2 -9 115.79 12
-4 2 9 89.69 6.2
-4 2 9 97.69 5.1
4 2 -9 96.19 6.1
-4 2 9 92.39 8.8
4 2 -9 99.49 7.3
4 2 -9 102.09 9.6
4 2 -9 89.59 4.6
3 -2 -9 118.59 5.4
-3 -2 9 123.19 4.5
3 -2 -9 128.69 10.1
-3 -2 9 125.19 8.9
-3 -2 9 117.29 7.1
-3 -2 9 123.29 7.5
3 -2 -9 139.59 11.5
-3 -2 9 115.29 6.3
3 -2 -9 129.19 7.9
-3 2 9 130.79 5.8
3 2 -9 118.09 6.2
3 2 -9 127.79 7.6
-3 2 9 131.49 6.4
-3 2 9 117.19 9
-2 -2 9 400.16 11.5
2 -2 -9 401.76 15.2
2 -2 -9 400.76 10.9
-2 -2 9 403.26 13.8
2 -2 -9 383.16 15.8
-2 -2 9 399.76 14.6
-2 -2 9 411.26 12.4
2 -2 -9 403.36 12
-2 2 9 407.36 11.2
-2 2 9 398.76 14.5
2 2 -9 393.26 11.6
-2 2 9 410.16 11.4
2 2 -9 396.36 12.9
1 -2 -9 69.89 3.1
-1 -2 9 75.99 5
-1 -2 9 78.99 5.1
-1 -2 9 74.79 6.6
1 -2 -9 83.49 8.2
1 -2 -9 71.89 5
1 -2 -9 75.39 4.5
-1 -2 9 65.89 6
-1 2 9 70.19 5.9
1 2 -9 80.29 4.9
-1 2 9 71.79 5
-1 2 9 76.79 4.5
1 2 -9 73.99 6.7
1 2 -9 78.19 5.5
0 -2 -9 532.55 14.7
0 -2 9 504.45 16.6
0 -2 9 535.75 14
0 -2 -9 490.85 16.1
0 -2 9 506.85 13
0 -2 9 511.55 16.1
0 -2 -9 506.95 13.4
0 -2 -9 520.25 13.5
0 -2 -9 507.15 11.8
0 2 9 512.15 14
0 2 9 512.95 13
0 2 -9 514.15 13.6
0 2 -9 522.65 17.4
0 2 -9 504.85 13.8
0 2 9 503.25 14.4
-1 -2 -9 110.49 7.8
-1 -2 -9 102.89 5.5
1 -2 9 103.79 4.9
1 -2 9 116.09 7.3
1 -2 9 105.99 7.8
-1 -2 -9 109.19 5.4
-1 -2 -9 128.79 6.2
-1 -2 -9 107.99 5.8
1 -2 9 107.39 3.6
-1 2 -9 109.09 5.9
-1 2 -9 115.09 8.1
1 2 9 106.19 5.8
-1 2 -9 111.39 5.7
-2 -2 -9 303.37 12.1
-2 -2 -9 295.77 9.8
-2 -2 -9 298.47 9.7
2 -2 9 304.37 7.9
2 -2 9 297.57 11.3
-2 -2 -9 301.07 10.2
2 -2 9 296.87 7.9
-2 2 -9 305.47 9.1
-2 2 -9 298.97 10.4
-2 2 -9 284.87 10.1
-2 2 -9 321.57 13.3
2 2 9 321.57 10.8
3 -2 9 168.98 5.1
3 -2 9 171.18 6.3
3 -2 9 162.68 12.1
-3 -2 -9 162.08 7.6
-3 -2 -9 169.18 7.6
3 -2 9 165.08 8.4
-3 -2 -9 159.28 7.7
-3 -2 -9 179.28 9.5
3 2 9 160.98 8.5
-3 2 -9 181.28 9.4
-3 2 -9 163.58 5.9
-3 2 -9 165.48 8.1
-3 2 -9 157.38 9.7
4 -2 9 173.28 13.2
4 -2 9 168.98 4.8
-4 -2 -9 155.58 8.2
4 -2 9 167.68 7.2
-4 -2 -9 157.28 8.1
-4 -2 -9 160.48 9.7
4 -2 9 170.68 8.7
-4 2 -9 163.68 5.5
-4 2 -9 172.68 8.8
4 2 9 166.38 10.7
-4 2 -9 171.38 10.6
4 2 9 167.18 9.5
-4 2 -9 168.08 10.3
5 -2 9 310.27 11.9
-5 -2 -9 281.17 12.8
5 -2 9 296.87 17.1
-5 -2 -9 280.47 11.2
-5 -2 -9 287.17 11.3
-5 -2 -9 289.47 11.8
5 -2 9 305.27 10.7
-5 2 -9 306.67 14.1
-5 2 -9 289.97 12.3
5 2 9 309.27 13.6
5 2 9 301.27 14.4
-5 2 -9 319.57 15.3
6 -2 9 98.59 13.5
-6 -2 -9 97.19 7.4
-6 -2 -9 99.39 10.2
-6 -2 -9 83.39 7.3
-6 -2 -9 97.29 8.4
6 -2 9 92.49 7.5
6 -2 9 100.89 7.9
-6 2 -9 100.59 11.3
6 2 9 92.79 10.1
-6 2 -9 92.99 8.7
6 2 9 87.89 10.3
-6 2 -9 91.99 9.8
-7 -2 -9 26.2 6.2
7 -2 9 33.7 5.8
7 -2 9 37.1 9.4
7 -2 9 22.4 5.3
-7 -2 -9 27 7.4
-7 -2 -9 27.6 5.3
-7 -2 -9 18.7 4.8
-7 2 -9 26.2 9.8
-7 2 -9 21.3 6.1
7 2 9 20.8 6.5
7 2 9 30 8
-7 2 -9 30.7 5.9
8 -2 9 377.66 21.8
-8 -2 -9 340.97 16.6
8 -2 9 343.57 15.1
-8 -2 -9 343.67 14.3
-8 -2 -9 347.07 14.5
8 -2 9 335.17 16.2
-8 -2 -9 312.07 19
-8 2 -9 330.37 16.9
-8 2 -9 332.97 24.2
8 2 9 337.17 18.5
-8 2 -9 357.56 18
8 2 9 331.67 19
-9 -2 -9 49.4 7
9 -2 9 41.5 8.3
-9 -2 -9 49.8 7.1
-9 2 -9 40.1 8.8
-9 2 -9 44.2 8.4
9 2 9 20.2 9.7
-9 2 -9 38.1 16
-10 -2 -9 440.46 18.6
10 -2 9 402.96 20.4
-10 -2 -9 459.05 18.9
-10 2 -9 435.76 22.7
-10 2 -9 452.15 23.2
10 2 9 440.06 25.4
11 -2 9 15 11.1
-11 -2 -9 -4.1 7.3
-11 -2 -9 9.4 7.9
-11 2 -9 10.1 10.6
-11 2 -9 1.1 11.1
11 2 9 30.6 21.3
-11 -3 9 90.59 12.4
-11 -3 9 91.49 18.2
11 -3 -9 98.39 14.8
-11 3 9 136.69 21.9
11 3 -9 163.08 19.6
-10 -3 9 -15.2 11
-10 -3 9 -9.6 10
10 -3 -9 18 11.7
-10 -3 9 3.7 7.6
-10 3 9 19.8 5.8
-10 3 9 4.8 12
-10 3 9 -7.8 13.8
10 3 -9 24.6 9.4
9 -3 -9 272.17 9.9
-9 -3 9 278.67 17.7
-9 -3 9 275.47 16.8
9 -3 -9 265.37 20.7
9 -3 -9 266.07 9.7
-9 -3 9 272.87 17.2
-9 3 9 275.67 11.1
9 3 -9 271.17 20.6
9 3 -9 276.07 16.1
-9 3 9 258.37 17.1
-9 3 9 272.87 23.6
-8 -3 9 8.4 5.8
8 -3 -9 6.5 3.8
8 -3 -9 6.1 2.9
-8 -3 9 1.1 6
8 -3 -9 3.4 9.6
-8 -3 9 -0.9 6.4
-8 3 9 8 9.7
8 3 -9 11.2 8.7
8 3 -9 5.7 6
-8 3 9 -4.7 6.1
-7 -3 9 526.75 17.4
-7 -3 9 507.75 17.9
7 -3 -9 498.85 14.1
-7 -3 9 505.35 20.7
-7 -3 9 535.85 20.7
-7 -3 9 458.15 21
7 -3 -9 491.55 26.9
7 -3 -9 528.35 24.7
7 3 -9 515.25 17.4
-7 3 9 533.15 26.5
-7 3 9 518.65 17.9
6 -3 -9 1.9 2.9
-6 -3 9 1.3 4.2
-6 -3 9 3.2 5
-6 -3 9 5.3 6.4
-6 -3 9 5.4 5.7
6 -3 -9 0.4 8.5
-6 -3 9 0.7 4.3
6 -3 -9 7.7 9.9
-6 -3 9 7 4.3
6 3 -9 2.7 3.8
-6 3 9 2.4 7.1
-6 3 9 0.8 4
5 -3 -9 22.9 3.5
-5 -3 9 17.6 6.5
-5 -3 9 24.1 4.5
-5 -3 9 25.3 4.3
5 -3 -9 34.1 9.9
-5 -3 9 25.7 5.9
5 -3 -9 26.9 8.6
-5 -3 9 20.2 5.8
-5 3 9 26.5 8
-5 3 9 17.1 4.1
5 3 -9 25.1 6.1
-4 -3 9 108.69 8.9
-4 -3 9 93.39 9.4
-4 -3 9 95.39 11.5
4 -3 -9 106.79 13.6
4 -3 -9 85.19 11.3
-4 -3 9 104.99 6
-4 -3 9 111.69 7.1
4 -3 -9 109.39 6.2
4 3 -9 101.29 9.4
-4 3 9 109.89 6.5
-4 3 9 102.79 12
-3 -3 9 28.7 6.9
3 -3 -9 21.6 7.1
3 -3 -9 24.6 4.1
3 -3 -9 25 7.5
-3 -3 9 47.9 7.2
3 -3 -9 35.1 4.5
-3 -3 9 23.4 3.8
-3 -3 9 27.6 5.6
-3 -3 9 35.6 3.9
-3 3 9 26.6 3.3
3 3 -9 30.6 5.3
-3 3 9 31 7.4
3 3 -9 40.6 4.3
2 -3 -9 448.96 12.6
-2 -3 9 454.65 14.9
2 -3 -9 434.06 10.5
2 -3 -9 407.46 19.9
-2 -3 9 443.56 17
2 -3 -9 442.76 10.7
-2 -3 9 433.76 12.2
-2 -3 9 417.06 17.5
2 -3 -9 433.56 17.8
-2 -3 9 449.86 12.5
-2 -3 9 440.66 10.2
2 -3 -9 430.26 13.1
2 3 -9 423.76 11.6
2 3 -9 431.36 15.2
-2 3 9 438.76 11.1
-2 3 9 438.36 17.9
1 -3 -9 71.09 4.9
1 -3 -9 71.29 9.3
-1 -3 9 66.09 6.6
-1 -3 9 62.69 5.6
1 -3 -9 59.19 5.6
-1 -3 9 58.29 3.5
-1 -3 9 61.69 7.9
1 -3 -9 59.89 5.2
-1 -3 9 60.39 7.7
1 -3 -9 61.89 5.1
1 -3 -9 54.59 8.7
-1 -3 9 57.49 4.9
1 3 -9 59.09 4.7
1 3 -9 59.69 6.5
0 -3 -9 35.5 6.2
0 -3 9 39.5 4.8
0 -3 -9 40.2 7.3
0 -3 9 36.3 4
0 -3 -9 42.9 5.1
0 -3 -9 34.1 4.2
0 -3 9 38.5 3.5
0 -3 9 40.6 6.8
0 -3 9 52.09 8.3
0 -3 -9 33.9 5.1
0 3 -9 41.6 4.5
0 3 -9 43.6 5.8
-1 -3 -9 2.2 3.7
-1 -3 -9 1 2.6
1 -3 9 12.8 7.1
1 -3 9 1.2 2.5
1 -3 9 -2.4 4
1 -3 9 -1.9 2.1
-1 -3 -9 2.6 3.1
-1 -3 -9 0.7 2.7
-1 -3 -9 1.8 5.1
1 -3 9 -0.8 3.9
-1 3 -9 -1.6 2.3
-1 3 -9 1.1 2.8
-1 3 -9 -3 4.3
-2 -3 -9 499.85 18.4
-2 -3 -9 490.15 15.1
-2 -3 -9 499.25 13.7
2 -3 9 473.25 12
2 -3 9 473.35 12.5
-2 -3 -9 473.95 14.7
-2 -3 -9 481.15 13.9
2 -3 9 486.55 17.1
-2 -3 -9 481.35 12.6
2 -3 9 482.75 22.9
-2 3 -9 481.55 14
-2 3 -9 512.35 20.2
-3 -3 -9 31.7 4.4
3 -3 9 39.7 9.8
3 -3 9 38.5 3.1
3 -3 9 50.49 5.4
-3 -3 -9 34.9 6.3
3 -3 9 26.8 5.1
-3 3 -9 53.69 5.8
-3 3 -9 44.1 7.7
-4 -3 -9 90.59 8.4
4 -3 9 115.49 9.1
-4 -3 -9 105.39 7.8
-4 -3 -9 107.89 8.9
4 -3 9 116.69 16.7
-4 -3 -9 119.89 11.5
4 -3 9 110.99 7.3
-4 3 -9 100.29 11.9
-4 3 -9 114.89 11.6
-4 3 -9 109.49 8.8
-5 -3 -9 119.79 9
5 -3 9 144.59 10.5
-5 -3 -9 152.48 9.6
-5 -3 -9 141.09 10
-5 -3 -9 138.29 12.8
5 -3 9 136.19 18.3
5 -3 9 135.69 8.6
-5 3 -9 121.79 13
-5 3 -9 138.99 9.6
-5 3 -9 122.99 21.5
-6 -3 -9 699.83 21.7
6 -3 9 696.13 32.1
-6 -3 -9 680.93 20.7
-6 -3 -9 684.93 28.1
6 -3 9 663.03 21.3
-6 -3 -9 766.92 32.2
-6 -3 -9 687.83 21.4
6 -3 9 696.13 20.1
-6 3 -9 676.53 21.6
-6 3 -9 710.23 28.9
-6 3 -9 707.63 26.6
-7 -3 -9 36.7 6.6
7 -3 9 34.3 6.9
-7 -3 -9 19.4 7.1
-7 -3 -9 30.1 6.5
-7 3 -9 23.8 8.6
-7 3 -9 40.5 14.4
-7 3 -9 22.9 6.9
8 -3 9 103.69 12.8
-8 -3 -9 168.28 12.9
-8 -3 -9 170.88 12.6
-8 3 -9 137.09 13.5
-8 3 -9 133.39 21.1
8 3 9 171.38 19.7
-8 3 -9 157.88 17.3
-9 -3 -9 23.7 7.5
9 -3 9 16.2 9.1
-9 -3 -9 2.2 7.5
9 3 9 0.3 12.9
-9 3 -9 7.5 8.4
-9 3 -9 3.4 10.5
-9 -4 9 98.89 14.9
-9 -4 9 100.99 15
9 -4 -9 74.29 18.3
-9 4 9 110.39 22.1
-8 -4 9 329.47 25.5
-8 -4 9 356.16 19.7
-8 -4 9 348.67 21.4
8 -4 -9 370.56 27.7
-8 4 9 355.76 30
-8 4 9 331.27 16.9
7 -4 -9 48.1 15.3
-7 -4 9 128.79 15.2
-7 -4 9 101.89 11
7 -4 -9 89.49 8.1
-7 -4 9 88.49 13.6
-7 4 9 81.79 10.6
-7 4 9 106.59 17.4
6 -4 -9 178.18 22.5
6 -4 -9 170.88 9.1
-6 -4 9 173.98 12.6
-6 -4 9 183.38 14.6
-6 -4 9 177.68 16
-6 4 9 215.88 22.6
-6 4 9 190.98 10
-5 -4 9 202.68 11.1
5 -4 -9 189.98 21.7
-5 -4 9 198.68 17.2
5 -4 -9 210.38 9.5
-5 -4 9 203.58 14.5
-5 -4 9 172.48 15.6
5 -4 -9 215.88 23.2
-5 4 9 198.08 8.5
-5 4 9 252.67 20.7
4 -4 -9 691.43 17.9
-4 -4 9 675.53 21.5
-4 -4 9 635.94 24
4 -4 -9 731.33 29.4
4 -4 -9 674.13 31
-4 -4 9 664.73 17.6
-4 -4 9 687.43 24.3
-4 -4 9 634.04 17
3 -4 -9 383.86 10.2
3 -4 -9 361.66 10.6
3 -4 -9 398.06 12.9
-3 -4 9 370.26 17.3
-3 -4 9 378.96 12.2
3 -4 -9 407.46 24.6
3 -4 -9 416.66 21.9
-3 -4 9 393.76 21.5
-3 -4 9 394.86 18.6
-3 -4 9 365.96 15.4
-3 -4 9 388.56 11.9
-2 -4 9 1202.98 31
2 -4 -9 1213.58 35.4
2 -4 -9 1165.48 25.7
2 -4 -9 1192.18 40.4
-2 -4 9 1119.69 27.9
2 -4 -9 1171.78 25.5
2 -4 -9 1193.78 27.4
-2 -4 9 1174.28 36
-2 -4 9 1167.68 25
-2 -4 9 1197.08 34.7
1 -4 -9 218.08 10.7
1 -4 -9 196.98 17.2
-1 -4 9 196.38 10.7
1 -4 -9 197.68 10
-1 -4 9 200.08 14.8
-1 -4 9 211.88 8.4
-1 -4 9 222.48 21.6
1 -4 -9 188.68 19.9
1 -4 -9 256.87 16.3
1 -4 -9 204.88 9.4
-1 -4 9 199.08 16.2
-1 -4 9 213.68 12.6
0 -4 9 96.89 14.2
0 -4 9 87.89 9.6
0 -4 9 89.69 12.2
0 -4 9 93.29 7
0 -4 -9 86.99 6.3
0 -4 -9 89.79 12.6
0 -4 9 77.79 8.3
0 -4 -9 95.09 14.1
0 -4 -9 79.79 7.7
0 -4 -9 100.29 9.9
0 -4 9 93.49 15.4
1 -4 9 1015.8 24.2
1 -4 9 1055.79 24.6
-1 -4 -9 1049.4 26.6
-1 -4 -9 1037.5 26
-1 -4 -9 1073.79 29.3
1 -4 9 1056.19 34
-1 -4 -9 1058.09 22.2
-1 -4 -9 1003.5 32
1 -4 9 1011.4 40.1
1 -4 9 1014.2 30.8
-1 -4 -9 1096.49 29
1 -4 9 1020.1 23.6
-2 -4 -9 90.09 8.9
-2 -4 -9 78.89 7.8
-2 -4 -9 72.39 11.8
2 -4 9 92.59 9.2
-2 -4 -9 72.09 9.1
2 -4 9 82.09 8.3
2 -4 9 80.79 10.4
2 -4 9 89.19 7
-2 -4 -9 94.09 7.3
2 -4 9 86.79 13.8
-2 4 -9 78.29 6.4
3 -4 9 294.77 16.9
3 -4 9 292.67 8.2
-3 -4 -9 311.67 14.6
-3 -4 -9 321.87 11.5
-3 -4 -9 329.67 14.3
-3 -4 -9 321.37 13.1
-3 -4 -9 306.07 10.7
3 -4 9 311.67 8.2
3 -4 9 302.47 12.3
-3 4 -9 315.47 11.4
-3 4 -9 320.87 20.7
-4 -4 -9 10.8 5.2
-4 -4 -9 2.5 6.3
4 -4 9 10.8 5.6
-4 -4 -9 12 5.5
-4 -4 -9 13 3.2
-4 4 -9 11.8 10
-4 4 -9 13.1 4.9
5 -4 9 73.89 8.5
-5 -4 -9 56.49 7.9
-5 -4 -9 49.8 7.7
-5 -4 -9 66.79 9.2
-5 4 -9 73.59 12.9
-5 4 -9 75.79 9.6
-6 -4 -9 132.19 13.4
-6 -4 -9 156.88 13.9
6 -4 9 137.29 13.4
-6 4 -9 160.18 21.2
-6 4 -9 143.49 12.3
-7 -4 -9 82.89 10.9
-7 -4 -9 70.39 10.3
7 -4 9 68.59 11
-7 4 -9 88.49 10.2
-7 4 -9 86.09 15.6
5 -5 -9 38.4 20.2
-5 -5 9 -1.3 10.6
-5 -5 9 1.1 10.6
-4 -5 9 24.4 12.5
4 -5 -9 11.4 8.8
-4 -5 9 10.7 9.9
4 -5 -9 34.3 19.4
-3 -5 9 27.6 10
3 -5 -9 -0.2 17.2
3 -5 -9 -3.8 6.1
2 -5 -9 44.6 7.4
-2 -5 9 66.19 18.9
2 -5 -9 56.19 15.3
-2 -5 9 44.8 11.8
2 -5 -9 45.7 17
1 -5 -9 18.2 17.8
-1 -5 9 42.8 11.8
1 -5 -9 36.8 7.3
-1 -5 9 65.29 13.5
1 -5 -9 42.5 7.3
0 -5 9 20.3 10.8
0 -5 -9 26.8 17.2
0 -5 -9 32.3 7.1
0 -5 -9 27.6 9.4
0 -5 -9 18.9 7.7
-1 -5 -9 25.1 9
-1 -5 -9 1.3 7.7
1 -5 9 14.2 11.1
-1 -5 -9 2.3 17.4
-1 -5 -9 30.1 7.5
-2 -5 -9 -17.4 7.4
2 -5 9 10.8 11.6
-2 -5 -9 0.2 11.4
-2 -5 -9 7.4 7.4
-2 -5 -9 -8.7 16.6
3 -5 9 11.2 14.1
-3 -5 -9 6.5 7.9
-3 -5 -9 -0.2 8.7
13 0 -10 63.89 12
-13 0 10 60.79 16.9
-13 0 10 34.8 10
-13 0 10 73.39 10.1
-12 0 10 549.74 20.6
-12 0 10 612.34 29.1
12 0 -10 610.14 23.2
-12 0 10 618.84 19.2
-12 0 10 604.34 28.5
12 0 -10 598.04 22.4
11 0 -10 153.08 12.1
11 0 -10 178.98 13
-11 0 10 171.48 10.2
-11 0 10 166.38 12.5
-11 0 10 194.28 17.5
-11 0 10 173.58 17
11 0 -10 180.88 16.3
-11 0 10 147.29 18.7
10 0 -10 285.47 13.7
10 0 -10 274.27 15.6
-10 0 10 322.87 17.5
10 0 -10 294.57 16.1
-10 0 10 304.37 19.3
-10 0 10 285.57 21.5
-10 0 10 282.97 13
-10 0 10 296.27 12.2
-9 0 10 25.8 5
9 0 -10 23.3 6.7
9 0 -10 24.9 5.2
-9 0 10 21.1 8.8
9 0 -10 23.7 5.2
-9 0 10 22.7 4.8
-9 0 10 19.7 8.8
-9 0 10 23.7 7.1
-8 0 10 219.88 10
-8 0 10 213.98 14.8
-8 0 10 219.58 12.6
8 0 -10 219.88 11.9
8 0 -10 220.08 10.5
-8 0 10 222.58 9.8
-8 0 10 193.68 16.1
8 0 -10 213.48 10.4
7 0 -10 109.09 7.6
7 0 -10 95.89 7.2
-7 0 10 103.39 12.5
-7 0 10 91.29 10.6
-7 0 10 141.09 12.1
-7 0 10 101.19 6.4
-7 0 10 88.29 6.6
7 0 -10 104.39 8.1
-6 0 10 853.11 20.3
6 0 -10 843.12 22.8
-6 0 10 823.32 19.5
6 0 -10 867.81 21.8
-6 0 10 841.02 24.4
-6 0 10 835.32 22.7
6 0 -10 810.82 24.7
-6 0 10 882.31 26.7
6 0 -10 828.12 21.3
-5 0 10 4095.89 82.19
5 0 -10 4192.38 79.49
-5 0 10 4130.79 80.09
5 0 -10 4141.09 78.59
5 0 -10 3993.2 77.29
-5 0 10 4090.09 78.79
5 0 -10 4058.59 77.89
-5 0 10 4066.19 76.29
-5 0 10 3994.4 75.49
4 0 -10 3124.99 61.09
-4 0 10 3138.99 63.09
-4 0 10 3197.28 61.49
4 0 -10 3215.28 61.19
-4 0 10 3120.99 59.79
4 0 -10 3088.39 60.39
-4 0 10 3217.48 62.49
4 0 -10 3127.09 61.79
-4 0 10 3101.09 59.49
3 0 -10 4533.95 85.09
3 0 -10 4516.75 83.89
3 0 -10 4467.25 84.29
-3 0 10 4660.03 84.89
-3 0 10 4546.85 84.69
-3 0 10 4494.55 82.89
3 0 -10 4563.84 84.79
-3 0 10 4495.25 82.89
-3 0 10 4496.85 85.09
-2 0 10 3382.46 63.29
2 0 -10 3235.18 62.19
-2 0 10 3328.37 61.39
2 0 -10 3353.56 62.89
2 0 -10 3261.97 62.19
2 0 -10 3392.26 63.29
-2 0 10 3316.67 62.89
2 0 -10 3368.56 63.69
-2 0 10 3273.07 61.49
1 0 -10 72.89 4.2
-1 0 10 66.59 4.4
1 0 -10 73.69 4.6
-1 0 10 70.09 3.7
1 0 -10 73.99 4.2
-1 0 10 75.89 4.2
-1 0 10 80.99 3.9
1 0 -10 73.69 4.3
1 0 -10 74.49 4.8
0 0 -10 725.33 16.4
0 0 -10 734.33 17.7
0 0 10 722.03 16.1
0 0 -10 747.83 17.1
0 0 10 741.13 16.5
0 0 -10 742.93 17.2
0 0 10 720.63 16
0 0 -10 736.03 16.2
0 0 10 744.83 17.8
-1 0 -10 6870.91 121.49
1 0 10 6750.72 121.39
-1 0 -10 6734.23 121.49
-1 0 -10 6816.32 122.79
-2 0 -10 577.34 13.6
-2 0 -10 582.04 15
2 0 10 598.04 13.9
2 0 10 576.94 14.7
2 0 10 567.84 14.1
2 0 10 595.24 13.7
-2 0 -10 578.44 14.1
-2 0 -10 585.74 15.7
3 0 10 1778.02 36.4
3 0 10 1783.72 36.9
-3 0 -10 1771.82 37
3 0 10 1785.82 36.8
-3 0 -10 1813.12 35.2
3 0 10 1828.92 35.7
-3 0 -10 1835.22 36.3
-3 0 -10 1812.42 38.2
3 0 10 1782.92 35.4
-4 0 -10 1779.72 38.7
-4 0 -10 1753.42 37.2
-4 0 -10 1735.23 34.8
4 0 10 1750.92 36.6
4 0 10 1762.32 37.4
4 0 10 1795.42 37.5
-4 0 -10 1797.22 36.8
-5 0 -10 1486.65 34.8
5 0 10 1519.35 33.6
-5 0 -10 1468.25 33.1
-5 0 -10 1486.05 30.4
5 0 10 1455.45 32.2
5 0 10 1570.54 34.3
-5 0 -10 1465.55 35.4
-6 0 -10 1597.54 36.7
-6 0 -10 1645.54 38.5
-6 0 -10 1609.54 36.3
6 0 10 1617.54 36.8
-6 0 -10 1593.94 33
6 0 10 1698.33 38.1
6 0 10 1619.34 35.8
-7 0 -10 1244.88 30.6
7 0 10 1244.48 32.4
-7 0 -10 1225.28 26.7
-7 0 -10 1241.38 31.6
7 0 10 1231.68 30.4
7 0 10 1257.67 31.2
-8 0 -10 602.14 22.7
8 0 10 619.44 21.2
8 0 10 622.34 22.9
-8 0 -10 624.44 16.3
-8 0 -10 647.44 20.2
-8 0 -10 633.24 19.7
-9 0 -10 7.2 4.8
9 0 10 -3.9 7
-9 0 -10 9.4 6.1
-9 0 -10 20.2 9.8
9 0 10 -2.7 6
-9 0 -10 9.1 3.7
-10 0 -10 72.39 10.5
-10 0 -10 64.29 9.7
10 0 10 49.8 9.1
-10 0 -10 57.09 6.1
10 0 10 67.39 10.3
11 0 10 26.9 10.3
-11 0 -10 0 6.2
-11 0 -10 2.2 5.2
-13 -1 10 90.79 13
13 -1 -10 68.69 11.8
-13 1 10 69.59 9.8
-13 1 10 76.49 14.6
13 1 -10 90.29 13.2
12 -1 -10 35.9 9.8
12 -1 -10 18 7.1
-12 -1 10 40.6 13.6
-12 -1 10 20.1 8.1
-12 -1 10 37.2 11.9
-12 1 10 24.1 11.6
12 1 -10 29.6 9
-12 1 10 26.8 14
-12 1 10 29.1 5.3
-12 1 10 21.4 6.5
-11 -1 10 34.5 13
-11 -1 10 37.5 8.2
-11 -1 10 39.1 7.9
11 -1 -10 36.6 8
11 -1 -10 36.9 6.6
-11 -1 10 38.2 10.5
-11 -1 10 45.7 12.5
11 1 -10 35.5 7.6
-11 1 10 33.4 4.8
-11 1 10 49.4 11.1
11 1 -10 35 8.4
-11 1 10 41.1 5.8
11 1 -10 39.7 9
-11 1 10 45.3 11.2
10 -1 -10 108.19 9.1
-10 -1 10 120.59 14.1
10 -1 -10 109.89 13.6
-10 -1 10 106.79 16.2
-10 -1 10 108.89 11.1
-10 -1 10 109.69 13.3
-10 -1 10 114.19 10.6
10 -1 -10 117.09 11.7
-10 1 10 123.39 14
10 1 -10 116.69 10.2
10 1 -10 89.79 14.2
-10 1 10 132.69 18.2
-10 1 10 108.09 6.4
-10 1 10 120.09 8.2
-10 1 10 125.59 14.9
10 1 -10 115.59 12
9 -1 -10 1353.36 32
9 -1 -10 1349.66 35.7
-9 -1 10 1395.76 34
-9 -1 10 1413.36 36.4
-9 -1 10 1418.46 34.3
-9 -1 10 1426.36 37.9
-9 -1 10 1375.66 40.8
9 -1 -10 1406.36 37.2
-9 1 10 1410.56 42.1
-9 1 10 1408.76 36.8
-9 1 10 1373.86 40.8
9 1 -10 1397.86 35.9
-9 1 10 1404.46 30.6
9 1 -10 1325.37 32.5
-9 1 10 1382.56 29
9 1 -10 1368.56 35.2
8 -1 -10 81.69 9.7
-8 -1 10 81.89 9.2
8 -1 -10 80.69 6.9
-8 -1 10 81.59 7.4
8 -1 -10 93.69 9.4
-8 -1 10 81.79 7.9
-8 -1 10 106.19 13.2
-8 -1 10 84.39 10.4
-8 1 10 73.89 4.5
8 1 -10 80.29 6.9
-8 1 10 84.99 11.6
8 1 -10 78.79 8.3
-8 1 10 78.59 9.4
8 1 -10 85.49 8.7
-8 1 10 77.79 6
-8 1 10 73.69 10.9
-7 -1 10 2690.03 55.49
7 -1 -10 2656.63 53.49
7 -1 -10 2660.63 58.19
-7 -1 10 2788.12 55.39
7 -1 -10 2762.72 58.29
-7 -1 10 2728.03 59.09
-7 -1 10 2710.23 56.89
-7 1 10 2601.14 60.89
7 1 -10 2676.83 56.39
-7 1 10 2717.13 51.99
7 1 -10 2722.33 57.09
-7 1 10 2655.43 56.89
-7 1 10 2737.13 61.39
-7 1 10 2611.54 49.9
7 1 -10 2669.43 53.19
-6 -1 10 0.5 2.9
6 -1 -10 3 3.5
6 -1 -10 -1.4 3.5
-6 -1 10 1.3 2.2
6 -1 -10 2.2 2.2
-6 -1 10 0.1 2.7
-6 -1 10 2.5 3.5
6 -1 -10 0.6 2.8
-6 -1 10 3.5 3.1
-6 1 10 -2.7 1.2
6 1 -10 -0.2 2.5
-6 1 10 1.3 2
6 1 -10 -1.5 3.1
-6 1 10 4.3 6.4
-6 1 10 -4.3 4.9
6 1 -10 1.1 2.1
6 1 -10 0.7 3
-6 1 10 -4.2 2.9
5 -1 -10 51.39 4.5
5 -1 -10 57.79 6.7
-5 -1 10 43.8 5.8
-5 -1 10 50.99 5.5
-5 -1 10 47.1 5.6
-5 -1 10 47.8 5.1
-5 -1 10 53.99 5.2
5 -1 -10 50.69 6.1
5 -1 -10 42.8 6.2
5 1 -10 43.8 5.3
-5 1 10 45.9 5.7
5 1 -10 45.9 5.5
-5 1 10 59.39 8.1
5 1 -10 51.29 5.5
-5 1 10 44.2 3.9
-5 1 10 49.3 8
5 1 -10 44.5 3.8
4 -1 -10 7.9 3.3
4 -1 -10 4.9 3.5
-4 -1 10 11.5 2.9
-4 -1 10 9.8 2.6
-4 -1 10 2.3 2.2
-4 -1 10 9.6 3.3
4 -1 -10 8.5 2
-4 -1 10 7.4 2.9
4 -1 -10 7.1 3
-4 1 10 6.9 1.9
4 1 -10 7.4 2.6
4 1 -10 5 2.5
4 1 -10 9.1 3
4 1 -10 6.1 1.7
-4 1 10 4.4 4.8
-4 1 10 13.6 4.4
3 -1 -10 1008.1 26.2
-3 -1 10 1007.6 22.8
3 -1 -10 1005.6 23.8
-3 -1 10 995.2 23.2
-3 -1 10 1021.8 24
-3 -1 10 1034.4 21.2
-3 -1 10 1006.8 24.5
3 -1 -10 1032.8 23.7
3 -1 -10 1026.1 22.1
-3 1 10 1006.7 26.2
-3 1 10 1018.2 23.3
3 1 -10 1000.4 24.5
3 1 -10 982.9 23.4
-3 1 10 988.8 21.4
3 1 -10 1009.4 19.7
3 1 -10 1027.5 23.8
-2 -1 10 129.59 6.6
-2 -1 10 116.09 5.6
2 -1 -10 124.59 5.3
2 -1 -10 126.99 6.5
-2 -1 10 128.59 6.2
2 -1 -10 126.99 7.9
-2 -1 10 117.99 6.6
2 -1 -10 124.39 5.9
-2 1 10 120.49 8.5
2 1 -10 116.79 6
2 1 -10 116.59 6.1
-2 1 10 124.49 6
2 1 -10 125.69 3.2
-2 1 10 127.09 5.3
2 1 -10 130.09 7.1
-1 -1 10 13.7 2.7
-1 -1 10 13.6 2.7
-1 -1 10 13 2.9
1 -1 -10 14.2 1.8
1 -1 -10 13.9 2.9
-1 -1 10 15.5 2.4
1 -1 -10 15.4 2.5
1 -1 -10 20.1 2.6
1 1 -10 13.8 3.2
1 1 -10 15.1 2.6
1 1 -10 11.5 3
-1 1 10 15.2 2.7
1 1 -10 14.1 2.6
-1 1 10 13 3.8
-1 1 10 19.1 2.5
-1 1 10 11.3 2
0 -1 -10 209.98 6
0 -1 10 204.18 8.3
0 -1 -10 213.98 8.5
0 -1 -10 208.88 6.1
0 -1 -10 201.28 7.7
0 -1 -10 201.88 7
0 -1 10 202.38 6.7
0 -1 10 212.28 8.2
0 -1 10 198.98 7.8
0 1 10 203.68 7.1
0 1 -10 206.88 4.7
0 1 10 201.58 7.8
0 1 -10 213.68 8
0 1 10 218.88 6.7
0 1 -10 201.88 8.9
0 1 -10 203.18 7.3
0 1 10 203.48 7.8
-1 -1 -10 1019.1 23.5
1 -1 10 1001.8 23.1
1 -1 10 995.9 19.9
1 -1 10 999.4 24
-1 -1 -10 1004.6 20.9
1 -1 10 1029 23.6
1 -1 10 1029.7 20.8
-1 -1 -10 1018.1 20.9
-1 -1 -10 1002.4 22.9
-1 -1 -10 1006.3 21.9
1 1 10 1034.2 22.4
1 1 10 999.2 23.3
-1 1 -10 1019.4 24.6
-1 1 -10 1015.1 21.7
1 1 10 1028.3 21.9
-1 1 -10 1015.7 23.3
-1 1 -10 1014.4 20
2 -1 10 14.5 3.4
2 -1 10 15.1 2.1
2 -1 10 18.9 2.3
-2 -1 -10 12.4 2.9
-2 -1 -10 16.1 2.8
-2 -1 -10 11.9 2.3
-2 -1 -10 9.9 2
2 -1 10 17 3.1
2 1 10 10 2.3
-2 1 -10 14.2 2.9
-2 1 -10 13.4 3.3
-2 1 -10 12.4 2.2
-2 1 -10 13.9 2.5
2 1 10 18.4 3.5
-3 -1 -10 6.7 2.6
3 -1 10 5.2 2.4
3 -1 10 9.2 2.3
-3 -1 -10 4.4 2.4
-3 -1 -10 5.7 1.9
-3 -1 -10 4.9 1.9
3 -1 10 6.4 1.7
3 -1 10 5.4 3.8
3 1 10 6.8 2.9
-3 1 -10 10 3.1
-3 1 -10 7 2.8
-3 1 -10 2.2 2.3
3 1 10 7.5 3.5
-3 1 -10 6.2 1.9
4 -1 10 17.7 5.3
-4 -1 -10 13.8 2.9
4 -1 10 20.5 2.6
-4 -1 -10 17.8 4
4 -1 10 21.5 3.3
-4 -1 -10 16.8 3
4 -1 10 19.1 3.5
-4 1 -10 16.3 4
-4 1 -10 15.6 2.4
-4 1 -10 18.4 4
4 1 10 11.6 3.7
-4 1 -10 12 3.3
4 1 10 17.7 4.3
-5 -1 -10 1013.8 24.4
5 -1 10 1027.3 25
5 -1 10 1037.1 24.4
5 -1 10 1023.5 28.7
-5 -1 -10 1042.2 24
-5 -1 -10 1029.2 26.3
-5 -1 -10 1075.49 26.2
5 1 10 1050.29 27.3
-5 1 -10 1032.7 21.7
5 1 10 1112.49 27.7
-5 1 -10 1013.8 26.7
-5 1 -10 1078.09 26.4
6 -1 10 -6.5 4.9
-6 -1 -10 3 4.3
6 -1 10 2.9 3.5
-6 -1 -10 4.1 2.8
-6 -1 -10 -0.6 2.5
6 -1 10 1.2 3.3
-6 -1 -10 -0.1 3.9
-6 1 -10 2 2
-6 1 -10 -0.8 3.5
-6 1 -10 -1.1 4.7
6 1 10 6.1 4.6
6 1 10 0.8 3.9
-6 1 -10 5.7 3.2
-7 -1 -10 138.99 10.8
7 -1 10 162.98 11.3
7 -1 10 178.68 12.9
-7 -1 -10 156.08 8.5
-7 -1 -10 147.29 8.8
-7 -1 -10 158.48 11.6
7 -1 10 163.38 10
-7 1 -10 156.08 13.6
7 1 10 151.78 12.2
-7 1 -10 156.38 11.3
7 1 10 171.68 12.1
-7 1 -10 167.78 6.4
-8 -1 -10 48.4 6.7
-8 -1 -10 41.3 5.7
-8 -1 -10 28.2 8.1
8 -1 10 45.8 9.3
8 -1 10 54.39 7.8
8 -1 10 38 8
8 1 10 28.9 8.4
-8 1 -10 37.9 10.3
8 1 10 56.69 8.9
-8 1 -10 33.4 4.3
-8 1 -10 37.2 5.1
-8 1 -10 40.5 7.1
-8 1 -10 39.6 7.6
9 -1 10 395.16 17.5
-9 -1 -10 390.16 14.5
9 -1 10 388.56 22.5
-9 -1 -10 402.36 16.2
-9 -1 -10 390.96 19.4
-9 1 -10 391.56 11
-9 1 -10 386.46 25.2
9 1 10 380.46 19.6
-9 1 -10 378.36 19.9
-9 1 -10 379.16 13.4
-9 1 -10 402.86 18
10 -1 10 18.4 14.9
10 -1 10 2.7 8.6
-10 -1 -10 14.6 10.3
-10 -1 -10 23.2 5.9
-10 -1 -10 27.6 6.8
-10 1 -10 10.4 4
-10 1 -10 19 9.9
10 1 10 17.4 9.5
-10 1 -10 17.8 6.8
-11 -1 -10 269.47 15.2
11 -1 10 317.27 20.9
-11 -1 -10 290.67 17
-11 1 -10 289.37 19.6
11 1 10 224.28 22.4
-11 1 -10 297.87 23.5
-12 -2 10 267.57 25.2
12 -2 -10 302.67 22.1
-12 -2 10 258.57 19.1
12 2 -10 340.77 20.3
-12 2 10 301.77 27.2
-12 2 10 284.67 14.3
-11 -2 10 206.78 16.1
11 -2 -10 226.88 18.5
-11 -2 10 210.18 22.5
-11 -2 10 188.28 22.7
11 -2 -10 237.18 12
11 2 -10 240.18 16.1
-11 2 10 219.38 11.3
-11 2 10 229.18 10.9
-11 2 10 236.48 22.9
-10 -2 10 173.98 19.5
-10 -2 10 214.98 14.5
10 -2 -10 172.98 15.6
10 -2 -10 217.38 10.7
-10 -2 10 200.08 17.8
-10 -2 10 207.78 17.3
10 2 -10 207.38 13.8
-10 2 10 204.88 8.7
-10 2 10 201.18 16.5
-10 2 10 215.18 9.5
10 2 -10 203.88 16.4
10 2 -10 210.28 16.1
-10 2 10 213.38 19.3
9 -2 -10 22.2 7.5
-9 -2 10 15.8 7.5
9 -2 -10 14.6 4.3
-9 -2 10 6.4 10.7
-9 -2 10 5.5 6
9 -2 -10 5.7 10
-9 -2 10 2.7 6.2
-9 -2 10 16.7 5.9
9 2 -10 16.4 7.1
-9 2 10 18.9 6.6
-9 2 10 14.4 3.4
-9 2 10 -5 12
-9 2 10 13.9 3.5
9 2 -10 21.8 5.4
9 2 -10 22.1 7.8
-9 2 10 17.3 7.8
-8 -2 10 238.18 13.4
-8 -2 10 243.18 13.8
-8 -2 10 234.78 13.3
-8 -2 10 230.48 12.9
8 -2 -10 247.78 19.4
8 -2 -10 247.98 10.1
-8 -2 10 255.87 14.2
-8 2 10 243.78 13.8
8 2 -10 228.88 10.9
-8 2 10 240.88 8
8 2 -10 227.78 14
-8 2 10 225.68 20.4
-8 2 10 235.18 8.6
7 -2 -10 137.59 7.3
7 -2 -10 146.09 12.9
-7 -2 10 149.39 9.8
7 -2 -10 133.99 15.5
-7 -2 10 131.49 9.8
-7 -2 10 141.59 10.4
-7 -2 10 138.49 10
-7 -2 10 129.99 9.8
7 2 -10 138.19 7.8
-7 2 10 131.19 12.6
-7 2 10 131.89 6.4
7 2 -10 145.09 11.2
7 2 -10 133.29 10.3
-7 2 10 143.89 16.1
-7 2 10 130.29 9.9
-6 -2 10 642.94 18.9
6 -2 -10 613.54 16.3
-6 -2 10 631.44 19.8
-6 -2 10 627.64 19.5
6 -2 -10 626.34 23.4
-6 -2 10 638.44 17.6
6 -2 -10 635.24 25
-6 -2 10 618.14 20.3
6 2 -10 642.34 20.4
6 2 -10 622.34 21
-6 2 10 656.23 24.7
-6 2 10 614.84 23.6
-6 2 10 627.84 15.5
6 2 -10 633.54 16.3
-5 -2 10 111.69 8.4
5 -2 -10 111.29 6.1
-5 -2 10 126.89 6.8
-5 -2 10 121.59 8.1
5 -2 -10 132.59 13.5
5 -2 -10 129.19 11.3
-5 -2 10 122.89 7.7
-5 -2 10 106.89 9.5
5 -2 -10 120.39 8
5 2 -10 122.29 7.5
5 2 -10 101.69 8.2
5 2 -10 106.69 5.7
-5 2 10 118.29 7.7
5 2 -10 131.29 9.6
-5 2 10 108.39 10.3
-5 2 10 126.49 6
4 -2 -10 1171.58 24.9
-4 -2 10 1140.09 28.5
-4 -2 10 1127.29 27.3
4 -2 -10 1138.09 27.4
4 -2 -10 1093.09 31.9
4 -2 -10 1207.78 32.1
-4 -2 10 1160.68 30.4
-4 -2 10 1155.08 26.3
-4 -2 10 1164.58 23.9
-4 2 10 1164.38 26.5
-4 2 10 1133.19 31.5
-4 2 10 1138.99 24.7
4 2 -10 1126.29 23.3
4 2 -10 1149.98 26.7
4 2 -10 1175.08 30.3
4 2 -10 1117.09 28.1
-3 -2 10 437.06 13.4
-3 -2 10 414.86 14.4
3 -2 -10 429.96 13.3
3 -2 -10 427.26 11.7
-3 -2 10 374.96 17.7
3 -2 -10 440.86 17.7
-3 -2 10 385.76 14
-3 -2 10 416.76 9.6
3 -2 -10 453.25 17.4
-3 2 10 400.66 15.8
3 2 -10 444.86 14.3
3 2 -10 416.66 12.7
-3 2 10 388.26 13
-3 2 10 442.36 12.1
-2 -2 10 933.71 24.5
-2 -2 10 933.51 22.1
2 -2 -10 1004.9 25.6
-2 -2 10 868.01 27.5
2 -2 -10 969.9 21.2
-2 -2 10 961.6 22.6
2 -2 -10 925.61 26.9
2 -2 -10 952.2 27.5
2 2 -10 966 23.5
-2 2 10 953.4 25.4
-2 2 10 982.5 21.7
-2 2 10 942.21 21.5
2 2 -10 968.6 22.3
-1 -2 10 136.09 6.6
1 -2 -10 139.19 6.1
-1 -2 10 144.39 8.4
1 -2 -10 143.09 6.9
-1 -2 10 133.29 6.6
-1 -2 10 138.99 8.8
1 -2 -10 132.39 4
1 -2 -10 157.78 9.3
-1 2 10 143.79 8
-1 2 10 138.69 6.6
-1 2 10 147.79 6.4
1 2 -10 142.29 6.9
1 2 -10 143.79 7.2
0 -2 -10 496.55 13.6
0 -2 10 518.25 14.3
0 -2 -10 478.25 11.2
0 -2 -10 482.95 13.2
0 -2 -10 459.45 17.9
0 -2 -10 523.15 14.3
0 -2 10 502.25 16.6
0 -2 10 518.15 13.1
0 2 -10 497.55 14
0 2 10 497.45 14.2
0 2 10 490.85 13.1
0 2 -10 497.85 17.3
0 2 -10 494.35 13.8
0 2 10 488.75 14.1
-1 -2 -10 13.2 2.8
1 -2 10 14 2.4
-1 -2 -10 19.6 2.7
1 -2 10 13 3.7
-1 -2 -10 19.3 3.3
-1 -2 -10 12.3 2.4
1 -2 10 13.1 3.5
-1 -2 -10 8.8 3.8
-1 2 -10 12.6 2.8
1 2 10 13.3 2.9
-1 2 -10 12.6 4.1
-1 2 -10 14.6 2.9
-2 -2 -10 472.15 12.6
2 -2 10 485.45 11.4
2 -2 10 484.65 15.2
2 -2 10 475.95 10.9
-2 -2 -10 492.05 13.7
-2 -2 -10 470.75 13.6
-2 -2 -10 480.75 15.9
2 -2 10 462.35 19.3
-2 2 -10 475.35 13.2
-2 2 -10 482.45 17.2
-2 2 -10 472.85 14.1
2 2 10 494.55 14.4
-2 2 -10 475.55 12.6
3 -2 10 75.89 10.8
-3 -2 -10 81.09 7.8
3 -2 10 76.29 6.3
-3 -2 -10 70.69 6.9
3 -2 10 70.49 4.4
-3 -2 -10 64.79 5.3
3 -2 10 77.09 3.7
-3 -2 -10 66.59 5.6
-3 2 -10 70.99 4.4
-3 2 -10 84.79 7.8
3 2 10 76.19 6.6
-3 2 -10 73.89 7.5
-3 2 -10 78.29 6.1
4 -2 10 656.13 24.3
-4 -2 -10 632.14 19.5
-4 -2 -10 624.44 17
-4 -2 -10 654.43 17.7
4 -2 10 659.83 18.5
4 -2 10 621.84 15.9
4 -2 10 632.74 13.5
-4 -2 -10 623.14 17.9
-4 2 -10 633.14 14.4
4 2 10 664.33 19.6
-4 2 -10 652.23 21.2
-4 2 -10 647.54 19.7
-4 2 -10 652.93 18.8
-5 -2 -10 0 4.5
5 -2 10 3.8 6.4
5 -2 10 0.2 3.7
-5 -2 -10 3.7 2.6
5 -2 10 0.5 2.9
-5 -2 -10 4.9 3.2
-5 -2 -10 -1.1 3.3
5 2 10 0 3.9
-5 2 -10 3.7 3.4
-5 2 -10 3.1 2
5 2 10 6.1 5.2
-5 2 -10 5.5 4.5
-5 2 -10 5 6.3
6 -2 10 511.05 23.5
-6 -2 -10 518.65 17.8
-6 -2 -10 534.25 17.1
6 -2 10 539.55 17.1
6 -2 10 533.15 16.2
-6 -2 -10 535.75 16.6
-6 -2 -10 537.25 19.4
-6 2 -10 557.24 18.9
6 2 10 542.25 20
-6 2 -10 514.85 21.9
6 2 10 494.45 23.4
7 -2 10 12.8 5.1
-7 -2 -10 12.8 5.7
-7 -2 -10 -0.3 7.4
-7 -2 -10 6.6 4.7
-7 -2 -10 10.9 3.8
7 -2 10 6.2 4.6
7 -2 10 21 8.7
7 2 10 11 6.7
7 2 10 6.1 6.7
-7 2 -10 3.8 7.4
-7 2 -10 18.6 10.5
-7 2 -10 5.4 5.6
8 -2 10 185.38 15.1
-8 -2 -10 189.98 14.2
-8 -2 -10 226.38 11.9
-8 -2 -10 185.18 17.4
-8 -2 -10 196.08 11.8
8 -2 10 261.57 20.6
-8 2 -10 221.48 15.4
8 2 10 242.78 17.3
-8 2 -10 212.88 22.9
-8 2 -10 203.68 14.1
-9 -2 -10 8.9 9.9
-9 -2 -10 4.1 5.2
9 -2 10 7.1 7.1
-9 -2 -10 7.4 5.9
9 2 10 4.7 9
-9 2 -10 2.6 7.6
-9 2 -10 9.6 7.7
-9 2 -10 2.7 16.6
10 -2 10 38.8 10.1
-10 -2 -10 58.39 8.6
-10 -2 -10 53.29 8.4
-10 2 -10 34.5 10.3
10 2 10 44.5 12.7
-10 2 -10 45.2 11.5
-11 -3 10 -9.7 14.9
11 -3 -10 11.9 12.9
-11 -3 10 11.3 10.6
11 3 -10 32.1 11.7
-11 3 10 39.8 16.9
-10 -3 10 83.09 13.7
10 -3 -10 65.99 13.7
10 -3 -10 65.19 7.7
-10 -3 10 75.39 11.1
-10 -3 10 83.49 14.7
-10 3 10 99.29 16.9
10 3 -10 101.29 12.1
-9 -3 10 29.8 9.2
-9 -3 10 19.7 8.7
-9 -3 10 13.7 6.8
9 -3 -10 24.6 10.7
9 -3 -10 24.8 5.1
9 3 -10 25.2 8.2
-9 3 10 51.69 12.8
-9 3 10 16.3 8.7
-9 3 10 22.1 4.5
9 3 -10 26.4 12.2
8 -3 -10 8.1 4.2
-8 -3 10 0.9 5.8
-8 -3 10 4.7 6.4
-8 -3 10 2.4 6.5
8 -3 -10 9 9.5
-8 3 10 4.7 3.8
8 3 -10 8.9 5.9
-8 3 10 6.3 6.4
-8 3 10 18.1 9.4
8 3 -10 15.4 9.9
-7 -3 10 38.4 6.5
-7 -3 10 36.5 8.8
7 -3 -10 36.6 4.8
-7 -3 10 43.2 8.8
7 -3 -10 32.6 9.8
-7 -3 10 45.3 7.8
-7 -3 10 44.7 7.8
-7 3 10 37.7 10.5
-7 3 10 30.3 6.2
-7 3 10 37 4.6
7 3 -10 25.6 7
7 3 -10 38.8 6.2
-6 -3 10 36.3 6.9
-6 -3 10 44.5 7.6
-6 -3 10 44.4 10
-6 -3 10 32.7 5.6
6 -3 -10 36 4.5
-6 -3 10 40.7 7.1
-6 -3 10 49.8 6
6 -3 -10 34.1 10.4
6 -3 -10 31.2 9.4
6 3 -10 38.8 5.5
-6 3 10 45.6 5.9
-6 3 10 41 5.6
-6 3 10 36.1 8.9
6 3 -10 34 7
5 -3 -10 529.75 14.7
5 -3 -10 538.05 24.2
-5 -3 10 531.05 14.5
-5 -3 10 548.45 19.4
-5 -3 10 538.05 22.6
-5 -3 10 521.15 15.9
-5 -3 10 543.45 19
5 -3 -10 556.24 24.7
-5 3 10 502.75 23.4
-5 3 10 540.75 15.1
5 3 -10 535.35 19.7
-5 3 10 529.45 15.8
4 -3 -10 410.66 14.7
4 -3 -10 449.56 21.1
4 -3 -10 414.96 21.3
4 -3 -10 441.96 12.9
-4 -3 10 454.55 16.6
-4 -3 10 421.66 11.4
-4 -3 10 455.35 17.3
-4 -3 10 437.66 19.4
-4 -3 10 433.36 13.5
-4 3 10 434.16 20.2
-4 3 10 434.36 13.1
4 3 -10 415.36 16.7
-3 -3 10 1810.72 39.7
3 -3 -10 1777.02 37.9
-3 -3 10 1695.13 34.8
-3 -3 10 1738.23 36.3
-3 -3 10 1780.32 42.1
-3 -3 10 1726.23 33.1
3 -3 -10 1743.43 43.8
3 -3 -10 1806.72 47.2
-3 -3 10 1737.93 43.7
3 -3 -10 1765.82 36.1
3 3 -10 1779.12 40.6
3 3 -10 1729.83 35.8
-3 3 10 1779.82 45
-3 3 10 1750.32 35.5
2 -3 -10 351.36 12
2 -3 -10 320.27 18.3
-2 -3 10 342.87 16.2
2 -3 -10 352.86 8.3
-2 -3 10 345.67 11.2
-2 -3 10 359.06 13.3
2 -3 -10 344.77 11.1
-2 -3 10 345.77 15.1
2 -3 -10 340.37 8.5
-2 -3 10 338.27 10.3
-2 -3 10 335.67 7.8
2 -3 -10 351.86 16.8
-2 3 10 356.26 10.1
2 3 -10 348.17 13.9
-2 3 10 363.46 16.4
2 3 -10 338.97 10.7
1 -3 -10 438.56 12.4
-1 -3 10 437.86 16.2
1 -3 -10 455.95 20.5
-1 -3 10 460.85 18.1
1 -3 -10 412.76 18
1 -3 -10 459.85 13.5
-1 -3 10 461.45 13.5
-1 -3 10 458.05 17.8
1 -3 -10 453.25 13.3
1 -3 -10 450.25 11.2
1 -3 -10 453.15 17.4
1 3 -10 440.26 15.1
1 3 -10 446.26 12.8
0 -3 10 111.69 10.2
0 -3 10 102.99 4.6
0 -3 -10 106.29 6.1
0 -3 -10 106.19 9.6
0 -3 -10 105.59 10.6
0 -3 10 99.59 9.5
0 -3 -10 107.89 6.9
0 -3 10 112.49 7.1
0 -3 -10 96.59 6.8
0 3 -10 92.99 7.2
0 3 -10 103.99 6.4
1 -3 10 9.5 4.8
-1 -3 -10 -3 4.2
-1 -3 -10 0.8 2.9
-1 -3 -10 -0.2 2.5
1 -3 10 2.5 2.1
-1 -3 -10 2.1 5.1
1 -3 10 1.5 1.8
1 -3 10 -3.1 6.8
-1 -3 -10 0.2 2.9
1 -3 10 -0.5 2.7
1 -3 10 -0.3 4.3
-1 3 -10 4.6 3
-1 3 -10 -7.7 4.1
-1 3 -10 1.5 2.7
-2 -3 -10 50.89 4.1
2 -3 10 76.59 12.1
2 -3 10 57.89 4.4
-2 -3 -10 62.09 6.4
2 -3 10 58.39 4.6
2 -3 10 64.39 8.4
-2 -3 -10 56.39 6
-2 -3 -10 51.79 6.3
-2 -3 -10 63.09 9
-2 -3 -10 52.19 6.2
-2 3 -10 59.79 5.5
-2 3 -10 59.69 8.6
-2 3 -10 60.39 6
3 -3 10 238.18 19
-3 -3 -10 265.27 10.5
-3 -3 -10 272.27 14.3
-3 -3 -10 265.47 11.6
3 -3 10 255.07 8.9
3 -3 10 261.67 7.2
3 -3 10 265.47 12.9
-3 -3 -10 272.17 11.1
-3 3 -10 252.97 13.6
-3 3 -10 261.97 15.6
4 -3 10 3.6 4
-4 -3 -10 4.6 3.2
-4 -3 -10 5.4 6.2
4 -3 10 5.8 3.5
-4 -3 -10 7.5 4.3
-4 -3 -10 4.8 3.7
4 -3 10 5.9 9
-4 3 -10 5.8 5.7
-4 3 -10 9 6.8
-4 3 -10 5.9 4.1
-5 -3 -10 744.83 21.3
-5 -3 -10 798.02 22.2
5 -3 10 766.72 20
-5 -3 -10 759.62 25.4
5 -3 10 771.22 23.1
-5 -3 -10 774.42 22.6
5 -3 10 775.62 32.7
-5 3 -10 791.02 22.6
-5 3 -10 803.62 28.2
-6 -3 -10 5.3 4.6
-6 -3 -10 3.1 5.2
6 -3 10 13.3 11.2
6 -3 10 9.6 4.8
-6 -3 -10 3.7 4.8
6 -3 10 10.4 5.7
-6 3 -10 -0.4 4.9
-6 3 -10 11.5 11.7
-6 3 -10 8.6 7.3
-7 -3 -10 336.87 14.9
-7 -3 -10 313.27 15.3
-7 -3 -10 324.87 16.4
7 -3 10 310.57 14.5
-7 3 -10 323.87 16.3
-7 3 -10 321.47 20.1
-7 3 -10 304.87 26.6
-8 -3 -10 7.4 6.1
8 -3 10 16 7.8
-8 -3 -10 10.8 5.9
-8 3 -10 36.5 19.1
-8 3 -10 9.2 7.6
-8 3 -10 6.9 9.3
9 -3 10 208.88 17.1
-9 -3 -10 206.58 15.6
-9 -3 -10 220.18 15.2
-9 3 -10 182.18 21.8
-9 3 -10 170.38 17.4
9 3 10 135.09 18.3
9 -4 -10 5.6 16
-9 -4 10 -4.3 10.4
-9 -4 10 4.1 9.7
-9 4 10 -27.3 16.1
8 -4 -10 43.9 16.1
-8 -4 10 3.4 8.3
-8 -4 10 -4.3 8.4
-8 4 10 -0.1 14.6
-8 4 10 1.7 7.8
7 -4 -10 -1 12.8
-7 -4 10 2.5 8.2
7 -4 -10 0.6 5.1
-7 -4 10 1.3 7.8
-7 -4 10 6.9 8
-7 4 10 7.6 13.3
-7 4 10 -12 5.4
-6 -4 10 -1.4 7.1
6 -4 -10 -1 4.7
-6 -4 10 12.3 7.7
6 -4 -10 -23.2 11.5
-6 4 10 -2.7 10.1
-6 4 10 -2.3 4.7
5 -4 -10 213.38 22.5
5 -4 -10 236.08 24.4
-5 -4 10 207.88 10.9
5 -4 -10 218.48 10.2
-5 -4 10 270.57 26.1
-5 -4 10 236.98 17
-5 -4 10 217.78 14.9
-5 4 10 206.38 21
-5 4 10 221.78 9.1
-4 -4 10 25.9 7.7
-4 -4 10 17.1 8.4
-4 -4 10 14.2 6.5
4 -4 -10 21.1 12.1
4 -4 -10 12.8 4.5
4 -4 -10 6.9 11.3
-4 -4 10 16.7 4.6
-4 4 10 16.5 2.9
3 -4 -10 16.1 11.5
-3 -4 10 8.9 3.8
-3 -4 10 17.4 9.4
3 -4 -10 18 10.6
3 -4 -10 12.6 4.5
-3 -4 10 17.4 7.5
-3 -4 10 16.5 5.4
-3 -4 10 11.9 4.7
-3 -4 10 6.7 6.3
2 -4 -10 3.9 3.2
-2 -4 10 5.5 6.2
-2 -4 10 7.7 8.8
2 -4 -10 0.8 3.7
-2 -4 10 6.1 3.1
-2 -4 10 7.3 4.6
2 -4 -10 0.3 3.3
-2 -4 10 3.6 6.4
2 -4 -10 -9.3 9.4
2 -4 -10 6.9 8.3
2 -4 -10 -3.9 8.5
-1 -4 10 156.78 8
1 -4 -10 176.78 15.2
-1 -4 10 113.49 16
-1 -4 10 149.88 13.7
1 -4 -10 145.79 8.5
1 -4 -10 131.99 16.1
-1 -4 10 152.88 6.4
1 -4 -10 144.89 9.2
-1 -4 10 182.58 21.1
1 -4 -10 139.09 8
1 -4 -10 126.79 15.5
-1 -4 10 142.49 11.3
1 -4 -10 154.28 9.3
0 -4 10 228.58 16.5
0 -4 -10 229.38 9.7
0 -4 10 218.98 17
0 -4 10 232.38 8.1
0 -4 -10 270.77 20.8
0 -4 -10 250.57 15.4
0 -4 -10 248.28 12.5
0 -4 -10 244.88 11.4
0 -4 -10 235.68 10.3
0 -4 10 242.78 12
0 -4 10 230.38 23.4
0 -4 -10 215.98 17.7
0 -4 10 216.88 8.7
1 -4 10 92.79 13.4
-1 -4 -10 70.79 10.5
-1 -4 -10 108.09 11.6
1 -4 10 66.79 6.9
1 -4 10 69.69 6.7
-1 -4 -10 69.89 8.2
-1 -4 -10 65.59 8.1
1 -4 10 58.79 8.9
-1 -4 -10 71.89 9.3
-1 -4 -10 79.19 8.6
1 -4 10 75.79 6.6
-1 -4 -10 80.09 7.5
-1 4 -10 78.19 6
-2 -4 -10 314.57 11.7
-2 -4 -10 291.97 14.5
2 -4 10 297.77 10.4
2 -4 10 305.47 18.4
2 -4 10 305.07 11.7
2 -4 10 307.27 19.4
-2 -4 -10 302.77 11.4
-2 -4 -10 296.37 13.1
2 -4 10 289.37 10.6
-2 -4 -10 318.27 13.7
-2 4 -10 285.27 10.8
-3 -4 -10 168.68 11.7
-3 -4 -10 173.48 7.4
3 -4 10 171.58 6.2
-3 -4 -10 189.78 12
-3 -4 -10 176.28 10.3
-3 -4 -10 145.59 10.7
3 -4 10 162.38 9.3
-3 4 -10 217.38 18.8
-3 4 -10 168.58 9.6
-4 -4 -10 94.09 10.5
-4 -4 -10 93.49 10.7
4 -4 10 74.99 9.2
-4 -4 -10 97.59 10.8
-4 4 -10 111.89 15.3
-4 4 -10 94.19 9.3
5 -4 10 102.79 10.9
-5 -4 -10 100.69 11.5
-5 -4 -10 102.29 12.2
-5 -4 -10 113.39 12
-5 4 -10 130.79 19.6
-5 4 -10 109.19 10.9
6 -4 10 59.49 9
-6 -4 -10 73.69 9.8
-6 -4 -10 68.49 9.6
-6 4 -10 62.29 14.1
-6 4 -10 36.6 7.9
7 -4 10 132.99 15.5
-7 -4 -10 172.38 15.1
-7 4 -10 155.58 15.8
-7 4 -10 134.89 18.5
5 -5 -10 50.99 21.8
-5 -5 10 104.39 15.2
-5 -5 10 97.29 15.4
4 -5 -10 9.9 7.2
4 -5 -10 -4.8 18.2
-4 -5 10 5.8 10.7
-4 -5 10 4.8 10.4
3 -5 -10 231.68 26.8
-3 -5 10 180.38 19.3
3 -5 -10 208.88 13.2
2 -5 -10 -18.3 15.9
-2 -5 10 7.9 10.5
2 -5 -10 -4.3 6.5
1 -5 -10 239.48 27.9
-1 -5 10 230.88 21.5
1 -5 -10 249.58 14.8
0 -5 -10 -11.1 6.4
0 -5 -10 23.4 19.6
0 -5 -10 5.6 7
0 -5 10 5.7 10.9
-1 -5 -10 87.39 9.7
-1 -5 -10 86.19 13.3
1 -5 10 123.49 19.9
-1 -5 -10 66.99 19.4
-1 -5 -10 75.69 9.5
2 -5 10 15.7 12.8
-2 -5 -10 -2.9 17.8
-2 -5 -10 20.6 8.4
-2 -5 -10 -0.1 7.9
-13 0 11 17.1 5.8
-13 0 11 31.6 13
-13 0 11 8.2 15.7
13 0 -11 -4.9 9.3
-12 0 11 23.7 12.8
-12 0 11 16.7 9.7
-12 0 11 9.5 5.1
-12 0 11 -12.9 6.9
12 0 -11 12.8 7.7
12 0 -11 -11 7.4
-11 0 11 6.1 4.4
-11 0 11 22.1 14.6
11 0 -11 13.1 6.3
11 0 -11 -4.8 7
11 0 -11 4.5 6.2
-11 0 11 2.6 5.7
-11 0 11 -6.1 9.1
-11 0 11 8 8
-10 0 11 0.6 4.8
-10 0 11 -4.3 7.8
-10 0 11 0.9 7
10 0 -11 -1.2 4.6
-10 0 11 2.5 3.9
10 0 -11 7.5 6.1
10 0 -11 2 6.6
-10 0 11 -5.5 10.3
9 0 -11 6.1 4.4
-9 0 11 -10.3 7.8
-9 0 11 -2.2 3.8
9 0 -11 -4.2 3.9
-9 0 11 -2.3 7.1
-9 0 11 -1.9 3.5
-9 0 11 -1.1 5
9 0 -11 -0.5 5.1
8 0 -11 2.1 3.4
-8 0 11 -2.1 6.5
-8 0 11 3.8 6.7
-8 0 11 3.9 3.2
8 0 -11 -1.6 4.2
-8 0 11 -0.5 3.1
-8 0 11 -2.5 3.8
8 0 -11 2.8 3.6
7 0 -11 -3.2 2.8
-7 0 11 1.7 2.8
-7 0 11 3.6 2.6
-7 0 11 5.7 6.5
7 0 -11 1.7 3.5
7 0 -11 -3.3 3.3
7 0 -11 3.4 3.1
-7 0 11 -2.5 3.9
6 0 -11 1.9 2.8
-6 0 11 1.4 1.9
6 0 -11 2.3 2.5
-6 0 11 -3.6 1.9
-6 0 11 -4 2.4
6 0 -11 6.2 4.4
6 0 -11 -2.2 2.5
-6 0 11 0 4.7
-6 0 11 11.9 7
-5 0 11 8.9 5.1
-5 0 11 0.6 1.5
5 0 -11 -2.7 2.3
-5 0 11 1.9 3.8
-5 0 11 1.4 2.1
5 0 -11 -0.7 1.8
-5 0 11 -0.3 1.9
-5 0 11 1.9 3
5 0 -11 0.9 2.4
5 0 -11 -1.5 2.1
-4 0 11 -1.5 1.6
4 0 -11 1.2 2.4
-4 0 11 -0.2 2.9
-4 0 11 3.6 3.1
4 0 -11 -0.2 1.9
4 0 -11 -1.2 1.7
4 0 -11 -3 2.1
-4 0 11 -4 2
-4 0 11 0.5 1.9
-3 0 11 0.9 2
-3 0 11 1.9 1.5
-3 0 11 2.2 2.1
3 0 -11 -2.9 1.6
3 0 -11 1.5 1.6
3 0 -11 -1.1 2.3
3 0 -11 -0.3 1.6
-3 0 11 1.1 1.5
2 0 -11 -0.6 1.5
2 0 -11 0.8 1.6
2 0 -11 -2.8 1.8
2 0 -11 0 1.5
-2 0 11 0 2
-2 0 11 3.9 1.8
-2 0 11 -1.5 1.2
-2 0 11 0.5 1.4
2 0 -11 3.5 1.7
-1 0 11 0.9 1.2
1 0 -11 1.2 2
1 0 -11 0 1.6
1 0 -11 1.9 1.9
1 0 -11 0.7 1.6
-1 0 11 -0.9 1.5
1 0 -11 1.5 1.6
1 0 -11 0.4 1.4
-1 0 11 -0.6 1.2
-1 0 11 0 1.3
0 0 11 7.4 2.3
0 0 11 2.4 1.4
0 0 11 -0.7 1.3
0 0 -11 0.9 1.3
0 0 -11 2.6 1.5
0 0 -11 0.3 1.5
0 0 11 1.6 1.4
0 0 -11 0.8 1.4
0 0 -11 2.5 1.9
1 0 11 1.1 1.3
-1 0 -11 1.9 1.6
-1 0 -11 -0.3 1.5
1 0 11 0.8 1.2
-1 0 -11 2.8 1.4
-1 0 -11 -2.2 1.3
1 0 11 2 2.1
1 0 11 1.5 1.5
2 0 11 -0.4 1.3
-2 0 -11 1.3 1.4
2 0 11 -1.9 1.4
2 0 11 -2.5 1.4
-2 0 -11 0.3 1.7
-2 0 -11 0.7 2.1
2 0 11 -1.3 1.8
-2 0 -11 -0.1 1.5
3 0 11 -1.7 1.7
3 0 11 0.1 2.1
3 0 11 -1.3 2.4
3 0 11 -1.1 1.5
3 0 11 -2 1.9
-3 0 -11 0.7 2
-3 0 -11 0.3 1.4
-3 0 -11 2.2 4
-3 0 -11 -0.1 1.9
4 0 11 0.2 2.1
-4 0 -11 2.4 2.6
-4 0 -11 0.4 1.6
4 0 11 -0.9 2.9
4 0 11 -1.4 2.7
-4 0 -11 0.4 2.1
-4 0 -11 -3 2.6
4 0 11 -0.6 2.7
5 0 11 4.9 3.3
-5 0 -11 0.5 2.6
-5 0 -11 4.6 3.4
5 0 11 -5.1 3.2
5 0 11 3.5 4.2
-5 0 -11 -2.2 3
-5 0 -11 3 2.1
6 0 11 -2 4.3
-6 0 -11 -1.5 4
-6 0 -11 3.6 3.5
-6 0 -11 2 2.4
6 0 11 -3.3 4.2
6 0 11 -0.1 3.7
-6 0 -11 3.1 3
7 0 11 4.2 4.6
-7 0 -11 -2.9 4.1
7 0 11 -5 5.2
-7 0 -11 -1.8 2.4
-7 0 -11 -2.1 5.7
7 0 11 -2.2 5.2
8 0 11 -3.9 6.5
8 0 11 -1.5 5.4
-8 0 -11 0.7 2.9
-8 0 -11 -0.1 4.5
-8 0 -11 2 3.7
-8 0 -11 7.5 7.8
-9 0 -11 2.7 10.1
-9 0 -11 -3.5 4.6
-9 0 -11 2 6.6
9 0 11 -10.6 7.2
-9 0 -11 0.3 3.5
-9 0 -11 8.7 6.9
9 0 11 3.2 6.8
-10 0 -11 0.5 8.4
-10 0 -11 6.3 9.2
-10 0 -11 3.1 5.9
10 0 11 15.6 9.6
-10 0 -11 -0.8 4.4
-11 0 -11 -1.1 11.9
11 0 11 30.5 12.7
-11 0 -11 1.1 10.4
-11 0 -11 7.5 7.3
-13 -1 11 27.3 13.2
13 -1 -11 -15 10.1
-13 -1 11 3.8 7.6
-13 1 11 16.1 6
13 1 -11 21.4 10.3
-13 1 11 51.19 15.9
-12 -1 11 258.47 23.5
-12 -1 11 247.28 16
-12 -1 11 284.07 24.1
12 -1 -11 251.57 18.4
12 -1 -11 299.57 15.4
-12 1 11 318.27 25
-12 1 11 240.98 24.1
12 1 -11 265.27 17.1
12 1 -11 242.18 18.4
-12 1 11 267.77 11.7
-12 1 11 255.77 13.5
-11 -1 11 46 11.4
-11 -1 11 39.8 7.9
11 -1 -11 54.19 9.6
-11 -1 11 46.4 12.3
-11 -1 11 60.99 10
-11 -1 11 38.8 13.8
11 -1 -11 59.29 7.9
-11 1 11 52.69 6.6
11 1 -11 57.89 9.7
11 1 -11 71.09 9
11 1 -11 51.59 10.4
-11 1 11 45.5 9.8
-11 1 11 46.8 5.9
-11 1 11 80.89 13.3
-10 -1 11 504.75 21.5
10 -1 -11 503.05 20.1
10 -1 -11 490.05 17.1
10 -1 -11 508.05 22.3
-10 -1 11 481.15 24.2
-10 -1 11 470.45 18.3
-10 -1 11 476.55 25.2
-10 -1 11 477.05 18.9
10 1 -11 495.25 20
-10 1 11 491.95 21.6
-10 1 11 494.75 15.3
10 1 -11 504.35 17.8
-10 1 11 488.15 13.7
-10 1 11 472.75 27.8
-10 1 11 491.35 24.3
10 1 -11 491.95 20.7
9 -1 -11 19.5 7
-9 -1 11 11.4 5.7
-9 -1 11 17.4 8.8
9 -1 -11 16.5 6
9 -1 -11 26.3 5.3
-9 -1 11 19.7 5.3
-9 -1 11 24.7 8.5
-9 -1 11 21.2 7
-9 1 11 22.6 3.3
-9 1 11 22.1 7.1
9 1 -11 18.5 5.4
9 1 -11 23.1 5
9 1 -11 23.7 6.7
-9 1 11 22.7 4.4
-9 1 11 10.8 9.9
8 -1 -11 69.39 8.4
-8 -1 11 52.89 9.3
8 -1 -11 59.79 9.3
-8 -1 11 60.39 7.9
-8 -1 11 59.19 6.8
-8 -1 11 73.19 9.2
-8 -1 11 60.29 8.2
8 -1 -11 56.99 6.7
-8 1 11 76.19 9.1
-8 1 11 48.5 9.8
8 1 -11 61.99 7.7
8 1 -11 62.39 6.5
8 1 -11 51.99 8
-8 1 11 41.7 8.2
-8 1 11 51.69 6.6
-8 1 11 56.99 4
-7 -1 11 732.83 22.2
7 -1 -11 734.73 19.3
-7 -1 11 741.33 20.5
-7 -1 11 740.03 23.6
7 -1 -11 717.33 22.4
-7 -1 11 743.13 22
-7 -1 11 696.43 20.2
7 -1 -11 751.22 23.2
-7 1 11 692.63 15.5
-7 1 11 710.13 21.7
7 1 -11 720.83 18.5
7 1 -11 713.23 21.9
-7 1 11 740.63 18
-7 1 11 689.43 25.1
7 1 -11 692.63 21.2
-7 1 11 731.93 25.9
6 -1 -11 397.56 15.9
6 -1 -11 412.86 15
6 -1 -11 415.66 12.9
-6 -1 11 411.06 14.8
-6 -1 11 401.06 15.2
-6 -1 11 400.96 13.8
6 -1 -11 421.26 15.4
-6 -1 11 406.66 13.7
-6 -1 11 415.76 14.6
-6 1 11 416.66 14.9
6 1 -11 390.96 14.4
-6 1 11 391.96 9.2
6 1 -11 401.66 14.4
-6 1 11 396.96 17.8
-6 1 11 417.86 11.8
6 1 -11 397.86 11.8
6 1 -11 413.76 14.9
-6 1 11 377.56 17.8
5 -1 -11 16.8 5.1
-5 -1 11 27.8 4.7
-5 -1 11 21.6 4
5 -1 -11 27.6 3.8
5 -1 -11 16.8 3.5
-5 -1 11 27.9 4.7
5 -1 -11 34.8 5.6
-5 -1 11 27.4 5
5 1 -11 29.6 4.7
-5 1 11 20.7 5.6
-5 1 11 27.8 7.2
5 1 -11 24.7 3
-5 1 11 28.2 4.9
5 1 -11 23.2 4.1
-5 1 11 30.4 3.6
-5 1 11 17.7 2.5
-5 1 11 24.5 2.4
4 -1 -11 3823.82 72.69
4 -1 -11 3743.83 75.49
-4 -1 11 3730.73 73.09
-4 -1 11 3688.73 72.49
-4 -1 11 3738.43 71.59
-4 -1 11 3789.72 71.09
4 -1 -11 3768.32 72.29
4 -1 -11 3656.43 69.89
-4 -1 11 3768.92 70.09
4 1 -11 3742.73 73.09
4 1 -11 3686.13 72.19
4 1 -11 3687.23 67.69
-4 1 11 3664.73 75.59
4 1 -11 3637.44 71.99
-4 1 11 3580.74 68.89
-4 1 11 3770.52 71.89
-3 -1 11 1232.38 27
-3 -1 11 1240.28 25.1
3 -1 -11 1264.77 26.6
3 -1 -11 1229.58 27.6
-3 -1 11 1237.68 28.5
-3 -1 11 1237.98 28.9
3 -1 -11 1256.07 30.9
-3 -1 11 1227.78 27.7
-3 1 11 1213.78 25.9
3 1 -11 1241.08 23.7
3 1 -11 1267.37 28.4
-3 1 11 1256.67 27.9
3 1 -11 1240.18 28
3 1 -11 1264.17 29.4
-3 1 11 1232.88 30.9
-2 -1 11 2966.5 57.09
-2 -1 11 2933.41 57.89
-2 -1 11 2986.8 56.19
2 -1 -11 2922.81 56.09
-2 -1 11 2927.11 58.09
2 -1 -11 2955.8 55.69
2 -1 -11 2949.41 60.39
2 -1 -11 2956 57.59
2 1 -11 2957.1 58.99
-2 1 11 3008.2 55.39
-2 1 11 2930.31 59.19
2 1 -11 2961.1 51.89
2 1 -11 2987.1 57.59
2 1 -11 2944.31 57.19
-2 1 11 2700.23 52.99
-2 1 11 2968.2 56.89
2 1 -11 2879.51 59.09
1 -1 -11 471.05 12.4
-1 -1 11 468.25 13.4
-1 -1 11 468.05 12.3
1 -1 -11 482.65 13.6
-1 -1 11 470.55 14
1 -1 -11 477.15 12
1 -1 -11 477.95 10.9
-1 -1 11 469.35 13.9
1 1 -11 484.25 13.8
-1 1 11 479.45 14.6
-1 1 11 471.65 10.7
1 1 -11 475.95 13.2
1 1 -11 475.65 15
-1 1 11 472.85 13.2
0 -1 -11 1279.47 28.6
0 -1 -11 1255.37 25.3
0 -1 -11 1254.77 26.5
0 -1 11 1251.47 28.5
0 -1 11 1273.07 28.2
0 -1 -11 1264.07 27.9
0 -1 11 1277.47 26.1
0 -1 -11 1276.17 25.3
0 -1 11 1302.07 28.2
0 1 11 1285.27 25.7
0 1 11 1276.67 26.8
0 1 -11 1260.97 27.1
0 1 11 1267.57 27.2
0 1 11 1241.08 27.6
0 1 -11 1279.37 29.8
0 1 -11 1245.28 28
0 1 -11 1368.36 24.4
1 -1 11 628.94 17.2
-1 -1 -11 644.44 13.3
1 -1 11 621.54 14.3
-1 -1 -11 626.54 16.5
-1 -1 -11 637.34 16.9
-1 -1 -11 630.84 15.4
1 -1 11 651.23 17.2
1 -1 11 639.54 13.6
-1 -1 -11 630.24 14.6
1 -1 11 628.24 16.4
-1 1 -11 629.54 16.8
-1 1 -11 609.04 15.2
1 1 11 625.44 16.6
1 1 11 657.13 15.6
1 1 11 611.54 14.1
-1 1 -11 616.64 17.9
-1 1 -11 629.34 13.4
1 1 11 632.84 15.8
-2 -1 -11 2048.79 41.7
2 -1 11 1981.6 40.9
2 -1 11 1984.3 42.4
-2 -1 -11 2013.5 41.5
-2 -1 -11 1992 39.4
2 -1 11 2026.4 38.4
2 -1 11 1982.6 38.5
-2 -1 -11 2009 39.9
2 1 11 2060.89 40.9
-2 1 -11 2004.7 38.8
2 1 11 2032.4 40.9
-2 1 -11 2018.5 43.3
-2 1 -11 2032.3 42
-2 1 -11 1997.3 39.2
-3 -1 -11 176.38 8.5
3 -1 11 164.98 7.7
3 -1 11 168.68 6.6
-3 -1 -11 162.58 6.9
3 -1 11 147.19 9.9
-3 -1 -11 169.58 7
3 -1 11 164.48 6
3 1 11 159.28 8.9
-3 1 -11 159.28 8.4
-3 1 -11 171.38 9
-3 1 -11 161.68 6.4
-3 1 -11 175.28 7.5
3 1 11 188.88 9.3
-4 -1 -11 524.45 15.8
4 -1 11 529.75 12.8
-4 -1 -11 530.15 16.2
4 -1 11 502.05 18.2
-4 -1 -11 514.85 14.2
-4 -1 -11 505.25 14.4
4 -1 11 493.35 14.8
4 -1 11 500.15 14
-4 1 -11 523.85 16.5
-4 1 -11 513.65 12.8
-4 1 -11 528.35 15.3
-4 1 -11 519.35 16.8
4 1 11 503.25 16.9
4 1 11 523.15 17
5 -1 11 47.2 5.8
5 -1 11 44 5
5 -1 11 38.3 7
-5 -1 -11 40.7 4.8
-5 -1 -11 62.69 7.1
-5 -1 -11 34 4.9
-5 -1 -11 53.69 6.5
-5 1 -11 42.1 4
5 1 11 43.3 6.4
-5 1 -11 35.8 5.8
5 1 11 46.4 6.9
-5 1 -11 38.9 5.6
-5 1 -11 51.99 6.7
-6 -1 -11 44.3 5.2
-6 -1 -11 35.7 6.6
6 -1 11 43.3 5.9
6 -1 11 47.8 6.5
6 -1 11 38.4 8.3
-6 -1 -11 47.9 6.6
-6 -1 -11 45.6 5.7
6 1 11 50.69 8.1
-6 1 -11 41.4 6.5
-6 1 -11 54.59 7.7
6 1 11 33.7 6.3
-6 1 -11 37.3 5.7
-6 1 -11 38.2 4
7 -1 11 71.69 9.9
-7 -1 -11 65.09 6.6
-7 -1 -11 64.59 8.8
-7 -1 -11 50.99 6.7
-7 -1 -11 69.39 7.7
7 -1 11 71.19 7.8
7 -1 11 77.89 11.3
-7 1 -11 63.49 4.9
-7 1 -11 66.59 8.6
7 1 11 66.79 9.5
-7 1 -11 71.49 8.9
-7 1 -11 60.79 9.8
8 -1 11 380.96 19.1
-8 -1 -11 348.57 13.2
-8 -1 -11 337.97 17.5
-8 -1 -11 325.87 18.1
-8 -1 -11 345.07 14.3
8 -1 11 332.07 18.8
8 -1 11 333.97 17.6
-8 1 -11 370.76 21
8 1 11 309.77 18.4
8 1 11 345.47 17.7
-8 1 -11 319.27 16.9
-8 1 -11 338.27 12.5
-8 1 -11 319.67 15.9
-8 1 -11 352.06 10.4
-9 -1 -11 569.14 17.9
9 -1 11 556.34 21
-9 -1 -11 543.65 23.2
-9 -1 -11 579.54 20.1
9 -1 11 542.75 26.2
-9 -1 -11 546.55 23.3
-9 1 -11 542.15 14.2
-9 1 -11 580.34 24.7
-9 1 -11 526.25 16.7
9 1 11 561.64 23.7
-9 1 -11 545.35 21.8
-9 1 -11 467.55 28.1
-10 -1 -11 258.57 20.1
-10 -1 -11 280.97 13.9
10 -1 11 274.67 18.4
-10 -1 -11 301.67 16
-10 1 -11 263.37 10.1
-10 1 -11 298.27 18.1
10 1 11 310.57 21.2
-10 1 -11 294.87 20.3
-11 -1 -11 92.69 9.8
11 -1 11 76.39 14
-11 -1 -11 53.59 9.8
11 1 11 89.59 16
-11 1 -11 52.79 11.3
-11 1 -11 69.59 11.7
-12 -2 11 340.07 21
-12 -2 11 376.46 28.2
12 -2 -11 376.56 23.6
12 -2 -11 359.16 15.8
12 2 -11 388.06 21.7
-12 2 11 394.46 29.3
-12 2 11 375.96 15.3
-11 -2 11 602.24 24
-11 -2 11 581.64 31.4
-11 -2 11 567.34 29.2
11 -2 -11 570.84 25.6
11 -2 -11 604.54 18.9
-11 2 11 609.14 17.4
11 2 -11 613.04 22.7
-11 2 11 604.74 16.6
-11 2 11 582.04 31
10 -2 -11 153.88 9.9
-10 -2 11 122.99 18.8
-10 -2 11 166.88 17.2
-10 -2 11 152.88 13
-10 -2 11 157.08 17.8
10 -2 -11 134.79 15.5
-10 2 11 144.69 16
10 2 -11 143.59 14.6
-10 2 11 140.59 8.3
-10 2 11 155.78 8.1
10 2 -11 138.39 16.1
-10 2 11 160.98 17.9
10 2 -11 140.89 12.3
9 -2 -11 192.88 15.8
-9 -2 11 227.08 15.1
-9 -2 11 184.38 15
9 -2 -11 172.48 18.9
-9 -2 11 203.98 15.7
9 -2 -11 208.18 10.3
-9 -2 11 202.98 13.1
-9 -2 11 181.28 13.9
9 2 -11 212.98 11.7
-9 2 11 209.28 14.9
-9 2 11 207.28 8
-9 2 11 222.58 17.9
9 2 -11 210.08 14.4
-9 2 11 194.88 24.2
9 2 -11 205.18 15.5
8 -2 -11 40.1 11.2
8 -2 -11 56.29 10.7
-8 -2 11 65.59 8.6
-8 -2 11 47.2 8
-8 -2 11 54.19 7.8
-8 -2 11 50.59 7.7
8 -2 -11 57.09 6.5
-8 -2 11 51.79 7.5
-8 2 11 43.3 4
-8 2 11 42.3 10.5
-8 2 11 63.19 9.3
8 2 -11 41.8 7.9
8 2 -11 63.49 10.3
8 2 -11 60.29 7.3
-8 2 11 53.79 5.5
-8 2 11 59.59 13
7 -2 -11 -0.3 3.1
-7 -2 11 1.3 4.3
-7 -2 11 0.7 3.7
7 -2 -11 -12.5 5.7
-7 -2 11 -5.7 4.2
-7 -2 11 0 4
7 -2 -11 2.2 8
-7 -2 11 -2.2 4.2
7 2 -11 -4.1 4.1
7 2 -11 -0.3 2.9
-7 2 11 9.1 8.9
7 2 -11 -4.5 4.7
-7 2 11 -1.1 5
-7 2 11 -1.4 2.6
-7 2 11 -1.8 4.1
-6 -2 11 150.08 9.6
6 -2 -11 144.59 12.9
6 -2 -11 148.69 7.6
-6 -2 11 150.58 10.1
6 -2 -11 149.09 14.8
6 -2 -11 122.89 9.6
-6 -2 11 160.48 10.1
-6 -2 11 156.28 9.7
-6 -2 11 143.69 8.7
-6 -2 11 142.39 11.2
-6 2 11 131.09 12.4
6 2 -11 133.19 9.9
6 2 -11 138.39 6.9
-6 2 11 141.49 14.7
6 2 -11 160.78 11.2
-6 2 11 142.39 7
-5 -2 11 78.49 6.1
-5 -2 11 81.49 7.5
5 -2 -11 78.59 10.2
-5 -2 11 74.29 6.9
5 -2 -11 79.99 7.4
-5 -2 11 82.29 7.7
5 -2 -11 75.79 5.6
5 -2 -11 87.09 12.5
-5 -2 11 74.69 9
-5 2 11 78.99 9.6
5 2 -11 74.79 4.8
-5 2 11 83.69 5.5
-5 2 11 75.19 6.6
5 2 -11 84.69 6.9
5 2 -11 84.59 8.7
5 2 -11 71.09 7.6
4 -2 -11 125.79 8
-4 -2 11 114.69 5.7
4 -2 -11 104.09 10.9
-4 -2 11 120.19 7.8
4 -2 -11 136.89 12.3
-4 -2 11 125.79 8.1
-4 -2 11 124.19 9.7
-4 -2 11 116.49 7.4
4 -2 -11 122.09 6.2
-4 2 11 131.29 6.4
-4 2 11 122.49 7.3
-4 2 11 101.29 9.5
4 2 -11 119.99 7.4
4 2 -11 106.49 9.3
4 2 -11 110.69 4.8
4 2 -11 113.69 8.3
3 -2 -11 401.46 17.5
3 -2 -11 399.86 13.5
3 -2 -11 402.96 16.5
-3 -2 11 421.26 14.7
3 -2 -11 420.96 11.9
-3 -2 11 415.66 15.8
-3 -2 11 424.26 12.9
-3 2 11 401.06 16
3 2 -11 399.16 14.1
-3 2 11 428.06 12.2
3 2 -11 410.46 13
-2 -2 11 27.5 4
-2 -2 11 29.9 3.8
-2 -2 11 27.9 4.7
2 -2 -11 28 6.2
2 -2 -11 29.3 4.4
2 -2 -11 30.6 3.6
-2 -2 11 25.1 4.7
2 -2 -11 41.8 6.6
-2 2 11 34.2 4.2
-2 2 11 31.5 5.5
2 2 -11 30.6 4.2
-2 2 11 22.2 3.2
2 2 -11 29.9 3.9
-1 -2 11 509.75 16.7
1 -2 -11 493.05 10.4
1 -2 -11 511.05 18.4
-1 -2 11 460.85 16.2
1 -2 -11 542.05 15.6
-1 -2 11 496.15 13.7
1 -2 -11 503.45 13.5
-1 -2 11 492.45 16.5
1 2 -11 487.25 14.7
-1 2 11 519.45 13.7
-1 2 11 494.15 15.5
1 2 -11 483.05 14.1
-1 2 11 491.05 14.3
1 2 -11 492.05 17.8
0 -2 -11 12.2 2.7
0 -2 -11 3.5 2.4
0 -2 11 4.5 2.8
0 -2 -11 5.4 3.6
0 -2 11 2 2.2
0 -2 11 9.8 3.6
0 -2 11 2.9 2.7
0 -2 -11 4.9 2
0 -2 -11 2.9 1.5
0 2 11 5.3 2.7
0 2 11 5.6 2.4
0 2 -11 3.8 3.4
0 2 -11 2.7 2.4
0 2 11 5 2.6
0 2 11 5.5 2
0 2 -11 3.1 2.4
-1 -2 -11 280.37 7.1
1 -2 11 281.27 11.6
-1 -2 -11 284.67 12.2
-1 -2 -11 293.37 9.8
-1 -2 -11 290.07 10.3
1 -2 11 278.17 8.5
-1 -2 -11 277.97 8.2
1 -2 11 271.77 12.5
-1 2 -11 289.97 13.2
-1 2 -11 278.57 10.3
1 2 11 282.57 9.7
-1 2 -11 282.07 9.7
-2 -2 -11 84.69 5.2
-2 -2 -11 104.29 8.4
2 -2 11 99.39 10.6
-2 -2 -11 92.49 6
2 -2 11 85.99 8.3
2 -2 11 94.29 4
2 -2 11 96.69 4.7
2 -2 11 101.89 7.4
-2 2 -11 97.39 6.2
2 2 11 103.39 6.7
-2 2 -11 101.09 6.7
-2 2 -11 97.19 8.7
-2 2 -11 100.29 5.7
3 -2 11 83.39 4.7
-3 -2 -11 83.59 6.6
-3 -2 -11 96.59 8.5
-3 -2 -11 88.69 6.2
-3 -2 -11 78.39 5.6
3 -2 11 83.49 11.3
3 -2 11 92.79 4.3
3 -2 11 81.49 6.8
-3 2 -11 95.19 8.6
3 2 11 81.79 7.1
-3 2 -11 80.39 5.1
-3 2 -11 90.99 7.1
-3 2 -11 97.29 8.1
-4 -2 -11 99.59 6.7
4 -2 11 89.69 4.3
4 -2 11 91.79 5.7
4 -2 11 83.19 12.5
-4 -2 -11 78.39 9
-4 -2 -11 83.19 6.1
4 -2 11 94.69 7.8
-4 -2 -11 85.89 7.1
-4 2 -11 87.39 4.9
-4 2 -11 79.59 8.7
4 2 11 88.19 8.2
-4 2 -11 79.69 9.3
-4 2 -11 85.29 7.4
-5 -2 -11 90.29 10
5 -2 11 86.49 6.4
-5 -2 -11 82.89 6.6
-5 -2 -11 97.09 8.2
5 -2 11 89.49 7.9
5 -2 11 81.59 12.9
-5 -2 -11 82.69 7.2
5 2 11 87.29 10.6
-5 2 -11 93.29 8.4
-5 2 -11 84.59 4.6
5 2 11 82.39 9.2
-5 2 -11 101.09 10.7
-5 2 -11 80.39 9.1
6 -2 11 8.9 7.8
-6 -2 -11 3.4 3.7
-6 -2 -11 12 6.9
-6 -2 -11 3.2 4.3
6 -2 11 -4.6 3.4
6 -2 11 8.3 4.2
-6 -2 -11 7.6 3.5
-6 2 -11 5.7 5.3
-6 2 -11 -4.9 8
-6 2 -11 -2.1 4.5
6 2 11 11.9 6.4
6 2 11 0.3 5.6
7 -2 11 172.38 17.7
-7 -2 -11 176.98 10.3
-7 -2 -11 178.38 12.6
-7 -2 -11 181.48 15
7 -2 11 179.88 10.8
7 -2 11 198.68 12.4
-7 -2 -11 173.18 10.4
7 2 11 160.88 14.5
-7 2 -11 199.68 19.5
7 2 11 179.08 15.2
-7 2 -11 194.48 14.3
-7 2 -11 181.58 12.8
-8 -2 -11 10.8 5.3
-8 -2 -11 11.6 7.6
-8 -2 -11 7.9 4.5
-8 2 -11 12.6 6.4
8 2 11 2.2 8.2
-8 2 -11 3.8 6.6
-8 2 -11 12.9 13.2
-9 -2 -11 53.79 8.3
9 -2 11 66.49 9.6
-9 -2 -11 51.69 7.2
-9 2 -11 66.59 11
-9 2 -11 29.6 19.1
-9 2 -11 41.1 10.2
9 2 11 50.39 11.3
-10 -2 -11 50.79 8.2
10 -2 11 37.7 11
-10 -2 -11 42.9 8.2
10 2 11 58.79 13.6
-10 2 -11 33.4 11.3
-10 2 -11 19.7 9.3
11 -3 -11 20.3 14.6
-11 -3 11 13.3 10
-11 -3 11 5.2 15.1
-11 3 11 54.49 17.9
11 3 -11 54.09 12.6
10 -3 -11 138.89 10.2
-10 -3 11 133.19 18.8
-10 -3 11 164.78 15.8
10 -3 -11 179.48 21.3
-10 -3 11 180.38 21.3
-10 3 11 158.58 23.2
10 3 -11 184.38 16.8
9 -3 -11 5.8 5.1
-9 -3 11 10.2 9.3
-9 -3 11 7.5 6.9
-9 -3 11 12.8 8.6
9 -3 -11 14.5 10.6
-9 3 11 -8.2 7.9
-9 3 11 18 11.5
9 3 -11 7.5 7.4
-9 3 11 9.4 4.6
8 -3 -11 -11.8 8.9
-8 -3 11 -3.3 6.3
-8 -3 11 -9.3 5
-8 -3 11 4.4 7
8 -3 -11 1.9 4.2
-8 3 11 0.5 4
8 3 -11 -1.3 5.5
-8 3 11 -13.8 8.3
-8 3 11 1.1 6.5
8 3 -11 10.6 10.6
8 3 -11 2.4 7
-7 -3 11 73.89 8.4
7 -3 -11 73.09 12.6
-7 -3 11 59.79 11.7
-7 -3 11 75.09 10.7
-7 -3 11 80.49 8.3
-7 -3 11 85.09 10.6
7 -3 -11 74.99 15.2
7 -3 -11 84.69 7.5
-7 -3 11 62.19 9.1
-7 3 11 91.69 9.8
7 3 -11 68.49 9.3
-7 3 11 80.09 13.1
7 3 -11 78.89 8.8
-7 3 11 73.99 7.1
-6 -3 11 322.87 19.7
6 -3 -11 298.17 11
-6 -3 11 280.87 19.2
-6 -3 11 289.27 11.9
-6 -3 11 310.47 13.4
-6 -3 11 327.47 16.6
6 -3 -11 294.97 20.4
6 -3 -11 302.07 21.4
-6 -3 11 297.77 15.8
-6 3 11 270.77 22
-6 3 11 318.57 12.9
6 3 -11 302.87 16
-5 -3 11 23.6 4.3
-5 -3 11 17.8 4.8
-5 -3 11 17.9 7.5
-5 -3 11 21.6 5.6
5 -3 -11 6.5 9.4
5 -3 -11 23.6 4
-5 -3 11 15.1 5.9
5 3 -11 14.7 5.5
-5 3 11 23.9 8
-5 3 11 19 4.1
-5 3 11 28.6 4.8
4 -3 -11 2787.52 57.49
4 -3 -11 2797.22 55.09
-4 -3 11 2785.02 55.89
4 -3 -11 2903.11 64.59
-4 -3 11 2818.32 63.89
-4 -3 11 2818.32 52.49
-4 -3 11 2850.11 61.39
4 -3 -11 2733.73 66.69
-4 -3 11 2867.41 59.29
-4 3 11 2857.41 55.99
4 3 -11 2914.61 60.99
-4 3 11 2818.22 55.39
-4 3 11 2798.12 65.49
4 3 -11 2756.72 55.39
-3 -3 11 309.27 16.4
-3 -3 11 320.27 11.6
-3 -3 11 310.07 13.4
3 -3 -11 321.07 11
3 -3 -11 305.77 17.3
3 -3 -11 334.97 19.1
3 -3 -11 324.97 12.8
-3 -3 11 327.37 14.9
3 3 -11 315.97 14.1
-3 3 11 315.27 10.6
-3 3 11 324.97 16.7
3 3 -11 317.47 11.1
-2 -3 11 1023.1 25.6
-2 -3 11 1002 29.7
-2 -3 11 1011.9 24.1
2 -3 -11 1043.9 33.3
2 -3 -11 1035.7 24.9
-2 -3 11 1003.3 28.9
2 -3 -11 1058.99 24.2
2 -3 -11 1060.19 29.5
-2 3 11 1058.49 22.8
-2 3 11 993 29.4
2 3 -11 1018.2 23.7
2 3 -11 1037 27
1 -3 -11 61.59 10.1
1 -3 -11 76.69 5.4
-1 -3 11 69.69 8.4
-1 -3 11 76.79 6.8
1 -3 -11 80.69 10.4
1 -3 -11 82.89 6.1
-1 -3 11 69.09 7.2
1 -3 -11 74.19 3.9
-1 -3 11 77.59 10.2
1 -3 -11 82.99 10.2
1 -3 -11 63.89 6.7
1 3 -11 72.99 6.1
1 3 -11 69.59 7.4
0 -3 11 6.5 5.2
0 -3 -11 4.4 2.8
0 -3 11 5.6 4.3
0 -3 -11 3.5 2.3
0 -3 -11 3.7 3.4
0 -3 -11 0.1 5.5
0 -3 11 4.2 3.3
0 -3 -11 -0.1 5.1
0 3 -11 2.1 2.8
0 3 -11 4.7 3.4
-1 -3 -11 84.39 5.8
1 -3 11 105.29 14.2
1 -3 11 80.29 9.9
1 -3 11 81.89 6.1
-1 -3 -11 92.89 10.6
1 -3 11 104.09 9.5
-1 -3 -11 80.19 7
-1 -3 -11 89.29 6.9
-1 -3 -11 82.69 8.2
-1 3 -11 97.89 10.7
-1 3 -11 84.89 6.6
-1 3 -11 72.49 6.5
-2 -3 -11 15.1 3.9
2 -3 11 19.3 2.6
2 -3 11 16.1 5.6
2 -3 11 13.8 8.7
-2 -3 -11 19.7 6.4
2 -3 11 17.8 6.2
2 -3 11 18.8 3.2
-2 -3 -11 15.9 3.1
-2 -3 -11 16.6 2.3
-2 -3 -11 17.8 3.9
-2 -3 -11 16.3 4
-2 3 -11 17.5 4
-2 3 -11 20.5 7.1
-2 3 -11 14.7 3.5
-3 -3 -11 27.1 4.6
3 -3 11 24 3.4
3 -3 11 31.7 10.8
-3 -3 -11 25 5
3 -3 11 27.7 3.6
-3 -3 -11 18.2 4.6
-3 -3 -11 15 6.8
3 -3 11 20.8 5.3
-3 3 -11 23.9 3.6
-3 3 -11 17.7 10.6
-3 3 -11 17.4 4.4
4 -3 11 163.98 10.9
-4 -3 -11 151.18 9.7
-4 -3 -11 154.58 13.1
4 -3 11 145.29 7.5
-4 -3 -11 151.58 9
-4 -3 -11 141.69 9.6
4 -3 11 154.58 18.9
-4 3 -11 122.09 13.2
-4 3 -11 160.28 9.8
-4 3 -11 158.38 12.5
-5 -3 -11 14.7 5.5
5 -3 11 17.9 6
-5 -3 -11 8 4.3
5 -3 11 13.4 4.3
-5 -3 -11 25.2 5
5 -3 11 17.6 10.9
-5 -3 -11 19.8 7.6
-5 3 -11 10.1 9.2
-5 3 -11 20 7.6
-5 3 -11 23.6 5.6
-6 -3 -11 45.2 6.7
-6 -3 -11 68.79 8.4
6 -3 11 38.3 6.3
-6 -3 -11 41.1 7.6
-6 3 -11 48.9 8
-6 3 -11 33.2 9.5
-6 3 -11 49.8 13
7 -3 11 -0.7 6.2
-7 -3 -11 14.9 5.3
-7 -3 -11 14.7 7.5
-7 -3 -11 -3.1 5.4
-7 3 -11 15.1 8.8
-7 3 -11 -0.5 14.6
-7 3 -11 10 6.8
8 -3 11 -5.4 7.8
-8 -3 -11 0.8 6.1
-8 -3 -11 22.1 6.3
-8 3 -11 22.8 19.5
-8 3 -11 5.6 7.7
-8 3 -11 14.4 10.4
9 -3 11 30.7 9.8
-9 -3 -11 37.4 7.9
-9 -3 -11 9 8.4
-9 3 -11 39.8 13.9
-9 3 -11 35.8 10.8
-9 -4 11 174.28 21
-9 -4 11 163.78 20.2
9 -4 -11 143.29 21.6
-9 4 11 185.88 25.1
-8 -4 11 -4.2 8.3
-8 -4 11 -6.7 8.7
8 -4 -11 -13.7 15.2
-8 4 11 -8.8 7.4
-8 4 11 -8.4 14.4
-7 -4 11 361.36 21.2
7 -4 -11 411.06 30.2
7 -4 -11 360.36 13.9
-7 -4 11 351.66 20
-7 4 11 347.57 15.5
-7 4 11 372.56 28.8
6 -4 -11 -8.4 13.2
-6 -4 11 3.8 7.6
-6 -4 11 4.5 7.6
6 -4 -11 8.3 5.1
-6 -4 11 7 6.6
-6 4 11 23.5 12
-6 4 11 11.9 5.2
5 -4 -11 242.78 11.1
5 -4 -11 189.88 22.8
-5 -4 11 231.68 11.1
-5 -4 11 226.18 16.2
5 -4 -11 182.28 24.1
-5 4 11 257.17 22.5
-5 4 11 245.68 9.9
4 -4 -11 97.59 17.1
4 -4 -11 109.09 8.7
-4 -4 11 110.49 12
-4 -4 11 109.79 7.5
-4 -4 11 106.29 10.1
-4 -4 11 134.39 13.1
4 -4 -11 125.99 17
-4 4 11 110.99 6.1
-3 -4 11 21.3 4.7
3 -4 -11 10 10.2
3 -4 -11 12.9 4.6
-3 -4 11 16.5 3.4
-3 -4 11 5.1 7.5
3 -4 -11 21.9 11.7
-3 -4 11 15.9 7.8
2 -4 -11 -0.2 13.9
2 -4 -11 4.6 4.2
-2 -4 11 1.2 6.2
2 -4 -11 1.4 2.4
2 -4 -11 0.9 2.8
-2 -4 11 4.2 6.6
2 -4 -11 4.1 9.5
2 -4 -11 2.9 12.2
1 -4 -11 255.37 9.4
-1 -4 11 294.37 21.3
1 -4 -11 310.57 25.3
-1 -4 11 256.87 17.1
1 -4 -11 278.77 12
1 -4 -11 269.67 18.2
1 -4 -11 273.87 22.8
1 -4 -11 260.57 10.9
-1 -4 11 274.47 14
1 -4 -11 264.67 11.2
0 -4 -11 153.28 8.6
0 -4 -11 188.68 10.7
0 -4 -11 140.19 17.2
0 -4 -11 200.68 20.3
0 -4 11 193.88 18.6
0 -4 11 178.68 15.3
0 -4 11 177.58 11.1
0 -4 -11 177.88 9.7
0 -4 -11 181.58 11.3
0 4 -11 170.68 7.4
-1 -4 -11 1780.82 41.5
1 -4 11 1827.42 48.6
-1 -4 -11 1779.12 39.2
-1 -4 -11 1767.92 38
-1 -4 -11 1783.32 40.1
1 -4 11 1751.72 33.7
-1 -4 -11 1818.02 42.2
1 -4 11 1681.43 33.4
-1 -4 -11 1796.02 37
-1 4 -11 1829.32 36.4
2 -4 11 43.6 9.4
-2 -4 -11 41.5 8
2 -4 11 51.69 5.6
-2 -4 -11 57.89 7.2
-2 -4 -11 57.99 8.2
-2 -4 -11 66.79 7
2 -4 11 63.99 5.9
2 -4 11 69.59 6.7
-2 -4 -11 54.79 6.6
-2 4 -11 64.19 7.6
-3 -4 -11 997.6 24.8
-3 -4 -11 1004.9 26.4
3 -4 11 984.3 20.3
3 -4 11 1055.49 36.3
-3 -4 -11 1015.2 27.9
3 -4 11 955.6 22.4
-3 4 -11 1047.9 25.4
-3 4 -11 1089.99 37.2
-4 -4 -11 1.5 6.7
-4 -4 -11 3.2 5.4
-4 -4 -11 -5.3 5.1
4 -4 11 -4.7 4.8
-4 4 -11 7.1 5.4
-4 4 -11 -7.7 9.7
-5 -4 -11 32.9 7.3
-5 -4 -11 35.9 7.1
5 -4 11 43 6.8
-5 4 -11 23.5 7.2
-5 4 -11 37.6 12.4
6 -4 11 -3.5 6.9
-6 -4 -11 15.3 7.1
-6 -4 -11 5 7.1
-6 4 -11 22.7 7.9
-6 4 -11 -7.9 12.8
-4 -5 11 8.7 10.9
-4 -5 11 20.9 11.7
4 -5 -11 22.3 7.5
4 -5 -11 2.2 19.1
3 -5 -11 51.79 8.3
3 -5 -11 29.7 19.5
-3 -5 11 22.2 10.9
2 -5 -11 7.2 6.8
-2 -5 11 9.1 11.2
2 -5 -11 2.6 16.3
-1 -5 11 31.4 12.6
1 -5 -11 21.2 7.3
1 -5 -11 22.8 19.3
0 -5 -11 -17.3 18
0 -5 11 -10.6 11.5
0 -5 -11 0.2 9.2
0 -5 -11 10.3 6.7
1 -5 11 71.79 14.7
-1 -5 -11 65.19 20.4
-2 -5 -11 22 9
-2 -5 -11 10.3 7.6
-2 -5 -11 15.8 19.9
-13 0 12 112.39 10.9
13 0 -12 95.79 12.7
13 0 -12 60.79 11.4
12 0 -12 1292.47 36.4
-12 0 12 1329.37 44.3
-12 0 12 1275.77 41.4
-12 0 12 1299.37 34.2
-12 0 12 1351.96 32.3
12 0 -12 1299.97 36.1
11 0 -12 327.57 17.1
-11 0 12 332.17 28.6
11 0 -12 344.37 16.9
-11 0 12 317.47 20
-11 0 12 355.56 13.9
-11 0 12 339.37 21.8
-11 0 12 352.96 15.8
10 0 -12 78.29 14.9
-10 0 12 78.99 12.6
-10 0 12 81.59 10.9
10 0 -12 85.79 11.3
-10 0 12 104.89 9.6
10 0 -12 79.79 9.9
-10 0 12 112.69 16.1
-10 0 12 92.59 8.4
-9 0 12 552.54 16.9
-9 0 12 530.25 24.8
-9 0 12 533.55 24.9
9 0 -12 529.85 20
-9 0 12 554.14 17.4
-9 0 12 585.64 21.2
9 0 -12 557.04 18.7
9 0 -12 562.14 18.5
-8 0 12 0.3 7.3
-8 0 12 4.1 5
-8 0 12 3.4 3.8
8 0 -12 2.1 3.9
-8 0 12 12 7.1
8 0 -12 9.2 4.2
8 0 -12 5.2 3.7
-8 0 12 8 3.3
7 0 -12 282.87 13.2
-7 0 12 286.67 13.2
-7 0 12 291.37 11
7 0 -12 282.67 11.9
-7 0 12 283.47 17.7
-7 0 12 272.77 10
7 0 -12 286.87 12.5
7 0 -12 278.37 11.8
6 0 -12 762.72 20.8
-6 0 12 796.12 22.2
6 0 -12 784.62 21.7
-6 0 12 790.92 26.1
6 0 -12 754.82 20.6
-6 0 12 803.72 23.5
-6 0 12 753.32 18.6
6 0 -12 773.12 22.3
5 0 -12 330.47 11.6
-5 0 12 305.97 9.8
-5 0 12 315.07 10.8
5 0 -12 306.47 12.4
5 0 -12 319.47 11.9
-5 0 12 332.07 10.7
-5 0 12 347.07 13.7
-5 0 12 340.27 15.5
-5 0 12 302.87 12.2
5 0 -12 319.67 11.8
-4 0 12 1738.13 37.3
4 0 -12 1640.34 35.8
4 0 -12 1704.63 36.7
4 0 -12 1643.24 36.4
-4 0 12 1720.23 34.9
-4 0 12 1704.93 34.8
4 0 -12 1679.83 37.4
-4 0 12 1730.83 37
-4 0 12 1708.43 38.2
3 0 -12 1403.86 30.3
-3 0 12 1430.96 31.2
3 0 -12 1397.46 31.6
3 0 -12 1388.66 30.7
-3 0 12 1395.66 29.2
-3 0 12 1420.86 31.5
-3 0 12 1393.06 28.9
3 0 -12 1405.66 31
2 0 -12 2557.14 49.6
2 0 -12 2526.15 49
2 0 -12 2467.55 49
-2 0 12 2516.65 49.6
2 0 -12 2478.95 49.8
-2 0 12 2522.15 48.1
-2 0 12 2472.15 47.7
2 0 -12 2504.15 50.49
-2 0 12 2517.65 49.99
1 0 -12 2356.46 47.6
1 0 -12 2438.46 47.5
-1 0 12 2343.57 45.6
1 0 -12 2421.96 48.4
1 0 -12 2400.16 46.9
1 0 -12 2439.66 46.2
-1 0 12 2392.06 46
-1 0 12 2441.56 48.1
1 0 -12 2360.06 47.3
-1 0 12 2454.25 47
0 0 12 3.1 1.6
0 0 12 3 2.5
0 0 -12 4.8 3.1
0 0 -12 3.4 2
0 0 -12 2.4 1.8
0 0 -12 2.5 1.7
0 0 12 4.4 1.8
0 0 12 2.2 1.4
0 0 -12 0.5 1.6
1 0 12 1112.49 24.1
1 0 12 1171.28 24.3
-1 0 -12 1159.18 26.5
-1 0 -12 1153.78 24.2
1 0 12 1147.09 26.6
-1 0 -12 1133.49 24.4
-1 0 -12 1149.39 25.8
1 0 12 1141.59 24.1
2 0 12 653.83 15.4
2 0 12 656.63 17
-2 0 -12 651.03 17.9
-2 0 -12 656.73 15.8
2 0 12 667.13 15.8
-2 0 -12 646.34 15.9
-2 0 -12 655.53 17.2
2 0 12 648.44 16
3 0 12 259.67 9
-3 0 -12 256.17 10.6
-3 0 -12 253.37 9.8
3 0 12 264.07 10
3 0 12 259.67 8.2
3 0 12 241.08 9.3
3 0 12 254.27 9.8
-3 0 -12 254.97 8.4
-3 0 -12 258.07 9.3
4 0 12 2932.21 59.09
4 0 12 2908.51 58.09
4 0 12 3046.4 58.89
-4 0 -12 2921.91 56.39
4 0 12 2932.81 56.29
-4 0 -12 2897.11 59.09
-4 0 -12 3045.5 58.19
4 0 12 2981.3 57.19
-4 0 -12 3015.4 60.69
-5 0 -12 408.16 15.4
-5 0 -12 402.96 14.2
-5 0 -12 409.46 14.1
-5 0 -12 416.86 11.8
5 0 12 404.56 14.4
5 0 12 405.46 12.1
5 0 12 388.76 13.2
5 0 12 411.66 15.1
6 0 12 7520.65 137.09
-6 0 -12 7315.27 138.39
6 0 12 7138.19 133.79
-6 0 -12 7207.68 136.39
-6 0 -12 7080.79 131.99
6 0 12 7414.66 137.59
-6 0 -12 7404.86 136.29
-7 0 -12 594.14 21.2
-7 0 -12 633.94 16.3
7 0 12 582.24 21.4
7 0 12 632.04 20.7
-7 0 -12 598.84 20.8
7 0 12 596.94 19.3
-7 0 -12 594.94 19.7
-8 0 -12 262.57 13.5
8 0 12 219.28 14.8
-8 0 -12 281.67 17.4
8 0 12 244.88 14.8
-8 0 -12 260.17 10.3
-8 0 -12 249.08 15.4
8 0 12 251.57 17.4
-9 0 -12 386.76 18.2
-9 0 -12 406.86 13.5
-9 0 -12 412.06 18
-9 0 -12 398.36 20.3
9 0 12 378.36 19.5
9 0 12 353.26 16.9
10 0 12 539.65 24.9
-10 0 -12 506.55 25
-10 0 -12 517.75 22.2
-10 0 -12 542.15 16.7
-10 0 -12 571.14 22.6
-11 0 -12 150.98 12
11 0 12 132.29 17.3
-11 0 -12 137.69 17.3
-13 -1 12 9.5 7.9
13 -1 -12 0.5 11
-13 -1 12 30.7 13.6
13 -1 -12 25 9.2
-13 1 12 6.7 13.3
-13 1 12 20.4 6.2
13 1 -12 21.1 11
-12 -1 12 198.68 22.8
-12 -1 12 141.39 14.4
12 -1 -12 177.68 14.7
-12 -1 12 168.38 22.3
12 -1 -12 153.48 17.2
-12 1 12 179.48 9.9
12 1 -12 232.48 18.2
12 1 -12 198.28 15.8
-12 1 12 182.48 13
-12 1 12 201.58 22
-12 1 12 186.18 22.5
-11 -1 12 32.2 8.9
11 -1 -12 49.2 9.9
-11 -1 12 63.69 13.5
-11 -1 12 59.59 11.6
-11 -1 12 49.7 8.4
11 -1 -12 54.99 8.2
-11 -1 12 49.7 15.9
11 1 -12 47.1 8.4
-11 1 12 55.79 6
11 1 -12 52.79 9.3
-11 1 12 47.2 11.5
-11 1 12 44.5 10.7
-11 1 12 59.09 7.1
10 -1 -12 38.4 8.5
10 -1 -12 24.4 5.9
-10 -1 12 48.5 8.9
-10 -1 12 24.4 11.5
10 -1 -12 38.2 10
-10 -1 12 18.8 10.6
-10 -1 12 33.3 6.9
-10 -1 12 21.2 7.4
10 1 -12 32.1 8.8
-10 1 12 32.7 5.6
-10 1 12 37.4 4.6
10 1 -12 31.1 6.6
10 1 -12 32.5 7.7
-10 1 12 42.9 13.3
-10 1 12 23.7 7.5
-10 1 12 37.6 9.9
9 -1 -12 122.39 11.4
-9 -1 12 114.69 12.6
-9 -1 12 126.59 10.9
9 -1 -12 110.69 12.1
9 -1 -12 121.29 9.4
-9 -1 12 139.59 15.5
-9 -1 12 124.89 9.6
-9 1 12 116.49 12.3
9 1 -12 131.49 9.1
-9 1 12 128.59 8
-9 1 12 131.39 13.9
-9 1 12 115.59 5.7
9 1 -12 123.79 11.3
9 1 -12 109.49 10.7
-9 1 12 98.39 14.2
-8 -1 12 71.69 11.2
-8 -1 12 66.69 8.3
-8 -1 12 60.49 6.8
-8 -1 12 66.99 9.5
-8 -1 12 74.09 9.1
8 -1 -12 67.09 8.6
8 -1 -12 65.29 9.5
8 -1 -12 55.19 6.9
8 1 -12 65.19 6.6
-8 1 12 69.09 11.8
8 1 -12 62.09 7.7
-8 1 12 59.99 10.4
-8 1 12 66.79 4.1
-8 1 12 56.09 7.5
8 1 -12 57.69 8.5
-8 1 12 59.69 6.3
-7 -1 12 225.68 13.2
-7 -1 12 223.68 12.9
7 -1 -12 239.48 13.1
-7 -1 12 225.48 10.6
-7 -1 12 212.98 11.9
-7 -1 12 241.78 11.3
7 -1 -12 221.88 9.9
7 -1 -12 240.58 12.6
7 -1 -12 219.98 12.1
7 1 -12 232.08 11.9
-7 1 12 255.87 16.6
-7 1 12 217.48 6.6
-7 1 12 233.98 12.2
-7 1 12 211.08 11.4
7 1 -12 227.88 11.9
7 1 -12 229.08 9.3
-7 1 12 195.98 14.9
7 1 -12 220.28 11.6
-6 -1 12 77.49 8
-6 -1 12 70.79 7.3
6 -1 -12 82.49 7.9
-6 -1 12 73.69 7.5
6 -1 -12 85.49 7.9
-6 -1 12 79.59 7.6
-6 -1 12 71.79 6.8
6 -1 -12 70.49 5.9
-6 -1 12 74.59 6.5
6 -1 -12 66.59 8.8
-6 1 12 66.29 9.8
6 1 -12 72.99 7
6 1 -12 76.59 7.1
6 1 -12 70.39 7.3
-6 1 12 72.29 4.3
-6 1 12 66.69 5.3
6 1 -12 71.39 5.2
-6 1 12 84.39 10.2
-6 1 12 61.19 3.3
-6 1 12 73.29 7.7
-5 -1 12 158.28 8.8
-5 -1 12 160.58 8.7
5 -1 -12 140.49 10.6
-5 -1 12 145.39 7.9
5 -1 -12 149.59 9.1
-5 -1 12 144.69 8.9
5 -1 -12 159.88 7.6
5 -1 -12 149.88 10.1
-5 -1 12 157.08 8.8
-5 1 12 150.28 12.6
-5 1 12 148.49 8.6
5 1 -12 149.49 8.8
-5 1 12 164.58 11.3
5 1 -12 154.28 9
5 1 -12 159.68 6.3
-5 1 12 158.48 6.6
5 1 -12 148.89 8.5
4 -1 -12 1234.58 32.4
-4 -1 12 1282.17 30.4
-4 -1 12 1291.37 30.1
4 -1 -12 1299.07 29.6
-4 -1 12 1301.57 28.6
-4 -1 12 1327.17 29.6
4 -1 -12 1265.37 30.2
-4 -1 12 1281.47 27.6
4 -1 -12 1271.77 27.9
-4 1 12 1242.98 33.2
-4 1 12 1291.07 27
-4 1 12 1288.37 29.5
4 1 -12 1240.68 29.6
4 1 -12 1286.07 25.4
4 1 -12 1238.58 29.8
4 1 -12 1278.37 30.6
3 -1 -12 43.8 6.1
-3 -1 12 42.3 4.5
3 -1 -12 40.9 5.3
-3 -1 12 44.2 4.9
-3 -1 12 45.7 5.1
-3 -1 12 33.9 5
3 -1 -12 38.1 4.4
3 -1 -12 40.3 4.1
3 1 -12 43.3 4.8
-3 1 12 41.5 3.9
3 1 -12 46.4 5.4
-3 1 12 43 7.2
3 1 -12 40.4 2.6
3 1 -12 41.4 5
2 -1 -12 711.13 17
-2 -1 12 693.13 18.1
-2 -1 12 693.03 18.6
2 -1 -12 713.33 14.8
-2 -1 12 704.53 18.7
2 -1 -12 672.53 20.5
2 -1 -12 716.03 17.2
2 -1 -12 628.04 20.8
-2 -1 12 712.63 17.2
-2 1 12 707.73 16.7
-2 1 12 684.13 13.8
2 1 -12 695.33 13.5
2 1 -12 710.83 13.4
2 1 -12 685.03 18.4
-2 1 12 725.53 20.5
-2 1 12 699.73 18
2 1 -12 685.73 19.7
2 1 -12 713.73 19.8
2 1 -12 710.33 18.2
1 -1 -12 80.89 4.8
-1 -1 12 91.39 5.9
-1 -1 12 82.09 5.7
-1 -1 12 86.69 5.8
1 -1 -12 86.39 4
1 -1 -12 79.49 5.8
-1 -1 12 88.19 5
1 -1 -12 85.89 4.6
-1 1 12 85.09 4.1
1 1 -12 81.49 6.5
1 1 -12 80.09 5.7
-1 1 12 78.39 5.5
-1 1 12 87.99 4.9
-1 1 12 87.59 7.8
1 1 -12 82.59 5.4
0 -1 -12 458.25 11.2
0 -1 -12 462.55 11.4
0 -1 -12 442.66 13.5
0 -1 12 454.25 13.5
0 -1 12 450.85 11.8
0 -1 12 446.06 13.8
0 -1 -12 443.46 13.8
0 -1 -12 450.35 12.3
0 -1 12 452.05 13.8
0 1 12 442.86 13.3
0 1 -12 447.96 14.8
0 1 12 465.65 12.5
0 1 12 462.95 13.5
0 1 -12 444.36 13.5
0 1 12 461.95 11.7
0 1 -12 453.25 12.8
0 1 -12 449.95 9.7
-1 -1 -12 135.49 7.2
-1 -1 -12 140.49 6.3
1 -1 12 138.19 5.6
1 -1 12 136.09 7.8
-1 -1 -12 138.39 7.4
-1 -1 -12 129.39 4.7
1 -1 12 130.09 7.3
1 -1 12 136.59 6.9
-1 -1 -12 135.99 5.7
1 1 12 137.39 6.8
-1 1 -12 137.99 4.8
-1 1 -12 129.89 7.1
1 1 12 139.89 6.8
1 1 12 129.99 6.4
1 1 12 132.89 7.2
-1 1 -12 132.89 7.9
-1 1 -12 141.49 6.4
2 -1 12 900.81 23
2 -1 12 939.31 19.7
2 -1 12 842.22 25.1
2 -1 12 911.01 19.7
-2 -1 -12 951.1 22.7
-2 -1 -12 899.71 20.6
-2 -1 -12 945.41 21.2
-2 1 -12 906.31 19.7
-2 1 -12 900.61 22.9
2 1 12 846.02 23.5
-2 1 -12 947.81 24.4
2 1 12 971 22.2
-2 1 -12 897.91 20.4
3 -1 12 67.89 4.2
3 -1 12 61.49 6.1
3 -1 12 59.09 4.8
-3 -1 -12 65.09 5
-3 -1 -12 66.29 4.8
3 -1 12 70.59 5.8
-3 -1 -12 72.79 6.5
3 -1 12 69.49 8.1
3 1 12 65.29 6.9
3 1 12 87.09 7.6
-3 1 -12 72.79 4.8
-3 1 -12 68.69 5.6
-3 1 -12 62.99 6.3
-3 1 -12 57.89 6.4
-4 -1 -12 159.68 9.1
-4 -1 -12 159.38 7.6
4 -1 12 162.78 11.4
4 -1 12 153.88 6.5
-4 -1 -12 163.88 7.4
-4 -1 -12 165.88 9.1
4 -1 12 146.99 8
4 -1 12 159.58 7.5
-4 1 -12 161.78 8.7
4 1 12 159.38 9.9
-4 1 -12 159.88 6.7
4 1 12 177.38 10.4
-4 1 -12 147.09 9.3
-4 1 -12 161.88 9.3
5 -1 12 37.8 7.2
5 -1 12 39.6 5.1
-5 -1 -12 44.8 5.3
-5 -1 -12 41.1 6.3
-5 -1 -12 36.7 5.8
5 -1 12 40.3 5.9
-5 -1 -12 29.8 4.7
-5 1 -12 40.1 6.1
5 1 12 39.6 6.5
-5 1 -12 25.6 5.7
5 1 12 41.6 6.8
-5 1 -12 33.5 5.5
-5 1 -12 30.7 3.6
-6 -1 -12 4.4 3
-6 -1 -12 0.6 3
6 -1 12 6.6 6.4
6 -1 12 1.8 3.9
-6 -1 -12 -5.1 3.8
6 -1 12 1.8 3.8
-6 -1 -12 6.9 5.4
-6 1 -12 4.1 4.1
-6 1 -12 3.5 5.5
-6 1 -12 4 4.2
6 1 12 -6.9 4.8
6 1 12 -5.3 5.2
-6 1 -12 3.7 2.6
7 -1 12 12.7 6.2
-7 -1 -12 6.2 3.5
7 -1 12 11.9 5.1
-7 -1 -12 18.4 5.9
-7 -1 -12 15.3 6.3
-7 -1 -12 7.5 3.5
7 -1 12 32.2 7.5
-7 1 -12 14 7.8
-7 1 -12 15.3 3.2
7 1 12 6.2 7.2
-7 1 -12 20.1 5.8
7 1 12 13.7 6.3
-7 1 -12 8.9 4.8
-8 -1 -12 50.79 8.2
8 -1 12 83.09 10.7
-8 -1 -12 82.09 8.8
-8 -1 -12 66.99 7.9
-8 -1 -12 82.39 11.5
-8 1 -12 68.89 10.4
-8 1 -12 83.59 11
-8 1 -12 64.69 8.6
-8 1 -12 81.39 6.3
8 1 12 76.79 10.4
8 1 12 70.99 16.4
-8 1 -12 103.49 13.6
9 -1 12 1.2 7.1
-9 -1 -12 -1.4 4.9
-9 -1 -12 14.7 9.8
9 -1 12 1.4 11.6
-9 -1 -12 1 7.2
-9 -1 -12 10.6 5.1
-9 1 -12 14.6 6.1
-9 1 -12 3.5 3.8
-9 1 -12 10.3 6.3
9 1 12 7.5 9.3
-9 1 -12 20.6 14.2
-9 1 -12 -8.3 7.4
-10 -1 -12 29.2 7.7
-10 -1 -12 20.3 16.5
10 -1 12 13.6 9.4
-10 -1 -12 12.8 6.4
-10 1 -12 43.6 10.8
10 1 12 32.2 12.2
-10 1 -12 9.4 8.2
-10 1 -12 17.4 6
12 -2 -12 119.39 13.3
12 -2 -12 154.48 20.1
-12 -2 12 123.79 14.5
-12 -2 12 109.59 19.4
12 2 -12 133.59 14.2
-12 2 12 120.69 19
11 -2 -12 43.4 11.1
-11 -2 12 58.49 10.2
-11 -2 12 80.69 16.1
-11 -2 12 49.9 14.7
11 -2 -12 70.49 8.4
11 2 -12 79.39 10.5
-11 2 12 58.99 13.7
-11 2 12 77.19 8.8
11 2 -12 65.49 11.5
-11 2 12 79.29 8
10 -2 -12 79.39 11.2
-10 -2 12 81.49 11.8
-10 -2 12 81.99 11.2
10 -2 -12 95.99 9.8
-10 -2 12 101.39 15.4
-10 -2 12 93.59 13.3
10 2 -12 98.69 11.4
-10 2 12 89.29 6.7
10 2 -12 79.49 10.5
-10 2 12 102.39 16.7
-10 2 12 71.99 7.7
-10 2 12 107.29 13.1
10 2 -12 118.49 17.7
9 -2 -12 37.9 9.6
-9 -2 12 50.29 7.9
-9 -2 12 29.6 8.2
9 -2 -12 34.5 5.8
9 -2 -12 31.9 10.6
-9 -2 12 46.1 9.1
-9 -2 12 24.1 8.6
-9 -2 12 62.59 9.3
-9 2 12 35.4 14.8
9 2 -12 41.3 9.6
9 2 -12 34.5 6.3
-9 2 12 38.2 4.8
-9 2 12 39.8 4.4
-9 2 12 33.7 8.5
9 2 -12 37.6 7.7
-9 2 12 27.3 7.6
8 -2 -12 2563.04 51.99
8 -2 -12 2573.44 60.99
8 -2 -12 2593.34 60.69
-8 -2 12 2342.87 57.99
-8 -2 12 2472.05 55.59
-8 -2 12 2562.94 55.19
-8 -2 12 2509.65 55.79
8 2 -12 2529.75 51.89
-8 2 12 2566.74 64.09
-8 2 12 2545.95 49.8
-8 2 12 2609.04 64.59
8 2 -12 2578.94 57.79
8 2 -12 2601.84 59.19
7 -2 -12 16.9 4.1
-7 -2 12 27.4 6.3
-7 -2 12 23.7 5.6
7 -2 -12 20.4 7.6
-7 -2 12 15.9 5.1
7 -2 -12 14.2 8.1
-7 -2 12 24 5.8
-7 -2 12 17.3 5.9
-7 -2 12 25.2 7.1
7 2 -12 19.7 6.1
7 2 -12 18.6 6.9
-7 2 12 18.2 9.8
-7 2 12 20.3 5.4
7 2 -12 20 3.9
-7 2 12 23.2 7.8
6 -2 -12 3217.28 71.59
-6 -2 12 3225.18 69.29
-6 -2 12 3230.28 67.19
-6 -2 12 3158.58 66.49
6 -2 -12 3228.08 62.29
-6 -2 12 3178.48 62.69
-6 -2 12 3188.38 64.39
6 -2 -12 3275.57 70.19
-6 -2 12 3172.38 65.09
6 -2 -12 3185.18 66.29
6 2 -12 3265.77 68.79
-6 2 12 3029.1 63.19
6 2 -12 3175.58 66.89
6 2 -12 3117.79 60.39
6 2 -12 3175.28 64.89
-6 2 12 3180.98 71.79
5 -2 -12 329.47 13.5
-5 -2 12 337.27 13.2
-5 -2 12 357.16 16.2
-5 -2 12 343.87 13
5 -2 -12 364.36 17.4
-5 -2 12 340.07 14
-5 -2 12 336.07 11.3
5 -2 -12 355.26 17.6
5 -2 -12 340.97 11.4
5 2 -12 342.87 13.1
-5 2 12 332.77 10.8
5 2 -12 318.07 9.4
5 2 -12 349.77 15.6
5 2 -12 315.77 13.9
-5 2 12 335.27 16.5
4 -2 -12 5.3 5.7
4 -2 -12 9.1 3.9
-4 -2 12 8 2.8
-4 -2 12 10.5 3.9
-4 -2 12 10.4 4.7
-4 -2 12 5.8 3.6
4 -2 -12 7.7 2.6
-4 -2 12 8.2 3.3
-4 2 12 10.2 2.9
4 2 -12 5.8 3.6
-4 2 12 5.4 3.1
-4 2 12 -1.2 4.6
4 2 -12 5.3 3.2
4 2 -12 9.7 1.9
4 2 -12 5.6 4.6
3 -2 -12 1288.47 27.4
3 -2 -12 1205.48 34.4
-3 -2 12 1266.97 28.5
-3 -2 12 1264.87 32.1
-3 -2 12 1244.38 28.9
3 -2 -12 1271.87 29.5
-3 -2 12 1242.88 30.9
3 -2 -12 1305.07 31.6
-3 2 12 1234.28 32.3
3 2 -12 1223.68 29.9
3 2 -12 1264.37 29
-3 2 12 1217.08 28.1
-3 2 12 1169.98 29.2
-2 -2 12 292.87 10.7
2 -2 -12 273.37 14.5
2 -2 -12 323.07 12.4
-2 -2 12 284.17 12.2
-2 -2 12 295.47 10.9
2 -2 -12 306.17 11.4
2 -2 -12 300.37 9.9
-2 -2 12 305.87 13.1
2 2 -12 292.17 11
-2 2 12 293.77 13
-2 2 12 284.87 12.7
2 2 -12 287.87 11.6
-2 2 12 277.97 11.9
-1 -2 12 914.31 22.2
1 -2 -12 888.61 17.8
-1 -2 12 932.41 25
-1 -2 12 886.11 24.5
-1 -2 12 941.01 21.5
1 -2 -12 925.81 21.5
1 -2 -12 886.11 22.2
1 -2 -12 935.91 21.4
-1 2 12 912.51 21.5
1 2 -12 907.01 22.7
-1 2 12 913.01 22
1 2 -12 881.21 26.1
-1 2 12 903.21 23.4
1 2 -12 905.51 22.3
0 -2 -12 331.27 12.7
0 -2 -12 306.57 10.5
0 -2 12 326.87 12.9
0 -2 -12 314.57 8.3
0 -2 -12 317.17 9.1
0 -2 12 327.87 11.8
0 -2 12 310.47 10
0 -2 -12 317.67 13.3
0 -2 12 321.97 13.3
0 2 12 326.77 10.9
0 2 -12 314.87 11.2
0 2 12 313.87 10.8
0 2 -12 322.97 11.2
0 2 -12 330.07 14.4
0 2 12 310.87 9.6
0 2 12 331.37 11.5
1 -2 12 174.98 9.6
-1 -2 -12 172.08 6.3
-1 -2 -12 183.08 10.4
1 -2 12 175.58 10.4
1 -2 12 187.18 7
-1 -2 -12 175.08 5.1
-1 -2 -12 190.98 9.8
-1 -2 -12 188.18 8.1
-1 2 -12 181.78 8
1 2 12 173.18 7.6
-1 2 -12 188.88 11
-1 2 -12 181.88 8.6
-2 -2 -12 112.99 9.2
-2 -2 -12 114.09 7
2 -2 12 105.89 4.4
2 -2 12 115.49 11.5
2 -2 12 109.79 9.2
2 -2 12 108.29 7.7
-2 -2 -12 106.59 6.5
2 -2 12 113.39 5.2
-2 -2 -12 109.09 5.6
-2 2 -12 119.09 6.4
-2 2 -12 108.89 6.4
2 2 12 113.39 7.1
-2 2 -12 113.49 9.5
-2 2 -12 106.19 7.3
3 -2 12 120.09 5.6
-3 -2 -12 131.79 9.7
-3 -2 -12 114.79 6.3
-3 -2 -12 118.49 7.8
3 -2 12 114.89 5.1
-3 -2 -12 124.99 7.2
3 -2 12 115.59 7.8
3 -2 12 124.69 12.5
-3 2 -12 106.09 7.9
-3 2 -12 115.89 9.7
3 2 12 123.69 9.7
-3 2 -12 122.49 6.2
-3 2 -12 118.89 8.6
4 -2 12 4.7 2.1
-4 -2 -12 6.3 2.9
-4 -2 -12 3.4 3.4
4 -2 12 2.6 3.5
-4 -2 -12 -1.5 4.3
4 -2 12 15.9 7.2
-4 -2 -12 2.5 3.2
4 -2 12 2.5 2.7
4 2 12 5.2 4.1
-4 2 -12 0.6 2.4
-4 2 -12 -1.9 5.1
-4 2 -12 1.7 4.2
-4 2 -12 4.6 3.8
-5 -2 -12 334.27 13.7
5 -2 12 360.36 13.7
-5 -2 -12 334.47 14.3
-5 -2 -12 324.27 15.4
5 -2 12 352.66 19.8
5 -2 12 337.27 11.7
-5 -2 -12 341.67 12.3
5 2 12 357.96 15.5
-5 2 -12 331.97 14.4
-5 2 -12 289.87 24.1
-5 2 -12 354.26 9.8
-5 2 -12 317.07 16.9
6 -2 12 16.8 8.4
6 -2 12 17.7 5.1
-6 -2 -12 10.6 4.9
-6 -2 -12 9.6 4.1
6 -2 12 9 4.4
-6 -2 -12 8.7 7
-6 2 -12 7.2 5.1
-6 2 -12 12 2.6
6 2 12 13.1 6.2
6 2 12 11.6 6.4
-6 2 -12 21.1 9.4
-7 -2 -12 350.76 14.4
7 -2 12 402.06 22.5
7 -2 12 347.97 14.6
-7 -2 -12 350.56 17.1
-7 -2 -12 361.36 14.3
-7 2 -12 375.26 17.4
-7 2 -12 377.56 23.3
7 2 12 346.77 19
7 2 12 365.06 20.1
-7 2 -12 355.46 18.8
8 -2 12 7.3 6.6
-8 -2 -12 3.6 8
-8 -2 -12 6.2 5.1
-8 -2 -12 7.8 5.1
-8 2 -12 13 8
-8 2 -12 10.6 6.6
-8 2 -12 12.5 14.2
8 2 12 4.9 9.2
-9 -2 -12 133.89 12.1
-9 -2 -12 132.79 12.5
9 -2 12 137.39 14.3
-9 2 -12 126.09 17
-9 2 -12 119.99 13.4
9 2 12 128.69 15.7
-9 2 -12 159.88 36.7
10 -2 12 15.6 10.8
-10 -2 -12 20.7 8.8
-10 -2 -12 26.7 8.1
-10 2 -12 23 11.5
10 2 12 -5.7 14.2
-10 2 -12 19.4 11.8
-11 -3 12 42.9 17.6
-11 -3 12 73.69 13.6
11 -3 -12 58.99 16.4
-11 3 12 116.99 21.7
11 3 -12 119.09 15.2
-10 -3 12 198.08 21.8
-10 -3 12 186.38 16.6
-10 -3 12 142.89 19.5
10 -3 -12 165.98 22
10 -3 -12 185.48 11.7
-10 3 12 219.48 25.7
10 3 -12 192.58 19.2
-9 -3 12 281.97 17.6
9 -3 -12 312.27 22.9
-9 -3 12 271.37 18.8
9 -3 -12 268.17 12.7
-9 -3 12 243.38 18.7
-9 3 12 325.37 25.9
-9 3 12 291.77 14.7
9 3 -12 288.37 16
-8 -3 12 136.59 13.5
8 -3 -12 143.99 18.5
-8 -3 12 108.59 12.8
8 -3 -12 122.39 9.4
-8 -3 12 131.29 13.4
8 3 -12 123.59 11
-8 3 12 118.29 18.4
-8 3 12 123.39 9
-8 3 12 119.09 12.9
8 3 -12 143.59 18.5
8 3 -12 124.49 14.5
7 -3 -12 376.96 13.3
7 -3 -12 290.27 25.2
-7 -3 12 360.76 18.4
-7 -3 12 335.97 15.8
-7 -3 12 345.17 14.9
7 -3 -12 363.96 23.1
-7 -3 12 366.96 22.4
-7 -3 12 376.16 17.6
-7 -3 12 360.56 17.9
-7 3 12 388.36 23.4
7 3 -12 363.96 13.7
7 3 -12 350.26 18.3
-7 3 12 367.36 15.6
-7 3 12 377.16 12.9
-6 -3 12 19.6 6
6 -3 -12 18.5 11.7
6 -3 -12 28.9 4.6
-6 -3 12 20.6 5.3
-6 -3 12 29.2 6.7
-6 -3 12 20.5 6.4
6 -3 -12 36.1 10.3
-6 -3 12 19.5 8.2
-6 -3 12 33.4 6.9
6 3 -12 15.9 6.1
-6 3 12 19 5.2
-6 3 12 29.1 4.9
-5 -3 12 16.1 7.7
5 -3 -12 11.8 5.4
-5 -3 12 16.4 5.1
5 -3 -12 16.3 3.8
-5 -3 12 15.4 3.9
-5 -3 12 15.4 6
5 -3 -12 16.7 8.2
-5 -3 12 10 9
5 -3 -12 -7.3 9.4
-5 3 12 16.7 4.5
5 3 -12 13.3 6.6
-5 3 12 8.8 6.4
-5 3 12 12.6 4.6
-4 -3 12 86.99 9.9
4 -3 -12 75.69 11.7
4 -3 -12 81.49 8.6
4 -3 -12 93.29 17.1
-4 -3 12 94.09 9.5
-4 -3 12 80.99 4.8
-4 -3 12 81.09 7.7
-4 -3 12 89.09 11.9
-4 -3 12 81.09 5.1
4 -3 -12 83.79 6.6
4 3 -12 88.59 9.8
4 3 -12 72.39 7.9
-4 3 12 72.19 6.8
-4 3 12 88.09 12.4
-4 3 12 86.49 7.6
3 -3 -12 -0.3 7.8
3 -3 -12 -1.4 2.7
-3 -3 12 -7.1 4.4
3 -3 -12 -4.4 3.8
-3 -3 12 -3.2 5.3
-3 -3 12 -3.5 3.4
-3 -3 12 5.1 5
3 -3 -12 -5.7 7
3 3 -12 -0.9 4
3 3 -12 -1 3.1
-3 3 12 -0.2 3.1
-3 3 12 5.4 5.8
2 -3 -12 24.1 5
2 -3 -12 14.1 7.1
-2 -3 12 14.1 4.6
2 -3 -12 28.7 4.1
-2 -3 12 14.8 5
-2 -3 12 24.4 6.5
-2 -3 12 25.2 4.5
2 -3 -12 15 7.7
-2 3 12 19.5 3.6
-2 3 12 28 6.1
2 3 -12 18.5 5
2 3 -12 14.3 3.6
1 -3 -12 385.96 18.1
-1 -3 12 393.76 17.5
-1 -3 12 387.76 13.5
-1 -3 12 384.66 13.4
1 -3 -12 388.06 11
1 -3 -12 380.56 16.4
1 -3 -12 401.36 13.6
1 -3 -12 382.16 19.8
1 -3 -12 395.56 12.9
1 -3 -12 378.06 9
-1 -3 12 404.76 17.1
1 3 -12 392.76 14.5
1 3 -12 390.66 12.9
-1 3 12 392.86 15.7
0 -3 -12 403.86 17.8
0 -3 12 406.26 12.9
0 -3 12 400.76 17.6
0 -3 -12 401.86 13.2
0 -3 -12 391.46 10.3
0 -3 12 374.56 16.5
0 -3 -12 368.66 14.7
0 -3 -12 414.66 13.7
0 3 -12 394.66 13.2
0 3 -12 407.36 19
0 3 -12 404.86 14.1
1 -3 12 488.15 24.3
1 -3 12 517.85 18.7
-1 -3 -12 534.15 20.3
-1 -3 -12 510.65 13.3
-1 -3 -12 523.15 15.6
-1 -3 -12 502.05 15.6
1 -3 12 507.85 20.4
-1 -3 -12 508.05 14.1
1 -3 12 496.65 13.9
-1 3 -12 486.75 15.3
-1 3 -12 504.95 15.6
-1 3 -12 530.25 22
-2 -3 -12 557.64 20.9
2 -3 12 562.44 12.2
2 -3 12 569.14 20
2 -3 12 596.54 14.2
2 -3 12 600.64 26.9
-2 -3 -12 599.54 17.2
-2 -3 -12 588.04 15.4
-2 3 -12 450.25 27.9
-2 3 -12 567.64 18.5
-2 3 -12 580.44 15.9
3 -3 12 133.39 6.2
3 -3 12 122.79 5.6
3 -3 12 148.89 11.2
-3 -3 -12 134.59 9.1
-3 -3 -12 143.49 7.8
-3 -3 -12 150.08 16.3
-3 -3 -12 117.09 8.8
3 -3 12 128.59 17.5
-3 3 -12 115.89 9.1
-3 3 -12 154.18 13.5
-3 3 -12 120.49 7.1
-4 -3 -12 107.59 9.7
4 -3 12 116.79 7.1
4 -3 12 111.19 16
4 -3 12 119.19 4.5
-4 -3 -12 104.49 13.5
-4 -3 -12 124.19 8.2
-4 -3 -12 124.79 9.1
4 -3 12 125.79 11.3
-4 3 -12 134.09 12.3
-4 3 -12 121.49 9.6
-4 3 -12 119.29 13.3
-5 -3 -12 82.39 8.8
5 -3 12 76.19 7.7
5 -3 12 70.69 14.2
-5 -3 -12 83.39 8.9
-5 3 -12 85.49 11.9
-5 3 -12 84.19 9.9
-5 3 -12 83.99 11.8
-6 -3 -12 105.89 10.5
-6 -3 -12 121.29 12.5
-6 -3 -12 122.49 9.8
6 -3 12 116.79 10
-6 3 -12 111.49 15.9
-6 3 -12 118.39 15.5
-6 3 -12 110.29 11.8
-7 -3 -12 127.29 12
7 -3 12 99.69 11.7
-7 -3 -12 134.19 11.6
-7 3 -12 107.19 14.2
-7 3 -12 115.49 18.4
-7 3 -12 114.89 13.8
8 -3 12 96.59 11
-8 -3 -12 97.59 13.1
-8 -3 -12 125.59 12.2
-8 3 -12 88.19 14.3
-8 3 -12 86.59 12
9 -4 -12 11.9 21.4
-9 -4 12 23 11.8
-9 4 12 35.8 18.9
8 -4 -12 7 16
-8 -4 12 13.4 9.6
-8 -4 12 -6.1 9.1
-8 4 12 -1.3 10.5
-8 4 12 -17.5 14.1
7 -4 -12 5.8 6.2
7 -4 -12 -12.1 15.2
-7 -4 12 2.3 8.3
-7 -4 12 0.6 8.4
-7 4 12 4.4 13.5
-7 4 12 8.8 6.8
6 -4 -12 5.6 5.4
-6 -4 12 23.3 8
-6 -4 12 12.7 7.4
6 -4 -12 -3.6 13.7
-6 -4 12 15 8.5
-6 4 12 19.8 13
-6 4 12 13.4 5.4
-5 -4 12 35.8 9.5
5 -4 -12 26.2 5.5
5 -4 -12 -11.7 14.2
-5 -4 12 17.2 6.4
-5 -4 12 13.3 5.4
5 -4 -12 43.8 14.5
-5 4 12 20 11.6
-5 4 12 15.8 4.7
4 -4 -12 9.6 5
4 -4 -12 17.5 12.9
-4 -4 12 6.8 8.3
4 -4 -12 -7 12.1
-4 -4 12 16.2 7.8
-4 4 12 7.2 3.4
-4 4 12 11.5 9.3
-3 -4 12 87.49 11.9
3 -4 -12 57.39 13.6
-3 -4 12 91.69 10.4
3 -4 -12 114.79 16.7
3 -4 -12 78.29 8.7
2 -4 -12 86.49 8.5
-2 -4 12 72.89 9.3
2 -4 -12 87.69 15.3
2 -4 -12 84.49 9.4
2 -4 -12 86.29 13.4
-2 -4 12 86.49 12.7
1 -4 -12 44 14
1 -4 -12 45 4.5
-1 -4 12 24.2 6.8
-1 -4 12 39 9.4
1 -4 -12 41.2 6.4
1 -4 -12 29.5 10.4
1 -4 -12 43.5 5.4
1 -4 -12 43.4 6.2
1 4 -12 36.3 4.1
0 -4 12 3.2 5.4
0 -4 -12 -2.5 4.2
0 -4 -12 2 5.5
0 -4 12 8.1 7
0 -4 -12 2 3.2
0 -4 -12 4.6 5.2
0 -4 -12 7.1 11.6
0 -4 -12 -19.3 13.8
0 4 -12 5.9 3.7
-1 -4 -12 25.2 5.4
-1 -4 -12 9.5 3.9
-1 -4 -12 12.4 5
-1 -4 -12 -10 7.6
-1 -4 -12 9.2 5.8
1 -4 12 11.5 5
-1 -4 -12 11.5 7.9
1 -4 12 10.8 8
-1 4 -12 17.9 4.4
2 -4 12 180.88 17.8
-2 -4 -12 198.48 12
-2 -4 -12 169.78 7.6
-2 -4 -12 180.98 12
-2 -4 -12 192.58 10.1
2 -4 12 170.48 8.8
-2 4 -12 179.98 10.3
-3 -4 -12 15.8 5.2
-3 -4 -12 25.5 6.6
3 -4 12 6 3.7
3 -4 12 8.5 3.2
3 -4 12 9.9 8.9
-3 -4 -12 6.9 6.5
-3 4 -12 8.5 5.1
-3 4 -12 9.4 9.5
-4 -4 -12 25.1 6.2
4 -4 12 21 11.3
-4 -4 -12 17.3 7.1
4 -4 12 25.9 5.1
-4 -4 -12 33.3 7.8
-4 4 -12 21.6 6.6
-4 4 -12 6.3 11.1
5 -4 12 17.4 6.1
-5 -4 -12 15.7 6.3
-5 -4 -12 4.1 7.2
-5 4 -12 -6.1 6.4
-5 4 -12 16.2 11.9
-6 -4 -12 341.47 16.3
-6 -4 -12 270.27 17.3
-6 4 -12 274.87 27.9
-6 4 -12 272.77 17.2
-3 -5 12 91.19 14.9
3 -5 -12 96.29 10.6
3 -5 -12 147.59 25.7
2 -5 -12 -17.8 18.1
2 -5 -12 28.1 7.9
-2 -5 12 -2.2 12.2
1 -5 -12 151.58 14.3
1 -5 -12 179.78 26.2
-1 -5 12 145.49 20.9
0 -5 12 54.89 14.4
0 -5 -12 50.39 20.4
0 -5 -12 62.69 9.5
-1 -5 -12 7.2 8.2
1 -5 12 3.7 15.1
-1 -5 -12 6.1 19.6
13 0 -13 0.5 9.5
-13 0 13 15.2 6.4
13 0 -13 -3.6 10
-13 0 13 36.3 13.2
-12 0 13 12.1 12.5
-12 0 13 -9.5 8
-12 0 13 1.3 5
12 0 -13 2.9 7.3
12 0 -13 -4 8
-12 0 13 37.2 12.1
11 0 -13 -0.8 6.2
-11 0 13 -1.6 9.4
-11 0 13 -5.6 6.1
-11 0 13 13.9 9.7
11 0 -13 -0.7 6
-11 0 13 -4.5 4.2
-11 0 13 16.8 16.1
-10 0 13 -4.8 5
-10 0 13 0.4 3.9
-10 0 13 -6.6 8.2
-10 0 13 17.4 12.1
10 0 -13 4.4 5.8
-10 0 13 -1.7 8
10 0 -13 -6.8 6.1
9 0 -13 1.7 4.2
9 0 -13 -0.7 5
-9 0 13 -12.3 6.7
-9 0 13 -4 3.4
9 0 -13 -0.4 4.4
-9 0 13 1.1 4.1
-9 0 13 2.1 9.2
8 0 -13 -3.4 3.7
-8 0 13 -2 4.2
-8 0 13 3 7.2
-8 0 13 -0.1 2.7
8 0 -13 1.8 4.1
-8 0 13 0.1 6.7
-8 0 13 1.3 3.7
8 0 -13 0.9 4.7
7 0 -13 1.4 4.3
-7 0 13 -4.3 6
7 0 -13 -1.2 2.9
-7 0 13 -3.8 4.2
-7 0 13 2 2.4
-7 0 13 9.5 8.2
-7 0 13 -1.1 3.3
7 0 -13 -0.1 3.6
7 0 -13 -0.9 3.2
-6 0 13 -2.5 3.9
6 0 -13 -4.2 2.5
6 0 -13 -2.3 3
6 0 -13 -2.2 3.3
-6 0 13 14 6.8
-6 0 13 1.8 1.9
-6 0 13 0.3 2.5
-6 0 13 0.4 4.6
-6 0 13 1.5 2.6
6 0 -13 -0.6 2.7
-5 0 13 8 5.1
-5 0 13 -5.9 3.6
5 0 -13 1.7 2.6
-5 0 13 -1.6 2.8
-5 0 13 3.2 2.1
5 0 -13 -1.9 3
-5 0 13 2.7 2.3
5 0 -13 -1.4 2.6
-4 0 13 3.4 3.3
4 0 -13 1 2.2
-4 0 13 -0.9 2.5
-4 0 13 0.1 3.3
4 0 -13 -0.6 2.4
-4 0 13 3.8 2.2
4 0 -13 -1.3 2.5
-4 0 13 0.4 2
4 0 -13 1.7 3.1
3 0 -13 1.1 2.1
3 0 -13 -0.2 1.8
-3 0 13 -0.8 1.9
3 0 -13 -4.8 2.6
-3 0 13 2.2 2.4
-3 0 13 -0.6 1.9
-3 0 13 -1.7 2.1
3 0 -13 2.1 2.4
-2 0 13 -1.1 1.5
2 0 -13 0.5 2.1
-2 0 13 0.7 1.6
2 0 -13 5.4 2.9
2 0 -13 -2.1 1.9
2 0 -13 1.1 1.7
-2 0 13 0 2.2
2 0 -13 -0.1 1.9
-2 0 13 1.2 2
1 0 -13 -0.9 1.7
1 0 -13 0.4 2.5
-1 0 13 1.7 1.7
1 0 -13 -0.3 1.9
1 0 -13 -0.2 1.9
1 0 -13 2.6 2
-1 0 13 0 1.3
1 0 -13 1.4 1.9
-1 0 13 0.3 1.8
-1 0 13 0.5 2.3
0 0 13 1.7 1.4
0 0 -13 2.5 2.1
0 0 -13 1.5 1.9
0 0 13 -0.4 2.4
0 0 -13 1.4 1.9
0 0 13 2.8 2
0 0 13 2.3 1.8
0 0 -13 2.5 2.2
0 0 -13 2.7 1.9
-1 0 -13 0.1 2
-1 0 -13 1.4 2.1
1 0 13 -0.6 1.6
1 0 13 0.8 1.7
-1 0 -13 -1.5 1.9
1 0 13 -1.1 2.4
1 0 13 2.2 1.7
-2 0 -13 1.7 2.7
-2 0 -13 0 2.2
-2 0 -13 1.5 1.8
-2 0 -13 0.5 2.1
2 0 13 -1.3 1.7
2 0 13 -0.4 1.6
2 0 13 0.6 2.2
2 0 13 1.7 1.7
3 0 13 -2.2 2.9
-3 0 -13 -2.6 2.8
-3 0 -13 -2.7 1.7
3 0 13 -3.2 2
3 0 13 -2.6 2.2
3 0 13 -0.5 1.9
-3 0 -13 -0.8 2.5
-3 0 -13 -0.8 2
3 0 13 0.1 2.6
4 0 13 -3.6 2.9
4 0 13 -4.1 3.1
-4 0 -13 -1.3 2
-4 0 -13 1.2 3.1
4 0 13 -0.6 3.1
4 0 13 -1.8 2.5
-4 0 -13 -0.3 2.4
-4 0 -13 0.4 3.3
4 0 13 -2.1 2.2
-5 0 -13 1.3 3
-5 0 -13 -0.5 3.9
5 0 13 4.7 4.5
5 0 13 -0.4 3.6
-5 0 -13 5.4 3.3
5 0 13 -0.4 2.5
-5 0 -13 -2.1 2.1
5 0 13 0.4 3.5
-6 0 -13 0 3.4
6 0 13 3.7 4.5
6 0 13 3.1 4.9
-6 0 -13 7.2 3
6 0 13 -4.8 4.2
-6 0 -13 7.3 5.1
-6 0 -13 2.6 4
6 0 13 1.9 3.1
-7 0 -13 1.1 2.9
-7 0 -13 1.9 6.3
7 0 13 0 6.9
7 0 13 -7.4 5.6
7 0 13 -1.8 5.5
-7 0 -13 -1.9 4
-7 0 -13 8.2 6.1
8 0 13 7.7 7.3
-8 0 -13 -1.2 3.2
-8 0 -13 7.8 6.6
-8 0 -13 -7.5 8.4
-8 0 -13 3.6 4.8
-9 0 -13 -3.3 8.1
-9 0 -13 2.8 5.9
9 0 13 -2.3 8.3
-9 0 -13 -2.5 4.3
-9 0 -13 2.1 7.2
-10 0 -13 14.7 8.1
10 0 13 8.7 11.2
-10 0 -13 7.6 9
13 -1 -13 817.62 28.1
13 -1 -13 818.02 31.7
-13 -1 13 857.41 39
-13 -1 13 776.42 27.6
-13 1 13 897.21 40.9
13 1 -13 817.02 32.6
13 1 -13 801.82 29.9
-12 -1 13 19.3 8.1
-12 -1 13 23.5 13.4
12 -1 -13 23.5 9.9
12 -1 -13 9.3 7.8
12 1 -13 1.3 8.1
-12 1 13 21.1 5.1
-12 1 13 31.2 8
-12 1 13 21.6 11.4
12 1 -13 -1.6 9.5
-11 -1 13 1096.39 31.3
-11 -1 13 1150.28 36.6
-11 -1 13 1047.6 40
11 -1 -13 1120.09 33.5
11 -1 -13 1124.29 30.5
-11 -1 13 1135.19 40.5
11 1 -13 1119.99 30.9
-11 1 13 1143.39 36.9
11 1 -13 1130.89 34.2
-11 1 13 1172.88 40.7
-11 1 13 1133.19 28.1
-11 1 13 1129.19 25.5
10 -1 -13 8.6 7.4
-10 -1 13 14.5 7.6
-10 -1 13 8.8 5.4
-10 -1 13 6.9 8.2
-10 -1 13 16 11.1
-10 -1 13 15.7 10.6
10 -1 -13 7.6 7.2
10 -1 -13 13.7 5.5
10 1 -13 14.6 8
10 1 -13 27.2 6
10 1 -13 17.2 6.9
-10 1 13 10.3 13.4
-10 1 13 27.3 9.2
-10 1 13 21.6 9.1
-10 1 13 16.5 5.2
-10 1 13 15.4 3.1
-9 -1 13 616.74 27.4
-9 -1 13 628.44 22.5
-9 -1 13 605.54 20.7
9 -1 -13 616.54 22.9
9 -1 -13 620.84 19.6
-9 -1 13 598.44 19.5
-9 -1 13 612.74 24.8
9 -1 -13 507.05 30.4
9 1 -13 616.64 22.7
-9 1 13 568.14 28.3
-9 1 13 602.44 14.6
-9 1 13 628.04 17.7
-9 1 13 605.04 25.8
-9 1 13 634.44 23.1
9 1 -13 617.04 18.7
-8 -1 13 -0.3 3.1
-8 -1 13 11.8 5.6
8 -1 -13 -4.1 5.2
-8 -1 13 4.3 7.3
-8 -1 13 2.3 6.7
-8 -1 13 -0.1 4.1
8 -1 -13 -0.6 3.6
8 -1 -13 6.3 5.9
-8 1 13 2.7 5.4
-8 1 13 5.7 3.5
-8 1 13 14.5 9.3
8 1 -13 0.1 4.6
8 1 -13 4.8 4.8
8 1 -13 4.1 3.3
-8 1 13 4.6 1.9
-8 1 13 -1.9 6.1
-7 -1 13 1014.9 28.1
7 -1 -13 1031.5 28.2
7 -1 -13 996 25.4
-7 -1 13 1038.8 26.3
7 -1 -13 1028.6 29.3
-7 -1 13 1025 29.5
7 -1 -13 1034.1 28.6
-7 -1 13 1019.8 27.7
-7 -1 13 1022.8 26.3
-7 1 13 1029.7 32.2
7 1 -13 1066.09 28.6
7 1 -13 1001.5 23.9
-7 1 13 980.3 20.3
7 1 -13 1035.7 28.2
-7 1 13 981.1 31.7
7 1 -13 976.3 27.3
-7 1 13 1015.7 27.8
-7 1 13 1014.2 23.7
-7 1 13 1026.8 22.4
6 -1 -13 57.99 7.7
-6 -1 13 58.89 7.5
6 -1 -13 57.39 7.1
-6 -1 13 63.09 6.8
-6 -1 13 63.79 6.3
-6 -1 13 64.19 8.8
6 -1 -13 63.89 7.4
-6 -1 13 69.69 7.7
6 -1 -13 61.59 5.9
6 1 -13 61.99 7.1
-6 1 13 52.09 3.2
-6 1 13 56.49 3.7
-6 1 13 56.19 6.6
-6 1 13 51.79 9.2
6 1 -13 60.19 7.2
6 1 -13 63.79 5
-6 1 13 64.29 9.1
6 1 -13 55.69 7.3
-6 1 13 57.39 5.2
5 -1 -13 1039.7 24.8
-5 -1 13 1095.99 26.6
-5 -1 13 1023.9 26.9
5 -1 -13 1023.1 27.1
5 -1 -13 1056.79 26.9
-5 -1 13 1072.39 25.2
-5 -1 13 1081.19 25.4
5 -1 -13 1033.3 29.1
-5 -1 13 1054.49 27.2
-5 1 13 1021.4 26.2
5 1 -13 1054.89 22.5
5 1 -13 1059.49 27.1
5 1 -13 1068.09 26.8
-5 1 13 1039.1 30.9
5 1 -13 1024.9 27.1
-5 1 13 997.5 25.4
-4 -1 13 953.6 23.8
4 -1 -13 953.5 22.4
4 -1 -13 961.5 23.6
-4 -1 13 956.6 24.6
-4 -1 13 960.8 21.7
-4 -1 13 936.31 24.3
-4 -1 13 911.01 22.7
4 -1 -13 942.21 26.8
4 -1 -13 957.2 24.7
4 1 -13 895.81 27.2
4 1 -13 932.51 24.3
-4 1 13 922.71 27.7
4 1 -13 957.6 19.7
4 1 -13 953.6 24
-4 1 13 930.41 23.7
-4 1 13 976.3 21.8
-3 -1 13 681.03 19
3 -1 -13 672.33 17.3
3 -1 -13 691.63 19.2
-3 -1 13 686.93 18.9
3 -1 -13 650.23 20.9
-3 -1 13 679.73 17.5
3 -1 -13 658.83 17.6
-3 -1 13 676.53 18.4
3 1 -13 690.23 19.9
-3 1 13 681.43 16.6
-3 1 13 673.73 21.6
-3 1 13 657.13 18.3
3 1 -13 660.53 18.4
3 1 -13 677.33 14
3 1 -13 686.13 19
2 -1 -13 224.48 6.8
-2 -1 13 222.88 9.3
2 -1 -13 229.08 8.4
2 -1 -13 233.28 11.5
-2 -1 13 231.48 9.6
-2 -1 13 224.28 8.5
2 -1 -13 225.88 9.9
-2 -1 13 224.48 9.7
2 -1 -13 231.38 8.5
2 1 -13 230.58 5.6
2 1 -13 219.28 10.3
2 1 -13 225.58 6.6
2 1 -13 231.68 9.4
2 1 -13 226.98 10.6
-2 1 13 234.08 12.2
2 1 -13 241.28 9.9
-2 1 13 245.58 8.5
-2 1 13 216.28 5.9
1 -1 -13 1598.54 32.5
-1 -1 13 1632.74 32.8
1 -1 -13 1575.74 31.6
-1 -1 13 1606.84 35.1
-1 -1 13 1602.94 34.8
1 -1 -13 1612.14 33.3
-1 -1 13 1640.04 34.9
1 -1 -13 1622.64 35.5
1 1 -13 1606.64 35.1
-1 1 13 1590.74 30.8
1 1 -13 1542.85 36.4
-1 1 13 1601.44 34.4
-1 1 13 1612.64 33.2
-1 1 13 1597.54 35.3
1 1 -13 1592.44 34.1
0 -1 -13 54.29 4.3
0 -1 -13 55.09 3.9
0 -1 -13 52.09 5.8
0 -1 13 60.19 4.4
0 -1 13 51.79 5.7
0 -1 13 61.79 5.4
0 -1 -13 57.39 3.8
0 -1 13 47.7 5
0 1 13 55.79 4.7
0 1 13 66.19 6.9
0 1 -13 46 5.6
0 1 13 54.99 5.3
0 1 -13 58.29 4.9
0 1 -13 56.09 5.5
0 1 -13 58.19 2.8
-1 -1 -13 305.97 9.9
1 -1 13 303.87 10.7
1 -1 13 311.07 9.2
-1 -1 -13 289.87 9.2
-1 -1 -13 310.37 11.4
-1 -1 -13 288.17 12.6
1 -1 13 289.07 11.1
1 -1 13 304.77 11.8
1 1 13 307.47 11.4
-1 1 -13 308.37 11.4
-1 1 -13 304.47 8
1 1 13 314.27 10.4
1 1 13 313.67 9.9
-1 1 -13 302.87 12.2
-1 1 -13 298.97 10
-2 -1 -13 330.37 12
-2 -1 -13 325.97 10.3
-2 -1 -13 332.27 10.7
2 -1 13 319.47 9.6
2 -1 13 329.07 12.2
-2 -1 -13 326.47 12.1
2 -1 13 341.27 9.7
2 -1 13 335.37 11.4
2 1 13 346.47 11.5
-2 1 -13 321.97 10.3
-2 1 -13 338.37 13.2
-2 1 -13 330.27 9.6
2 1 13 339.57 11.9
3 -1 13 116.29 6.2
-3 -1 -13 108.69 6.3
-3 -1 -13 106.99 7.7
-3 -1 -13 107.49 7.7
3 -1 13 108.69 7
3 -1 13 105.59 5.4
3 -1 13 105.79 7.6
3 -1 13 101.89 9.8
-3 -1 -13 108.89 6.2
3 1 13 103.39 6.9
3 1 13 117.79 8.6
-3 1 -13 104.09 5.8
-3 1 -13 103.09 6.5
-3 1 -13 106.89 8.2
-3 1 -13 113.19 7.7
-4 -1 -13 66.09 7.3
4 -1 13 55.89 4.9
-4 -1 -13 65.19 7.4
-4 -1 -13 56.09 5.6
4 -1 13 62.79 6
4 -1 13 63.19 9.3
4 -1 13 63.99 6.3
-4 -1 -13 65.29 5.3
4 -1 13 53.29 6.5
-4 1 -13 63.59 7
4 1 13 76.69 8.6
-4 1 -13 60.39 4.9
-4 1 -13 63.99 7.2
4 1 13 63.39 8
-4 1 -13 70.59 7.6
-5 -1 -13 1443.86 32.8
-5 -1 -13 1435.96 31.6
-5 -1 -13 1443.86 34.9
5 -1 13 1417.26 32.2
5 -1 13 1423.56 33.1
-5 -1 -13 1420.16 34
5 -1 13 1448.96 37
-5 1 -13 1384.66 36.5
5 1 13 1471.95 35.4
-5 1 -13 1463.35 35.4
5 1 13 1412.46 35.8
-5 1 -13 1423.46 30
-5 1 -13 1440.96 36
-6 -1 -13 335.67 15.2
-6 -1 -13 320.97 15.1
-6 -1 -13 324.77 13
6 -1 13 340.07 16.8
6 -1 13 312.77 13
6 -1 13 334.57 13.8
-6 -1 -13 312.37 11.7
-6 1 -13 331.77 15.4
-6 1 -13 319.27 10.3
-6 1 -13 326.17 15.9
6 1 13 317.07 15.9
-6 1 -13 330.27 15.3
6 1 13 314.77 16
7 -1 13 1343.37 36.6
7 -1 13 1350.06 35.4
-7 -1 -13 1341.57 31.8
7 -1 13 1394.36 33.8
-7 -1 -13 1370.66 35.9
-7 -1 -13 1355.36 33.5
-7 -1 -13 1365.56 36.3
-7 1 -13 1374.46 29.1
-7 1 -13 1387.06 36.8
-7 1 -13 1391.26 36.7
-7 1 -13 1362.26 37
7 1 13 1387.86 37.2
7 1 13 1381.76 37.5
-8 -1 -13 81.99 9.6
8 -1 13 80.99 9.8
-8 -1 -13 79.19 8.4
-8 -1 -13 90.49 11.4
8 1 13 82.29 10.7
-8 1 -13 91.09 13.7
-8 1 -13 90.19 7
-8 1 -13 118.09 12.8
-8 1 -13 92.09 11.6
9 -1 13 128.39 14.3
9 -1 13 104.89 15.7
-9 -1 -13 98.59 10
-9 -1 -13 133.29 11.9
-9 -1 -13 85.19 11.4
-9 -1 -13 92.39 13.4
-9 1 -13 94.49 12
-9 1 -13 105.99 8.1
9 1 13 109.39 14
-9 1 -13 112.29 13.8
-9 1 -13 88.59 12.1
-10 -1 -13 9 7.6
10 -1 13 1.9 9.6
-10 -1 -13 8 6.4
10 1 13 15.8 12.5
-10 1 -13 8.6 9.4
-10 1 -13 13.9 8.9
-12 -2 13 -14.9 15
12 -2 -13 1.6 7.5
12 -2 -13 -7.4 11.5
-12 -2 13 -1.2 8.6
-12 2 13 3.7 12.5
12 2 -13 9.1 10.2
-11 -2 13 -11.9 12.6
-11 -2 13 -9.8 14.5
11 -2 -13 3.3 6.5
-11 -2 13 -12 6.5
11 -2 -13 0.6 9.6
-11 2 13 17.2 11.9
-11 2 13 3.5 5.6
11 2 -13 6.1 9.5
-11 2 13 -1.4 4.4
11 2 -13 -14.7 7.7
-10 -2 13 19.3 6.6
10 -2 -13 19.3 6.2
10 -2 -13 24.7 9.4
-10 -2 13 0.8 11.2
-10 -2 13 26.6 11.8
10 2 -13 18 8.8
-10 2 13 26.9 5.5
-10 2 13 16.4 8.6
10 2 -13 21.9 7.1
-10 2 13 26.3 3.9
-10 2 13 26.5 9.7
-9 -2 13 91.09 11.1
9 -2 -13 64.49 11.2
9 -2 -13 85.99 8.9
9 -2 -13 76.39 12.7
-9 -2 13 77.89 10.6
-9 -2 13 75.39 11.1
-9 -2 13 92.09 12
-9 -2 13 85.79 10.6
-9 2 13 73.69 7.3
-9 2 13 71.69 16.1
9 2 -13 81.09 9.2
-9 2 13 104.39 11.8
9 2 -13 100.79 12.6
-9 2 13 66.89 11.7
9 2 -13 71.39 11.1
8 -2 -13 915.21 30.9
8 -2 -13 854.31 23.1
-8 -2 13 918.61 28.6
-8 -2 13 885.21 27
-8 -2 13 884.81 29.9
8 -2 -13 893.21 30
-8 -2 13 751.92 28.9
-8 -2 13 905.21 26.6
8 2 -13 914.61 28.2
8 2 -13 914.91 29.6
-8 2 13 926.91 34.9
-8 2 13 874.91 21.5
8 2 -13 907.01 22.9
-8 2 13 931.01 33.1
7 -2 -13 190.68 12.4
-7 -2 13 174.98 12
-7 -2 13 203.28 12.2
-7 -2 13 187.48 12
7 -2 -13 201.98 15
-7 -2 13 174.98 13.8
-7 -2 13 196.18 12
7 -2 -13 194.08 9.7
-7 -2 13 196.58 12.4
7 -2 -13 182.88 15.4
7 2 -13 187.48 8.6
-7 2 13 179.38 18.5
-7 2 13 198.28 12.3
7 2 -13 185.68 15
-7 2 13 194.68 8.7
-7 2 13 187.18 15.2
7 2 -13 199.88 13.9
-6 -2 13 1271.57 32.6
-6 -2 13 1247.18 30.8
6 -2 -13 1287.47 34.5
6 -2 -13 1182.58 32.4
-6 -2 13 1248.18 29.2
6 -2 -13 1218.38 36.6
6 -2 -13 1235.78 28.6
-6 -2 13 1278.87 34.9
-6 -2 13 1224.58 31.1
6 2 -13 1265.17 34.4
6 2 -13 1217.08 32.5
6 2 -13 1225.48 26.3
-6 2 13 1227.58 27.5
6 2 -13 1268.67 31.2
-6 2 13 1215.18 36.4
5 -2 -13 327.37 15.6
-5 -2 13 322.17 13.9
5 -2 -13 320.27 17.4
-5 -2 13 310.27 15.3
-5 -2 13 297.37 10.7
5 -2 -13 334.07 11.5
-5 -2 13 301.77 12.4
5 -2 -13 304.07 13.5
-5 -2 13 316.37 13.3
-5 2 13 300.77 16.1
-5 2 13 315.47 10.8
5 2 -13 306.37 13.8
5 2 -13 303.07 8.7
5 2 -13 320.27 13
5 2 -13 326.07 15.6
-4 -2 13 364.86 13.1
-4 -2 13 359.06 15.8
-4 -2 13 363.56 13.4
4 -2 -13 351.06 13.8
4 -2 -13 326.97 16.7
4 -2 -13 352.96 11.8
-4 -2 13 343.97 14.2
4 -2 -13 361.26 17.9
-4 2 13 335.27 15.9
4 2 -13 355.76 14.1
-4 2 13 354.16 12.7
-4 2 13 342.27 11.4
4 2 -13 362.56 16.1
4 2 -13 344.17 13.2
3 -2 -13 644.34 19.2
-3 -2 13 688.43 18.7
3 -2 -13 681.43 19.9
-3 -2 13 689.03 20.8
-3 -2 13 654.23 18.7
3 -2 -13 679.13 17.4
-3 -2 13 662.13 21.4
3 -2 -13 653.13 23.8
-3 2 13 643.14 21.6
-3 2 13 668.33 18.3
3 2 -13 700.53 19.4
-3 2 13 686.43 17.6
3 2 -13 672.83 20
2 -2 -13 101.69 7.4
-2 -2 13 101.99 6.9
-2 -2 13 114.89 8.3
-2 -2 13 102.09 7.2
-2 -2 13 111.59 8.9
2 -2 -13 107.29 6.4
2 -2 -13 115.29 11.1
2 -2 -13 103.29 7.3
2 2 -13 108.69 7.7
-2 2 13 96.49 8.4
-2 2 13 101.69 8.7
-2 2 13 112.19 6.7
2 2 -13 102.39 7.3
1 -2 -13 93.19 5.8
-1 -2 13 86.39 7.6
1 -2 -13 75.69 6.7
1 -2 -13 99.39 6
-1 -2 13 92.39 6.4
-1 -2 13 95.49 8.3
-1 -2 13 97.39 7.2
1 -2 -13 86.19 3.7
1 -2 -13 80.59 8.7
1 2 -13 91.39 8.6
-1 2 13 90.99 6.6
-1 2 13 84.09 7.3
1 2 -13 87.49 6.9
-1 2 13 72.09 6.8
1 2 -13 81.79 6.6
0 -2 -13 205.98 8.4
0 -2 -13 189.28 9.1
0 -2 -13 199.88 11.1
0 -2 -13 193.38 6.3
0 -2 -13 188.38 6.6
0 -2 13 196.48 9.7
0 -2 13 200.68 7.9
0 -2 13 192.18 10.7
0 -2 13 198.38 10.4
0 2 13 189.28 8.4
0 2 13 187.48 9.2
0 2 -13 205.28 9
0 2 13 187.78 7.3
0 2 -13 195.68 11.6
0 2 13 198.58 8.9
0 2 -13 186.38 9
1 -2 13 49.1 6.8
-1 -2 -13 51.09 5
-1 -2 -13 47.9 3.9
-1 -2 -13 54.99 5.8
1 -2 13 56.99 4.5
-1 -2 -13 50.99 2.8
1 -2 13 59.19 7
-1 -2 -13 66.59 8.1
-1 2 -13 58.79 5.5
-1 2 -13 55.79 6.2
-1 2 -13 53.79 7.7
1 2 13 49 5.1
1 2 13 54.89 6.1
2 -2 13 110.29 5.7
2 -2 13 116.89 9.5
-2 -2 -13 112.99 7.6
2 -2 13 110.69 4.5
-2 -2 -13 116.99 9.4
-2 -2 -13 105.59 6.9
-2 -2 -13 112.89 5.8
2 -2 13 114.19 12.1
2 -2 13 121.09 8.3
-2 2 -13 125.69 8
-2 2 -13 119.69 6.5
-2 2 -13 123.29 10.1
2 2 13 121.09 7.5
-2 2 -13 117.29 6.7
-3 -2 -13 35.3 4.4
-3 -2 -13 33.3 5.2
3 -2 13 32.4 5.3
3 -2 13 33.8 4
-3 -2 -13 45.2 6.6
3 -2 13 29.4 3.3
3 -2 13 38.6 6.9
3 -2 13 24.8 8.4
-3 -2 -13 30.5 4.5
-3 2 -13 29.7 4
3 2 13 32.8 5.4
-3 2 -13 37.3 5.9
-3 2 -13 31.2 5.2
-3 2 -13 30.8 6.2
-4 -2 -13 152.28 11.1
4 -2 13 161.88 15.1
4 -2 13 150.88 7.3
-4 -2 -13 154.38 7.9
4 -2 13 152.28 6.3
-4 -2 -13 157.38 8.8
-4 -2 -13 141.19 9.7
4 -2 13 159.98 9.9
4 2 13 152.18 10.6
-4 2 -13 150.98 11.3
-4 2 -13 151.88 7.1
-4 2 -13 156.48 10.1
-4 2 -13 169.78 12.1
5 -2 13 14.3 4.8
5 -2 13 2.8 3.6
5 -2 13 8.1 8.5
-5 -2 -13 4.3 3.6
-5 -2 -13 5.6 5.6
-5 -2 -13 3.9 4.5
-5 -2 -13 4.6 3.2
-5 2 -13 8.4 5.4
5 2 13 0.5 4.9
-5 2 -13 2.1 2.8
-5 2 -13 1.1 4.5
-5 2 -13 8.5 7.4
-6 -2 -13 91.29 10.2
6 -2 13 80.99 8.3
6 -2 13 92.59 9.2
-6 -2 -13 83.59 10.9
6 -2 13 101.09 15.6
-6 -2 -13 76.29 8.1
-6 -2 -13 94.19 8
-6 2 -13 75.09 8.9
-6 2 -13 83.49 12.2
6 2 13 85.69 11.1
-6 2 -13 84.49 11.7
6 2 13 101.89 12.2
-6 2 -13 90.79 5.6
7 -2 13 23.6 10.3
-7 -2 -13 -3 4.4
-7 -2 -13 6.8 4.3
7 -2 13 2.4 5.5
-7 -2 -13 7.1 6.4
-7 2 -13 2.8 7
-7 2 -13 1.8 6
7 2 13 -6.5 8
7 2 13 15.3 8.6
-7 2 -13 5.4 12.1
8 -2 13 23.1 7.5
-8 -2 -13 20.2 6.2
-8 -2 -13 40.7 7.2
-8 2 -13 20.4 8.5
-8 2 -13 17 9.1
8 2 13 26.6 10.8
-8 2 -13 8.6 15.9
9 -2 13 -6.8 8.3
-9 -2 -13 0 6.5
-9 -2 -13 -7.2 6.2
9 2 13 -13.4 11.9
-9 2 -13 9.1 9
-9 2 -13 -9.3 9.1
11 -3 -13 15.5 14.8
-11 -3 13 -8.4 9.8
11 3 -13 -6.4 11.5
-11 3 13 1.9 17.2
10 -3 -13 151.78 17.9
-10 -3 13 137.89 17.4
10 -3 -13 128.19 12
-10 -3 13 135.19 16
10 3 -13 145.99 16.7
-10 3 13 131.89 19.8
-9 -3 13 51.59 9.5
9 -3 -13 75.89 8.2
-9 -3 13 62.09 12.2
-9 -3 13 63.09 11.4
9 -3 -13 68.19 12.8
-9 3 13 66.19 7.3
9 3 -13 69.49 11.6
-9 3 13 65.09 15.6
9 3 -13 70.39 9.6
-8 -3 13 49.5 9.4
8 -3 -13 80.89 9
8 -3 -13 52.89 13.7
-8 -3 13 62.79 9.7
-8 -3 13 69.99 10.2
8 3 -13 67.69 11.1
-8 3 13 62.09 9.4
8 3 -13 52.49 7.6
-8 3 13 70.59 8.7
-8 3 13 46.9 12
-7 -3 13 557.64 18.6
-7 -3 13 574.24 23.1
-7 -3 13 596.14 22.6
-7 -3 13 664.83 38.7
7 -3 -13 507.85 27
7 -3 -13 564.44 17.4
7 -3 -13 506.05 29.1
-7 3 13 582.34 20.1
7 3 -13 605.84 23.5
7 3 -13 557.14 17.1
-7 3 13 572.14 17.1
-7 3 13 556.44 27.6
-6 -3 13 133.09 12.1
-6 -3 13 132.39 9.5
-6 -3 13 137.99 12.5
-6 -3 13 139.89 16.2
-6 -3 13 148.09 12.4
6 -3 -13 137.99 18
6 -3 -13 132.09 16.9
-6 -3 13 114.09 10.9
6 -3 -13 140.99 8.7
-6 3 13 150.98 9.3
-6 3 13 126.39 9.7
6 3 -13 147.79 12.8
-6 3 13 138.99 18.5
5 -3 -13 97.29 10.4
-5 -3 13 111.59 11.1
-5 -3 13 104.69 13.8
5 -3 -13 107.29 7.8
5 -3 -13 97.89 14
-5 -3 13 96.19 6.8
5 -3 -13 76.29 12.5
-5 -3 13 86.19 9
-5 -3 13 117.49 11.3
5 3 -13 101.89 8.4
-5 3 13 99.19 8.4
5 3 -13 98.69 12.2
-5 3 13 98.29 8.5
-5 3 13 99.69 14
4 -3 -13 156.18 8.4
-4 -3 13 144.19 11.4
-4 -3 13 167.48 14
4 -3 -13 104.39 15.3
-4 -3 13 136.99 9.2
4 -3 -13 137.79 10.4
-4 -3 13 143.39 12.4
4 -3 -13 124.79 15.8
4 3 -13 139.79 8.8
-4 3 13 145.89 9.3
4 3 -13 154.28 11.5
-4 3 13 138.09 8.6
-4 3 13 140.69 13.8
-3 -3 13 2.1 5.2
3 -3 -13 3.7 4.4
-3 -3 13 -5.2 3.7
-3 -3 13 3.9 4.9
3 -3 -13 -0.1 7.6
3 -3 -13 -4 2.9
-3 -3 13 0 5.2
-3 3 13 4.8 5.7
3 3 -13 0.3 4.3
-3 3 13 6.9 4.1
3 3 -13 -0.3 6.7
-3 3 13 -7.5 3
-2 -3 13 75.29 7.5
2 -3 -13 115.99 14.5
-2 -3 13 85.89 9.4
-2 -3 13 90.39 8.5
2 -3 -13 86.59 8.3
-2 -3 13 85.09 11
2 -3 -13 80.99 11.7
2 -3 -13 93.89 7
-2 3 13 96.49 10.3
-2 3 13 77.29 6.2
2 3 -13 75.09 7.1
2 3 -13 78.49 8.6
1 -3 -13 565.44 12.2
1 -3 -13 574.64 16.7
1 -3 -13 573.94 17.5
-1 -3 13 590.14 17
-1 -3 13 570.14 21.3
1 -3 -13 606.34 25.3
1 -3 -13 571.04 13.9
-1 -3 13 573.14 17.5
-1 -3 13 572.74 21.5
1 -3 -13 582.34 19.4
1 -3 -13 547.35 21.7
1 3 -13 575.34 18.4
1 3 -13 553.64 16.9
-1 3 13 569.44 19.6
0 -3 -13 189.98 9.8
0 -3 -13 190.38 6.6
0 -3 13 190.68 14.6
0 -3 13 192.48 9.4
0 -3 -13 197.98 14.3
0 -3 13 194.68 12.7
0 -3 -13 207.78 9.6
0 -3 -13 181.78 10.1
0 3 -13 189.58 13.7
0 3 -13 185.48 20
0 3 -13 189.48 10.2
-1 -3 -13 874.91 19.5
1 -3 13 877.21 26
-1 -3 -13 878.11 18.9
1 -3 13 853.61 32.4
-1 -3 -13 905.91 27.5
-1 -3 -13 871.21 22.7
1 -3 13 849.91 20.3
-1 3 -13 869.51 22.4
-1 3 -13 867.21 23.4
-1 3 -13 837.82 31
2 -3 13 146.59 17.8
2 -3 13 133.69 11.1
-2 -3 -13 139.19 9
-2 -3 -13 136.89 9.5
-2 -3 -13 112.19 12.3
-2 -3 -13 136.59 7.1
2 -3 13 128.09 6.7
2 -3 13 133.09 12.5
-2 3 -13 140.69 13.5
-2 3 -13 136.79 9.4
-2 3 -13 135.89 8.1
3 -3 13 249.97 7.9
3 -3 13 249.28 16.1
3 -3 13 255.37 8.2
3 -3 13 250.37 13.7
3 -3 13 262.47 21.9
-3 -3 -13 259.37 11.9
-3 -3 -13 263.37 10.3
-3 -3 -13 267.77 15.9
-3 -3 -13 264.67 12.3
-3 3 -13 265.97 12.6
-3 3 -13 269.07 17.2
-3 3 -13 250.97 9.7
4 -3 13 21.2 2.8
-4 -3 -13 21.5 5.3
4 -3 13 16.8 6
-4 -3 -13 11 5.5
4 -3 13 20.1 4
-4 -3 -13 26.1 4.5
-4 -3 -13 18.4 11.7
4 -3 13 12 12
-4 3 -13 38.2 7.7
-4 3 -13 25.8 3.6
-4 3 -13 11.3 6.6
-4 3 -13 11.9 5.3
-5 -3 -13 298.67 14.7
-5 -3 -13 296.77 12.6
-5 -3 -13 274.67 13.7
5 -3 13 274.17 11.2
-5 3 -13 260.57 14.1
-5 3 -13 306.67 19.4
-5 3 -13 275.67 19.2
6 -3 13 18.7 6
-6 -3 -13 24.3 8
-6 -3 -13 19.9 6
-6 -3 -13 33.9 5.8
-6 3 -13 22.3 9.7
-6 3 -13 39.7 14
6 3 13 48.9 10.7
-6 3 -13 17 7
-7 -3 -13 301.37 14.7
-7 -3 -13 255.07 14.9
7 -3 13 236.88 14.5
-7 3 -13 239.58 16.8
-7 3 -13 324.27 32.6
-7 3 -13 244.98 21.9
-8 -3 -13 5.5 7.3
8 -3 13 -3 8.7
-8 3 -13 0.2 11.9
-8 3 -13 1.2 9.8
-8 -4 13 206.48 20.5
-8 -4 13 195.28 19
8 -4 -13 179.98 22
-8 4 13 203.68 29.1
-7 -4 13 38.6 11
7 -4 -13 19.1 7.4
7 -4 -13 6.1 14.7
-7 -4 13 28.6 9.9
-7 4 13 19.3 14.3
-7 4 13 26.6 7.2
6 -4 -13 204.08 12.5
-6 -4 13 235.48 17.2
-6 -4 13 219.48 18.9
6 -4 -13 233.48 24.6
-6 4 13 234.38 12.1
-6 4 13 208.08 23.4
-5 -4 13 45 10
5 -4 -13 2.9 16.1
5 -4 -13 45.1 14.5
5 -4 -13 46.6 6.8
-5 4 13 50.89 6.2
-5 4 13 40.2 12
-4 -4 13 112.19 13.6
-4 -4 13 103.09 11.7
4 -4 -13 124.29 19
4 -4 -13 72.09 15.4
-4 4 13 141.59 18.3
-4 4 13 112.59 7.4
3 -4 -13 -0.9 11.2
3 -4 -13 -4.6 4.4
-3 -4 13 8.8 7.8
-3 -4 13 -9 7.5
3 -4 -13 12.7 10.5
2 -4 -13 233.18 24
-2 -4 13 215.98 16
-2 -4 13 200.48 14.5
2 -4 -13 219.28 11.7
2 -4 -13 210.48 12.6
2 4 -13 205.08 8.5
-1 -4 13 29 9.4
1 -4 -13 14 5
1 -4 -13 -5.3 10.1
1 -4 -13 22.9 4.3
1 -4 -13 40.8 14.2
-1 -4 13 10.4 6.2
1 -4 -13 32.2 6.9
1 4 -13 21.4 4.3
0 -4 13 149.09 15.4
0 -4 -13 161.58 11.7
0 -4 -13 161.18 19.1
0 -4 -13 165.98 11
0 -4 -13 140.59 10.5
0 -4 -13 167.98 7.1
0 -4 13 163.98 11.3
0 4 -13 175.58 9.2
-1 -4 -13 16.8 3.7
-1 -4 -13 9.7 6.3
-1 -4 -13 9.1 5.3
1 -4 13 3.3 7.4
1 -4 13 11.6 5.2
-1 -4 -13 7.7 4.7
-1 4 -13 6.5 4.5
-2 -4 -13 90.19 7.6
2 -4 13 61.39 11.2
-2 -4 -13 89.29 10
-2 -4 -13 59.09 8.6
2 -4 13 66.09 7.5
-2 4 -13 80.09 9.2
-3 -4 -13 14.6 4.5
3 -4 13 -9.1 9
-3 -4 -13 6.2 7.1
-3 -4 -13 -2.1 5.5
-3 4 -13 3.7 5.6
-3 4 -13 15.1 10.7
-4 -4 -13 251.47 12.7
4 -4 13 217.08 21.8
-4 -4 -13 217.48 14.9
-4 4 -13 236.18 23.5
-4 4 -13 250.77 14.4
-5 -4 -13 37.5 8.3
5 -4 13 61.49 15.1
-5 4 -13 52.79 8.7
-5 4 -13 50.59 14.2
-6 -4 -13 263.97 15.6
-6 4 -13 202.78 28.4
-2 -5 13 72.09 15.4
2 -5 -13 75.09 10.2
2 -5 -13 126.99 26.2
-1 -5 13 9.6 14.5
1 -5 -13 4.7 21.5
1 -5 -13 -6.4 8.3
-13 0 14 229.98 13.2
13 0 -14 218.38 19.3
-13 0 14 239.98 25.4
13 0 -14 185.88 19.1
12 0 -14 32.3 9.4
-12 0 14 28.5 6.9
12 0 -14 29.2 8.7
-12 0 14 9.2 13.3
-12 0 14 49 12.7
-11 0 14 85.59 9
-11 0 14 105.59 13.1
11 0 -14 84.39 11
-11 0 14 100.29 12.7
11 0 -14 98.79 12.6
-11 0 14 100.09 18.7
-11 0 14 102.69 16.3
-10 0 14 157.28 17.8
-10 0 14 168.48 19.1
10 0 -14 141.79 13.9
-10 0 14 141.59 11.3
-10 0 14 146.29 15.3
-10 0 14 134.69 9.6
10 0 -14 135.59 15.9
9 0 -14 1020.3 29.9
-9 0 14 1073.99 27.2
-9 0 14 1001.1 25.3
-9 0 14 1047.2 36
-9 0 14 929.61 42.1
-9 0 14 1038 34.3
9 0 -14 1071.19 28
9 0 -14 1026.1 28.5
-8 0 14 131.99 11.4
-8 0 14 125.79 7.5
8 0 -14 141.39 9.7
8 0 -14 108.19 10.1
8 0 -14 128.39 11.3
-8 0 14 133.69 14.1
8 0 -14 138.79 9.9
-8 0 14 126.69 15
-8 0 14 131.19 9.1
7 0 -14 639.34 21.1
-7 0 14 624.04 18.5
7 0 -14 640.64 19.3
-7 0 14 637.84 25.5
-7 0 14 614.74 16.7
7 0 -14 617.24 19.4
-7 0 14 627.94 22.7
-7 0 14 654.63 18.2
7 0 -14 644.34 20.5
-6 0 14 95.19 12.3
-6 0 14 65.49 5
6 0 -14 59.09 6.5
-6 0 14 81.49 9.4
6 0 -14 68.59 7.6
6 0 -14 72.59 7.1
-6 0 14 69.19 6.4
-6 0 14 64.59 7.6
6 0 -14 64.09 7.1
-6 0 14 66.19 6.1
-5 0 14 347.67 11.4
-5 0 14 340.07 11.4
-5 0 14 326.57 13.1
-5 0 14 358.96 14.2
-5 0 14 366.36 16.6
5 0 -14 334.07 13.6
5 0 -14 324.57 12.6
5 0 -14 337.27 13
5 0 -14 344.57 12.6
4 0 -14 111.89 8
4 0 -14 110.29 7
4 0 -14 117.39 7.3
-4 0 14 112.59 8.6
4 0 -14 110.09 7.8
-4 0 14 113.19 7.1
-4 0 14 120.09 7.9
-4 0 14 117.59 6.2
-3 0 14 1281.17 29.9
3 0 -14 1244.18 29.5
3 0 -14 1293.27 28.9
-3 0 14 1274.97 27
-3 0 14 1234.08 29.4
3 0 -14 1266.87 30.2
3 0 -14 1287.37 29.3
-3 0 14 1278.17 27.6
2 0 -14 491.05 14.9
2 0 -14 481.05 15.2
2 0 -14 476.25 13.9
2 0 -14 496.75 14.6
2 0 -14 487.45 14.2
-2 0 14 482.25 13.1
-2 0 14 475.05 12.6
-2 0 14 502.75 14.6
1 0 -14 665.23 17.6
1 0 -14 647.24 17.4
-1 0 14 655.53 18.1
-1 0 14 666.03 16.3
1 0 -14 642.74 17.6
-1 0 14 655.73 16.9
1 0 -14 663.33 16.2
1 0 -14 656.83 17.1
1 0 -14 662.33 18.4
-1 0 14 652.03 15.7
0 0 -14 583.54 15.6
0 0 -14 607.04 16.4
0 0 -14 581.24 17.1
0 0 -14 601.74 14.9
0 0 -14 594.54 16.4
0 0 14 609.24 15.1
0 0 14 592.84 17.2
0 0 14 591.04 15.3
0 0 14 578.44 14.6
-1 0 -14 732.13 19.5
-1 0 -14 737.23 20.2
1 0 14 717.73 17.5
1 0 14 769.42 20.6
-1 0 -14 716.83 18
1 0 14 743.53 17.7
1 0 14 769.32 18
-1 0 -14 754.22 17.7
-2 0 -14 358.46 11
2 0 14 358.16 10.4
-2 0 -14 331.67 12.2
-2 0 -14 343.27 12.9
-2 0 -14 357.66 11
2 0 14 364.16 11
2 0 14 333.47 10.8
3 0 14 637.54 18
3 0 14 653.23 15.7
3 0 14 624.34 18
3 0 14 625.94 17.2
-3 0 -14 628.84 19.1
-3 0 -14 642.44 17
-3 0 -14 644.44 18.4
-3 0 -14 640.44 16.4
4 0 14 140.19 6.5
4 0 14 157.18 9.2
4 0 14 135.39 8.3
-4 0 -14 141.69 8.5
-4 0 -14 152.48 9.5
4 0 14 147.09 9
-4 0 -14 127.09 10
4 0 14 145.19 7.9
-4 0 -14 146.99 7
5 0 14 21.2 3.7
-5 0 -14 20.8 5.4
5 0 14 17.8 5.6
5 0 14 19.4 5.3
5 0 14 22.9 5
-5 0 -14 25.9 5.1
-5 0 -14 20.7 5
-5 0 -14 16.2 3.4
-6 0 -14 118.69 9.7
6 0 14 154.18 9.6
6 0 14 128.99 10.9
-6 0 -14 134.49 11.2
6 0 14 139.49 12.1
-6 0 -14 126.89 7.3
6 0 14 134.09 7.3
-6 0 -14 132.79 10.9
7 0 14 4.6 3.7
-7 0 -14 7.9 4.6
-7 0 -14 5 5.8
-7 0 -14 10.1 7.2
7 0 14 -3.4 5.9
7 0 14 -15.1 6.9
-7 0 -14 -0.4 3
8 0 14 217.08 10.5
8 0 14 165.68 14.3
-8 0 -14 206.68 18.3
-8 0 -14 223.78 13.9
8 0 14 221.18 15.7
-8 0 -14 231.08 10.3
-8 0 -14 203.98 16.2
9 0 14 907.91 23.3
-9 0 -14 910.11 29.2
9 0 14 903.11 30.9
-9 0 -14 904.51 29
-9 0 -14 886.91 31.7
-9 0 -14 915.81 23.4
-10 0 -14 184.78 21.9
-10 0 -14 177.98 11.9
-10 0 -14 203.38 17.4
10 0 14 185.58 21.1
-13 -1 14 8.4 14.5
13 -1 -14 2.5 11.2
13 -1 -14 13.3 9.6
-13 -1 14 0.2 8.5
13 1 -14 9.2 10.7
-13 1 14 48.7 16.4
-13 1 14 23.5 6.7
13 1 -14 16.7 12
-12 -1 14 2.2 13
-12 -1 14 -9.5 7.2
12 -1 -14 16 9.7
12 -1 -14 -3.5 7.6
12 1 -14 5.6 9
-12 1 14 21.6 13.6
-12 1 14 16 4.8
12 1 -14 14.2 8.8
-12 1 14 4.2 7.8
-11 -1 14 26.4 7.4
-11 -1 14 29.6 10.4
11 -1 -14 20.2 8.5
-11 -1 14 24.1 13.3
-11 -1 14 30.5 15.3
-11 1 14 25.8 10.3
-11 1 14 5.4 10.1
-11 1 14 26 4
11 1 -14 24 8.4
-11 1 14 21.3 6.6
11 1 -14 31.5 7.8
-10 -1 14 4.6 10.8
-10 -1 14 5.2 7.9
-10 -1 14 -0.4 4.9
-10 -1 14 18.8 11.8
-10 -1 14 17 7.4
10 -1 -14 8.5 7.3
10 -1 -14 26 6.6
-10 1 14 12.1 3.1
10 1 -14 8.4 5.6
-10 1 14 8.3 5.1
-10 1 14 4.3 7.7
-10 1 14 20.9 9.2
10 1 -14 7.6 6.7
-10 1 14 -15.3 14.5
10 1 -14 12.9 7.8
9 -1 -14 131.69 17
9 -1 -14 174.98 14
-9 -1 14 150.68 17.1
-9 -1 14 166.18 12.4
-9 -1 14 146.49 13.5
-9 -1 14 165.88 10.6
-9 -1 14 154.68 17
9 -1 -14 164.58 11.3
9 1 -14 163.58 12.7
9 1 -14 166.58 10.2
-9 1 14 172.18 9.7
-9 1 14 167.08 6.4
-9 1 14 166.68 14.1
-9 1 14 137.89 16.4
9 1 -14 173.48 13.3
-9 1 14 167.08 15.5
8 -1 -14 6.3 5.6
-8 -1 14 12.2 7.6
8 -1 -14 2.5 5.2
8 -1 -14 9.1 6.2
-8 -1 14 21.4 5.6
-8 -1 14 7.1 5.5
-8 -1 14 4.5 7.6
8 -1 -14 10.4 4.5
-8 -1 14 7.3 3.9
-8 1 14 8.9 9
8 1 -14 12.2 4.1
-8 1 14 12.6 3.7
-8 1 14 10.8 2.2
-8 1 14 8.6 7
8 1 -14 10 5.1
-8 1 14 8 3.5
8 1 -14 9.2 5.1
-8 1 14 6.1 5.5
-7 -1 14 239.98 13.9
-7 -1 14 230.48 12.8
-7 -1 14 220.38 11.7
-7 -1 14 235.28 13
7 -1 -14 227.88 12.7
-7 -1 14 237.08 13.9
7 -1 -14 224.18 10.8
7 -1 -14 236.78 13.9
-7 -1 14 224.78 10.9
7 -1 -14 240.28 13.2
7 1 -14 229.18 9.4
7 1 -14 233.98 12.8
-7 1 14 213.68 15.7
-7 1 14 227.58 6.5
-7 1 14 211.78 16.3
7 1 -14 241.28 12.4
-7 1 14 232.08 13
-7 1 14 240.88 8
7 1 -14 234.08 12.6
-7 1 14 226.18 9.8
6 -1 -14 36.9 5.1
-6 -1 14 37.4 6.2
-6 -1 14 35.9 5.3
6 -1 -14 29.3 5.1
6 -1 -14 35.9 6.6
-6 -1 14 37.8 6.3
-6 -1 14 33.2 5.2
-6 -1 14 40.3 7.7
-6 -1 14 45.6 7.2
6 -1 -14 35.3 6
6 1 -14 28.1 5.5
-6 1 14 41.2 4.8
6 1 -14 29.6 5.3
-6 1 14 37.1 5.6
-6 1 14 44.2 8.1
6 1 -14 37.9 4.3
-6 1 14 34.1 3
-6 1 14 33.8 8.5
6 1 -14 31.3 5.1
-5 -1 14 10.2 3.7
-5 -1 14 8.7 4.1
5 -1 -14 10.8 3.8
5 -1 -14 11.4 5
5 -1 -14 8.6 3.2
-5 -1 14 6.8 3.3
-5 -1 14 8.2 3.9
-5 -1 14 11.2 4.3
5 -1 -14 7.7 3.5
5 1 -14 6.4 3.6
5 1 -14 10.1 4.1
-5 1 14 11.1 6.7
5 1 -14 8 2.4
5 1 -14 20.4 4.7
-5 1 14 11.7 4.4
-5 1 14 11.5 2.8
4 -1 -14 204.98 12.3
-4 -1 14 222.98 10.4
-4 -1 14 222.18 10.6
-4 -1 14 233.08 9.6
4 -1 -14 220.08 10.8
4 -1 -14 231.38 9.3
4 -1 -14 227.28 9.9
-4 -1 14 221.38 10.3
-4 1 14 228.68 8.7
4 1 -14 222.18 10.6
-4 1 14 209.38 14.3
-4 1 14 226.88 10.3
4 1 -14 214.28 10.1
4 1 -14 231.88 6.9
4 1 -14 234.78 11.2
3 -1 -14 449.95 13.4
-3 -1 14 440.46 13.6
3 -1 -14 441.36 13.6
-3 -1 14 454.95 14.7
-3 -1 14 430.16 14.5
-3 -1 14 456.95 14.5
3 -1 -14 456.85 17.2
3 1 -14 431.86 14.7
-3 1 14 429.76 14.3
3 1 -14 434.06 14.3
-3 1 14 413.06 9.1
-3 1 14 460.45 17.9
-3 1 14 439.26 14.2
3 1 -14 436.36 10.1
-2 -1 14 309.87 11.7
-2 -1 14 313.57 11.7
-2 -1 14 313.07 10.4
2 -1 -14 315.17 10.3
2 -1 -14 285.77 13.4
-2 -1 14 305.57 11.7
2 -1 -14 310.47 10.4
2 -1 -14 320.37 12.1
2 -1 -14 300.37 8.6
-2 1 14 330.97 13.2
-2 1 14 324.57 14.2
-2 1 14 296.47 7.6
2 1 -14 290.07 12.3
2 1 -14 300.17 11.7
2 1 -14 317.37 11.4
2 1 -14 281.27 7.6
2 1 -14 308.07 12.7
-2 1 14 301.37 11.3
1 -1 -14 209.28 8.4
-1 -1 14 221.58 9.9
1 -1 -14 214.38 10.1
1 -1 -14 211.48 7.3
1 -1 -14 208.08 9.6
-1 -1 14 219.78 8.3
-1 -1 14 213.68 9.4
-1 -1 14 217.78 9.4
1 -1 -14 212.38 7.9
-1 1 14 211.38 6.9
1 1 -14 211.58 6
1 1 -14 205.08 10.3
-1 1 14 222.88 8.7
-1 1 14 227.88 11.5
1 1 -14 213.68 9
1 1 -14 219.28 9.8
0 -1 -14 88.89 7
0 -1 14 78.39 6.9
0 -1 -14 84.19 4.7
0 -1 -14 83.19 4.9
0 -1 -14 95.79 6.9
0 -1 14 84.99 6.4
0 -1 14 79.19 6
0 -1 14 80.49 4.9
0 -1 -14 82.19 5.4
0 1 14 86.09 5.5
0 1 -14 83.09 3.4
0 1 -14 92.19 7.3
0 1 -14 74.19 5.6
0 1 -14 95.39 6.7
0 1 14 98.49 7.9
-1 -1 -14 388.86 11.4
-1 -1 -14 394.56 13.5
-1 -1 -14 388.86 11.9
1 -1 14 393.46 11.1
1 -1 14 403.76 14.3
-1 -1 -14 365.36 13.2
1 -1 14 375.46 13.1
1 -1 14 397.36 12.7
-1 1 -14 384.66 9.7
-1 1 -14 381.76 14.6
1 1 14 390.06 12.5
-1 1 -14 382.26 13.5
1 1 14 399.96 12.3
-1 1 -14 390.36 12.2
1 1 14 390.26 11.8
-2 -1 -14 65.19 5.3
2 -1 14 71.39 4.9
2 -1 14 70.79 6.2
2 -1 14 71.59 5
-2 -1 -14 57.19 7.3
-2 -1 -14 60.59 4.9
2 -1 14 67.79 5.9
-2 -1 -14 73.69 6.7
-2 1 -14 65.69 7
-2 1 -14 71.99 6.4
-2 1 -14 69.79 5.2
2 1 14 73.99 7.1
-2 1 -14 61.09 4.8
2 1 14 55.59 5.7
3 -1 14 18.1 5.9
3 -1 14 20.3 4.4
3 -1 14 19.4 3
3 -1 14 15.9 4
-3 -1 -14 26.2 4.7
-3 -1 -14 18.2 4.6
-3 -1 -14 19.9 3.7
-3 -1 -14 15.3 3.4
3 -1 14 21.3 3.7
-3 1 -14 15.4 4.4
3 1 14 22.2 5.1
-3 1 -14 23.2 4.1
3 1 14 15.3 3.5
-3 1 -14 23.4 4.8
-3 1 -14 17.3 3.3
-4 -1 -14 60.89 5.8
-4 -1 -14 60.89 7.9
4 -1 14 50.49 6.8
4 -1 14 57.99 5.4
-4 -1 -14 66.79 7.5
4 -1 14 54.49 6.3
-4 -1 -14 60.59 5.7
4 -1 14 63.89 8.7
4 -1 14 58.89 6
4 1 14 70.69 8.5
-4 1 -14 45.8 5.9
-4 1 -14 52.99 5.3
-4 1 -14 56.49 7.2
-4 1 -14 59.59 7.9
4 1 14 56.19 7.3
-5 -1 -14 1031.1 24.8
-5 -1 -14 1006.1 27.2
5 -1 14 1010.5 25.4
-5 -1 -14 1013.2 27.7
-5 -1 -14 1052.49 26.1
5 -1 14 1035.1 26.3
5 -1 14 1021.7 27.2
-5 1 -14 1000.4 28.1
5 1 14 1006 28.8
-5 1 -14 1031.9 29.5
-5 1 -14 1027.2 23.4
-5 1 -14 1040.2 27.3
5 1 14 1051.39 28.6
-6 -1 -14 22.3 6.5
6 -1 14 28.7 6
6 -1 14 32.8 8.3
-6 -1 -14 21.1 4.4
-6 -1 -14 32.9 6.1
-6 -1 -14 11.2 6.7
6 -1 14 22.5 5.6
-6 1 -14 22.9 3.9
-6 1 -14 34.2 8
-6 1 -14 19.5 5.6
6 1 14 23.1 7.9
-6 1 -14 24.6 6.4
-7 -1 -14 834.62 27.1
-7 -1 -14 845.62 27.2
-7 -1 -14 838.02 24.6
-7 -1 -14 857.91 22.7
7 -1 14 896.41 28.1
7 -1 14 859.11 25
-7 1 -14 876.41 28.5
7 1 14 797.42 28.4
-7 1 -14 866.51 20.6
-7 1 -14 836.82 27.6
7 1 14 831.72 27.9
-7 1 -14 844.62 27.4
-8 -1 -14 16 6
8 -1 14 40.5 9.8
-8 -1 -14 15.5 8.8
8 -1 14 20.4 7.6
-8 -1 -14 21.5 5.5
8 1 14 17.4 8.7
-8 1 -14 23.9 7.4
-8 1 -14 22.5 12.5
-8 1 -14 16.9 4.4
-9 -1 -14 13.9 6.8
9 -1 14 15.6 9.1
-9 -1 -14 18.3 9.4
9 -1 14 7.6 13.4
-9 -1 -14 14.4 5.9
-9 1 -14 9.6 7.3
9 1 14 -6.6 9.9
-9 1 -14 4.4 5
-9 1 -14 8 7.7
-10 -1 -14 7 7.7
10 -1 14 26.7 11.7
-10 -1 -14 6.5 6.9
10 1 14 8.5 13.4
-10 1 -14 14.1 9.1
-10 1 -14 3.2 11.8
-12 -2 14 -26.7 15.1
12 -2 -14 14.9 13.5
12 -2 -14 11.6 8.7
-12 2 14 19 13.1
12 2 -14 10.3 10.2
12 2 -14 6 11.8
11 -2 -14 625.04 21.4
-11 -2 14 558.44 33.5
-11 -2 14 596.94 34.7
-11 -2 14 590.94 24.7
11 -2 -14 605.04 27.9
-11 2 14 605.14 18.7
11 2 -14 675.83 28.2
11 2 -14 647.54 23.3
-11 2 14 641.74 32.8
10 -2 -14 83.19 13.2
-10 -2 14 63.59 15.2
-10 -2 14 79.89 10.6
-10 -2 14 73.19 14.8
10 -2 -14 76.99 8.7
-10 2 14 68.29 7.1
-10 2 14 69.79 12.1
10 2 -14 67.89 8.7
10 2 -14 61.39 10.2
9 -2 -14 100.49 10
-9 -2 14 92.89 13.9
9 -2 -14 95.29 12
-9 -2 14 127.39 16.5
-9 -2 14 122.59 11.5
-9 -2 14 114.79 15.2
-9 -2 14 89.89 12.5
9 2 -14 107.69 13.3
-9 2 14 105.19 8.3
9 2 -14 109.69 15.3
-9 2 14 111.09 12.1
9 2 -14 94.89 9.8
-9 2 14 121.39 17.2
-8 -2 14 54.69 8.5
-8 -2 14 69.39 9
8 -2 -14 54.09 9.6
-8 -2 14 66.39 11
-8 -2 14 72.09 9.5
8 -2 -14 66.79 7.4
-8 -2 14 51.99 14.9
8 -2 -14 79.49 11.6
-8 -2 14 82.49 11.7
-8 2 14 77.89 13
-8 2 14 74.39 9.9
8 2 -14 62.99 9.9
8 2 -14 50.49 7.7
8 2 -14 71.19 7.6
-8 2 14 79.49 7.6
-8 2 14 72.69 13.9
-7 -2 14 261.37 13.7
-7 -2 14 238.58 13.4
-7 -2 14 252.47 16.4
-7 -2 14 232.18 13.3
7 -2 -14 232.48 15
-7 -2 14 233.58 13.1
7 -2 -14 218.58 13.5
7 -2 -14 240.58 11.1
7 2 -14 242.88 14.4
7 2 -14 225.98 9.2
-7 2 14 237.98 10
-7 2 14 226.48 12.8
7 2 -14 226.48 15.1
-7 2 14 229.08 17
7 2 -14 274.17 19.7
6 -2 -14 -1.7 5.2
-6 -2 14 -2.1 4.7
6 -2 -14 6 3.5
-6 -2 14 8.6 4.7
6 -2 -14 3 4.9
-6 -2 14 -0.1 4.7
-6 -2 14 9.6 4.7
6 -2 -14 19.4 7.6
-6 -2 14 -2.6 6
-6 2 14 1.4 3.3
6 2 -14 2.7 2.6
6 2 -14 5 4.2
6 2 -14 11.3 6.6
6 2 -14 -0.3 4.7
-6 2 14 1.7 5.5
-6 2 14 -3.6 4.2
5 -2 -14 776.02 23.2
-5 -2 14 803.62 22.3
5 -2 -14 797.02 20.6
-5 -2 14 784.72 22.4
5 -2 -14 745.53 27.2
-5 -2 14 783.12 18.4
-5 -2 14 785.72 23.6
-5 -2 14 796.02 25.2
5 -2 -14 786.32 23.8
5 2 -14 804.72 25.9
-5 2 14 786.92 19.8
5 2 -14 774.02 22.5
-5 2 14 779.02 26.5
5 2 -14 754.22 16.6
5 2 -14 773.52 23.5
4 -2 -14 57.19 5.9
4 -2 -14 62.99 7.5
4 -2 -14 62.09 7.9
-4 -2 14 66.99 7.6
-4 -2 14 61.19 6.8
4 -2 -14 54.29 9.5
-4 -2 14 72.19 9
-4 -2 14 65.59 7.6
-4 2 14 61.99 9.4
4 2 -14 53.79 7
-4 2 14 55.99 5.9
4 2 -14 56.09 7.6
4 2 -14 64.99 9.2
-4 2 14 54.09 6.5
-3 -2 14 7371.76 133.99
-3 -2 14 7329.27 134.49
-3 -2 14 7109.99 136.99
3 -2 -14 7268.57 132.89
3 -2 -14 7090.29 135.29
3 -2 -14 7391.36 134.69
3 -2 -14 7086.49 141.99
-3 -2 14 7204.88 137.99
-3 2 14 7347.76 132.89
-3 2 14 7216.68 138.49
-3 2 14 7314.47 133.99
3 2 -14 7493.05 135.49
3 2 -14 7300.87 136.29
2 -2 -14 64.69 7
-2 -2 14 83.39 7.5
-2 -2 14 60.79 6.6
-2 -2 14 62.49 6.2
2 -2 -14 59.69 5.6
-2 -2 14 69.69 8.4
2 -2 -14 56.89 8.4
2 -2 -14 69.19 6.1
2 2 -14 79.29 7.2
2 2 -14 71.09 6.8
-2 2 14 53.79 7.4
-2 2 14 61.89 6.1
-2 2 14 68.39 6.1
-1 -2 14 1882.31 42.8
1 -2 -14 1845.82 46.4
1 -2 -14 1885.91 35.4
1 -2 -14 1856.51 37.8
1 -2 -14 1980.9 44
-1 -2 14 1921.11 40.8
1 -2 -14 1924.01 39.3
1 -2 -14 1924.11 40.9
-1 -2 14 1888.21 43
-1 2 14 1977.9 40.3
-1 2 14 1630.94 43.2
-1 2 14 1884.81 41.2
1 2 -14 1850.31 45.3
1 2 -14 1867.91 40.9
1 2 -14 1886.11 40.8
0 -2 14 556.84 18.9
0 -2 -14 584.64 16.2
0 -2 -14 570.24 13.5
0 -2 14 611.54 18
0 -2 -14 581.94 19.3
0 -2 -14 567.44 13.6
0 -2 14 579.44 15.1
0 -2 -14 567.44 17.1
0 -2 14 589.24 18.6
0 2 14 565.84 14.5
0 2 -14 535.95 17
0 2 14 582.14 17.1
0 2 -14 560.04 20.5
0 2 14 551.94 15.6
0 2 -14 561.44 16.7
-1 -2 -14 83.29 4.9
-1 -2 -14 81.39 6.1
1 -2 14 83.99 5.5
1 -2 14 89.79 8
-1 -2 -14 89.99 9.1
-1 -2 -14 75.09 7
1 -2 14 77.69 8
-1 -2 -14 86.09 5
1 2 14 91.69 6.3
-1 2 -14 84.59 7.1
-1 2 -14 71.69 8.6
1 2 14 93.69 7.4
-1 2 -14 76.09 6.3
2 -2 14 374.66 14.3
2 -2 14 368.76 19.1
2 -2 14 368.16 9.1
-2 -2 -14 364.66 15.2
-2 -2 -14 365.26 11.2
2 -2 14 368.86 15.7
-2 -2 -14 359.46 12.6
2 -2 14 373.36 10.7
-2 -2 -14 381.06 13.7
-2 2 -14 393.66 12.5
2 2 14 376.76 13.2
-2 2 -14 366.66 10.7
-2 2 -14 373.86 14.1
-2 2 -14 388.86 17
-3 -2 -14 356.16 15.5
-3 -2 -14 366.36 11.8
3 -2 14 369.26 19.8
3 -2 14 366.96 10.5
3 -2 14 366.86 14.2
-3 -2 -14 381.46 14.2
3 -2 14 366.66 16.2
3 -2 14 363.06 10.5
-3 -2 -14 386.56 13.2
-3 2 -14 364.36 11.9
-3 2 -14 375.96 17.2
-3 2 -14 380.66 14.7
-3 2 -14 365.56 13.4
3 2 14 370.16 14.1
-4 -2 -14 71.59 9.8
-4 -2 -14 81.89 10.1
4 -2 14 71.79 11.3
4 -2 14 58.99 5.2
4 -2 14 58.59 8.3
-4 -2 -14 57.29 6
4 -2 14 57.89 5.7
4 -2 14 60.29 8.2
-4 -2 -14 56.79 6.8
-4 2 -14 73.89 9.9
4 2 14 65.59 8.8
-4 2 -14 70.29 5.9
-4 2 -14 60.99 7.9
-4 2 -14 67.09 7.7
-5 -2 -14 143.89 10.7
5 -2 14 167.68 17
-5 -2 -14 150.98 9.7
5 -2 14 168.18 11.2
5 -2 14 142.39 8.5
-5 -2 -14 159.18 9
-5 -2 -14 148.89 13
-5 2 -14 162.98 7.7
5 2 14 144.99 12.2
-5 2 -14 138.89 12.7
-5 2 -14 155.28 14.6
-6 -2 -14 68.59 14.6
-6 -2 -14 46.2 7.8
6 -2 14 60.89 7
6 -2 14 55.89 12
-6 -2 -14 67.49 7.7
-6 -2 -14 60.79 6.9
-6 2 -14 60.29 8.4
-6 2 -14 51.19 5.9
-6 2 -14 60.69 11.9
6 2 14 45.9 9.2
-6 2 -14 51.29 9.2
-7 -2 -14 4.9 5.2
7 -2 14 4.4 5.8
-7 -2 -14 -12.2 6.3
-7 -2 -14 6.7 4.9
7 -2 14 25.7 11.4
-7 2 -14 -6.9 12.9
-7 2 -14 -1 6.3
-7 2 -14 -6.8 6.9
-7 2 -14 0 3.1
7 2 14 -1.2 9.1
-8 -2 -14 203.68 13.4
-8 -2 -14 215.98 13.6
8 -2 14 191.68 14.7
-8 2 -14 198.98 18.6
-8 2 -14 193.28 17.2
8 2 14 160.38 20.3
-8 2 -14 195.58 22.2
-9 -2 -14 10.3 7.6
9 -2 14 6.1 9.8
-9 -2 -14 24.4 7.6
9 2 14 25.4 14
-9 2 -14 5.2 10.8
-9 2 -14 16.2 10.5
-11 -3 14 87.09 21.1
-11 -3 14 98.19 14.6
-11 3 14 174.48 35.3
11 3 -14 147.99 15.6
10 -3 -14 277.77 25
10 -3 -14 231.98 14.4
-10 -3 14 188.78 21.6
-10 -3 14 226.98 18.3
10 3 -14 183.08 22.3
10 3 -14 236.08 17.7
-10 3 14 219.48 27
9 -3 -14 -0.8 6
-9 -3 14 2.8 10.6
-9 -3 14 -12.1 8.3
-9 -3 14 -0.4 7.1
9 -3 -14 43 13.8
-9 3 14 -9.1 9.1
9 3 -14 12.3 9.2
-9 3 14 4.5 11.1
9 3 -14 4.2 7.1
-9 3 14 4.2 5.8
8 -3 -14 328.27 24.5
8 -3 -14 310.47 14.1
-8 -3 14 327.77 19.7
-8 -3 14 308.97 18.2
-8 -3 14 288.47 18
-8 3 14 303.37 17.2
8 3 -14 318.37 19.5
-8 3 14 353.96 25.1
8 3 -14 326.37 14.1
-8 3 14 302.37 13.2
-7 -3 14 731.73 21.9
7 -3 -14 748.03 21.2
-7 -3 14 761.72 26
7 -3 -14 653.23 31.6
-7 -3 14 718.13 26.9
7 -3 -14 688.53 31.4
-7 3 14 746.03 23.3
7 3 -14 753.12 26.9
-7 3 14 781.32 20.8
-7 3 14 776.72 32.3
-6 -3 14 254.67 15.2
-6 -3 14 260.27 19
6 -3 -14 256.07 11.4
-6 -3 14 228.38 13.5
-6 -3 14 234.78 11.1
6 -3 -14 224.88 14.5
6 -3 -14 246.88 20.6
-6 -3 14 257.67 16.2
6 -3 -14 203.38 20.4
-6 3 14 255.17 12.6
-6 3 14 250.17 12
-6 3 14 244.98 19.1
6 3 -14 245.78 15.8
-5 -3 14 540.15 20.7
-5 -3 14 515.15 17.8
5 -3 -14 524.55 24.6
5 -3 -14 511.85 25.9
5 -3 -14 515.85 19.2
-5 -3 14 508.25 23.2
5 -3 -14 547.05 16.6
-5 -3 14 530.35 19.9
-5 3 14 529.85 17.1
5 3 -14 533.15 17.4
-5 3 14 545.55 17
5 3 -14 541.95 21
-5 3 14 543.25 24.7
4 -3 -14 359.96 15.5
4 -3 -14 352.76 21.6
-4 -3 14 347.07 15.6
4 -3 -14 364.76 13
-4 -3 14 360.86 17
4 -3 -14 332.27 19.3
-4 -3 14 370.76 18.8
-4 -3 14 367.66 14.3
4 3 -14 366.66 16.8
-4 3 14 398.26 13.6
4 3 -14 354.76 13.9
-4 3 14 377.76 14.2
-4 3 14 364.96 19.2
-3 -3 14 23.8 7.5
3 -3 -14 29.4 9.6
3 -3 -14 14.3 7.8
3 -3 -14 33.8 6
3 -3 -14 22 4.3
-3 -3 14 20 5.6
-3 -3 14 28.2 5.5
-3 -3 14 20.9 5.8
3 3 -14 26.9 6.4
-3 3 14 26.8 5.8
-3 3 14 18.2 6.7
-3 3 14 22 4.3
3 3 -14 19.5 4.9
-2 -3 14 256.07 12.1
-2 -3 14 262.77 15.9
2 -3 -14 252.07 12.2
2 -3 -14 286.47 19.7
-2 -3 14 265.57 12
2 -3 -14 237.68 13.9
2 -3 -14 280.57 11
-2 -3 14 236.78 14.3
-2 3 14 256.57 10.3
2 3 -14 274.27 13.4
2 3 -14 254.57 11.5
-2 3 14 269.97 14.8
-1 -3 14 29.4 5.8
1 -3 -14 30.5 5.7
1 -3 -14 24.1 5.8
-1 -3 14 35 5.4
1 -3 -14 26.5 4.7
1 -3 -14 23.2 8.5
1 -3 -14 41.2 8.6
-1 -3 14 33.4 7.7
1 -3 -14 32.5 4.3
-1 -3 14 41.2 8.1
1 3 -14 33.4 5.3
-1 3 14 31.2 6.3
1 3 -14 32.4 6.3
0 -3 14 164.18 12.6
0 -3 -14 154.08 10
0 -3 14 156.58 12.3
0 -3 -14 164.58 6.2
0 -3 -14 162.78 8
0 -3 -14 178.48 14.4
0 -3 14 163.78 9
0 3 -14 158.38 9.8
0 3 -14 179.88 10.4
0 3 -14 181.48 14.4
1 -3 14 4 6
1 -3 14 3.3 5.3
-1 -3 -14 4.2 2.4
1 -3 14 5.6 3.7
-1 -3 -14 2.3 2.2
-1 -3 -14 3.9 3.3
-1 -3 -14 1.6 6.4
1 -3 14 -1.5 8.4
-1 -3 -14 2.6 4.5
-1 3 -14 6 6.6
-1 3 -14 2.7 4
-1 3 -14 -2 3.9
2 -3 14 258.37 22.5
-2 -3 -14 271.87 16.6
-2 -3 -14 280.47 12.9
2 -3 14 281.47 15.2
-2 -3 -14 277.87 12.3
2 -3 14 278.87 9.6
2 -3 14 266.87 16.4
-2 -3 -14 277.27 9.8
-2 3 -14 260.27 11.3
-2 3 -14 279.27 17.8
-2 3 -14 296.27 13
3 -3 14 27.7 6.8
3 -3 14 11.9 6.9
-3 -3 -14 29.3 5.4
-3 -3 -14 28.4 4.5
-3 -3 -14 24.8 8.6
3 -3 14 -1.3 11
-3 -3 -14 20.9 6
3 -3 14 30.7 3.3
3 -3 14 22 3.5
-3 3 -14 29.4 8.7
-3 3 -14 28.9 5.9
-3 3 -14 25.1 4.7
4 -3 14 134.59 14.5
-4 -3 -14 137.39 8.7
4 -3 14 124.89 18.5
-4 -3 -14 124.89 10.1
4 -3 14 122.89 5.9
-4 -3 -14 128.19 11.4
4 -3 14 127.29 7.2
-4 3 -14 124.79 7.3
-4 3 -14 127.99 11.4
-4 3 -14 121.59 14.6
-5 -3 -14 -9.9 6.4
5 -3 14 9.5 4.6
-5 -3 -14 1.7 4.8
-5 -3 -14 3.6 4.2
-5 3 -14 -1.1 8
5 3 14 0.9 8
-5 3 -14 -13.1 9.5
-5 3 -14 0.4 5.8
-6 -3 -14 19.9 5.7
-6 -3 -14 0.5 5.9
6 -3 14 5.4 6.1
-6 3 -14 20.1 14
-6 3 -14 6.3 9.5
-6 3 -14 9.8 7.2
7 -3 14 31.5 8.3
-7 -3 -14 43.6 7.4
-7 -3 -14 15.6 7.7
-7 3 -14 33.2 9.7
-7 3 -14 37.9 12.9
8 -3 14 39.1 10.2
-8 3 -14 32 14.2
-8 -4 14 11.2 10.9
8 -4 -14 13.7 17.8
-8 -4 14 -2.6 10.2
-8 4 14 -11.7 16.1
7 -4 -14 5.6 15.5
-7 -4 14 -9.5 9.1
7 -4 -14 -0.4 6.9
-7 -4 14 2.6 9.9
-7 4 14 -11.7 13.4
-7 4 14 -2.2 7.1
6 -4 -14 -11 15.2
-6 -4 14 -10.2 8.1
-6 -4 14 0.6 8.6
6 -4 -14 -5.9 6.9
-6 4 14 2.2 12.7
-6 4 14 4.6 5.9
5 -4 -14 1.6 13.8
5 -4 -14 3.8 6
-5 -4 14 4.9 8.1
5 -4 -14 -17.6 16.1
-5 4 14 10.9 11
-5 4 14 3.3 5.2
4 -4 -14 29.8 6.1
4 -4 -14 4.3 14
4 -4 -14 26.4 13.6
-4 -4 14 27.9 9.4
4 4 -14 14.4 9
-4 4 14 31.1 5.1
-4 4 14 20.6 11.4
3 -4 -14 69.79 16.5
3 -4 -14 38.4 8.4
3 -4 -14 49.2 7
-3 -4 14 53.69 10.5
-3 -4 14 61.99 10.5
3 4 -14 47 9.5
2 -4 -14 28 12.4
2 -4 -14 51.69 7.2
2 -4 -14 25.1 9.6
-2 -4 14 38.9 9.2
2 -4 -14 61.99 16
-2 -4 14 43.2 8.7
2 4 -14 55.39 9.6
2 4 -14 42.5 5.4
1 -4 -14 42.2 14.6
1 -4 -14 14 7.2
1 -4 -14 19 6
-1 -4 14 9.8 7.8
-1 -4 14 28.1 7.6
1 4 -14 18.2 7.5
1 4 -14 21.6 5
0 -4 14 42.6 10.2
0 -4 14 43.4 7.2
0 -4 -14 42.5 7.9
0 -4 -14 40.9 7
0 -4 -14 17.6 12.5
0 -4 -14 19.9 8.4
0 -4 -14 39 6.5
0 -4 -14 54.39 5.1
0 4 -14 48.8 6.2
-1 -4 -14 18 7.3
1 -4 14 8.3 8.5
1 -4 14 15 5.5
-1 -4 -14 22.1 4.7
-1 -4 -14 14.2 5.4
-1 -4 -14 16.6 5.4
-1 4 -14 8.7 5.5
-2 -4 -14 71.09 7.3
-2 -4 -14 47.5 8.9
2 -4 14 54.69 12
-2 -4 -14 51.59 7.5
2 -4 14 47.6 5.8
-2 4 -14 42.8 6.6
-2 4 -14 49.9 11.7
-3 -4 -14 22.6 6.6
3 -4 14 10 10.3
-3 -4 -14 26.8 5.4
-3 4 -14 18.3 7
-3 4 -14 13.2 12.4
4 -4 14 13.2 10.8
-4 -4 -14 20.7 8.1
-4 4 -14 16.7 7.2
-4 4 -14 38.4 13.5
5 -4 14 45.8 14.9
-5 -4 -14 50.69 9.9
-5 4 -14 40.1 15.3
-5 4 -14 41.1 9.2
-13 0 15 15.4 6.2
13 0 -15 8.4 10.4
-13 0 15 17.8 13.1
13 0 -15 8.7 10.4
-12 0 15 7.1 6.6
12 0 -15 1.3 8.8
12 0 -15 0.1 8.2
-12 0 15 3.2 13.6
-12 0 15 20 11.9
-11 0 15 16.3 15.8
11 0 -15 -0.2 6.4
-11 0 15 -12.9 7.1
-11 0 15 -1.9 9.1
11 0 -15 2.6 7
-11 0 15 12.6 10.2
-11 0 15 0.9 4.8
-10 0 15 -5.2 4.3
10 0 -15 1.3 5.9
-10 0 15 -3.4 8.7
-10 0 15 0.9 8.2
-10 0 15 14.4 12.2
10 0 -15 -1.4 6.8
-10 0 15 -11.3 5.4
10 0 -15 2.8 5.4
-9 0 15 2.5 4.7
9 0 -15 0.3 5.1
-9 0 15 0.6 9.4
-9 0 15 1.5 8.3
9 0 -15 -2.7 4.6
9 0 -15 -8.2 4.3
-9 0 15 0.2 3.7
-9 0 15 -8.4 6.5
-8 0 15 -0.6 3.1
-8 0 15 1.9 5.6
-8 0 15 7.6 9.1
8 0 -15 1.4 4.2
-8 0 15 -6.9 3.9
8 0 -15 5.3 4.6
-8 0 15 2 4
-8 0 15 7.9 8.3
8 0 -15 5.8 4.6
8 0 -15 -0.2 5.1
-7 0 15 -1.4 3.2
-7 0 15 6.7 6.9
-7 0 15 -3.4 3.6
-7 0 15 5.2 6.5
7 0 -15 0.2 3.3
7 0 -15 -2.8 3.9
7 0 -15 -4.4 4.6
7 0 -15 0 3.7
-7 0 15 -2.8 4.4
-7 0 15 0.1 2.5
-6 0 15 4.7 5.4
6 0 -15 3.3 3.7
-6 0 15 2.4 3
6 0 -15 0.8 3.9
6 0 -15 2.2 3.7
-6 0 15 -6.9 3.7
-6 0 15 19 8.1
-6 0 15 -1.7 2.1
-6 0 15 1.8 2.9
6 0 -15 0.6 3
5 0 -15 -0.6 2.9
5 0 -15 0 3.1
-5 0 15 2.6 2.4
-5 0 15 1 2.7
-5 0 15 2.3 3.2
5 0 -15 1 3.3
-5 0 15 6.6 5.8
5 0 -15 2.7 3.5
-4 0 15 0.5 2.2
-4 0 15 3.6 3.9
4 0 -15 -3.7 3.4
-4 0 15 2.5 2.3
-4 0 15 0.3 3.2
4 0 -15 -1.1 3.2
4 0 -15 0.8 2.4
3 0 -15 5.2 3.4
-3 0 15 0.9 2.2
-3 0 15 1.6 2.9
3 0 -15 -0.1 2.8
3 0 -15 0.6 2.6
-3 0 15 2.4 3
3 0 -15 4 2.3
-3 0 15 1.7 2
2 0 -15 2.1 2.3
-2 0 15 0.6 2.4
2 0 -15 4.9 3.3
-2 0 15 3 3
-2 0 15 -0.3 1.7
2 0 -15 -1.5 2.3
-2 0 15 1.5 2
2 0 -15 1.3 2.3
2 0 -15 2.2 2.5
-1 0 15 -0.3 2
-1 0 15 -0.1 1.7
1 0 -15 0.8 2.6
1 0 -15 2.3 2.3
1 0 -15 2.7 2.8
1 0 -15 -0.6 2.3
1 0 -15 0.9 2
1 0 -15 1.3 2.2
-1 0 15 -1.2 2.6
0 0 -15 7.3 3.2
0 0 15 3.4 2.1
0 0 15 4.1 2.4
0 0 -15 5.3 2.6
0 0 -15 0.7 2.5
0 0 15 4.9 2.9
0 0 -15 4 2.3
-1 0 -15 1.8 2.5
1 0 15 2.4 2.1
-1 0 -15 0.5 2.2
1 0 15 -2 3.1
1 0 15 -2.1 2.4
1 0 15 1 2.3
-1 0 -15 1.2 2.4
-1 0 -15 -1.9 3.2
-2 0 -15 -2 2
2 0 15 0.5 2.1
-2 0 -15 1.9 3.2
2 0 15 -2.1 1.9
2 0 15 0.4 2.2
-2 0 -15 0.3 2.6
-2 0 -15 4.5 2.7
-3 0 -15 -2.2 2.2
-3 0 -15 -4.1 3.5
3 0 15 -0.4 2.8
3 0 15 -0.6 2
3 0 15 -0.6 3.6
-3 0 -15 -6.3 2.8
3 0 15 1.2 2.4
-3 0 -15 0.5 3
3 0 15 1.4 3.2
4 0 15 -0.2 3.6
4 0 15 -0.7 2.4
-4 0 -15 0.1 3.6
-4 0 -15 0.3 2.8
4 0 15 3.9 3.2
4 0 15 -3.9 3.5
4 0 15 -1.8 3.6
-4 0 -15 -5.5 3.6
-4 0 -15 2.5 2.5
5 0 15 6.2 4.1
-5 0 -15 3.9 3.9
5 0 15 2.1 2.6
-5 0 -15 1.1 4.9
-5 0 -15 -0.3 2.6
5 0 15 -1.7 4.2
5 0 15 4.2 4.9
-5 0 -15 3 3.6
6 0 15 -3.8 5.7
-6 0 -15 -1.9 2.7
-6 0 -15 1.6 5.1
-6 0 -15 1.3 3.8
6 0 15 0.2 5.2
-6 0 -15 -1.4 5.6
6 0 15 5.5 4.6
6 0 15 4.6 3.2
7 0 15 8.3 3.8
-7 0 -15 4 3.7
-7 0 -15 -8.6 7
-7 0 -15 2.2 4.6
-7 0 -15 -0.2 5.8
7 0 15 -2.3 6.5
-8 0 -15 -21.1 10.3
-8 0 -15 -0.8 5.9
-8 0 -15 2.9 4.2
-8 0 -15 -3.5 8
8 0 15 2.6 4.6
8 0 15 -8.6 7.9
-9 0 -15 5.5 8.7
-9 0 -15 1.4 5.1
-9 0 -15 2.5 6.7
9 0 15 5.4 10.3
-10 0 -15 11.4 16.1
10 0 15 22 13
-10 0 -15 9 6.4
-10 0 -15 -14.5 9.1
-13 -1 15 426.76 22
13 -1 -15 477.85 26.4
-13 -1 15 480.55 33.3
13 -1 -15 529.75 24
-13 1 15 589.84 45.4
13 1 -15 502.35 28.5
13 1 -15 412.56 24.1
-12 -1 15 -10 8
12 -1 -15 16 10.1
-12 -1 15 19.7 13.8
12 -1 -15 15.4 8.5
-12 1 15 6.6 8.1
-12 1 15 41.6 13.7
12 1 -15 4.6 8.8
-12 1 15 10 4.5
12 1 -15 23.6 9.9
-11 -1 15 706.73 29.7
11 -1 -15 718.83 24.2
11 -1 -15 707.73 26.6
-11 -1 15 696.13 33.7
-11 -1 15 735.93 36.3
-11 -1 15 694.23 23.8
11 1 -15 693.93 26.9
-11 1 15 727.43 17.8
11 1 -15 711.43 23.6
-11 1 15 755.82 32.6
-11 1 15 717.03 22
-11 1 15 696.13 30
-10 -1 15 383.26 19
10 -1 -15 382.76 17.1
-10 -1 15 450.15 26.6
-10 -1 15 377.06 25.6
-10 -1 15 373.56 21
-10 -1 15 351.16 19
10 -1 -15 388.66 19.5
-10 1 15 301.87 28.9
-10 1 15 404.06 21.1
-10 1 15 403.76 11.3
10 1 -15 398.56 19.2
-10 1 15 405.86 15.3
10 1 -15 404.26 16.1
-10 1 15 415.26 23.5
-9 -1 15 128.79 10
9 -1 -15 141.59 14
-9 -1 15 155.68 18
-9 -1 15 132.09 18
9 -1 -15 161.28 11.4
9 -1 -15 175.78 14
-9 -1 15 157.98 14.5
-9 -1 15 139.79 13
-9 -1 15 147.89 12.6
-9 1 15 147.09 9
9 1 -15 145.99 13.7
-9 1 15 153.18 16.2
-9 1 15 183.38 21.2
-9 1 15 163.38 6.1
-9 1 15 144.79 14
-9 1 15 139.59 9.6
9 1 -15 165.08 10.1
9 1 -15 168.78 13
-8 -1 15 398.56 19.5
-8 -1 15 402.26 15.4
-8 -1 15 385.16 22.7
-8 -1 15 428.96 18.3
8 -1 -15 431.66 18.6
8 -1 -15 412.06 15.5
-8 -1 15 428.16 18.1
-8 -1 15 413.96 16.3
8 -1 -15 394.46 18.6
8 -1 -15 393.76 17.5
8 1 -15 405.76 13.9
-8 1 15 408.26 12.2
8 1 -15 414.66 18.1
-8 1 15 423.06 23.1
-8 1 15 400.56 10
-8 1 15 423.36 18.4
-8 1 15 436.46 14.3
8 1 -15 420.16 18.1
-7 -1 15 220.28 11
-7 -1 15 201.98 13.3
7 -1 -15 204.28 12.3
7 -1 -15 203.68 13.6
7 -1 -15 196.68 10.6
-7 -1 15 221.98 12.8
-7 -1 15 210.28 12.7
-7 -1 15 211.98 13.2
7 -1 -15 212.88 13
-7 -1 15 213.88 11.3
-7 1 15 209.58 16.1
7 1 -15 215.78 12.4
-7 1 15 218.48 7.2
-7 1 15 202.48 9.6
7 1 -15 222.68 12.7
-7 1 15 206.98 16.7
7 1 -15 210.18 12.6
7 1 -15 215.78 9
-7 1 15 206.18 6
-7 1 15 214.68 12.6
6 -1 -15 90.69 8.9
-6 -1 15 98.19 9.2
-6 -1 15 110.99 9.2
6 -1 -15 104.99 7.6
-6 -1 15 105.69 8.2
-6 -1 15 99.99 9.1
6 -1 -15 102.39 9
6 -1 -15 81.69 10.3
-6 -1 15 86.79 9.3
6 1 -15 102.49 8.9
-6 1 15 100.69 6.9
6 1 -15 95.19 6
6 1 -15 99.09 8.7
-6 1 15 99.49 13
6 1 -15 95.49 8.8
-6 1 15 104.69 9.5
5 -1 -15 430.56 17.9
5 -1 -15 442.46 16.3
-5 -1 15 420.66 17.9
5 -1 -15 451.05 15.4
-5 -1 15 423.96 16
-5 -1 15 436.96 14.6
5 -1 -15 432.16 14.4
-5 -1 15 442.96 14.2
-5 1 15 439.66 13.2
-5 1 15 459.35 15.7
-5 1 15 438.36 20.4
5 1 -15 440.06 11.7
5 1 -15 430.46 15.7
5 1 -15 443.26 16.1
5 1 -15 433.86 16.5
4 -1 -15 1498.25 35.5
4 -1 -15 1453.45 32.9
-4 -1 15 1480.95 35
4 -1 -15 1473.35 34.5
4 -1 -15 1436.16 37.5
-4 -1 15 1544.15 33.3
-4 -1 15 1485.65 34.4
-4 -1 15 1513.45 34.9
4 1 -15 1486.25 29.2
-4 1 15 1492.55 34.5
4 1 -15 1572.24 36.6
-4 1 15 1503.05 31.9
4 1 -15 1439.46 34.4
4 1 -15 1487.85 35.2
-4 1 15 1466.25 38.6
-3 -1 15 121.39 8.2
-3 -1 15 128.69 8.4
3 -1 -15 134.79 7.4
3 -1 -15 127.99 8.5
-3 -1 15 131.79 7.4
-3 -1 15 131.69 8.3
3 -1 -15 118.79 10.3
3 -1 -15 133.09 7.5
-3 1 15 112.89 4
-3 1 15 136.49 7
3 1 -15 136.19 9
3 1 -15 127.09 4.8
3 1 -15 131.29 8.4
-3 1 15 138.79 8.3
3 1 -15 142.29 8.5
-3 1 15 130.49 12
-2 -1 15 3529.55 67.89
2 -1 -15 3463.75 68.59
-2 -1 15 3461.15 68.29
-2 -1 15 3497.65 67.99
-2 -1 15 3427.66 65.69
2 -1 -15 3368.76 63.69
2 -1 -15 3365.16 71.09
2 -1 -15 3419.46 65.89
2 -1 -15 3436.36 66.39
2 1 -15 3488.45 68.69
-2 1 15 3530.55 67.79
-2 1 15 3230.28 61.99
2 1 -15 3385.56 61.29
-2 1 15 3495.05 65.79
2 1 -15 3461.75 67.79
-2 1 15 3390.76 69.59
2 1 -15 3388.26 69.99
1 -1 -15 250.97 11.2
1 -1 -15 256.67 8.6
1 -1 -15 274.87 9.2
1 -1 -15 270.17 11.4
-1 -1 15 264.97 11.2
1 -1 -15 271.67 9.8
-1 -1 15 255.07 10.7
-1 -1 15 265.67 10.6
1 1 -15 254.47 11.9
-1 1 15 260.17 10.9
-1 1 15 260.67 9.8
1 1 -15 257.57 6.3
1 1 -15 263.87 11.1
-1 1 15 252.37 8
1 1 -15 252.87 10.3
-1 1 15 267.17 12.8
0 -1 -15 1186.08 28.8
0 -1 15 1172.18 27.9
0 -1 15 1240.88 29.3
0 -1 -15 1202.58 27
0 -1 -15 1190.88 26
0 -1 15 1210.18 26
0 -1 15 1192.18 28.4
0 -1 -15 1236.58 25.6
0 -1 -15 1184.18 28.4
0 1 -15 1167.18 22.8
0 1 15 1173.08 28.5
0 1 15 1196.98 27.7
0 1 15 1189.38 25.5
0 1 -15 1153.48 24.3
0 1 -15 1174.18 30.3
0 1 -15 1203.38 29.1
0 1 15 1204.48 27
0 1 -15 1172.98 27.5
-1 -1 -15 12.1 3.2
-1 -1 -15 22.2 8
-1 -1 -15 15.8 3
-1 -1 -15 17.7 4.6
1 -1 15 16.2 3.2
1 -1 15 15.9 3.6
1 -1 15 20.8 3.9
1 -1 15 23.3 4.8
-1 1 -15 23.4 4.5
1 1 15 29.9 4.7
1 1 15 16 3.5
1 1 15 15.7 4
1 1 15 19.6 4.2
-1 1 -15 18.5 2.7
-1 1 -15 16.4 3.9
-1 1 -15 10.8 3.1
2 -1 15 693.63 18.9
-2 -1 -15 693.33 18.1
-2 -1 -15 683.93 20.1
2 -1 15 699.33 17
2 -1 15 692.93 19.6
-2 -1 -15 700.53 19.6
-2 -1 -15 681.03 18
-2 1 -15 687.03 17.9
2 1 15 709.23 19.1
-2 1 -15 670.73 16.3
-2 1 -15 661.03 21.1
-2 1 -15 701.93 20.5
2 1 15 689.73 18.8
3 -1 15 11.2 3.7
-3 -1 -15 8.9 4.7
-3 -1 -15 11 3.8
3 -1 15 18.6 4.4
-3 -1 -15 13.7 3.4
-3 -1 -15 17.6 3.8
3 -1 15 8.6 2.8
3 -1 15 13.7 3.5
3 -1 15 14.1 6
3 1 15 20 5.2
-3 1 -15 14 3.4
-3 1 -15 13 4.4
-3 1 -15 16.6 4.9
3 1 15 11.7 3.6
-3 1 -15 21.5 4.1
-4 -1 -15 241.38 12
-4 -1 -15 228.98 11.9
4 -1 15 238.58 10.2
4 -1 15 250.77 9.5
4 -1 15 237.38 11.6
-4 -1 -15 234.18 10.5
4 -1 15 217.28 16.6
4 -1 15 240.68 10.8
-4 -1 -15 254.17 10.1
-4 1 -15 246.68 12.4
-4 1 -15 229.38 9.5
-4 1 -15 239.38 13.1
-4 1 -15 243.18 11.2
4 1 15 224.58 12.9
5 -1 15 393.66 18.2
-5 -1 -15 388.16 13.4
-5 -1 -15 388.26 14.4
5 -1 15 398.36 14.8
-5 -1 -15 381.86 16.1
5 -1 15 390.36 14.3
5 -1 15 385.16 15.3
-5 -1 -15 367.06 16
5 1 15 378.26 17.3
-5 1 -15 375.66 12.4
-5 1 -15 393.66 15.8
-5 1 -15 402.16 16.9
-5 1 -15 402.86 17.4
5 1 15 376.16 16.9
-6 -1 -15 11.6 7
6 -1 15 20 6.1
-6 -1 -15 16.2 4.9
6 -1 15 18.5 5.8
-6 -1 -15 13.5 6
6 -1 15 12.5 7.9
6 -1 15 14.7 5.9
-6 1 -15 8 5
-6 1 -15 14.3 5.5
-6 1 -15 16.5 3.9
6 1 15 14.7 6.9
-6 1 -15 23.9 8.3
6 1 15 8.9 6.9
7 -1 15 699.63 25.1
7 -1 15 641.24 22.1
7 -1 15 655.53 22.2
-7 -1 -15 678.83 19.9
-7 -1 -15 661.63 21.7
-7 -1 -15 686.53 24.6
-7 -1 -15 651.43 24.6
-7 1 -15 667.23 24.8
7 1 15 654.73 25.1
-7 1 -15 642.04 25.7
-7 1 -15 669.73 18
-7 1 -15 685.03 24.8
8 -1 15 147.89 14.3
-8 -1 -15 121.99 15.5
-8 -1 -15 130.59 10.7
-8 -1 -15 145.29 12.3
-8 1 -15 145.99 9.5
-8 1 -15 158.38 17.7
8 1 15 140.59 16.6
-8 1 -15 124.29 15
-8 1 -15 130.49 14.7
-9 -1 -15 8.8 6.7
9 -1 15 -1.5 9.3
-9 -1 -15 6.3 6.4
-9 1 -15 9.8 5.6
9 1 15 -12 10.7
-9 1 -15 -15.9 9.4
-9 1 -15 -0.4 8.6
-12 -2 15 -20.3 9.2
12 -2 -15 5.9 8.7
-12 -2 15 -22.5 16.1
12 -2 -15 -5.8 12.3
12 2 -15 -7.1 9.9
12 2 -15 10 12.8
-12 2 15 45.3 17.2
-11 -2 15 28.3 8.9
-11 -2 15 58.79 18.5
11 -2 -15 37.7 9.1
11 -2 -15 45 12.3
-11 2 15 42.2 7.4
11 2 -15 27.1 9.9
-11 2 15 53.89 13.4
11 2 -15 46.4 9.5
10 -2 -15 22 10.4
-10 -2 15 40.6 8.3
-10 -2 15 50.99 14.1
-10 -2 15 40.5 13.5
10 -2 -15 44 7.8
10 2 -15 48.8 8.1
-10 2 15 46.2 6.8
-10 2 15 64.59 14
10 2 -15 29.1 9
9 -2 -15 21 10.4
9 -2 -15 21 6.1
-9 -2 15 16 8.5
-9 -2 15 45.2 11
-9 -2 15 23.7 8.7
-9 -2 15 17.3 6.3
-9 -2 15 30.5 11.2
-9 2 15 15.9 9.7
9 2 -15 28.9 6
9 2 -15 15.4 7.6
-9 2 15 26.9 5.3
-9 2 15 15.2 8.1
-8 -2 15 203.28 13.1
8 -2 -15 222.98 17.4
8 -2 -15 198.78 11.3
-8 -2 15 206.38 15
-8 -2 15 202.68 17.1
-8 -2 15 190.28 14.9
8 -2 -15 185.68 15.7
-8 -2 15 211.08 14.7
-8 -2 15 181.48 14.8
8 2 -15 201.78 10.1
-8 2 15 198.28 14.2
8 2 -15 224.38 14.9
-8 2 15 219.98 18.5
8 2 -15 183.58 16.7
-8 2 15 209.68 10.5
7 -2 -15 49.3 10.6
-7 -2 15 41.8 7.3
7 -2 -15 29.5 5.5
7 -2 -15 20.4 6.5
-7 -2 15 25.5 7
-7 -2 15 35.7 6.5
-7 -2 15 35.4 7.5
-7 -2 15 47.9 9.3
-7 -2 15 32.7 7
7 -2 -15 36.9 7.5
-7 2 15 37.4 5.2
7 2 -15 35.4 7.1
7 2 -15 40.9 9.2
7 2 -15 32 4.4
7 2 -15 38.4 7
-7 2 15 38.1 7.3
-6 -2 15 164.98 10.8
-6 -2 15 137.59 12.5
6 -2 -15 137.29 11.7
6 -2 -15 146.99 9
-6 -2 15 134.69 10.5
6 -2 -15 159.68 15.3
-6 -2 15 147.89 12.9
-6 -2 15 150.88 9.4
-6 2 15 148.49 8.6
-6 2 15 135.89 13.3
-6 2 15 163.28 10.6
6 2 -15 144.19 6.4
6 2 -15 146.69 13
6 2 -15 146.59 11.7
6 2 -15 128.59 10.6
5 -2 -15 232.08 12.5
-5 -2 15 216.18 12.2
5 -2 -15 206.28 10
-5 -2 15 203.88 11.2
5 -2 -15 210.18 12.7
5 -2 -15 210.78 16.1
-5 -2 15 225.58 13.9
-5 -2 15 215.28 11.8
-5 -2 15 217.58 7.8
5 2 -15 223.78 12.4
-5 2 15 208.88 13.9
5 2 -15 205.28 13.9
-5 2 15 221.38 9.9
5 2 -15 211.78 6.4
5 2 -15 218.68 11.7
4 -2 -15 31.4 5.9
-4 -2 15 31.5 5.5
-4 -2 15 35.3 6.5
4 -2 -15 20.5 7.2
4 -2 -15 29.4 5.6
-4 -2 15 40.4 7.3
-4 -2 15 24.9 5
4 -2 -15 29.7 4.5
4 2 -15 29.6 5.7
-4 2 15 24.9 6.4
4 2 -15 22.6 4.9
-4 2 15 29.7 4.6
4 2 -15 24.3 6.8
-3 -2 15 219.18 12.3
-3 -2 15 211.88 10.2
3 -2 -15 171.38 14.4
-3 -2 15 220.78 10.8
3 -2 -15 203.98 11.1
-3 -2 15 209.18 11.4
3 -2 -15 204.98 9.9
3 -2 -15 212.68 9.3
3 2 -15 200.78 11.2
-3 2 15 214.98 9.5
-3 2 15 206.48 10
3 2 -15 212.78 10.8
-3 2 15 205.28 12.5
-2 -2 15 5.3 3.5
-2 -2 15 6.9 4.9
2 -2 -15 -0.9 3.5
2 -2 -15 7.2 3.2
2 -2 -15 1.7 2.7
2 -2 -15 2.2 6.3
-2 -2 15 4.9 3.8
-2 -2 15 8 3.7
2 2 -15 2.5 3.7
-2 2 15 3.3 3.2
-2 2 15 1.7 3.5
2 2 -15 3.6 3.9
-2 2 15 -0.5 3.9
-1 -2 15 148.19 9.4
1 -2 -15 140.49 7.7
-1 -2 15 143.69 10
1 -2 -15 134.89 10.9
1 -2 -15 139.19 12.9
-1 -2 15 148.69 10
1 -2 -15 152.78 9.4
1 -2 -15 136.79 6.9
1 -2 -15 145.69 5.4
-1 -2 15 148.69 7.8
1 2 -15 159.18 9.1
-1 2 15 149.79 8.6
-1 2 15 153.18 8.6
-1 2 15 135.99 5.7
-1 2 15 134.69 8.8
1 2 -15 155.38 11.4
1 2 -15 152.78 9.2
0 -2 -15 662.83 17.8
0 -2 -15 670.33 21.3
0 -2 -15 656.03 15.1
0 -2 15 566.34 18
0 -2 15 679.03 20
0 -2 15 627.04 19.9
0 -2 -15 643.34 15.2
0 -2 -15 652.33 19.2
0 -2 15 662.03 20.9
0 2 15 602.84 18.6
0 2 -15 635.64 18.5
0 2 15 635.84 17.2
0 2 15 668.63 19
0 2 15 643.14 16.1
0 2 -15 657.43 19.4
0 2 -15 661.33 22.9
-1 -2 -15 749.53 22.6
1 -2 15 723.13 17.6
1 -2 15 728.73 22.9
-1 -2 -15 703.03 17.1
-1 -2 -15 725.43 19.4
-1 -2 -15 693.43 20.4
1 -2 15 725.93 21.4
1 2 15 710.33 18.6
-1 2 -15 720.83 21
1 2 15 738.33 20.8
-1 2 -15 726.03 24.5
-1 2 -15 708.53 19.5
-2 -2 -15 1139.29 28.4
2 -2 15 1097.49 30.7
-2 -2 -15 1142.89 25.4
2 -2 15 1119.39 28.8
-2 -2 -15 1132.39 27.2
-2 -2 -15 1179.68 30.6
2 -2 15 1140.99 35.3
2 -2 15 1153.08 24.7
2 2 15 1149.29 27.6
-2 2 -15 1159.78 29.3
-2 2 -15 1120.79 32.6
-2 2 -15 1121.09 23.4
-2 2 -15 1134.19 26.7
3 -2 15 870.51 19.8
3 -2 15 864.11 26.8
-3 -2 -15 922.11 24.9
-3 -2 -15 899.31 22
3 -2 15 922.41 20.4
3 -2 15 908.51 31.4
3 -2 15 908.31 24.8
-3 -2 -15 888.11 26
3 2 15 907.61 24.6
-3 2 -15 925.61 25.6
-3 2 -15 905.71 22.1
-3 2 -15 881.61 22.5
4 -2 15 154.68 7.2
4 -2 15 144.79 16.3
4 -2 15 139.29 7.8
-4 -2 -15 140.59 9.1
-4 -2 -15 148.09 8.5
-4 -2 -15 141.79 12.7
4 -2 15 141.99 11.8
4 -2 15 140.19 10.4
-4 -2 -15 139.89 10.1
-4 2 -15 139.69 12
4 2 15 140.39 11
-4 2 -15 138.59 8
-4 2 -15 137.39 11
-4 2 -15 151.68 12.7
-5 -2 -15 79.69 10.7
5 -2 15 87.59 9.5
5 -2 15 79.99 7.7
5 -2 15 71.59 11.4
5 -2 15 70.29 11.9
-5 -2 -15 84.79 8.6
-5 -2 -15 85.29 9.5
-5 -2 -15 86.69 8.4
-5 2 -15 74.19 6.9
5 2 15 82.19 9.9
-5 2 -15 92.69 11.1
-5 2 -15 84.49 12.2
-5 2 -15 82.69 10
6 -2 15 1 4.9
-6 -2 -15 -2 5.6
6 -2 15 6.1 11.2
-6 -2 -15 6.7 4.7
-6 -2 -15 8.9 4.9
-6 2 -15 -1.8 3.7
-6 2 -15 -7.3 10.4
-6 2 -15 1.1 5.6
6 2 15 8 8.5
-6 2 -15 5.8 6.9
-7 -2 -15 8.5 5.5
-7 -2 -15 8 5.2
7 -2 15 3.5 6.4
7 -2 15 42.2 13
-7 2 -15 6.5 14.2
-7 2 -15 3.3 7.9
-7 2 -15 10 4
-7 2 -15 5.6 7.2
-8 -2 -15 5.5 6.4
-8 -2 -15 2.7 6.3
8 -2 15 26.3 8.4
-8 2 -15 -1.2 9.5
-8 2 -15 36.9 18.3
-8 2 -15 2.3 9
8 2 15 -4.5 11
-9 -2 -15 17.5 7.7
9 -2 15 15.8 10.3
-9 -2 -15 22.5 8.1
-9 2 -15 19.7 14.8
9 2 15 13.3 14.8
-9 2 -15 2.1 10.8
-10 -3 15 129.69 17.2
10 -3 -15 153.58 14.3
10 -3 -15 125.59 17.8
-10 -3 15 151.38 18.7
10 3 -15 149.09 13.6
10 3 -15 141.39 17.2
-10 3 15 160.58 22.7
-9 -3 15 13.7 10
9 -3 -15 9 7.1
9 -3 -15 10.3 12.6
-9 -3 15 10.6 8.2
-9 3 15 11.7 6.9
-9 3 15 31.9 13.9
9 3 -15 10.7 10.3
9 3 -15 19.1 7.4
-8 -3 15 22 9.6
-8 -3 15 25.4 8.7
8 -3 -15 28.1 12.3
-8 -3 15 24 8.8
8 -3 -15 31.5 6.5
-8 3 15 40.1 12.9
8 3 -15 28.1 9.6
8 3 -15 24 6.2
-8 3 15 4.7 7.6
-8 3 15 7.7 6.4
-7 -3 15 646.84 19.6
7 -3 -15 567.54 29.6
-7 -3 15 618.44 24.2
7 -3 -15 544.85 28.2
7 -3 -15 620.94 19.6
-7 -3 15 627.34 24.7
-7 3 15 608.04 21.1
7 3 -15 656.13 25.5
-7 3 15 620.64 30
-7 3 15 636.44 19.3
6 -3 -15 85.89 14.2
-6 -3 15 93.69 12
-6 -3 15 65.79 12.2
6 -3 -15 82.29 8.7
-6 -3 15 85.39 7.2
6 -3 -15 75.59 13.1
-6 -3 15 63.79 9.6
-6 3 15 86.39 9.9
-6 3 15 96.29 15.6
-6 3 15 101.79 9.9
6 3 -15 78.79 9.9
5 -3 -15 502.05 26.4
-5 -3 15 517.85 20.1
5 -3 -15 535.35 17.1
-5 -3 15 508.55 18.3
-5 -3 15 519.05 24.1
5 -3 -15 521.65 19.8
-5 -3 15 543.55 21.3
5 -3 -15 477.95 22.9
-5 3 15 532.25 24.7
-5 3 15 529.75 17.4
5 3 -15 482.45 20.6
5 3 -15 526.15 17.8
-5 3 15 550.54 17.8
-4 -3 15 37.3 6.9
-4 -3 15 49.3 7.9
-4 -3 15 33.1 9.2
4 -3 -15 46.9 6.1
4 -3 -15 42.3 10.9
-4 -3 15 42 7.6
4 -3 -15 36.9 7.2
4 -3 -15 35.1 9.3
-4 3 15 49.1 6.8
-4 3 15 49.1 9.1
-4 3 15 42.8 5.6
4 3 -15 48.8 6.5
-3 -3 15 3.7 5.8
3 -3 -15 -7.8 9.1
3 -3 -15 -2.7 4.8
3 -3 -15 -3.5 5.6
-3 -3 15 4.4 4.8
-3 -3 15 5.3 5.1
3 -3 -15 -2.5 3.6
3 3 -15 -3.8 4.1
3 3 -15 6.6 5.1
-3 3 15 -1.7 4.5
-3 3 15 0.9 6.4
-3 3 15 3.8 3.7
2 -3 -15 431.46 14.6
2 -3 -15 424.16 23.2
2 -3 -15 418.76 16.2
2 -3 -15 396.26 18.1
-2 -3 15 425.96 18.5
2 -3 -15 421.36 20.7
-2 -3 15 440.96 20.2
-2 -3 15 389.16 15.4
-2 -3 15 430.66 15.7
2 3 -15 407.86 15.1
-2 3 15 412.46 13.9
-2 3 15 425.96 18.2
2 3 -15 420.86 17
1 -3 -15 1.1 6
1 -3 -15 -0.6 3.9
1 -3 -15 2.5 7.2
1 -3 -15 -1.6 4.6
-1 -3 15 -0.9 5
-1 -3 15 -1.1 4.4
1 -3 -15 -7.3 8.1
-1 -3 15 8 5.2
-1 -3 15 0.9 5.7
1 3 -15 -4.5 4.1
1 3 -15 5.4 4.9
-1 3 15 -0.8 4.9
0 -3 -15 147.19 6.1
0 -3 -15 153.28 7.4
0 -3 -15 142.49 15
0 -3 15 152.18 12.8
0 -3 15 162.18 12.7
0 -3 -15 168.78 9.6
0 -3 15 151.18 8.9
0 -3 -15 138.09 10.4
0 3 -15 151.38 10.2
0 3 -15 158.78 10.5
0 3 -15 153.78 14.8
-1 -3 -15 13.9 5.6
1 -3 15 7.4 5.9
1 -3 15 22.9 7.1
1 -3 15 14.5 4
1 -3 15 5.2 9.7
-1 -3 -15 9.7 3
-1 -3 -15 3.8 7.4
-1 -3 -15 13.5 4.6
-1 3 -15 13.5 5.2
-1 3 -15 16.8 4.9
-1 3 -15 -0.4 6.6
2 -3 15 110.59 6.9
2 -3 15 106.39 12.6
-2 -3 -15 94.29 11.9
-2 -3 -15 110.19 8.7
2 -3 15 119.19 17.7
-2 -3 -15 119.39 10.5
2 -3 15 115.09 12
-2 -3 -15 114.69 6.7
-2 3 -15 89.19 9.6
-2 3 -15 95.89 8.6
-2 3 -15 92.99 13.5
-3 -3 -15 23.4 4.3
3 -3 15 27.6 3.8
3 -3 15 15.8 7.7
-3 -3 -15 16.4 6
-3 -3 -15 16.4 4.9
3 -3 15 13.4 12.8
-3 3 -15 16.8 5.7
-3 3 -15 17.3 8
-3 3 -15 17.6 4.9
4 -3 15 39.7 10
4 -3 15 46 5.5
-4 -3 -15 51.19 7.2
-4 -3 -15 41.5 8.5
4 -3 15 49 5.9
-4 -3 -15 32.7 6.2
-4 3 -15 47.6 5.3
-4 3 -15 48.7 11
-4 3 -15 51.99 8.3
-5 -3 -15 10.7 8
-5 -3 -15 3.4 5.7
-5 -3 -15 14.5 4.9
5 -3 15 -12.9 8.5
5 -3 15 -0.3 4.6
-5 3 -15 3.1 6.5
5 3 15 14 9.1
-5 3 -15 22 10.6
-5 3 -15 -5 8.8
6 -3 15 7.6 6.1
6 -3 15 4.6 10.6
-6 -3 -15 18.5 5.6
-6 -3 -15 11.8 7.1
-6 3 -15 6.6 7.7
-6 3 -15 -2.1 10.7
-7 -3 -15 21.8 8
-7 -3 -15 14.7 6.6
7 -3 15 -2.2 7.8
-7 3 -15 -8.6 9
-7 3 -15 -7.8 11.4
-8 -4 15 10.6 10.9
8 -4 -15 44.9 24.3
-8 -4 15 -2.7 13.3
-8 4 15 14.4 17.3
-7 -4 15 16 11.2
7 -4 -15 16.9 7.6
7 -4 -15 8.5 16.7
-7 -4 15 -14 9.6
-7 4 15 1 8.1
-7 4 15 23.4 16.6
6 -4 -15 18.9 16.9
-6 -4 15 26 9.4
-6 -4 15 5.2 9.3
6 -4 -15 21.4 7.2
-6 4 15 25.3 7.4
-6 4 15 29.7 14.5
6 4 -15 31 11.8
5 -4 -15 77.09 18.2
5 -4 -15 81.59 9.1
-5 -4 15 84.29 13
5 4 -15 88.09 13
-5 4 15 88.69 8.2
-5 4 15 78.69 15.6
4 -4 -15 53.19 16.2
4 -4 -15 97.99 10.3
4 -4 -15 95.89 18.6
4 -4 -15 85.39 11
-4 -4 15 108.49 15.5
4 4 -15 87.19 11.9
-4 4 15 104.09 15.8
-4 4 15 90.39 8.8
3 -4 -15 224.68 12.8
3 -4 -15 150.08 21.3
-3 -4 15 211.98 17
3 -4 -15 222.58 15.2
3 -4 -15 220.58 25.5
-3 -4 15 226.08 17.2
3 4 -15 249.38 17.1
3 4 -15 211.68 10.3
-2 -4 15 34.5 9.7
2 -4 -15 24.2 6.5
2 -4 -15 1.2 14.8
-2 -4 15 21.1 8
2 4 -15 34 5.9
2 4 -15 36.3 8.9
1 -4 -15 61.89 10.8
-1 -4 15 64.79 11.1
1 -4 -15 70.19 7.8
-1 -4 15 72.99 9.1
1 -4 -15 56.89 14.7
1 -4 -15 88.49 9.8
1 4 -15 67.89 7.2
1 4 -15 91.59 10.7
0 -4 15 21.7 9.2
0 -4 15 15.5 6.8
0 -4 -15 10.4 7.3
0 -4 -15 11.8 6.4
0 -4 -15 0.7 5.3
0 -4 -15 20.1 3.5
0 -4 -15 15.9 13.5
0 -4 -15 21.3 6.1
0 4 -15 22.1 6.1
0 4 -15 16.6 7.3
1 -4 15 55.99 7.2
-1 -4 -15 62.99 7.7
1 -4 15 73.89 13.2
-1 -4 -15 48.9 6.1
-1 -4 -15 66.09 16.7
-1 -4 -15 61.89 13
-1 -4 -15 57.39 9.2
-1 4 -15 55.79 6.9
-2 -4 -15 1.1 5.9
2 -4 15 23.6 9.9
-2 -4 -15 19 4.7
-2 4 -15 -7.2 10.1
-2 4 -15 8.9 6.2
-3 -4 -15 98.39 12.5
3 -4 15 97.99 14.2
-3 -4 -15 113.09 9.6
-3 4 -15 111.79 17.5
-3 4 -15 108.99 12.5
-4 -4 -15 14.9 8.1
4 -4 15 13.8 12.3
-4 -4 -15 23.8 5.9
-4 4 -15 -11.6 12.9
-4 4 -15 5.7 8.1
13 0 -16 197.88 21.1
-13 0 16 239.08 13.4
13 0 -16 199.28 20.2
12 0 -16 1923.21 46.4
-12 0 16 1887.31 56.99
12 0 -16 1865.51 47.6
-12 0 16 1520.85 50.19
-12 0 16 1848.92 52.59
11 0 -16 146.79 14.3
11 0 -16 166.58 15.1
-11 0 16 140.29 15.9
-11 0 16 212.18 21.6
-11 0 16 152.28 23.4
-11 0 16 158.78 20.3
-11 0 16 122.59 10.8
-10 0 16 2061.49 44.5
10 0 -16 2063.89 49.4
-10 0 16 2032.9 46.4
-10 0 16 2053.49 58.29
10 0 -16 2103.79 47.9
-10 0 16 2077.19 56.59
-10 0 16 2094.19 52.19
-9 0 16 19.3 5.8
-9 0 16 12.1 10.5
9 0 -16 14.7 6.9
-9 0 16 7.4 7.1
9 0 -16 10.2 6.6
9 0 -16 17.4 5.7
-9 0 16 20.9 6.5
-9 0 16 12.5 4.3
-9 0 16 9.2 9.4
8 0 -16 1868.91 43.3
-8 0 16 1900.31 40.4
8 0 -16 1889.71 44.6
-8 0 16 1968.5 49.2
-8 0 16 1934.51 42.2
8 0 -16 1899.51 46
-8 0 16 1936.21 42.9
-8 0 16 1960.2 46.5
7 0 -16 24.8 6.9
-7 0 16 23 6
-7 0 16 20.2 3.7
7 0 -16 22.5 5
-7 0 16 24.8 9.2
-7 0 16 18.6 4.7
-7 0 16 16.2 7.6
7 0 -16 25.2 5.1
-7 0 16 18.7 4.4
7 0 -16 19.5 5.4
6 0 -16 2519.35 53.89
-6 0 16 2462.95 50.39
6 0 -16 2620.04 55.29
-6 0 16 2590.84 51.79
-6 0 16 2506.55 55.39
-6 0 16 2513.95 51.29
-6 0 16 2521.55 59.99
6 0 -16 2554.64 56.09
-6 0 16 2542.95 54.89
6 0 -16 2569.84 53.59
-5 0 16 87.99 8.4
5 0 -16 75.69 7.5
5 0 -16 79.39 8.3
5 0 -16 81.79 7.5
-5 0 16 80.79 6.6
-5 0 16 80.99 6.2
5 0 -16 87.99 7.8
-5 0 16 103.09 11.2
4 0 -16 897.81 25.1
-4 0 16 902.21 21.2
-4 0 16 883.01 24.1
4 0 -16 856.21 23.2
4 0 -16 887.61 23.9
-4 0 16 933.51 25.9
-4 0 16 945.01 22.2
4 0 -16 902.41 24
3 0 -16 22 4.5
-3 0 16 27.3 5.1
-3 0 16 22.7 3.7
3 0 -16 22.1 4.2
3 0 -16 19.9 4.7
3 0 -16 23.6 4
-3 0 16 22.9 4.9
-3 0 16 21 3.3
-2 0 16 126.89 6.6
2 0 -16 118.49 7.5
2 0 -16 123.89 8.3
2 0 -16 119.89 8.3
2 0 -16 116.19 7.2
2 0 -16 128.79 7.1
2 0 -16 130.59 7.4
-2 0 16 120.59 6
-2 0 16 121.19 8.3
-2 0 16 128.19 7.6
-1 0 16 87.59 6.1
1 0 -16 81.49 6.6
-1 0 16 76.49 5
-1 0 16 79.69 7.3
1 0 -16 78.39 7.1
1 0 -16 89.19 5.9
1 0 -16 80.39 6.2
1 0 -16 78.69 6.3
1 0 -16 72.59 7.1
-1 0 16 81.89 5.8
0 0 -16 1771.12 37.5
0 0 16 1740.13 35.9
0 0 16 1730.43 36.8
0 0 -16 1772.12 36.1
0 0 -16 1755.02 38.7
0 0 16 1782.62 36.6
0 0 -16 1769.42 39.8
0 0 16 1818.22 39.8
1 0 16 169.08 7.9
1 0 16 143.89 7
-1 0 -16 151.88 7.7
-1 0 -16 141.49 7.1
1 0 16 153.08 10
-1 0 -16 157.28 8.7
1 0 16 146.69 7.1
-1 0 -16 155.98 9.3
-2 0 -16 972.3 22.7
-2 0 -16 969.4 23.1
2 0 16 940.61 22.8
-2 0 -16 946.41 25
2 0 16 979.2 22.1
-2 0 -16 964.8 25.9
2 0 16 958.3 22.9
-3 0 -16 23.6 4.8
3 0 16 27.6 5.3
-3 0 -16 22 5
-3 0 -16 26.4 4.1
3 0 16 24.1 4.4
3 0 16 25.7 3.6
-3 0 -16 22.2 4.7
3 0 16 21.1 3.9
4 0 16 53.29 7.6
4 0 16 59.89 5
4 0 16 55.69 7
4 0 16 64.59 8
-4 0 -16 64.39 7.8
-4 0 -16 47.6 6.3
-4 0 -16 65.89 5.9
-4 0 -16 54.49 7.3
4 0 16 60.89 7.8
-5 0 -16 -8.6 4.9
-5 0 -16 0.1 3.2
5 0 16 6.3 5.1
5 0 16 0.6 4.3
5 0 16 -1 4.8
-5 0 -16 -1.3 4.4
5 0 16 -1.1 2.8
-6 0 -16 241.98 10.5
6 0 16 235.78 11.5
6 0 16 230.98 9.1
6 0 16 192.68 13.8
-6 0 -16 230.88 14.4
6 0 16 216.38 15.1
-6 0 -16 221.28 13
-6 0 -16 211.18 14
7 0 16 8.3 7
7 0 16 16.9 7.9
-7 0 -16 16.8 6.1
-7 0 -16 19.6 8.8
-7 0 -16 39.2 9.2
7 0 16 25.3 4.5
-7 0 -16 27.2 5
-8 0 -16 169.28 17.1
8 0 16 129.79 16.4
-8 0 -16 136.19 11.9
-8 0 -16 148.39 13.6
8 0 16 144.09 8.7
-9 0 -16 55.29 10.4
9 0 16 41.4 12.6
-9 0 -16 42.1 12.9
-9 0 -16 40 6.9
-12 -1 16 40.7 16.7
12 -1 -16 52.39 10.1
12 -1 -16 44.1 11.6
12 1 -16 19.9 10.3
-12 1 16 60.39 7.5
12 1 -16 26.3 9.7
-12 1 16 55.79 13.7
-11 -1 16 5.7 7
11 -1 -16 -1.9 7.1
11 -1 -16 16.8 8.9
-11 -1 16 7.8 17.2
-11 -1 16 15.2 13.3
-11 -1 16 -10.4 10.4
-11 1 16 14 6.8
11 1 -16 13 7.6
-11 1 16 23.5 10
-11 1 16 14.1 12
-11 1 16 21.8 3.8
11 1 -16 16.9 8.3
-10 -1 16 53.99 11
-10 -1 16 50.19 13.8
10 -1 -16 44.4 8.3
10 -1 -16 53.79 10.2
-10 -1 16 32.1 9.5
-10 -1 16 76.19 15.1
10 1 -16 49.8 7.5
-10 1 16 58.79 12.3
-10 1 16 55.49 7.6
-10 1 16 50.09 7.1
-10 1 16 57.89 16.3
10 1 -16 47.6 9
-10 1 16 50.99 10.7
-10 1 16 57.39 4.9
-9 -1 16 75.79 11
-9 -1 16 67.39 13.6
-9 -1 16 47.9 7.5
-9 -1 16 81.99 10.9
-9 -1 16 72.59 8.4
9 -1 -16 58.09 10.2
-9 -1 16 74.79 12.4
9 -1 -16 58.29 7.9
9 -1 -16 89.79 13.3
-9 1 16 74.69 12.7
9 1 -16 59.59 9.4
9 1 -16 78.29 8.6
-9 1 16 72.59 4.5
-9 1 16 73.29 8.9
-9 1 16 71.89 14.8
9 1 -16 52.09 9.3
-9 1 16 65.39 9.9
-9 1 16 63.99 7.2
8 -1 -16 100.09 12.3
-8 -1 16 89.59 13.6
-8 -1 16 94.89 11.7
-8 -1 16 100.89 8.7
-8 -1 16 112.59 12
8 -1 -16 87.29 9.7
-8 -1 16 121.19 10.6
-8 -1 16 111.09 12.1
8 -1 -16 109.09 12.1
8 -1 -16 93.99 11.3
-8 1 16 107.89 6.3
8 1 -16 107.19 11.5
8 1 -16 104.19 11.7
-8 1 16 95.79 11.7
-8 1 16 116.49 8.7
-8 1 16 104.19 4.4
-8 1 16 105.39 14.6
8 1 -16 116.89 11.2
-8 1 16 113.79 14.4
8 1 -16 103.19 7.9
7 -1 -16 197.38 12.4
-7 -1 16 212.48 13.4
-7 -1 16 197.38 12.3
-7 -1 16 198.08 10.8
-7 -1 16 188.88 11.2
-7 -1 16 209.28 13.5
7 -1 -16 193.38 13.3
7 -1 -16 203.08 13.8
7 -1 -16 196.48 10.9
-7 -1 16 187.08 13.4
7 1 -16 205.08 12.6
7 1 -16 183.18 12.5
-7 1 16 213.18 12.8
7 1 -16 201.98 8.9
-7 1 16 196.68 9.5
-7 1 16 182.68 16
-7 1 16 202.88 6.6
-7 1 16 188.18 5.6
-7 1 16 194.08 16.9
7 1 -16 193.48 12.8
6 -1 -16 77.39 8.4
-6 -1 16 73.19 8.6
-6 -1 16 59.79 8.6
-6 -1 16 68.59 7.6
6 -1 -16 65.89 7.3
6 -1 -16 57.69 7.4
-6 -1 16 75.59 9.1
-6 -1 16 70.39 8.6
6 -1 -16 70.89 9
6 1 -16 70.09 8.8
-6 1 16 75.19 6.7
6 1 -16 65.79 8.2
-6 1 16 68.29 11
6 1 -16 62.79 7.4
-6 1 16 69.39 8
6 1 -16 64.79 5.5
5 -1 -16 51.29 6.4
-5 -1 16 57.09 7
-5 -1 16 58.39 7.4
5 -1 -16 44.5 6.5
5 -1 -16 48.4 6.8
5 -1 -16 67.19 9.3
-5 -1 16 44.2 5.8
-5 -1 16 60.49 7.3
-5 1 16 56.59 7.3
-5 1 16 56.79 6.1
5 1 -16 60.59 7.5
5 1 -16 49.3 4.5
-5 1 16 63.69 10.7
5 1 -16 59.59 7.4
5 1 -16 53.29 7.9
4 -1 -16 725.33 21.8
-4 -1 16 678.23 23.2
4 -1 -16 703.33 20.3
4 -1 -16 740.33 19.8
-4 -1 16 744.33 19.9
4 -1 -16 703.53 23.7
-4 -1 16 752.12 21.8
4 1 -16 701.83 15.9
4 1 -16 730.43 21.8
-4 1 16 725.03 18.7
4 1 -16 754.52 22.8
-4 1 16 716.03 25.1
-4 1 16 724.33 21
4 1 -16 728.23 21.2
3 -1 -16 11.6 3.5
-3 -1 16 11.2 3.3
3 -1 -16 15.7 3.9
3 -1 -16 23.1 6.6
-3 -1 16 19 4.5
-3 -1 16 15.6 5
3 -1 -16 14.4 3.9
-3 -1 16 12.7 3.9
3 1 -16 18.4 4.9
3 1 -16 16.1 2.3
3 1 -16 17.2 4.5
-3 1 16 11.7 1.8
-3 1 16 14.5 3.7
3 1 -16 15.2 2.3
-3 1 16 13 3.3
3 1 -16 16.7 5
-3 1 16 26.7 7.2
-2 -1 16 1884.01 38.8
-2 -1 16 1871.21 41.1
2 -1 -16 1846.22 41.5
2 -1 -16 1865.81 39.4
-2 -1 16 1887.71 41.2
2 -1 -16 1908.21 39
2 -1 -16 1821.92 36.9
2 -1 -16 1845.02 44
2 1 -16 1849.52 42.8
2 1 -16 1818.82 33.9
2 1 -16 1738.53 35.9
2 1 -16 1899.41 43.2
2 1 -16 1850.81 41.6
-2 1 16 1830.02 42.7
2 1 -16 1855.11 40.7
-2 1 16 1932.61 39
-2 1 16 1901.21 40.9
-2 1 16 1809.12 35.2
-1 -1 16 15.4 3.8
-1 -1 16 23.6 3.8
1 -1 -16 15 4.2
-1 -1 16 18.6 4.2
-1 -1 16 22.3 4.9
1 -1 -16 17.3 4.7
1 -1 -16 17.6 3.5
1 -1 -16 14.3 3.6
1 -1 -16 15.5 3.1
1 1 -16 17.4 2.1
1 1 -16 13.8 4.2
1 1 -16 19 2.8
1 1 -16 26 5.2
-1 1 16 15.9 3.7
-1 1 16 23.8 4.2
1 1 -16 18.9 4.1
-1 1 16 14.9 2.9
-1 1 16 22.2 6.1
0 -1 -16 47.5 4.8
0 -1 16 49.3 4.9
0 -1 16 36.5 5.7
0 -1 16 42.6 5.8
0 -1 -16 45.5 6.1
0 -1 16 46 5.7
0 -1 -16 46.5 5.1
0 -1 -16 47.7 4.6
0 1 -16 33.3 5.5
0 1 16 39.2 5.4
0 1 16 50.59 5.5
0 1 -16 35.1 4.6
0 1 16 49.6 5.4
0 1 -16 50.19 3.2
0 1 -16 49.2 6.4
0 1 16 61.79 8.3
0 1 -16 49.7 4.6
-1 -1 -16 195.88 10.3
-1 -1 -16 189.58 10.3
-1 -1 -16 200.28 8.8
1 -1 16 183.08 11.1
-1 -1 -16 190.18 8.4
1 -1 16 195.48 9.7
1 -1 16 200.58 8.4
1 -1 16 194.38 9
1 1 16 201.38 9.3
-1 1 -16 188.38 8.9
-1 1 -16 197.28 10.5
1 1 16 198.58 9.4
1 1 16 202.28 9.6
-1 1 -16 190.68 6.8
-1 1 -16 194.58 11
-2 -1 -16 324.17 12.8
2 -1 16 298.97 12.1
2 -1 16 307.37 11.1
2 -1 16 319.97 11.9
-2 -1 -16 300.07 11.1
-2 -1 -16 296.27 13
-2 -1 -16 291.67 11.1
-2 1 -16 297.07 11
-2 1 -16 307.57 13.3
2 1 16 312.07 12.1
-2 1 -16 299.87 13.9
-2 1 -16 303.77 9.7
2 1 16 291.67 8.4
2 1 16 283.17 9.5
3 -1 16 123.99 8
-3 -1 -16 116.79 7.6
-3 -1 -16 103.49 9
3 -1 16 117.09 8.4
-3 -1 -16 111.99 7.2
3 -1 16 108.89 7.2
3 -1 16 116.49 7
-3 -1 -16 121.99 9.5
-3 1 -16 122.49 7.6
3 1 16 114.19 9.4
-3 1 -16 113.99 7.6
-3 1 -16 113.69 9.6
3 1 16 114.29 8.8
-3 1 -16 112.99 9.4
-4 -1 -16 11.1 3.9
4 -1 16 8.5 3.9
4 -1 16 4 4.2
-4 -1 -16 9.2 3.9
4 -1 16 10.6 3.7
4 -1 16 4.5 3.8
4 -1 16 4.8 6.1
-4 -1 -16 10.9 4.3
-4 -1 -16 4.7 5.1
-4 1 -16 2 4.9
-4 1 -16 2.9 4.8
4 1 16 2.2 6
-4 1 -16 4.1 3.1
-4 1 -16 7.8 5.6
5 -1 16 44.4 7.1
-5 -1 -16 38 6.1
5 -1 16 52.39 6.9
5 -1 16 60.49 8
-5 -1 -16 45.8 8.1
-5 -1 -16 37.9 7.5
5 -1 16 43.8 8.9
-5 -1 -16 48.3 7.8
5 1 16 43.4 8.3
-5 1 -16 38.6 5.2
-5 1 -16 44.4 8.4
-5 1 -16 40.4 7.6
-5 1 -16 49.6 8
5 1 16 53.29 9.4
6 -1 16 358.16 15.3
6 -1 16 363.56 19
-6 -1 -16 340.57 17.4
-6 -1 -16 337.67 13.3
6 -1 16 331.57 15.2
-6 -1 -16 309.67 16.7
-6 -1 -16 331.27 14.6
-6 1 -16 338.77 17.6
6 1 16 353.66 18.5
-6 1 -16 343.37 12.5
6 1 16 288.97 17.8
-6 1 -16 318.07 17.9
-6 1 -16 328.77 17.1
-7 -1 -16 20.9 5.7
-7 -1 -16 31.5 6.7
7 -1 16 55.19 10.3
7 -1 16 31 13
-7 -1 -16 18.8 7.7
7 -1 16 30.7 7.6
-7 1 -16 44.7 11.7
7 1 16 26.8 8.8
-7 1 -16 35.5 8.2
-7 1 -16 30.8 5.3
-8 -1 -16 10 9.3
8 -1 16 7.3 8.3
8 -1 16 9.6 7.5
-8 -1 -16 7.4 5.7
-8 -1 -16 3.7 6.3
-8 1 -16 9.2 8.4
-8 1 -16 0 14.3
-8 1 -16 11.9 9
8 1 16 23.1 10.8
-8 1 -16 5 5.4
-9 -1 -16 26.9 7.4
9 -1 16 25.2 11.3
-9 -1 -16 16.7 7.5
9 -1 16 19.8 9.5
9 1 16 15.1 12.1
-9 1 -16 24.9 10.1
-9 1 -16 21.8 10.7
-12 -2 16 268.37 20.6
12 -2 -16 351.26 20
-12 -2 16 270.87 33.2
12 -2 -16 288.07 25.3
12 2 -16 329.17 21.5
-12 2 16 465.35 50.39
12 2 -16 379.76 27.4
-11 -2 16 14.1 8.6
-11 -2 16 44.6 19.6
-11 -2 16 -1.6 15.4
11 -2 -16 52.09 9.6
11 -2 -16 51.59 13.4
11 2 -16 29.1 9.5
11 2 -16 14.5 10.6
-11 2 16 32.5 8.6
-11 2 16 46.1 12.9
10 -2 -16 305.27 21.8
-10 -2 16 302.37 17.1
-10 -2 16 302.67 26.5
-10 -2 16 274.07 24.3
10 2 -16 307.97 20.2
-10 2 16 297.67 25.3
-10 2 16 308.57 14
10 2 -16 296.37 15.2
-9 -2 16 6.3 9.1
-9 -2 16 6.1 10
-9 -2 16 22.7 11.1
-9 -2 16 11.2 9.4
-9 -2 16 17.2 6.8
9 -2 -16 11.5 5.8
9 -2 -16 15 9.6
9 2 -16 7.5 5.4
-9 2 16 21.3 9.7
-9 2 16 20.4 9.4
-9 2 16 9.2 5.6
9 2 -16 1.5 6.7
-8 -2 16 277.57 20.4
8 -2 -16 248.88 17.5
8 -2 -16 234.48 18.8
-8 -2 16 240.58 18.8
-8 -2 16 251.87 16.6
-8 -2 16 239.08 14.5
-8 -2 16 261.17 16.4
8 -2 -16 234.38 15.9
8 -2 -16 246.58 12.9
-8 -2 16 252.97 16.7
8 2 -16 253.87 16
-8 2 16 249.28 11.8
-8 2 16 277.87 20
8 2 -16 247.18 17.9
-8 2 16 262.57 15.8
8 2 -16 246.48 10.7
-7 -2 16 31.8 7.4
7 -2 -16 46.7 10.9
-7 -2 16 29.5 6.9
-7 -2 16 29.9 7.5
-7 -2 16 21.8 6.7
7 -2 -16 44.2 8.2
7 -2 -16 38.7 8.3
7 -2 -16 35.1 5.9
-7 -2 16 37.6 8.9
7 2 -16 32.7 9.2
7 2 -16 33.4 7
-7 2 16 35.2 5.6
-7 2 16 33 9.5
7 2 -16 31 6.7
7 2 -16 34.1 4.4
-7 2 16 30.4 6.5
6 -2 -16 430.76 18.4
6 -2 -16 409.06 14.7
-6 -2 16 386.66 16.4
-6 -2 16 411.26 17.5
-6 -2 16 384.36 13.3
6 -2 -16 416.76 17.5
6 -2 -16 368.16 22.1
-6 -2 16 400.86 18.8
-6 -2 16 395.56 16.7
6 2 -16 398.36 19.2
-6 2 16 393.26 16.1
-6 2 16 380.96 19.7
6 2 -16 381.76 17.2
-6 2 16 402.96 13.9
6 2 -16 354.46 20.2
6 2 -16 386.46 10.6
-5 -2 16 7.9 4.8
-5 -2 16 6.1 4.8
5 -2 -16 2.9 3.6
5 -2 -16 0.2 4.9
5 -2 -16 -0.2 4.7
-5 -2 16 3.6 4.7
-5 -2 16 -1.4 5.7
5 -2 -16 11.4 7.5
5 2 -16 3.1 5.5
5 2 -16 4.6 4.6
-5 2 16 2.7 3.9
5 2 -16 3.3 4.4
-5 2 16 -2 4.9
4 -2 -16 7.6 3.6
4 -2 -16 7.1 6.4
4 -2 -16 6.4 4.4
4 -2 -16 7.9 4.9
-4 -2 16 7.9 4.6
-4 -2 16 8.7 4.4
-4 -2 16 4.1 4
-4 -2 16 8.9 5.1
4 2 -16 9 5
-4 2 16 5.9 3.6
-4 2 16 7.6 5.3
4 2 -16 12.2 4.5
-4 2 16 -2.4 6.5
4 2 -16 13.3 6.2
-3 -2 16 0.6 4
-3 -2 16 -3.9 4.1
-3 -2 16 10.1 4.6
3 -2 -16 4.4 3.4
3 -2 -16 6.5 3.9
-3 -2 16 2.9 3.8
3 -2 -16 -2 3.8
3 -2 -16 8.3 6.2
-3 2 16 6.6 3.6
3 2 -16 2 3.9
-3 2 16 0 3.1
3 2 -16 -0.6 3.4
-3 2 16 7.1 5.1
-2 -2 16 105.29 7.9
2 -2 -16 102.79 7.4
-2 -2 16 98.39 8.7
2 -2 -16 102.89 8.7
-2 -2 16 106.69 10.2
2 -2 -16 103.19 6.9
-2 -2 16 106.09 9
2 -2 -16 106.99 12.3
2 2 -16 92.89 8.3
-2 2 16 99.69 7.7
2 2 -16 104.79 8.6
-2 2 16 113.39 8.3
-2 2 16 98.29 9
-1 -2 16 1.6 3.8
1 -2 -16 2.5 1.9
1 -2 -16 -0.7 2.4
-1 -2 16 6.9 4.3
1 -2 -16 -1.9 2.9
-1 -2 16 -1.5 3.9
1 -2 -16 4.6 6.2
1 -2 -16 0.6 5.2
1 -2 -16 3.9 3.8
-1 -2 16 -1.9 3.1
-1 2 16 3 2.2
-1 2 16 0.6 3.6
1 2 -16 -2.6 3.5
-1 2 16 1 3.5
1 2 -16 10.4 5
-1 2 16 1.2 3.4
1 2 -16 2.6 3.5
0 -2 -16 1204.18 30
0 -2 16 1189.58 31.7
0 -2 16 1251.67 27.2
0 -2 -16 1205.18 25.5
0 -2 -16 1215.28 25.1
0 -2 -16 1200.78 28.4
0 -2 16 1217.68 30.8
0 -2 -16 1244.18 32.3
0 -2 16 1211.68 30.9
0 2 16 1162.08 29.3
0 2 -16 1251.27 30.5
0 2 -16 1191.08 29.2
0 2 16 1186.68 29.4
0 2 -16 1227.28 34.4
0 2 16 1212.48 26.4
0 2 16 1189.08 27.3
-1 -2 -16 35.4 5.9
-1 -2 -16 35.7 5
-1 -2 -16 27 6.3
1 -2 16 37.5 4.5
1 -2 16 35.6 6
-1 -2 -16 29.5 4.3
1 -2 16 41.6 7.1
1 2 16 38.3 5.1
-1 2 -16 36.6 5.6
-1 2 -16 33.2 6.8
1 2 16 39.9 6.4
-1 2 -16 39.3 5.5
-2 -2 -16 190.08 10.7
2 -2 16 190.48 12.3
2 -2 16 194.48 16.5
2 -2 16 186.38 9.7
-2 -2 -16 199.08 12.9
2 -2 16 182.58 10.6
-2 -2 -16 182.48 8.4
-2 2 -16 159.48 20.7
2 2 16 159.98 13
-2 2 -16 188.68 11.3
-2 2 -16 183.88 9.5
-3 -2 -16 15.6 6.8
3 -2 16 13.6 4.8
-3 -2 -16 19.6 4.1
3 -2 16 12.9 5.2
-3 -2 -16 19.7 5.1
3 -2 16 26.1 9.4
3 -2 16 18.5 3.9
-3 -2 -16 26.3 4.6
3 -2 16 13.2 3.2
-3 2 -16 8.2 5.6
-3 2 -16 16.9 5.4
-3 2 -16 17.5 4.2
3 2 16 16.5 5.6
-3 2 -16 13.1 5.5
4 -2 16 162.38 17.2
4 -2 16 146.49 12.5
4 -2 16 153.38 11.4
-4 -2 -16 151.08 9.5
4 -2 16 155.58 8.3
-4 -2 -16 133.09 11.3
-4 -2 -16 174.38 13.9
4 -2 16 144.79 7.8
-4 -2 -16 164.38 9.3
-4 2 -16 149.79 11.7
-4 2 -16 135.29 13.4
4 2 16 155.98 12.2
-4 2 -16 158.88 12.8
-4 2 -16 150.78 8.9
-5 -2 -16 7.1 4
5 -2 16 7.8 9.4
-5 -2 -16 3.2 8.2
-5 -2 -16 -1.3 3.8
5 -2 16 6 10.1
-5 -2 -16 -4.7 6.2
5 -2 16 7.1 4.6
-5 2 -16 -3.9 6.2
-5 2 -16 5.2 4.3
5 2 16 3.6 6.6
-5 2 -16 5 8.9
-5 2 -16 4 6.1
-6 -2 -16 1659.13 38.3
6 -2 16 1644.44 43.4
-6 -2 -16 1678.13 38.7
-6 -2 -16 1422.76 43.8
6 -2 16 1629.14 37.1
6 -2 16 1577.44 47.8
-6 2 -16 1620.64 44
6 2 16 1573.54 42.9
-6 2 -16 1677.03 42.4
-6 2 -16 1638.04 34.2
-6 2 -16 1671.63 46
7 -2 16 2.5 8.5
7 -2 16 12.9 7.2
7 -2 16 40.2 14.1
-7 -2 -16 11 5.9
-7 -2 -16 4.1 6
-7 2 -16 13.6 9
-7 2 -16 44.2 15.7
-7 2 -16 3.2 4.7
-7 2 -16 9.1 9.5
-8 -2 -16 845.52 26.3
-8 -2 -16 856.71 27.5
8 -2 16 825.72 32.2
8 -2 16 855.71 27.9
-8 2 -16 840.62 34.3
-8 2 -16 850.61 31.7
-10 -3 16 18.2 12.7
10 -3 -16 24.9 14.6
-10 -3 16 19.4 10.4
-10 3 16 63.69 16.8
10 3 -16 29.8 10.8
10 3 -16 27.3 13
-9 -3 16 105.79 17.3
9 -3 -16 100.79 16.7
9 -3 -16 129.99 15.4
-9 -3 16 121.59 15.5
9 3 -16 99.79 14
-9 3 16 114.39 17.9
9 3 -16 115.09 12.8
-9 3 16 120.99 14
-8 -3 16 523.45 24
8 -3 -16 539.95 19.6
8 -3 -16 471.05 29.2
-8 -3 16 544.95 23.8
-8 -3 16 472.45 22.1
-8 3 16 530.55 29.9
-8 3 16 517.45 18.7
8 3 -16 525.65 25
8 3 -16 535.15 16.7
-7 -3 16 413.16 20.9
-7 -3 16 393.86 14.7
7 -3 -16 433.76 27.3
7 -3 -16 404.36 16.5
-7 -3 16 414.56 20.4
-7 3 16 378.16 15.7
7 3 -16 376.16 20.6
-7 3 16 398.36 18
-7 3 16 415.26 25.6
-6 -3 16 492.05 21.2
6 -3 -16 479.75 16.9
6 -3 -16 482.15 27.6
6 -3 -16 464.25 23
6 -3 -16 463.15 23.3
-6 3 16 497.35 25.9
6 3 -16 479.45 18.2
6 3 -16 511.95 22.2
-6 3 16 500.95 17.5
-6 3 16 486.85 18.2
5 -3 -16 655.63 19.9
5 -3 -16 631.44 29.8
-5 -3 16 654.33 23.1
-5 -3 16 651.83 26.6
-5 -3 16 681.63 24.3
5 -3 -16 632.24 24.6
5 -3 -16 679.43 23.4
-5 -3 16 624.74 21.4
5 3 -16 646.64 20.9
5 3 -16 671.13 24.2
-5 3 16 648.24 27.6
-5 3 16 662.73 20.4
-5 3 16 646.84 20.3
-4 -3 16 110.59 12.1
-4 -3 16 107.49 12
4 -3 -16 107.79 10.1
-4 -3 16 88.59 11.9
4 -3 -16 89.29 12.4
4 -3 -16 97.99 13.7
-4 -3 16 101.79 10.9
4 -3 -16 117.59 12.1
-4 3 16 120.19 10.3
-4 3 16 119.29 9.7
4 3 -16 117.69 10
-4 3 16 118.89 14.4
4 3 -16 135.69 12.6
-3 -3 16 283.87 17.9
-3 -3 16 282.57 14
3 -3 -16 308.27 21.6
3 -3 -16 291.07 14.6
-3 -3 16 288.17 15.8
-3 -3 16 287.97 14
3 -3 -16 284.07 14.8
-3 3 16 283.47 12.4
3 3 -16 296.57 15.6
-3 3 16 298.47 13.9
-3 3 16 296.17 17.3
3 3 -16 307.47 13.5
2 -3 -16 348.57 13.6
-2 -3 16 332.37 14.1
2 -3 -16 308.47 19.3
-2 -3 16 337.87 18.8
-2 -3 16 318.47 16.6
-2 -3 16 314.67 14.7
2 -3 -16 380.86 22.9
2 -3 -16 342.67 15.3
-2 3 16 332.07 16.5
2 3 -16 335.87 14.2
-2 3 16 338.07 13
2 3 -16 332.77 15.6
-2 3 16 310.57 14.5
1 -3 -16 149.99 17.4
1 -3 -16 166.48 10.1
-1 -3 16 167.08 10.4
-1 -3 16 162.78 12.3
1 -3 -16 156.18 15.5
1 -3 -16 171.08 11.8
-1 -3 16 175.58 13.1
1 -3 -16 159.88 8.9
-1 -3 16 164.88 13.8
1 3 -16 161.18 10.6
-1 3 16 158.88 11.4
1 3 -16 164.88 11.5
0 -3 -16 10.7 2.9
0 -3 16 10.1 6.5
0 -3 -16 12.9 3.5
0 -3 -16 12.7 9.2
0 -3 16 10.9 4.4
0 -3 16 8.7 6.3
0 -3 -16 3 4.1
0 -3 -16 6.2 5.7
0 3 -16 5.7 4.8
0 3 -16 6 4.9
0 3 -16 8.9 7.4
1 -3 16 208.88 14.6
-1 -3 -16 210.28 17.1
1 -3 16 202.18 14.9
-1 -3 -16 215.68 8.4
1 -3 16 199.58 22.1
-1 -3 -16 201.08 12.6
-1 -3 -16 213.38 11.2
1 -3 16 188.38 9.6
-1 3 -16 211.98 17.2
-1 3 -16 214.08 12
-1 3 -16 199.78 11.6
-2 -3 -16 7 5.7
2 -3 16 15.1 14.2
-2 -3 -16 2.9 4.4
2 -3 16 3.5 7.3
-2 -3 -16 2.6 3.2
2 -3 16 6.8 6.8
-2 3 -16 0.3 4.7
-2 3 -16 -5.6 7.2
-2 3 -16 3.3 5
-3 -3 -16 209.58 10
-3 -3 -16 216.08 14
3 -3 16 190.38 16
3 -3 16 207.28 8.9
-3 -3 -16 191.18 11.4
-3 3 -16 195.98 13.3
-3 3 -16 195.08 10.7
-3 3 -16 198.98 17.9
-4 -3 -16 75.19 9
4 -3 16 52.59 6
-4 -3 -16 78.19 10.1
4 -3 16 62.89 6.5
4 -3 16 48 10.3
-4 -3 -16 54.89 9.1
4 3 16 69.69 10.4
-4 3 -16 47.1 8.2
-4 3 -16 75.39 12.9
-4 3 -16 62.39 8
5 -3 16 252.67 11.2
-5 -3 -16 279.87 13.1
5 -3 16 258.27 20.1
-5 -3 -16 257.67 14.5
5 3 16 235.68 20.1
-5 3 -16 238.58 16.4
-5 3 -16 268.17 21.1
-6 -3 -16 66.19 9.1
6 -3 16 119.49 19.2
6 -3 16 87.39 11.5
-6 -3 -16 113.29 11.6
-6 3 -16 108.79 15.6
-6 3 -16 77.59 11.1
-7 -3 -16 137.99 14.1
-7 -3 -16 105.19 12.2
7 -3 16 86.09 15.2
-7 3 -16 100.29 13.5
-7 3 -16 88.99 18.3
-7 -4 16 141.19 20
7 -4 -16 124.89 14.2
-7 -4 16 134.49 19.6
7 -4 -16 68.59 19.3
-7 4 16 121.49 22
6 -4 -16 286.57 16.6
-6 -4 16 349.37 21.6
6 -4 -16 312.27 32.4
6 4 -16 315.27 23.3
-6 4 16 324.17 27.9
-6 4 16 334.37 16.2
-5 -4 16 25 10.2
5 -4 -16 32.2 6.9
5 -4 -16 20.9 14.9
5 4 -16 22.5 10.4
-5 4 16 24.9 13.5
-5 4 16 3.4 6.3
4 -4 -16 41 14.1
4 -4 -16 37.6 14.6
4 -4 -16 70.89 8.6
-4 -4 16 73.39 11.9
4 4 -16 80.49 11.6
-4 4 16 72.39 7.4
-4 4 16 63.59 14.1
-3 -4 16 3.2 7.3
3 -4 -16 -11.3 10.9
3 -4 -16 3.3 5.7
3 -4 -16 5.6 13.3
3 -4 -16 -20 11.4
3 4 -16 -10.9 8.6
3 4 -16 4.6 5.4
2 -4 -16 5.4 5.7
2 -4 -16 -0.6 9.1
2 -4 -16 25.3 15.8
-2 -4 16 7.6 7.4
-2 -4 16 12.3 8.6
2 4 -16 -6.9 8.2
2 4 -16 2.8 5.5
1 -4 -16 33.5 7
1 -4 -16 20.9 7.7
-1 -4 16 27.4 9.5
-1 -4 16 25 7.8
1 -4 -16 20.1 8.6
1 -4 -16 54.99 16.1
1 4 -16 28.4 6.7
1 4 -16 37.5 10.7
0 -4 -16 51.89 5.5
0 -4 -16 76.59 17.9
0 -4 16 33.7 7.9
0 -4 -16 21.8 10.7
0 -4 -16 56.29 8.7
0 -4 16 39.5 10.8
0 4 -16 39.4 8.8
0 4 -16 49.8 7.2
-1 -4 -16 48.5 7.6
-1 -4 -16 61.89 6.9
-1 -4 -16 44.2 17.4
1 -4 16 62.59 12.2
-1 4 -16 50.09 7.9
-2 -4 -16 26.7 7.6
2 -4 16 24 11.1
-2 -4 -16 41.8 5.8
-2 4 -16 24.6 7.3
-2 4 -16 24.4 12.4
-3 -4 -16 7.1 7.2
3 -4 16 22.1 11.6
-3 4 -16 35.8 8.2
-3 4 -16 8 13.4
4 -4 16 -7.4 12
-4 -4 -16 2.9 9.8
-4 4 -16 -20.1 9.2
-4 4 -16 9.4 14.5
12 0 -17 2.9 9.1
-12 0 17 1 12.8
12 0 -17 1.7 9
-11 0 17 -2.8 5.4
-11 0 17 -10.8 11
-11 0 17 -7.1 11.4
-11 0 17 -4.1 8.8
11 0 -17 -5.6 7.3
11 0 -17 -6.8 7.6
10 0 -17 6 6.3
10 0 -17 0.8 6.4
-10 0 17 4.8 7
-10 0 17 20.1 13.5
-10 0 17 -10.2 9.9
-10 0 17 -9 6.2
-10 0 17 -5.8 4.4
-10 0 17 4.5 9.7
-9 0 17 5.2 10.9
-9 0 17 -0.4 5.8
9 0 -17 4.5 7.2
-9 0 17 -3.4 8.1
-9 0 17 -1.7 5.7
9 0 -17 1.1 5.4
-9 0 17 -5.8 3.8
9 0 -17 12.4 7.2
-9 0 17 4.3 8.5
9 0 -17 -2.5 5.4
8 0 -17 1.1 5.6
-8 0 17 -2 2.8
-8 0 17 -3.3 4.1
8 0 -17 3.7 5
-8 0 17 4 9.1
-8 0 17 -1.7 8.2
-8 0 17 4 4.5
8 0 -17 2.1 5.2
-7 0 17 2.1 2.6
7 0 -17 4.6 5.2
-7 0 17 0.4 3.9
7 0 -17 2.1 4
7 0 -17 -2.5 4.8
-7 0 17 -7 6.7
-7 0 17 3.3 3.8
-7 0 17 5 5.7
7 0 -17 4.5 4.4
-7 0 17 -1.4 7.2
6 0 -17 0.5 4.8
-6 0 17 1 6.8
6 0 -17 -3.8 3.8
6 0 -17 -2.2 3.9
6 0 -17 -5.5 3.2
-6 0 17 -1.9 2.6
-6 0 17 2.3 3.5
-6 0 17 -2.5 4.7
-6 0 17 -1.4 3.2
5 0 -17 -3 3
5 0 -17 3.2 4.3
-5 0 17 2.5 3.4
-5 0 17 -1.1 2.7
-5 0 17 3.5 5.8
-5 0 17 -7.4 3.4
5 0 -17 -3.4 3.6
5 0 -17 2.4 4.1
4 0 -17 1 3.6
-4 0 17 1.6 4.2
4 0 -17 -2.1 4
4 0 -17 -4.2 3
-4 0 17 -4.1 2.8
4 0 -17 -2.6 2.8
-4 0 17 -1.5 2.3
-4 0 17 -1.4 4
-3 0 17 6.7 4.3
-3 0 17 3.6 2.7
-3 0 17 -0.5 2.1
-3 0 17 4.7 4
3 0 -17 3.1 3.3
3 0 -17 0.9 3.9
3 0 -17 8.1 4.5
3 0 -17 -0.1 2.6
-2 0 17 -0.4 3.5
-2 0 17 0.4 3
2 0 -17 -2.5 3
2 0 -17 -0.1 2.8
2 0 -17 -0.3 2.8
2 0 -17 6.2 2.8
-2 0 17 -1.4 2
2 0 -17 2.5 3.4
-2 0 17 -4.4 2.5
2 0 -17 2.3 3.9
1 0 -17 2 2.8
1 0 -17 6.7 3
1 0 -17 0.2 3.1
1 0 -17 1.7 2.7
-1 0 17 -0.5 2.2
1 0 -17 2.8 2.9
1 0 -17 8.9 4
-1 0 17 1.3 2.8
-1 0 17 8.6 2.9
-1 0 17 7.5 4
0 0 -17 10 3.4
0 0 17 7.6 2.7
0 0 17 10.9 3.1
0 0 17 16.4 4.5
0 0 -17 9.2 3.2
0 0 -17 10.7 3.2
0 0 -17 14.3 4.4
0 0 17 11.1 2.9
1 0 17 -1.6 2.5
-1 0 -17 -1.5 3.8
1 0 17 -0.2 2.8
1 0 17 -0.2 2.4
-1 0 -17 0.5 2.8
-1 0 -17 -3.3 2.8
1 0 17 -6 3.4
-1 0 -17 1.8 2.6
2 0 17 -0.7 2.5
-2 0 -17 -0.8 3.2
-2 0 -17 0.2 2.8
-2 0 -17 1.4 3.3
2 0 17 2.6 3.4
-2 0 -17 1 3.6
2 0 17 1.2 2.5
3 0 17 -3 4.4
-3 0 -17 3.1 4
-3 0 -17 0.6 3
3 0 17 7.1 3.7
-3 0 -17 0.5 3.7
3 0 17 -1.3 2.4
-3 0 -17 0.8 3.6
3 0 17 3.3 3.5
4 0 17 -2 2.6
-4 0 -17 -2.8 3
4 0 17 -7.4 4.3
4 0 17 -2.8 3.5
-4 0 -17 0.1 3.9
4 0 17 -2.2 4.2
-4 0 -17 -2.3 4.4
4 0 17 4.4 4.3
5 0 17 0.8 5.6
-5 0 -17 -2 4.9
5 0 17 2.7 4.7
-5 0 -17 -0.1 5.6
-5 0 -17 -2.3 4.2
-5 0 -17 -3.1 3.4
5 0 17 -0.9 5.4
5 0 17 -0.6 3
6 0 17 -4.9 9.6
6 0 17 -9.8 6.9
-6 0 -17 1.4 6.9
-6 0 -17 -3.5 6.2
6 0 17 16 5.3
-6 0 -17 2.2 5.4
6 0 17 -0.1 3.3
-6 0 -17 7.2 3.7
7 0 17 -3.1 3.6
-7 0 -17 -2 6.1
-7 0 -17 -8.7 8.6
7 0 17 -4.9 7.5
-7 0 -17 2.3 5.9
-8 0 -17 4.5 9.5
-8 0 -17 5.5 6.8
8 0 17 -1.9 9.7
-8 0 -17 -3.2 5.2
-9 0 -17 -3 8.8
-9 0 -17 -7.1 6.5
9 0 17 -5.3 12
12 -1 -17 195.48 19.8
12 -1 -17 145.29 17.9
-12 -1 17 197.48 27.4
-12 -1 17 166.38 16
12 1 -17 207.08 17.7
12 1 -17 225.88 20.7
-11 -1 17 121.79 16.5
11 -1 -17 139.19 14.7
-11 -1 17 146.79 19.8
-11 -1 17 151.88 21.5
-11 -1 17 105.29 13
-11 -1 17 152.58 20.3
11 -1 -17 120.39 13.7
11 1 -17 124.69 16.7
-11 1 17 150.88 14.3
11 1 -17 148.79 13.8
-11 1 17 134.39 7.2
-11 1 17 179.68 20.3
-10 -1 17 449.36 21.6
10 -1 -17 554.04 21.3
10 -1 -17 528.75 23
-10 -1 17 511.45 25.4
-10 -1 17 525.85 24
-10 -1 17 535.05 28.4
-10 -1 17 520.75 29.8
10 1 -17 534.85 18.8
-10 1 17 525.05 26.8
-10 1 17 523.65 24.5
-10 1 17 512.35 18.7
-10 1 17 526.55 16.5
-10 1 17 533.85 13.1
10 1 -17 543.25 23.1
9 -1 -17 221.18 16.2
-9 -1 17 232.98 19.4
-9 -1 17 200.58 16.3
-9 -1 17 238.08 12.8
-9 -1 17 197.28 20.5
9 -1 -17 240.58 16.8
9 -1 -17 252.97 19.2
-9 -1 17 218.38 16.1
9 -1 -17 188.88 14.2
-9 1 17 242.98 23.7
-9 1 17 234.88 9.7
9 1 -17 215.88 11.6
-9 1 17 234.18 7.1
-9 1 17 216.38 18.1
-9 1 17 226.88 16.7
9 1 -17 236.88 15.1
-9 1 17 228.48 12.2
8 -1 -17 520.35 21
-8 -1 17 518.45 21.9
8 -1 -17 487.25 20.8
-8 -1 17 529.45 20.7
-8 -1 17 529.05 18.3
8 -1 -17 493.65 21.3
-8 -1 17 460.65 18.2
-8 -1 17 508.95 20.2
8 -1 -17 491.55 18.5
-8 -1 17 526.75 24
-8 1 17 519.75 24.9
-8 1 17 518.85 12.8
8 1 -17 481.15 22.7
-8 1 17 541.65 21.1
-8 1 17 496.55 11.3
8 1 -17 497.85 15.8
8 1 -17 500.15 20.1
-8 1 17 498.25 16.4
8 1 -17 555.24 21.3
-8 1 17 511.15 25.6
7 -1 -17 696.93 23.2
-7 -1 17 662.63 22.4
7 -1 -17 691.53 21.3
-7 -1 17 688.43 21.1
-7 -1 17 686.13 23.1
7 -1 -17 727.43 24.8
-7 -1 17 735.93 22.9
-7 -1 17 675.13 21
-7 -1 17 694.33 28
7 -1 -17 668.73 24
7 1 -17 706.93 18.2
-7 1 17 695.93 23.1
-7 1 17 705.03 19.6
7 1 -17 637.74 27.7
-7 1 17 681.73 27.5
7 1 -17 670.53 23.7
7 1 -17 672.73 23.6
6 -1 -17 110.49 10.5
6 -1 -17 94.99 11.6
6 -1 -17 101.49 8.6
-6 -1 17 102.99 9.6
6 -1 -17 92.99 8.9
-6 -1 17 93.59 8.9
-6 -1 17 91.49 9.9
-6 -1 17 79.79 9.2
-6 -1 17 86.19 9.7
-6 1 17 89.29 13.5
-6 1 17 99.29 7.4
6 1 -17 89.59 9.2
6 1 -17 88.89 9.8
6 1 -17 90.09 6.2
6 1 -17 106.19 10.5
-6 1 17 85.89 9.2
5 -1 -17 203.68 13.7
-5 -1 17 211.48 11.7
5 -1 -17 214.68 10.6
-5 -1 17 202.08 11.6
5 -1 -17 201.08 12.5
5 -1 -17 206.48 10.9
-5 -1 17 211.78 10.5
-5 -1 17 182.48 10.9
-5 1 17 216.58 11.9
5 1 -17 198.88 7.5
-5 1 17 185.88 9.2
5 1 -17 209.38 12.5
5 1 -17 219.08 11.5
5 1 -17 205.68 12
-5 1 17 196.58 15.4
4 -1 -17 751.22 20.6
-4 -1 17 739.23 22.2
4 -1 -17 733.33 24.7
4 -1 -17 757.22 22.8
-4 -1 17 752.22 22
-4 -1 17 760.52 21.6
-4 -1 17 750.32 20.3
4 -1 -17 745.63 20.8
-4 1 17 749.82 19.5
-4 1 17 728.23 21.6
4 1 -17 736.63 16.3
-4 1 17 721.23 25.6
-4 1 17 707.33 14.6
4 1 -17 753.72 23.6
4 1 -17 749.33 22.8
4 1 -17 745.73 22.1
-3 -1 17 255.97 12
3 -1 -17 256.07 12.4
-3 -1 17 253.27 10.5
-3 -1 17 262.57 11.6
3 -1 -17 251.67 10.8
3 -1 -17 249.18 10.6
3 -1 -17 239.88 14
3 1 -17 248.98 7.1
3 1 -17 255.57 13.2
3 1 -17 252.67 12.4
-3 1 17 264.67 15.1
-3 1 17 242.68 10.2
3 1 -17 255.27 7.3
-3 1 17 240.48 6.7
-3 1 17 253.47 11.6
3 1 -17 262.57 12
2 -1 -17 2255.27 49.3
-2 -1 17 2275.87 47.9
2 -1 -17 2094.19 52.29
-2 -1 17 2306.17 46.3
-2 -1 17 2313.57 49.5
-2 -1 17 2340.87 49
2 -1 -17 2219.38 44.5
2 -1 -17 2264.27 51.89
2 -1 -17 2355.76 46.7
2 -1 -17 2290.87 47.3
2 1 -17 2260.37 50.69
2 1 -17 2254.97 49.5
-2 1 17 2322.67 48.7
2 1 -17 2227.68 42
-2 1 17 2299.47 46.5
-2 1 17 2220.38 50.29
2 1 -17 2252.77 48.3
2 1 -17 2213.58 41.1
-2 1 17 2203.48 42.6
2 1 -17 2332.67 51.19
1 -1 -17 104.79 6.6
-1 -1 17 100.79 7.6
1 -1 -17 99.89 6.2
1 -1 -17 98.29 6.8
1 -1 -17 105.99 8.6
-1 -1 17 94.49 8.7
-1 -1 17 100.09 7.5
1 -1 -17 100.19 10.2
-1 -1 17 103.69 6.6
1 -1 -17 99.29 8.6
1 1 -17 91.59 3.6
1 1 -17 100.99 5.2
-1 1 17 91.59 8.1
1 1 -17 85.39 8.2
-1 1 17 106.09 7.2
-1 1 17 110.69 10.3
1 1 -17 101.99 7.8
1 1 -17 96.79 8.7
-1 1 17 103.29 5.7
0 -1 -17 450.15 13
0 -1 -17 446.86 15.4
0 -1 -17 442.46 14.1
0 -1 17 441.06 14.5
0 -1 17 445.06 15.2
0 -1 -17 445.96 13.6
0 -1 17 446.46 16.8
0 -1 17 452.45 13.5
0 -1 -17 440.76 15.9
0 1 17 442.46 14.2
0 1 -17 422.76 16.7
0 1 -17 436.36 12.1
0 1 -17 437.36 16
0 1 17 443.46 15.5
0 1 -17 454.75 14.8
0 1 17 428.96 15.7
0 1 17 448.26 13
0 1 -17 435.96 10.3
-1 -1 -17 1526.75 34.1
1 -1 17 1500.75 35.2
1 -1 17 1545.95 34.6
-1 -1 -17 1543.15 33.9
1 -1 17 1552.14 32.7
-1 -1 -17 1555.84 35.5
-1 -1 -17 1537.75 36.4
1 1 17 1590.84 34.9
1 1 17 1511.35 32.7
-1 1 -17 1561.74 30.5
-1 1 -17 1532.65 34.4
1 1 17 1534.95 33.6
-1 1 -17 1518.45 36.7
-1 1 -17 1539.75 38.3
-2 -1 -17 50.59 7.2
2 -1 17 47.6 6.7
-2 -1 -17 49.4 6.4
-2 -1 -17 51.39 6
2 -1 17 44.2 6.6
-2 -1 -17 44.8 5.7
2 -1 17 50.89 5.8
2 1 17 51.89 6.5
2 1 17 54.29 6.6
-2 1 -17 40.4 4.6
-2 1 -17 57.89 6.2
-2 1 -17 49.1 7.1
2 1 17 41.2 4.3
2 1 17 38.9 4.7
-2 1 -17 43.9 6.7
3 -1 17 615.34 19
3 -1 17 620.94 16.9
3 -1 17 615.44 23
-3 -1 -17 621.94 20.4
-3 -1 -17 616.64 18.5
-3 -1 -17 638.74 18
3 -1 17 616.74 18.6
-3 -1 -17 637.94 19.7
3 -1 17 608.24 17.5
-3 1 -17 615.14 21.9
-3 1 -17 660.13 21.3
3 1 17 630.14 19.9
3 1 17 601.24 19.1
-3 1 -17 607.44 17
-3 1 -17 648.14 17.8
-4 -1 -17 65.59 8
4 -1 17 56.29 7.1
4 -1 17 52.99 7.7
4 -1 17 60.49 6.9
-4 -1 -17 69.39 7.7
-4 -1 -17 83.09 10.3
4 -1 17 68.29 7.3
-4 -1 -17 61.39 8
4 -1 17 56.69 9.8
-4 1 -17 69.79 7
4 1 17 63.69 9.2
-4 1 -17 64.49 9.7
-4 1 -17 58.29 7.4
-4 1 -17 69.99 7.8
-5 -1 -17 203.28 14.1
-5 -1 -17 226.28 11
5 -1 17 204.58 16.2
5 -1 17 215.68 12
5 -1 17 220.68 12.6
5 -1 17 224.28 12
-5 -1 -17 206.78 11.7
-5 -1 -17 209.08 14.1
5 1 17 191.58 14.8
-5 1 -17 217.18 10.4
-5 1 -17 190.48 14.1
-5 1 -17 210.28 14.3
-5 1 -17 230.28 14.1
6 -1 17 2.9 5.7
-6 -1 -17 -3.9 6
-6 -1 -17 10.3 8.3
6 -1 17 -2 6.1
-6 -1 -17 4.6 4.8
-6 -1 -17 1 4.7
6 -1 17 5.7 8.9
6 1 17 -9.3 8.4
-6 1 -17 -11 8.7
-6 1 -17 -3.7 4.3
-6 1 -17 -4.4 5.9
-6 1 -17 -2 6
6 1 17 1.9 7.8
-7 -1 -17 380.06 15.6
-7 -1 -17 355.46 17.1
7 -1 17 323.17 18
7 -1 17 432.16 21.7
7 -1 17 370.26 17.3
-7 -1 -17 345.47 19.9
7 1 17 363.26 21.6
-7 1 -17 355.66 20.2
-7 1 -17 358.46 14.2
-7 1 -17 382.06 23.8
-7 1 -17 358.06 20.4
-8 -1 -17 37.3 8.2
-8 -1 -17 27.7 7.2
8 -1 17 24.5 8.9
-8 -1 -17 49.1 12.2
8 -1 17 41.1 10.8
8 1 17 60.29 13
-8 1 -17 24.8 8.8
-8 1 -17 38.4 20.5
-8 1 -17 30.9 6.8
-8 1 -17 37.5 10.5
-9 -1 -17 114.99 15.9
-9 -1 -17 105.39 13.8
9 -1 17 126.19 15.9
-9 1 -17 116.09 17.4
9 1 17 134.99 17.3
11 -2 -17 64.39 10.8
11 -2 -17 64.89 14.4
-11 -2 17 23.9 15.7
-11 -2 17 55.29 11
11 2 -17 65.69 14.4
11 2 -17 71.59 11
-11 2 17 62.29 15
-10 -2 17 31.8 15.5
10 -2 -17 23.6 7.8
-10 -2 17 23.7 8
10 -2 -17 50.59 12.8
-10 2 17 28.7 7.4
-10 2 17 35.8 13.7
10 2 -17 27.3 7.7
10 2 -17 21.7 10.1
9 -2 -17 76.09 10.2
-9 -2 17 75.19 13.5
-9 -2 17 78.89 10.2
-9 -2 17 64.29 13
-9 -2 17 76.29 13.2
9 -2 -17 60.29 12.1
9 2 -17 76.39 9.5
-9 2 17 114.09 18.7
-9 2 17 79.69 10.2
9 2 -17 71.99 11.6
-8 -2 17 2.2 8.8
8 -2 -17 5.1 8.5
8 -2 -17 4.4 9.1
-8 -2 17 2.2 7.6
-8 -2 17 -0.4 5.4
8 -2 -17 -1.9 6.1
-8 -2 17 -1.3 6.9
-8 -2 17 -12.3 7.4
8 -2 -17 -2.2 4.9
-8 2 17 -0.3 6.8
8 2 -17 2 6.9
-8 2 17 2.7 8
-8 2 17 -2.9 4.9
8 2 -17 -0.3 4
8 2 -17 -3 5.9
-7 -2 17 116.59 13
-7 -2 17 122.19 11.4
-7 -2 17 116.39 11.4
7 -2 -17 120.09 12.8
7 -2 -17 111.79 14.3
-7 -2 17 129.79 11.7
-7 -2 17 103.49 11.9
7 -2 -17 118.39 12.7
7 -2 -17 126.59 10.4
-7 -2 17 119.99 14.1
7 2 -17 114.59 12
7 2 -17 117.49 12.6
7 2 -17 110.79 6.9
-7 2 17 113.79 14.7
7 2 -17 136.39 15.4
-7 2 17 127.99 9.6
6 -2 -17 -1 5.9
-6 -2 17 4.8 5.5
-6 -2 17 6.6 6.6
6 -2 -17 1.6 4.4
-6 -2 17 6.4 5.7
6 -2 -17 10 6.5
-6 -2 17 3.7 5.6
6 -2 -17 8.9 8.7
-6 2 17 3.5 5.1
-6 2 17 -1.6 6.3
6 2 -17 0.9 10.7
-6 2 17 5.8 4.2
6 2 -17 10.8 5.3
6 2 -17 6.7 5.8
6 2 -17 9.1 2.6
5 -2 -17 146.99 10.8
-5 -2 17 145.19 11
5 -2 -17 166.08 16
-5 -2 17 137.89 11.4
-5 -2 17 139.99 12.8
-5 -2 17 121.99 10.5
5 -2 -17 144.29 9.5
-5 2 17 136.39 12.9
-5 2 17 133.49 9.4
5 2 -17 145.69 11.3
5 2 -17 144.49 14
-5 2 17 143.69 10.7
-4 -2 17 52.69 7.5
4 -2 -17 42.1 5.6
4 -2 -17 45.2 6.4
-4 -2 17 41.2 6.1
-4 -2 17 51.79 8.3
-4 -2 17 56.09 8.5
4 -2 -17 41.9 6.6
4 -2 -17 44.3 9.8
-4 2 17 46.8 8.5
-4 2 17 52.59 6.6
4 2 -17 39.7 6.5
4 2 -17 52.99 7.6
-3 -2 17 212.48 13.3
-3 -2 17 218.88 10.8
3 -2 -17 194.08 16
3 -2 -17 190.58 11.7
-3 -2 17 206.38 11.5
-3 -2 17 201.78 12.1
3 -2 -17 210.38 10.3
3 2 -17 200.78 12
3 2 -17 230.28 12.2
-3 2 17 221.78 10.6
-3 2 17 216.48 13.2
2 -2 -17 115.39 8.1
-2 -2 17 114.29 9.8
-2 -2 17 107.49 9.9
2 -2 -17 120.19 11.9
-2 -2 17 103.29 9.5
2 -2 -17 104.49 7.1
-2 -2 17 106.09 7.9
2 -2 -17 108.09 9.3
2 -2 -17 78.19 10.5
2 2 -17 108.09 9.1
-2 2 17 116.29 8.7
-2 2 17 101.89 9.4
-2 2 17 107.19 8.2
2 2 -17 96.89 9
1 -2 -17 88.69 4.9
-1 -2 17 101.19 9.8
1 -2 -17 87.39 6.2
-1 -2 17 94.59 8.7
-1 -2 17 103.39 9.6
1 -2 -17 89.29 7.6
1 -2 -17 69.89 9.9
1 -2 -17 93.79 8.8
-1 -2 17 75.99 7.2
1 -2 -17 85.99 9.9
-1 2 17 77.09 8.5
-1 2 17 96.89 8.4
-1 2 17 81.69 7.9
-1 2 17 98.49 5.3
1 2 -17 93.49 10.8
1 2 -17 93.79 8.8
1 2 -17 97.79 8.7
0 -2 -17 7.6 3.5
0 -2 17 11 3.9
0 -2 -17 8.6 2.8
0 -2 17 10.3 5
0 -2 -17 10.8 4.7
0 -2 -17 10.9 5.9
0 -2 17 13.7 5.6
0 -2 -17 10.4 3
0 -2 17 7.9 4.6
0 2 17 3.5 3.7
0 2 -17 12.5 5.7
0 2 17 15.5 4.8
0 2 17 9.5 3.8
0 2 -17 5.5 3.9
0 2 17 9.9 3.4
0 2 -17 17 5.2
1 -2 17 -2.2 4.2
-1 -2 -17 1.9 4.9
1 -2 17 -1.4 4.2
-1 -2 -17 -1 2.4
1 -2 17 -2 3.2
-1 -2 -17 -2.9 4
-1 -2 -17 -2.5 6.2
-1 2 -17 4.9 4
-1 2 -17 -1.6 5.6
1 2 17 -3 3.5
-1 2 -17 2.3 4
1 2 17 2.4 4.2
2 -2 17 60.79 8
2 -2 17 80.59 6.7
2 -2 17 59.79 8.4
-2 -2 -17 55.69 5.9
2 -2 17 72.99 11.8
-2 -2 -17 73.09 9.7
-2 -2 -17 72.59 7.6
-2 -2 -17 72.59 8.4
-2 2 -17 46.8 8.2
-2 2 -17 71.49 9.3
-2 2 -17 54.79 7.4
2 2 17 53.79 7.8
3 -2 17 16.4 6.2
-3 -2 -17 14.7 4.7
-3 -2 -17 -1.8 4.8
-3 -2 -17 7.6 3.7
3 -2 17 16.3 4
3 -2 17 2 9.2
3 -2 17 3.9 5.2
-3 -2 -17 14.2 6.9
-3 2 -17 4.9 5.5
-3 2 -17 10.4 5.3
-3 2 -17 13.7 4.4
-3 2 -17 15 6.7
3 2 17 7.6 5.3
4 -2 17 25.2 4.7
4 -2 17 36.7 11.4
-4 -2 -17 21.1 4.8
-4 -2 -17 22.2 5.2
4 -2 17 23.2 6.1
-4 -2 -17 18.1 8.1
-4 -2 -17 16.3 6.9
4 -2 17 23.1 6.7
4 2 17 18.5 7.2
-4 2 -17 9.3 5.7
-4 2 -17 15.7 5.1
-4 2 -17 18.4 7.7
-4 2 -17 22.5 7.8
5 -2 17 66.59 22
-5 -2 -17 97.09 9.8
-5 -2 -17 102.09 13.1
-5 -2 -17 87.89 9.3
5 -2 17 82.59 7.9
5 -2 17 82.69 11.1
-5 2 -17 83.89 12
-5 2 -17 77.89 8.8
-5 2 -17 99.29 12.9
5 2 17 89.49 11.1
-5 2 -17 91.59 10.7
6 -2 17 405.46 16.4
6 -2 17 419.76 21.3
-6 -2 -17 401.06 16.6
6 -2 17 405.56 27
-6 -2 -17 399.46 16.9
-6 -2 -17 382.56 21
-6 2 -17 397.96 25.2
-6 2 -17 377.66 13.9
-6 2 -17 365.16 19.4
-6 2 -17 401.46 22.7
7 -2 17 65.29 12.1
7 -2 17 63.39 9.9
-7 -2 -17 73.39 9.8
-7 -2 -17 67.89 8.7
-7 2 -17 61.39 13.1
-7 2 -17 51.09 10.4
8 -2 17 214.38 20.8
8 -2 17 183.48 18.3
-8 -2 -17 223.28 16.9
-8 -2 -17 213.58 15.9
-8 2 -17 183.38 20.4
-8 2 -17 232.88 25.9
-10 -3 17 117.29 17.2
10 -3 -17 173.58 16.9
10 -3 -17 132.49 18.9
-10 -3 17 147.79 19
-10 3 17 172.58 28.4
10 3 -17 144.69 19.2
-9 -3 17 66.09 14
9 -3 -17 60.69 9.4
-9 -3 17 49.6 10.8
9 -3 -17 46.1 15.4
9 3 -17 44.8 12.3
-9 3 17 69.59 16.1
9 3 -17 47.4 12.5
8 -3 -17 5.5 12.6
-8 -3 17 9.8 8.3
8 -3 -17 15.1 7.2
-8 -3 17 27.6 9.8
8 3 -17 28.6 11.7
-8 3 17 18.3 11.8
-8 3 17 20 8.1
7 -3 -17 20 13.2
7 -3 -17 52.69 10.5
-7 -3 17 37.7 9.2
7 -3 -17 39 7.7
-7 -3 17 43.2 10
-7 3 17 38.6 8
7 3 -17 68.49 11.4
-7 3 17 54.99 13.6
6 -3 -17 26.3 6.2
6 -3 -17 20.3 8.4
6 -3 -17 24.8 12.4
6 -3 -17 21.4 10.1
-6 -3 17 36.1 8.9
6 3 -17 38.8 9.3
-6 3 17 33.8 7.1
-6 3 17 33.9 10.2
6 3 -17 27.9 6.8
-6 3 17 20 10.4
5 -3 -17 162.78 11.3
5 -3 -17 147.09 14.5
5 -3 -17 154.78 19.8
-5 -3 17 138.09 14.5
5 -3 -17 156.08 15.1
-5 -3 17 157.48 13.8
-5 3 17 150.98 11.3
5 3 -17 173.98 12.1
5 3 -17 185.38 15.1
-5 3 17 139.89 12
-5 3 17 162.98 20.1
4 -3 -17 82.69 11.7
-4 -3 17 95.49 11.7
4 -3 -17 89.79 9
4 -3 -17 91.69 10.2
-4 -3 17 69.49 8.9
-4 -3 17 93.49 13.1
4 -3 -17 79.69 13
-4 -3 17 80.79 11.6
4 3 -17 100.99 10.3
-4 3 17 89.39 9.3
4 3 -17 104.59 12.7
-4 3 17 82.69 10.3
-4 3 17 90.09 13.1
3 -3 -17 17 6
-3 -3 17 21.5 7
-3 -3 17 11.1 6.4
3 -3 -17 18.7 7
3 -3 -17 15 10.5
3 -3 -17 15 5
-3 -3 17 14.8 8.7
-3 -3 17 22 6.5
3 3 -17 16.9 6.6
-3 3 17 23.2 8.2
-3 3 17 14.9 5.1
3 3 -17 14 5.5
-3 3 17 12.5 6
-2 -3 17 536.25 23.2
2 -3 -17 537.25 25.1
-2 -3 17 570.64 18.7
2 -3 -17 570.54 20.2
-2 -3 17 573.54 22
2 -3 -17 602.94 28.4
2 -3 -17 584.64 18.3
-2 -3 17 534.35 20
-2 3 17 547.15 19.9
2 3 -17 597.84 19.6
-2 3 17 563.44 21.6
-2 3 17 556.84 18
2 3 -17 566.44 20.9
-1 -3 17 11.2 7.3
-1 -3 17 3.6 6.7
1 -3 -17 10.9 9.5
1 -3 -17 12.6 9.5
-1 -3 17 11.4 5.2
-1 -3 17 20.1 6.9
1 -3 -17 5.4 4.1
1 -3 -17 11.9 6.1
1 -3 -17 9.5 4.1
-1 3 17 19.1 5.9
1 3 -17 13.1 5.2
1 3 -17 5.5 5.5
0 -3 17 203.08 14.8
0 -3 17 201.68 11
0 -3 -17 216.08 13.8
0 -3 -17 232.98 11.8
0 -3 17 259.07 20.5
0 -3 -17 206.28 8.2
0 -3 -17 226.18 18.1
0 -3 -17 203.58 7.7
0 3 -17 220.58 17.8
0 3 -17 231.48 13
0 3 -17 195.08 12.5
-1 -3 -17 41.3 7.9
1 -3 17 45.3 5.6
-1 -3 -17 36.2 5.4
-1 -3 -17 38.8 6.7
1 -3 17 43.2 9.5
1 -3 17 36.5 12.9
-1 3 -17 29.4 6.5
-1 3 -17 44.5 7.3
-1 3 -17 36 9.7
2 -3 17 178.08 9.5
-2 -3 -17 192.18 11.7
-2 -3 -17 188.18 9.3
-2 -3 -17 174.18 14
2 -3 17 200.28 15.8
-2 3 -17 188.38 13.3
-2 3 -17 192.18 11.8
-2 3 -17 175.38 17.7
-3 -3 -17 -4.4 6.9
-3 -3 -17 7.9 4.2
3 -3 17 12.9 7.9
-3 -3 -17 0 4.8
3 -3 17 2.7 4.2
-3 3 -17 3.6 6.1
-3 3 -17 8.7 5.4
-3 3 -17 15.5 9.5
-4 -3 -17 120.59 10.1
-4 -3 -17 114.09 11.3
4 -3 17 99.19 16.2
-4 3 -17 118.39 15.9
-4 3 -17 128.39 14.2
-4 3 -17 111.79 9.6
4 3 17 114.19 15.6
-5 -3 -17 83.69 10.5
5 -3 17 58.89 11.8
-5 -3 -17 56.39 7.9
5 3 17 76.69 13.6
-5 3 -17 64.69 10.8
-5 3 -17 57.39 12.9
-6 -3 -17 28.7 8.2
6 -3 17 25.4 12.8
-6 -3 -17 22.1 7.1
-6 3 -17 14.1 10.4
-6 3 -17 13.2 11.7
7 -4 -17 1014.8 29.6
-7 -4 17 1042.7 41.1
-7 -4 17 985.9 36.9
-7 4 17 1000.1 46
7 4 -17 1053.09 39.2
-6 -4 17 638.84 28.6
6 -4 -17 629.94 39.2
6 -4 -17 639.14 23.2
-6 4 17 649.43 35.3
-6 4 17 690.53 23.9
6 4 -17 606.04 29.5
5 -4 -17 620.14 37.9
-5 -4 17 669.33 28.7
5 -4 -17 667.43 22.7
-5 4 17 690.73 33.9
-5 4 17 670.53 20.9
5 4 -17 682.03 29.2
-4 -4 17 239.68 20.5
4 -4 -17 215.48 14.4
4 -4 -17 202.68 22.3
4 -4 -17 240.38 29.3
-4 4 17 221.58 23
4 4 -17 213.28 12.8
4 4 -17 240.78 20.4
-4 4 17 229.98 12.6
3 -4 -17 202.08 18.8
3 -4 -17 247.08 14.7
-3 -4 17 240.78 19.1
3 -4 -17 285.97 28
3 4 -17 234.58 13.1
3 4 -17 232.58 19.2
-2 -4 17 20.3 8.9
2 -4 -17 -3.4 11.6
2 -4 -17 5.6 6.9
-2 -4 17 -11.3 9.3
2 -4 -17 3.6 14.6
2 4 -17 -7.9 8.8
2 4 -17 6.5 6.1
-1 -4 17 112.09 11.2
-1 -4 17 139.19 17.1
1 -4 -17 94.69 12
1 -4 -17 129.59 19
1 4 -17 109.89 11.6
1 4 -17 135.09 16.2
0 -4 -17 3.5 6.8
0 -4 17 13.9 7.4
0 -4 -17 5.1 16
0 -4 17 -6.1 8.8
0 4 -17 22.3 9
0 4 -17 24.9 6.9
1 -4 17 48.6 12
-1 -4 -17 50.29 9.2
-1 -4 -17 20.6 17.6
-1 -4 -17 57.69 8.7
-1 4 -17 53.29 9.1
-1 4 -17 52.39 8.1
2 -4 17 44.3 12.3
-2 -4 -17 41.4 8.4
-2 4 -17 22.8 13
-2 4 -17 43.5 8.9
3 -4 17 82.69 15.9
-3 -4 -17 81.89 10.6
-3 4 -17 83.39 17.2
-3 4 -17 53.59 10
12 0 -18 241.88 19
-12 0 18 254.67 26.4
12 0 -18 262.47 20.7
-11 0 18 123.09 16.2
11 0 -18 114.69 13.4
-11 0 18 117.09 13.2
-11 0 18 119.39 18.4
11 0 -18 95.79 11.9
-11 0 18 89.09 10.4
10 0 -18 353.16 18.7
10 0 -18 377.56 17.4
-10 0 18 360.96 26
-10 0 18 311.57 27.7
-10 0 18 393.46 18.5
-10 0 18 352.66 22
-10 0 18 341.87 14.1
-9 0 18 569.84 23.5
-9 0 18 605.94 28.8
9 0 -18 593.54 22.2
-9 0 18 581.34 19.8
9 0 -18 581.74 20.7
-9 0 18 558.74 17.5
9 0 -18 606.04 24.5
-9 0 18 605.94 20.3
-9 0 18 596.84 28.2
-8 0 18 49 11.2
8 0 -18 34.5 7.9
-8 0 18 44.2 6.9
-8 0 18 43.6 6.8
-8 0 18 41.6 6
-8 0 18 48.5 8.9
8 0 -18 37.5 7.9
-8 0 18 42.2 12.3
8 0 -18 49.8 8
8 0 -18 53.29 7.2
7 0 -18 19.5 9.8
7 0 -18 24.2 6.6
-7 0 18 27.4 8.1
-7 0 18 16.1 5
-7 0 18 19.3 4
7 0 -18 16.9 6
7 0 -18 18.2 5.5
-7 0 18 19.1 12.1
-7 0 18 23.5 5.3
-7 0 18 17.2 6.3
-6 0 18 2.6 4
6 0 -18 6.6 5.1
-6 0 18 4.7 4.7
-6 0 18 3.8 3.3
6 0 -18 0.3 4
-6 0 18 3.9 3
-6 0 18 -0.8 6.9
6 0 -18 7.7 4.8
6 0 -18 4.7 4.7
5 0 -18 126.49 10.6
-5 0 18 116.89 8.1
5 0 -18 133.19 9.5
5 0 -18 130.69 9.7
-5 0 18 129.99 7.5
5 0 -18 120.19 9.2
-5 0 18 135.19 13
-5 0 18 126.39 10
-4 0 18 449.76 17.6
-4 0 18 419.76 13.8
4 0 -18 390.26 16.3
4 0 -18 416.06 15.7
4 0 -18 431.06 15.3
-4 0 18 411.26 12.6
4 0 -18 403.06 15.6
-4 0 18 412.96 15.9
-3 0 18 6626.14 121.99
3 0 -18 6752.32 125.09
-3 0 18 6487.25 120.49
3 0 -18 6569.94 124.69
-3 0 18 6655.53 125.59
3 0 -18 6626.74 126.49
-3 0 18 6724.73 125.59
3 0 -18 6548.64 124.19
-2 0 18 961.8 22.2
2 0 -18 976 26.8
-2 0 18 973.4 26.1
2 0 -18 953.3 28.1
2 0 -18 956.9 25
-2 0 18 985.4 25.4
2 0 -18 952.8 25.6
2 0 -18 965.7 23.1
2 0 -18 982.8 24.9
-2 0 18 972.1 23.5
-1 0 18 6925.81 125.59
1 0 -18 6924.61 128.19
-1 0 18 6846.71 126.79
1 0 -18 6827.92 127.09
-1 0 18 6606.64 124.09
-1 0 18 6959.3 128.99
1 0 -18 6780.72 124.49
1 0 -18 6827.52 127.99
1 0 -18 6958.3 129.69
1 0 -18 6685.13 127.89
0 0 -18 152.48 10.4
0 0 18 176.08 9
0 0 -18 173.58 9.7
0 0 18 178.68 11.4
0 0 18 192.38 8.7
0 0 -18 182.98 8.4
0 0 -18 191.18 9.7
-1 0 -18 424.26 16.4
-1 0 -18 440.06 14.4
-1 0 -18 423.16 13.1
1 0 18 417.26 13
-1 0 -18 418.46 15.4
1 0 18 406.26 13
1 0 18 434.06 13.9
1 0 18 419.16 16.8
2 0 18 28.9 4.5
-2 0 -18 30.4 5.7
2 0 18 30.1 4.3
-2 0 -18 33.2 5.9
2 0 18 27.6 4.8
-2 0 -18 24.8 4.7
-2 0 -18 27.1 4.7
3 0 18 128.29 9.1
-3 0 -18 133.79 8.4
3 0 18 132.49 9
3 0 18 123.39 10.1
-3 0 -18 131.59 9
3 0 18 132.79 7
-3 0 -18 118.39 9.6
-3 0 -18 130.39 10.6
4 0 18 23.4 5.9
4 0 18 16.3 3.7
-4 0 -18 14.4 5.6
4 0 18 16.7 5.6
-4 0 -18 25 6.9
4 0 18 22.2 5
-4 0 -18 23.1 4.5
-5 0 -18 493.85 20.5
-5 0 -18 524.25 16.6
-5 0 -18 524.45 19.1
5 0 18 514.75 20.2
-5 0 -18 481.65 19.4
5 0 18 493.85 19.7
5 0 18 514.55 14
5 0 18 512.35 16.6
-6 0 -18 38.5 16.9
6 0 18 31.3 4.6
-6 0 -18 30 7.2
6 0 18 47.1 9.1
-6 0 -18 11.7 6.6
-7 0 -18 233.88 12.6
-7 0 -18 213.98 17.4
-7 0 -18 254.07 20.1
7 0 18 227.08 17.7
-7 0 -18 221.28 15.8
8 0 18 24.7 11.1
-8 0 -18 30.8 7
-8 0 -18 15.1 10.1
-8 0 -18 32.4 9.1
-12 -1 18 34.5 10.1
12 -1 -18 57.19 11.9
-12 -1 18 32 17.9
12 -1 -18 47.7 13.1
12 1 -18 62.69 13.3
12 1 -18 61.49 11.2
-12 1 18 92.59 18.5
-11 -1 18 124.69 16.1
-11 -1 18 162.58 22
-11 -1 18 134.49 13.4
-11 -1 18 125.59 20.9
11 -1 -18 151.58 15.7
11 -1 -18 125.99 14.5
-11 1 18 132.39 7.1
11 1 -18 150.78 17.7
11 1 -18 159.38 14.2
-11 1 18 202.58 21.9
-10 -1 18 38.5 15.1
-10 -1 18 60.79 11.9
-10 -1 18 47.3 7.7
-10 -1 18 63.09 12.5
-10 -1 18 44.8 14.5
10 -1 -18 34.9 10
10 -1 -18 46.4 8.8
10 1 -18 56.19 8.1
-10 1 18 41.1 11.7
-10 1 18 64.39 13
-10 1 18 54.19 6.5
-10 1 18 33.9 7.9
-10 1 18 63.49 4.8
10 1 -18 37.5 9.7
-9 -1 18 20.2 7.7
9 -1 -18 24.7 7.2
-9 -1 18 6.6 11.5
9 -1 -18 28.6 8.7
-9 -1 18 25.2 11.4
-9 -1 18 29.6 6.3
-9 -1 18 25.5 8.9
9 -1 -18 12.6 8.5
-9 1 18 25.8 4.3
-9 1 18 22.5 10.1
9 1 -18 34.6 8.4
9 1 -18 12.5 7.7
9 1 -18 17 5.7
-9 1 18 26.2 8.8
-9 1 18 30.2 13.7
-9 1 18 33.2 3.5
-9 1 18 24.1 6
8 -1 -18 43.4 8.5
-8 -1 18 57.59 10.3
-8 -1 18 50.49 8.8
-8 -1 18 51.29 7.1
-8 -1 18 48.5 8.3
-8 -1 18 47.6 11.3
8 -1 -18 51.69 9.9
-8 -1 18 55.19 8.4
8 -1 -18 43.3 7.8
-8 1 18 59.19 9.4
8 1 -18 44.9 8.4
8 1 -18 42.5 9.3
-8 1 18 44.7 10.5
8 1 -18 59.79 9.5
8 1 -18 33.7 5.5
-8 1 18 46.3 6.9
7 -1 -18 24.2 7.6
-7 -1 18 7.3 5.5
-7 -1 18 15.3 6
7 -1 -18 6.6 5.9
-7 -1 18 15.7 7.1
7 -1 -18 13.5 5.1
7 -1 -18 9 5.5
-7 -1 18 16.3 6.5
-7 -1 18 12.9 4.8
-7 -1 18 20.2 6.1
7 1 -18 16.5 3.9
7 1 -18 12 5.8
7 1 -18 18.1 7.2
-7 1 18 12.2 5.6
7 1 -18 17.9 5.9
-7 1 18 22.5 5.1
6 -1 -18 102.39 11.5
-6 -1 18 100.49 10.1
-6 -1 18 100.49 9
6 -1 -18 101.89 12.2
6 -1 -18 95.39 9.4
-6 -1 18 102.99 10.7
6 -1 -18 102.79 9.1
-6 -1 18 77.59 10
-6 1 18 94.39 10.1
6 1 -18 97.99 6.4
-6 1 18 86.59 8.1
6 1 -18 105.09 11.2
6 1 -18 101.69 10.7
-6 1 18 108.69 14.5
5 -1 -18 16.6 6.7
-5 -1 18 22.2 6.1
5 -1 -18 19.5 5
5 -1 -18 16.8 4.2
-5 -1 18 10.8 4.8
-5 -1 18 10.7 4.9
5 -1 -18 17.4 5.5
-5 -1 18 15 5.1
5 1 -18 10.5 5.8
-5 1 18 20.2 8.3
-5 1 18 14.7 5.5
5 1 -18 21.8 5.6
-5 1 18 16.1 4
5 1 -18 10.1 4.4
4 -1 -18 284.07 11.8
-4 -1 18 271.37 12.5
4 -1 -18 255.47 13.7
4 -1 -18 231.38 14.8
4 -1 -18 255.07 11.8
-4 -1 18 271.67 13.4
-4 -1 18 268.77 12.8
-4 -1 18 258.87 11.5
-4 1 18 252.67 6.5
-4 1 18 261.87 16.3
-4 1 18 258.77 12.9
4 1 -18 254.97 12.6
4 1 -18 259.17 13.5
4 1 -18 270.37 8
-4 1 18 276.77 11
4 1 -18 272.97 14.2
-3 -1 18 270.17 11.3
3 -1 -18 273.57 15.2
-3 -1 18 271.37 12
-3 -1 18 264.47 12.7
3 -1 -18 269.27 11.6
3 -1 -18 281.27 13.5
-3 -1 18 267.87 12.7
3 1 -18 279.57 14.4
3 1 -18 264.37 12.4
-3 1 18 279.07 11.2
-3 1 18 264.97 7.4
-3 1 18 284.47 12.8
3 1 -18 276.07 7.7
-3 1 18 275.87 15.5
3 1 -18 276.47 7.5
3 1 -18 261.77 13
2 -1 -18 177.98 12.8
2 -1 -18 137.59 9.9
-2 -1 18 164.58 9.7
2 -1 -18 163.78 7.5
-2 -1 18 159.18 9.1
2 -1 -18 156.58 8.6
2 -1 -18 159.38 10.6
2 -1 -18 168.28 9
-2 -1 18 162.78 10.5
-2 -1 18 163.08 8.8
2 1 -18 150.98 10
-2 1 18 149.88 8.5
2 1 -18 163.78 5.8
-2 1 18 150.28 6.1
2 1 -18 157.08 9.6
2 1 -18 159.98 4.8
2 1 -18 144.79 10.4
-2 1 18 153.28 9.9
-2 1 18 172.78 12.7
-1 -1 18 5.3 3.3
1 -1 -18 5.6 4.1
-1 -1 18 6.5 3.7
1 -1 -18 5.9 4.7
1 -1 -18 6.8 3.3
-1 -1 18 1.5 4.7
1 -1 -18 5.7 3.1
-1 -1 18 4.1 3.1
1 -1 -18 2.1 2.9
1 -1 -18 11.1 5.4
1 1 -18 4.8 4.2
1 1 -18 2.7 4.1
1 1 -18 3.2 1.6
-1 1 18 3.3 2.7
1 1 -18 6.3 2.8
-1 1 18 3.7 3.1
-1 1 18 6 5.3
1 1 -18 5 3.6
-1 1 18 1.4 4.2
0 -1 18 1.3 3.4
0 -1 18 3.8 3.1
0 -1 18 -2.5 4.5
0 -1 18 -1.6 3
0 -1 -18 7.1 3.4
0 -1 -18 5.6 4.5
0 -1 -18 8.5 3.1
0 -1 -18 -5.6 3.5
0 -1 -18 2 2.8
0 1 -18 1.7 4
0 1 18 5.7 4.9
0 1 -18 7.1 4
0 1 18 4 3.2
0 1 -18 3 3.1
0 1 18 -1 3.1
0 1 -18 6.3 2.2
0 1 18 1 4.3
0 1 -18 2.5 3.3
1 -1 18 254.17 11.2
1 -1 18 247.88 11.5
-1 -1 -18 254.17 10.8
-1 -1 -18 244.68 10.6
-1 -1 -18 247.28 12.3
-1 -1 -18 238.98 12.5
1 -1 18 251.77 10.2
1 1 18 239.58 10.6
-1 1 -18 250.77 11.1
-1 1 -18 235.38 13.3
-1 1 -18 252.47 8.4
-1 1 -18 252.07 12.6
1 1 18 244.28 10.8
2 -1 18 19.8 4.8
-2 -1 -18 9.9 5.1
2 -1 18 8.3 3.8
-2 -1 -18 7.5 4.2
-2 -1 -18 14.1 4.2
-2 -1 -18 15.6 5.5
2 -1 18 18 4.8
-2 1 -18 7.9 3.5
2 1 18 3.9 4.2
2 1 18 12.2 3.2
-2 1 -18 14 5.2
2 1 18 11.3 4.7
-2 1 -18 10.9 5.4
2 1 18 8.6 3.1
-2 1 -18 9.1 3.9
3 -1 18 275.77 12.4
-3 -1 -18 274.97 12.1
3 -1 18 256.47 16.4
3 -1 18 269.27 11.2
-3 -1 -18 281.87 14.4
-3 -1 -18 285.07 13.8
3 -1 18 290.07 12.3
-3 1 -18 277.27 11.7
-3 1 -18 265.97 11.3
-3 1 -18 288.57 14.7
-3 1 -18 223.68 18.9
3 1 18 250.47 13
3 1 18 270.97 13.9
4 -1 18 50.39 7.8
4 -1 18 64.09 8.1
4 -1 18 51.39 6.2
-4 -1 -18 52.59 6.2
-4 -1 -18 55.19 7.7
-4 -1 -18 69.39 9.3
-4 -1 -18 55.19 7.9
4 -1 18 54.79 10.1
4 -1 18 64.69 8.2
-4 1 -18 60.39 7.9
-4 1 -18 64.49 12.4
4 1 18 53.49 9.2
-4 1 -18 59.79 7.6
-4 1 -18 52.59 9.1
-5 -1 -18 62.19 9.3
-5 -1 -18 77.39 10.5
5 -1 18 60.39 7.9
5 -1 18 76.49 8.4
5 -1 18 77.89 11.6
-5 -1 -18 66.89 8.1
-5 -1 -18 70.09 9
-5 1 -18 71.99 10.3
-5 1 -18 65.49 7.2
5 1 18 51.39 9.7
-5 1 -18 51.09 8.2
-5 1 -18 69.39 9.6
-6 -1 -18 8.2 8.4
6 -1 18 18.3 6.6
-6 -1 -18 25.8 6.6
6 -1 18 20 7.2
-6 -1 -18 27.7 5.9
6 -1 18 51.59 11
-6 1 -18 28.8 5.6
-6 1 -18 31.1 8.4
-6 1 -18 13.7 10.7
-6 1 -18 21.9 12.2
7 -1 18 46.3 10
-7 -1 -18 41.5 7
-7 -1 -18 58.99 8.8
7 -1 18 78.09 12.1
-7 -1 -18 43 9.6
-7 1 -18 40.6 10.4
7 1 18 46.7 12.4
-7 1 -18 35.3 8.7
-7 1 -18 63.79 7.6
-7 1 -18 29 13.7
-8 -1 -18 11.7 7.8
8 -1 18 -4.6 10.3
8 -1 18 5.6 8.3
-8 -1 -18 -5.3 6.4
-8 1 -18 -1.1 6.7
8 1 18 7.5 12.5
-8 1 -18 -1.6 9.6
-8 1 -18 -6.2 10.4
11 -2 -18 23.3 10
11 -2 -18 20.8 13.1
-11 -2 18 -20.6 16.2
-11 -2 18 10 8.5
11 2 -18 4.3 11.1
11 2 -18 16.4 9.7
-11 2 18 41.5 15.2
-10 -2 18 68.59 16.4
-10 -2 18 102.89 14
10 -2 -18 92.79 10.9
10 -2 -18 93.19 16
-10 2 18 71.39 9.3
-10 2 18 136.29 21.4
10 2 -18 53.79 11.6
10 2 -18 77.59 9.5
-9 -2 18 497.45 24.2
-9 -2 18 457.45 24.7
9 -2 -18 519.75 26.9
9 -2 -18 512.15 19.9
-9 -2 18 468.55 20.8
-9 2 18 446.36 17.7
-9 2 18 513.15 28.5
9 2 -18 478.25 16.5
9 2 -18 488.65 23.5
8 -2 -18 87.79 14.2
8 -2 -18 60.59 8
8 -2 -18 66.49 9.9
-8 -2 18 89.59 10.9
-8 -2 18 90.39 13.2
-8 -2 18 60.29 9.4
-8 -2 18 69.89 9.5
-8 -2 18 85.19 12.5
8 2 -18 85.69 10.9
8 2 -18 61.19 7.5
-8 2 18 80.59 9.9
8 2 -18 69.19 10.1
-8 2 18 74.59 11.1
-8 2 18 104.99 16.5
-7 -2 18 1099.49 35.7
7 -2 -18 906.51 29.7
-7 -2 18 935.01 29.9
7 -2 -18 790.52 31.2
-7 -2 18 913.21 28.4
-7 -2 18 943.41 29
-7 -2 18 935.81 30.9
7 -2 -18 897.81 28.8
-7 -2 18 938.31 24
7 -2 -18 918.01 33.6
-7 2 18 990.3 30.9
7 2 -18 899.21 20.6
7 2 -18 943.41 29.8
7 2 -18 932.31 28.8
-7 2 18 929.41 33.4
-7 2 18 907.81 24.7
-6 -2 18 18.1 6.7
-6 -2 18 21.4 6.4
6 -2 -18 17.4 5.8
6 -2 -18 10.8 5.9
-6 -2 18 8.1 6.8
6 -2 -18 23 9
-6 -2 18 26.6 7.6
6 -2 -18 17.6 7.1
6 2 -18 12.2 8.7
-6 2 18 25.7 8.2
-6 2 18 21.3 5.5
-6 2 18 15.4 6.3
6 2 -18 17.8 2.8
6 2 -18 15.9 6.4
6 2 -18 13.8 6.4
-5 -2 18 90.19 12.3
-5 -2 18 108.19 10.4
-5 -2 18 101.39 10.7
-5 -2 18 105.89 11.1
5 -2 -18 92.99 10.2
5 -2 -18 96.49 9
5 -2 -18 129.49 12.6
5 2 -18 112.79 14
-5 2 18 101.99 10.1
-5 2 18 116.69 12.8
-5 2 18 81.89 8.9
5 2 -18 101.89 11.1
5 2 -18 86.69 10.6
4 -2 -18 6.3 7.3
4 -2 -18 19.9 5.3
-4 -2 18 22.5 6.6
4 -2 -18 20.2 5.3
-4 -2 18 15.9 5.9
-4 -2 18 19.8 5.5
4 -2 -18 10.5 7.9
-4 -2 18 18.7 6.2
-4 2 18 18.9 6.9
-4 2 18 21.8 5.3
4 2 -18 16.3 5.8
4 2 -18 23.5 6.6
-3 -2 18 64.99 10.5
3 -2 -18 83.99 10.2
-3 -2 18 83.59 8.7
3 -2 -18 70.69 10.9
-3 -2 18 83.89 10.8
3 -2 -18 83.09 7.5
-3 -2 18 72.79 9.3
3 -2 -18 83.79 7.8
-3 2 18 71.29 9.9
-3 2 18 89.59 8.2
3 2 -18 83.89 9.8
3 2 -18 83.59 9.4
-2 -2 18 53.79 7.4
2 -2 -18 54.29 7.4
2 -2 -18 54.19 6.3
-2 -2 18 49 7.9
-2 -2 18 40.8 5.8
2 -2 -18 53.19 8.8
2 -2 -18 45.7 9.3
2 -2 -18 54.09 6.7
-2 -2 18 39.1 6.7
2 2 -18 40.7 6.6
-2 2 18 52.69 6.4
-2 2 18 53.69 7.6
2 2 -18 56.69 7.6
1 -2 -18 172.18 8
1 -2 -18 155.78 13.1
1 -2 -18 166.38 15
1 -2 -18 159.48 6.8
-1 -2 18 179.88 12.7
-1 -2 18 158.68 11.2
-1 -2 18 153.58 9.2
1 -2 -18 160.88 11.2
-1 -2 18 147.39 10.8
1 2 -18 160.48 10.6
-1 2 18 166.28 10.6
1 2 -18 160.58 11
-1 2 18 140.89 9.8
-1 2 18 159.38 6.9
1 2 -18 156.98 13.2
-1 2 18 161.38 10.1
0 -2 -18 28.1 4.4
0 -2 -18 22.1 5.7
0 -2 18 28.5 6.2
0 -2 -18 30.2 4.1
0 -2 -18 36 7.9
0 -2 -18 29.9 4.8
0 -2 18 24.7 5.8
0 -2 18 34.4 7.2
0 -2 18 29.9 4.9
0 2 -18 24.8 5.3
0 2 18 31.6 4.6
0 2 -18 28.3 5.4
0 2 18 38.7 6.5
0 2 18 30.5 5
-1 -2 -18 387.46 16.2
1 -2 18 407.66 16.1
1 -2 18 402.06 17
-1 -2 -18 404.96 18.2
-1 -2 -18 403.46 14.4
1 -2 18 404.66 13.1
-1 -2 -18 401.06 12.7
-1 2 -18 396.66 19.4
1 2 18 382.96 13.7
1 2 18 404.06 16.5
-1 2 -18 399.46 15.2
-1 2 -18 369.46 18.1
2 -2 18 5.7 5.4
2 -2 18 -1.8 3.6
-2 -2 -18 7.9 3.5
-2 -2 -18 1.1 4.9
-2 -2 -18 -4.6 6.6
-2 -2 -18 -1.2 3.8
2 -2 18 -0.7 5.4
2 -2 18 13.9 9.7
2 2 18 3.1 4.5
-2 2 -18 5.3 4.5
-2 2 -18 1.7 6.2
-2 2 -18 0.3 4.5
-3 -2 -18 620.74 19.4
3 -2 18 593.74 24.7
-3 -2 -18 570.14 22.3
-3 -2 -18 596.14 21.3
-3 -2 -18 588.04 17.8
3 -2 18 628.34 16.7
3 -2 18 585.94 20.5
3 -2 18 581.84 27.7
-3 2 -18 592.94 18.6
-3 2 -18 586.24 21.8
3 2 18 621.94 20.5
-3 2 -18 576.64 24.7
-3 2 -18 602.64 17.5
-4 -2 -18 31.2 5.9
4 -2 18 32.9 5.2
-4 -2 -18 55.69 17.3
4 -2 18 10.1 10.9
-4 -2 -18 16.8 6.6
4 -2 18 29.2 8.2
4 -2 18 20.2 4.7
-4 -2 -18 23.9 5.6
-4 2 -18 27.3 8.4
4 2 18 24.6 7.5
-4 2 -18 33.2 6.2
-4 2 -18 28.1 7.6
-4 2 -18 24 8.5
-5 -2 -18 9.7 4.8
5 -2 18 -5.2 11.6
-5 -2 -18 14.5 5.9
-5 -2 -18 -0.2 9
5 -2 18 9.7 7.5
5 -2 18 12.8 5.7
-5 2 -18 12.1 8.8
-5 2 -18 -9.2 10.8
5 2 18 9.4 8.6
-5 2 -18 7.4 5.8
-5 2 -18 4.8 7.4
-6 -2 -18 3.9 5.7
6 -2 18 14.8 14.3
6 -2 18 7.2 6.8
6 -2 18 -2.9 8.6
-6 -2 -18 2.6 5.7
-6 2 -18 4.9 5.8
-6 2 -18 1.7 7.9
-6 2 -18 6.3 9
7 -2 18 227.68 20.2
-7 -2 -18 292.37 16.7
-7 -2 -18 242.38 15.8
7 -2 18 225.88 17.9
-7 2 -18 290.67 23.8
-7 2 -18 266.27 20.7
-9 -3 18 86.19 13
-9 -3 18 82.69 14.4
9 -3 -18 125.79 20.6
9 -3 -18 102.09 11.5
-9 3 18 119.99 20.5
9 3 -18 56.59 13.4
-8 -3 18 116.19 17.1
8 -3 -18 111.99 13.4
-8 -3 18 114.69 15.9
8 -3 -18 131.29 19
-8 3 18 150.38 24.2
8 3 -18 162.68 18.7
-8 3 18 118.69 14.6
-7 -3 18 1 8.4
-7 -3 18 5.5 8.2
7 -3 -18 1.3 14.3
7 -3 -18 -3 6.7
7 -3 -18 -8.8 9.5
-7 3 18 11 12.7
-7 3 18 -4.7 7.9
-7 3 18 -10.3 7
7 3 -18 5.5 8.3
6 -3 -18 185.88 12.6
6 -3 -18 148.09 17.1
6 -3 -18 188.38 22.9
6 -3 -18 166.58 15.9
-6 -3 18 193.18 16.3
6 3 -18 209.48 16.9
6 3 -18 195.78 13.8
-6 3 18 149.79 19.4
-6 3 18 162.68 13.2
-6 3 18 170.08 13.6
-5 -3 18 93.09 12.8
5 -3 -18 88.59 10.7
5 -3 -18 86.19 13.2
5 -3 -18 107.49 15.9
-5 3 18 98.59 10.5
5 3 -18 102.59 11.7
-5 3 18 82.49 9.4
5 3 -18 81.29 10.9
4 -3 -18 276.27 16.9
4 -3 -18 242.58 14.6
-4 -3 18 258.07 16.6
4 -3 -18 206.48 21.8
-4 -3 18 240.98 15.5
4 -3 -18 246.88 13
-4 3 18 244.08 14.1
4 3 -18 264.07 14.5
4 3 -18 230.48 16.2
-4 3 18 263.67 18.7
-4 3 18 243.28 12.9
3 -3 -18 214.78 12.1
3 -3 -18 240.08 22.4
3 -3 -18 224.98 13
-3 -3 18 212.08 14.3
-3 -3 18 229.18 15.5
3 -3 -18 239.28 15.5
-3 3 18 201.08 14.2
-3 3 18 242.88 12.8
-3 3 18 236.58 16.9
3 3 -18 228.88 13.8
3 3 -18 228.18 15.4
2 -3 -18 331.77 16.8
-2 -3 18 314.57 17.3
2 -3 -18 355.76 24.1
-2 -3 18 431.56 28.3
2 -3 -18 340.97 14.4
-2 -3 18 331.37 15.2
-2 3 18 318.67 14.3
2 3 -18 336.97 15.6
-2 3 18 330.37 17.3
-2 3 18 339.37 16.8
1 -3 -18 26.6 7.6
1 -3 -18 35.3 6.5
1 -3 -18 38.7 5.4
1 -3 -18 19.7 10.7
-1 -3 18 21.6 7
-1 -3 18 33.1 6.3
1 3 -18 26.8 6.4
1 3 -18 34.5 7.2
-1 3 18 15.4 6.5
0 -3 -18 182.08 11.7
0 -3 -18 206.58 21.3
0 -3 18 211.98 11.2
0 -3 -18 187.48 7.8
0 -3 18 193.18 15.4
0 -3 -18 188.28 7.6
0 -3 -18 178.98 14.1
0 3 -18 199.48 13
0 3 -18 187.78 18.3
0 3 -18 195.68 13.2
-1 -3 -18 84.59 6.7
-1 -3 -18 72.79 9.5
1 -3 18 80.29 12.5
1 -3 18 66.39 8.6
-1 -3 -18 95.89 10.3
-1 3 -18 83.79 14.1
-1 3 -18 91.19 10.9
-1 3 -18 92.09 11.6
-2 -3 -18 216.98 13.1
-2 -3 -18 208.28 10.1
-2 -3 -18 216.88 15.5
2 -3 18 201.98 10.6
2 -3 18 198.48 16.7
-2 3 -18 230.68 14.2
-2 3 -18 204.18 19.5
-2 3 -18 210.98 13
-3 -3 -18 231.48 21.8
-3 -3 -18 205.58 12.9
3 -3 18 214.08 18
3 -3 18 190.58 10.3
-3 -3 -18 204.08 11.1
-3 3 -18 213.38 15.6
-3 3 -18 200.48 20
-3 3 -18 191.18 12.6
-4 -3 -18 215.38 14
-4 -3 -18 192.28 12.3
4 -3 18 183.78 18.9
-4 3 -18 180.78 20.8
-4 3 -18 203.68 11.9
4 3 18 179.58 18.1
-4 3 -18 206.28 16.4
5 -3 18 -7.8 10.4
-5 -3 -18 -3.2 7.1
-5 -3 -18 1.3 6.4
-5 3 -18 -0.1 10.7
-5 3 -18 15.9 9.7
-6 -3 -18 70.29 10.4
6 -4 -18 8.2 19
6 -4 -18 55.99 10.5
-6 -4 18 71.89 14.3
6 4 -18 57.39 14.5
-6 4 18 46.8 17.4
-5 -4 18 49.8 12.8
5 -4 -18 53.29 19.2
5 -4 -18 44.3 9.2
-5 4 18 56.49 15.7
5 4 -18 61.79 13.6
-5 4 18 44.6 8.5
4 -4 -18 12.6 7.5
4 -4 -18 38.6 16.3
-4 -4 18 21.1 11.4
4 4 -18 19.3 11.1
4 4 -18 25.7 7.1
-4 4 18 20.8 13.7
-4 4 18 37.5 7.3
3 -4 -18 210.98 14.5
3 -4 -18 278.47 29.9
-3 -4 18 249.68 19.9
3 4 -18 254.87 14.3
3 4 -18 262.17 20.5
2 -4 -18 25.2 18.8
-2 -4 18 13.7 9.7
2 -4 -18 14.5 7.3
2 4 -18 10.9 7.2
2 4 -18 14.6 10
1 -4 -18 384.46 32.7
-1 -4 18 291.27 17.7
-1 -4 18 275.27 20.5
1 -4 -18 310.67 16.4
1 4 -18 292.27 16
1 4 -18 333.07 20.1
0 -4 -18 4.2 7.3
0 -4 -18 -1.6 15.7
0 -4 18 11.2 10.4
0 4 -18 -3.5 6.9
0 4 -18 2.1 9.4
-1 -4 -18 12.2 16.5
-1 -4 -18 -9.6 7.4
1 -4 18 -8.3 10.8
-1 4 -18 -11 8.6
-1 4 -18 -0.6 7.5
-2 -4 -18 112.39 14.4
2 -4 18 101.59 16.2
-2 4 -18 88.49 17.2
-2 4 -18 85.39 10.8
12 0 -19 -1.1 10.2
12 0 -19 2 10.5
-12 0 19 38.2 15.3
11 0 -19 9.8 8.8
-11 0 19 -3.7 5.7
-11 0 19 -6.6 12.7
-11 0 19 -5.2 9.6
-11 0 19 2 12.4
11 0 -19 -9.8 8.2
10 0 -19 -4.1 6.7
-10 0 19 -3 12
-10 0 19 -9.6 4.9
-10 0 19 4.2 7.2
-10 0 19 3.8 14.4
10 0 -19 -6.5 6.6
-10 0 19 4.1 9.6
-9 0 19 -2.8 9.5
9 0 -19 3.9 6.3
-9 0 19 -3.6 4.1
-9 0 19 7.5 12.2
-9 0 19 -4.7 5.6
-9 0 19 1.4 8.9
-9 0 19 1.1 6.7
9 0 -19 1.7 7.4
9 0 -19 7.2 6.6
8 0 -19 1.4 5.2
-8 0 19 -9.6 4.9
8 0 -19 5.6 6.8
-8 0 19 -16.9 8.7
8 0 -19 -13.4 4.9
8 0 -19 2.6 7.7
-8 0 19 1.1 5
-8 0 19 -3.6 3.2
-8 0 19 -6.8 6.7
-8 0 19 -12.3 8.8
7 0 -19 9.7 5.6
7 0 -19 2.2 5.1
7 0 -19 -1.4 5.4
-7 0 19 2.2 4
-7 0 19 0.8 3.1
-7 0 19 -0.7 6
-7 0 19 5.5 4.6
7 0 -19 3.1 5.2
-7 0 19 -1 8.2
6 0 -19 -3.7 5
-6 0 19 -0.2 4.1
-6 0 19 0.6 3.6
6 0 -19 -0.3 4.3
-6 0 19 1.6 5.5
-6 0 19 -4.4 7.2
6 0 -19 2.7 5.8
-6 0 19 -1.5 2.8
-5 0 19 -0.1 3.2
-5 0 19 -4.3 3.9
5 0 -19 2.6 4.8
-5 0 19 8.2 7.2
5 0 -19 0.3 4.3
5 0 -19 -3.4 4
5 0 -19 2.2 3.7
-5 0 19 -4.6 3.8
-4 0 19 3.1 3.3
-4 0 19 2.4 2.7
-4 0 19 1.3 3.8
4 0 -19 -6.1 3.3
4 0 -19 -2.4 3.6
4 0 -19 -1.7 3.9
-4 0 19 -1.3 4.8
4 0 -19 1.3 4.7
3 0 -19 3.4 4.5
-3 0 19 4.8 4.2
-3 0 19 -4.4 3.6
3 0 -19 5.1 4.8
3 0 -19 5 4.2
-3 0 19 -0.2 2.4
-3 0 19 -1.4 3
3 0 -19 -2.2 3.7
3 0 -19 0.3 3.4
2 0 -19 3.7 3.9
-2 0 19 0.2 4.3
-2 0 19 1.5 3.1
2 0 -19 11.7 5.1
2 0 -19 2.6 4.3
2 0 -19 5.2 3.8
-2 0 19 7.7 4.1
2 0 -19 -0.5 3.5
2 0 -19 0.4 3.5
-2 0 19 0.7 2.4
-1 0 19 5.2 4.6
1 0 -19 1.3 4.1
-1 0 19 11 3.8
1 0 -19 9.3 4.9
1 0 -19 10.3 3.9
1 0 -19 8.3 3.5
-1 0 19 7.7 2.9
-1 0 19 3.7 3.5
1 0 -19 10.3 4.5
0 0 -19 7.8 3.9
0 0 -19 9.5 4
0 0 19 6.7 5.4
0 0 -19 5.2 3.3
0 0 19 7.1 2.9
0 0 19 9.7 3.6
0 0 19 5.8 3.5
0 0 -19 5.8 3.4
-1 0 -19 -0.1 3.4
1 0 19 2.3 2.6
1 0 19 2.4 3
-1 0 -19 -1.3 3.6
-1 0 -19 -1.1 3.7
-1 0 -19 6 3.5
1 0 19 7 3.9
-2 0 -19 4.2 4.7
2 0 19 3.4 3.8
2 0 19 -1.3 2.8
-2 0 -19 5.2 3.6
-2 0 -19 -2.1 3.8
-2 0 -19 5.9 5.1
2 0 19 7.4 3.4
-3 0 -19 7.3 5.6
3 0 19 -4.1 4.5
-3 0 -19 -2.7 3.8
3 0 19 4.2 3.1
-3 0 -19 -2.4 4.6
3 0 19 1.9 5.5
3 0 19 5.7 4.1
-3 0 -19 1.3 4.6
-4 0 -19 9 4.4
4 0 19 -3 5.5
-4 0 -19 1.7 5.9
4 0 19 -5.3 4.4
4 0 19 1.4 5.7
-4 0 -19 -1.7 6
-4 0 -19 1.4 4.6
4 0 19 1.1 3.3
-5 0 -19 3.4 5.2
-5 0 -19 2.9 7.2
5 0 19 4.1 3.6
5 0 19 11.3 5.7
-5 0 -19 7.6 5.7
-5 0 -19 6.4 6.2
5 0 19 9.2 7.7
6 0 19 -0.9 8.3
6 0 19 2.7 3.7
-6 0 -19 -6.4 8.5
-6 0 -19 8.1 8.3
-6 0 -19 2.4 4.8
-6 0 -19 -1.5 6.1
6 0 19 19.3 5.8
7 0 19 -0.9 9.5
-7 0 -19 1.4 7.6
-7 0 -19 3 7.2
-7 0 -19 5.2 6
-8 0 -19 4.8 7.1
8 0 19 -5.7 12.1
-8 0 -19 6.9 9.3
-12 -1 19 104.59 21.8
12 -1 -19 124.39 15.7
-12 -1 19 107.69 13
12 -1 -19 139.99 15.6
12 1 -19 118.89 13.7
12 1 -19 125.19 16
11 -1 -19 771.12 28.1
-11 -1 19 794.72 32.5
-11 -1 19 666.63 37.8
-11 -1 19 716.13 25.6
11 -1 -19 767.52 30
-11 -1 19 740.43 40.1
11 1 -19 757.62 30.3
-11 1 19 815.22 36.3
11 1 -19 799.22 25.3
-10 -1 19 66.99 8.9
-10 -1 19 79.29 12.9
-10 -1 19 95.09 16.9
-10 -1 19 63.49 11.5
10 -1 -19 92.89 13
-10 -1 19 92.59 18.3
10 -1 -19 90.29 11.6
-10 1 19 95.29 14.8
-10 1 19 74.19 4.8
10 1 -19 86.79 11.4
10 1 -19 85.79 13
-10 1 19 113.59 16.9
9 -1 -19 911.51 30.2
-9 -1 19 836.02 30
9 -1 -19 861.71 27.1
-9 -1 19 891.21 31.7
-9 -1 19 863.21 25.8
9 -1 -19 885.01 31.1
-9 -1 19 799.12 35
-9 -1 19 861.61 28.5
9 1 -19 873.41 29.7
9 1 -19 852.01 29.9
-9 1 19 824.92 33.9
9 1 -19 884.11 23.6
-9 1 19 846.32 30.4
-9 1 19 832.42 24.6
8 -1 -19 6.2 5.3
8 -1 -19 -3.5 6.7
-8 -1 19 12.5 8.2
8 -1 -19 19.4 8.7
-8 -1 19 11.1 6.9
-8 -1 19 4.4 6.9
-8 -1 19 5.7 9
-8 -1 19 5.4 8.8
-8 -1 19 10.2 5.1
8 -1 -19 1.3 6.4
-8 1 19 -7.7 6.4
-8 1 19 8.9 8.8
-8 1 19 11.3 6
8 1 -19 9.3 4.5
8 1 -19 8.1 10.1
8 1 -19 10 7.4
7 -1 -19 1069.09 29.3
7 -1 -19 1081.39 32.4
-7 -1 19 1082.69 33.4
-7 -1 19 1031.6 28.4
-7 -1 19 1035.2 28.5
7 -1 -19 1100.69 32.8
-7 -1 19 1042.5 29.7
7 -1 -19 1035.1 30.1
-7 -1 19 1070.99 31
-7 1 19 1046.7 35.9
7 1 -19 1016 32
-7 1 19 1039.9 26.7
7 1 -19 1029.7 31.6
-7 1 19 1070.79 31.1
7 1 -19 1051.09 24.7
7 1 -19 1064.69 31.2
-6 -1 19 15.2 5.6
6 -1 -19 18.9 7.3
6 -1 -19 17.3 6.1
-6 -1 19 2.5 5.5
-6 -1 19 3.4 4.6
-6 -1 19 15.8 5.2
6 -1 -19 10 5.2
-6 1 19 0.1 4
6 1 -19 4.9 4.4
6 1 -19 2.5 5.8
6 1 -19 6.1 3.4
6 1 -19 4.6 6.3
-6 1 19 20.2 8.9
-6 1 19 7 6
5 -1 -19 991.3 28.9
5 -1 -19 966.9 30.2
5 -1 -19 959.5 26.6
-5 -1 19 974.4 27.4
-5 -1 19 981.5 26.7
-5 -1 19 955.2 25.2
-5 -1 19 946.81 28.1
5 -1 -19 967.9 26.3
5 1 -19 965.1 28.5
-5 1 19 955.7 32
5 1 -19 947.41 29.2
5 1 -19 914.71 34.8
-5 1 19 954.6 27.3
-5 1 19 941.41 24.3
5 1 -19 947.41 20.9
4 -1 -19 43.6 6.3
-4 -1 19 44.7 6.6
4 -1 -19 29.6 8.2
4 -1 -19 36.6 5.4
-4 -1 19 50.29 6
-4 -1 19 45 7.7
-4 -1 19 44 6.9
4 -1 -19 54.49 8.3
-4 1 19 37 5.3
-4 1 19 49 7.2
4 1 -19 34.4 7
-4 1 19 37.4 2.9
4 1 -19 45.7 4.7
-4 1 19 45.2 9.6
4 1 -19 51.49 4.1
4 1 -19 38.6 6.6
4 1 -19 45.3 7.6
3 -1 -19 122.29 10.6
-3 -1 19 118.49 8.4
3 -1 -19 110.89 8.6
3 -1 -19 118.69 12.2
-3 -1 19 119.99 8.8
3 -1 -19 113.79 8.4
-3 -1 19 126.99 9.5
-3 -1 19 124.09 10.6
-3 1 19 110.89 4.9
-3 1 19 113.49 10.1
-3 1 19 109.39 8.1
3 1 -19 111.69 4.9
3 1 -19 110.79 10.9
3 1 -19 109.39 5.1
3 1 -19 114.39 10.1
-3 1 19 108.19 12.3
3 1 -19 121.09 9.7
-2 -1 19 476.95 15.1
-2 -1 19 492.05 18.2
2 -1 -19 438.26 19.4
-2 -1 19 454.65 15.8
2 -1 -19 482.15 15.4
2 -1 -19 502.35 17.6
2 -1 -19 454.55 13.8
-2 -1 19 475.55 16.9
2 -1 -19 470.75 17.9
2 -1 -19 478.55 16
2 1 -19 463.85 11.3
2 1 -19 473.05 18.4
-2 1 19 468.45 17.5
-2 1 19 471.15 18.9
2 1 -19 468.65 16.7
2 1 -19 445.06 10.2
-2 1 19 468.15 15.4
-2 1 19 460.95 12
2 1 -19 482.55 17.9
1 -1 -19 264.07 10.6
1 -1 -19 279.17 11.1
1 -1 -19 259.37 11.5
1 -1 -19 281.07 15.5
1 -1 -19 272.07 13.4
-1 -1 19 248.08 13.5
-1 -1 19 282.47 12.5
1 -1 -19 289.47 13.4
-1 -1 19 252.57 11.5
-1 -1 19 269.37 10.8
1 1 -19 232.08 13
-1 1 19 254.07 11.2
1 1 -19 261.07 8.6
-1 1 19 256.27 13.1
1 1 -19 268.67 14.1
1 1 -19 263.97 12.2
-1 1 19 270.47 9.5
-1 1 19 254.97 13.6
1 1 -19 253.87 6.9
0 -1 -19 45.1 6
0 -1 19 40.5 6.7
0 -1 -19 28.2 6.3
0 -1 -19 43.9 5.7
0 -1 19 37.8 6
0 -1 -19 45.8 7.3
0 -1 19 40.5 5.4
0 -1 -19 39.5 5.3
0 -1 19 40.1 7.3
0 1 19 35.1 6.4
0 1 -19 40.3 4.1
0 1 -19 36.1 6.3
0 1 19 34.4 5.2
0 1 -19 27.9 5.1
0 1 -19 44 4.8
0 1 19 49.5 7
0 1 -19 34.4 6.8
0 1 19 42.5 6.3
-1 -1 -19 1340.87 31.8
-1 -1 -19 1329.57 32.2
1 -1 19 1374.96 30.4
-1 -1 -19 1346.87 34.5
1 -1 19 1343.97 31.9
-1 -1 -19 1372.96 32.8
1 -1 19 1363.26 32.8
1 1 19 1336.67 31.1
-1 1 -19 1339.17 27.5
1 1 19 1339.47 32.3
-1 1 -19 1360.26 34.9
1 1 19 1319.97 30.2
-1 1 -19 1349.56 36.2
-1 1 -19 1342.87 32.2
2 -1 19 -3.2 3.9
2 -1 19 0.1 3.9
-2 -1 -19 5.9 4.7
2 -1 19 6.8 4
-2 -1 -19 2.8 3.9
-2 -1 -19 0.7 3.8
-2 -1 -19 -1.3 4.9
2 1 19 3.6 3
2 1 19 0.3 5
2 1 19 0.9 2.9
-2 1 -19 8 5.8
-2 1 -19 0.6 3.6
-2 1 -19 -1.9 4
2 1 19 -0.9 4.2
-2 1 -19 3.6 5.4
-3 -1 -19 495.15 19.6
-3 -1 -19 486.05 16.5
3 -1 19 481.25 17
3 -1 19 490.85 17
3 -1 19 503.35 15.8
3 -1 19 492.95 21.8
-3 -1 -19 494.55 18.2
-3 -1 -19 479.85 17.1
3 1 19 479.35 18.5
3 1 19 484.05 18.1
-3 1 -19 487.25 20.6
-3 1 -19 474.45 15.6
-3 1 -19 497.05 20
-3 1 -19 491.05 16.3
-4 -1 -19 84.49 10.1
4 -1 19 82.19 9.1
-4 -1 -19 77.79 8.3
-4 -1 -19 61.99 9.2
4 -1 19 92.59 15
-4 -1 -19 77.29 10.3
4 -1 19 85.99 9.2
4 -1 19 78.29 9.2
-4 1 -19 79.49 9.7
4 1 19 62.59 9.8
-4 1 -19 71.29 8.3
-4 1 -19 81.89 12
-4 1 -19 81.49 9.3
-5 -1 -19 77.39 10.8
5 -1 19 72.59 9.6
-5 -1 -19 71.39 10.8
5 -1 19 66.29 8.9
5 -1 19 70.79 11.9
-5 -1 -19 64.99 8.7
-5 -1 -19 76.19 10
-5 1 -19 52.39 10.5
-5 1 -19 61.19 10.3
-5 1 -19 73.99 8
-5 1 -19 78.29 11
5 1 19 36.3 9.9
6 -1 19 -7.3 7.6
6 -1 19 -6.5 6
6 -1 19 30 10.6
-6 -1 -19 5.9 6.3
-6 -1 -19 10.8 5.5
-6 -1 -19 6.1 8
-6 1 -19 -2.1 5.7
-6 1 -19 13.3 11.4
-6 1 -19 12.6 8
-6 1 -19 9.6 8.7
-7 -1 -19 209.58 13.7
-7 -1 -19 149.29 23.7
-7 -1 -19 187.68 15.5
7 -1 19 173.28 16.9
7 -1 19 182.28 14.5
-7 1 -19 199.68 19.6
-7 1 -19 227.08 19.8
-7 1 -19 176.28 19.3
-7 1 -19 162.48 13.1
8 -1 19 16.5 11.7
-8 -1 -19 -12.7 8.7
-8 -1 -19 -11.3 7.1
-8 1 -19 -11.4 11.4
8 1 19 8.6 14.4
-8 1 -19 -18 12.8
-11 -2 19 -8.8 8.6
11 -2 -19 10.1 14.5
11 -2 -19 -3.5 9.5
11 2 -19 0.1 9.5
-11 2 19 16.7 15.9
11 2 -19 -13.7 11.9
10 -2 -19 188.18 17.2
-10 -2 19 249.28 17.2
-10 -2 19 166.18 23.8
10 -2 -19 217.28 23.3
10 2 -19 222.08 14.3
-10 2 19 276.47 26.3
10 2 -19 224.68 20.9
-9 -2 19 -6.9 6.7
9 -2 -19 -0.5 11.4
9 -2 -19 6.7 6.9
-9 -2 19 23.2 11.7
-9 -2 19 -12.2 9.1
-9 2 19 22.9 11.1
9 2 -19 13.7 8.9
9 2 -19 4.6 5.7
8 -2 -19 66.39 12.9
8 -2 -19 47.5 8.1
-8 -2 19 52.09 11.4
-8 -2 19 76.79 10.5
-8 -2 19 66.09 11.4
8 -2 -19 59.39 12
-8 -2 19 70.69 10.1
-8 2 19 54.19 11.2
8 2 -19 37.7 9.2
-8 2 19 69.09 8.5
8 2 -19 64.89 6.3
8 2 -19 61.69 10.3
-7 -2 19 5.4 7.7
-7 -2 19 7.9 6.9
7 -2 -19 12.6 8.4
7 -2 -19 3.6 9.7
-7 -2 19 7.2 6.2
-7 -2 19 16.8 8.6
7 -2 -19 2.6 8
7 -2 -19 7 5.8
-7 2 19 13.2 6.9
7 2 -19 16.4 7.6
-7 2 19 32 9.5
-7 2 19 7.5 6
7 2 -19 -2.4 6.7
7 2 -19 14.4 3.7
6 -2 -19 138.69 10.9
-6 -2 19 137.99 13.2
-6 -2 19 139.69 14.5
6 -2 -19 133.89 12.3
6 -2 -19 163.88 18.3
6 -2 -19 136.59 13.7
-6 -2 19 124.69 12.1
-6 -2 19 140.69 12.7
6 2 -19 139.39 13.2
6 2 -19 126.69 12.6
6 2 -19 119.39 15.7
-6 2 19 150.28 13
-6 2 19 147.39 10.9
5 -2 -19 0.8 5.2
5 -2 -19 -3 3.8
5 -2 -19 -6.4 8.5
-5 -2 19 11.6 5.6
5 -2 -19 1.4 6.4
-5 -2 19 7.9 6.2
-5 -2 19 0.9 5.3
-5 -2 19 -6.4 6.2
-5 2 19 7.5 6.8
5 2 -19 -2.6 5.4
5 2 -19 -6.3 5.6
5 2 -19 -3.4 7.8
-5 2 19 -2.3 5.2
-5 2 19 -1.9 5.1
4 -2 -19 444.36 16.4
-4 -2 19 455.55 18.1
4 -2 -19 466.05 19.6
4 -2 -19 442.46 16.5
-4 -2 19 468.75 18.8
-4 -2 19 433.26 19.5
-4 -2 19 436.56 17
4 2 -19 425.26 18.1
-4 2 19 446.86 16.4
-4 2 19 427.86 19.6
-4 2 19 442.66 17.9
4 2 -19 451.95 18.8
-3 -2 19 10.8 5.9
-3 -2 19 15.9 5.6
3 -2 -19 14.5 4.8
3 -2 -19 17 7.2
-3 -2 19 8.5 5.1
-3 -2 19 16 6.4
3 -2 -19 16.3 5
3 -2 -19 12.8 9.1
3 2 -19 18.8 6.1
3 2 -19 4 8.7
-3 2 19 21.1 5.7
-3 2 19 20.2 6.4
2 -2 -19 215.48 15.6
-2 -2 19 206.18 10.9
2 -2 -19 212.58 11.2
2 -2 -19 214.18 17.4
2 -2 -19 205.18 10.1
2 -2 -19 210.38 13.5
-2 -2 19 214.28 13.6
-2 -2 19 207.68 13.1
2 2 -19 203.68 12.5
-2 2 19 227.38 13.1
-2 2 19 220.18 11.9
1 -2 -19 0.6 4.1
1 -2 -19 -7.3 6.9
-1 -2 19 3.2 5.1
1 -2 -19 6.7 5.7
-1 -2 19 -1 4.1
-1 -2 19 14.5 6.7
1 -2 -19 5.3 7.7
1 -2 -19 2.1 2.8
1 -2 -19 -3.5 3.1
-1 -2 19 1.1 6
-1 2 19 7.9 5
1 2 -19 7.8 4.8
-1 2 19 1.7 4.2
1 2 -19 7.4 6.1
-1 2 19 3.4 2.8
-1 2 19 0.6 4.5
0 -2 -19 47.6 5.1
0 -2 19 52.49 7.8
0 -2 -19 43 7.9
0 -2 19 33.7 8.1
0 -2 -19 52.99 5.8
0 -2 19 46.1 5.8
0 -2 -19 40.3 8.6
0 -2 19 32.6 6.8
0 -2 -19 64.49 7.4
0 2 -19 55.39 10.7
0 2 19 46 6.8
0 2 -19 49.6 6.9
0 2 -19 52.59 9.6
0 2 19 43.5 6.3
0 2 19 49.7 7.6
-1 -2 -19 -0.8 4
1 -2 19 -2.2 4.1
1 -2 19 2.5 5.1
-1 -2 -19 -0.8 3.3
1 -2 19 5.2 6.2
-1 -2 -19 -4.4 6.7
-1 -2 -19 13.9 5.9
-1 2 -19 9.7 5.4
-1 2 -19 3 6
1 2 19 2 4.4
-1 2 -19 0.6 4.8
1 2 19 10.7 6
2 -2 19 91.59 8.2
-2 -2 -19 86.39 10.6
-2 -2 -19 85.29 7.6
2 -2 19 93.99 14.3
-2 -2 -19 88.39 8.9
-2 -2 -19 90.29 11.5
2 -2 19 99.59 10.7
-2 2 -19 91.29 11.1
-2 2 -19 68.99 9.8
2 2 19 88.69 9.5
-2 2 -19 86.29 9.4
3 -2 19 6.5 11.3
3 -2 19 2.4 5.9
-3 -2 -19 5 7.2
-3 -2 -19 0.5 7.6
3 -2 19 5.1 4.8
-3 -2 -19 6.3 4.5
-3 -2 -19 0.7 5
3 2 19 5 5.9
-3 2 -19 5.5 5.8
-3 2 -19 7.9 7
-3 2 -19 3.4 7.2
-3 2 -19 1.5 5.1
-4 -2 -19 109.59 9.9
4 -2 19 134.39 21.3
-4 -2 -19 93.29 10.1
4 -2 19 122.89 13.3
-4 -2 -19 94.79 12.1
4 -2 19 128.09 9.6
-4 2 -19 115.99 14.3
4 2 19 99.79 13.3
-4 2 -19 118.79 14
-4 2 -19 113.19 15.7
-4 2 -19 109.69 10.8
-5 -2 -19 3.4 5.9
5 -2 19 5.1 6.2
-5 -2 -19 -4.4 5.6
-5 -2 -19 0.4 9.9
5 -2 19 29.6 14.8
5 -2 19 7 8.2
5 2 19 27.6 10
-5 2 -19 -8.3 8.3
-5 2 -19 -3.7 14.7
-5 2 -19 -4.7 6
-5 2 -19 4.9 8.8
-6 -2 -19 71.29 9.3
6 -2 19 86.49 9.9
6 -2 19 105.39 20.6
6 -2 19 67.79 12
-6 -2 -19 83.29 10.2
-6 2 -19 82.29 8.8
-6 2 -19 76.19 13.2
-6 2 -19 76.29 12.2
-7 -2 -19 1.5 8
7 -2 19 11 11.4
-7 -2 -19 22 8.4
-7 2 -19 14.4 13.1
-7 2 -19 10.5 10.6
-9 -3 19 167.68 21.8
9 -3 -19 171.68 22.3
9 -3 -19 182.18 17.6
-9 -3 19 182.48 19.4
-9 3 19 238.98 29.7
9 3 -19 177.28 23.6
-8 -3 19 296.67 20.5
8 -3 -19 295.67 29.7
-8 -3 19 286.67 21.3
8 -3 -19 251.07 16.8
8 3 -19 252.07 22.1
-8 3 19 280.07 27.5
-7 -3 19 104.99 15
7 -3 -19 65.09 9.5
-7 -3 19 68.29 12
7 -3 -19 75.39 18.1
7 3 -19 59.79 12.1
-7 3 19 38.9 10.7
-7 3 19 80.19 15.8
7 3 -19 69.89 10.3
6 -3 -19 317.87 20
6 -3 -19 319.97 15.8
-6 -3 19 306.47 19.8
6 -3 -19 311.37 26.9
6 -3 -19 281.47 19.6
6 3 -19 343.97 20.9
-6 3 19 273.17 16.2
-6 3 19 325.07 24.1
6 3 -19 321.87 17.1
-5 -3 19 39 9.7
5 -3 -19 42.4 7.1
5 -3 -19 61.59 15.2
5 -3 -19 40.3 10
5 -3 -19 53.39 10.2
-5 3 19 54.69 8.4
-5 3 19 38.5 8.5
-5 3 19 37.5 11.4
5 3 -19 42.9 9.7
5 3 -19 40 8.5
4 -3 -19 55.19 9.7
4 -3 -19 66.19 8.5
-4 -3 19 57.69 10.2
4 -3 -19 55.29 9.1
4 -3 -19 44.9 13.9
-4 3 19 31.2 7.5
4 3 -19 65.69 9.3
-4 3 19 61.29 8.1
-4 3 19 64.19 12.1
4 3 -19 52.49 9.8
3 -3 -19 8.6 8
3 -3 -19 21.8 12
3 -3 -19 12.7 6.3
-3 -3 19 0.2 6.8
-3 -3 19 6.7 7.3
3 -3 -19 12.7 5.7
3 3 -19 12 6.6
-3 3 19 10.6 6
3 3 -19 -0.6 7.1
-3 3 19 11.7 8
-2 -3 19 107.99 13
2 -3 -19 104.69 17.3
2 -3 -19 99.19 10.3
2 -3 -19 108.89 13.6
-2 -3 19 91.39 11.1
2 -3 -19 98.39 13.1
2 3 -19 94.89 10.5
-2 3 19 92.99 10.6
2 3 -19 101.89 11.2
-2 3 19 114.19 13.4
1 -3 -19 78.09 15.4
-1 -3 19 76.59 12
1 -3 -19 105.59 10.5
1 -3 -19 123.59 13.7
1 -3 -19 71.99 8
-1 -3 19 91.49 10.6
-1 3 19 73.19 10.8
1 3 -19 97.39 11.8
0 -3 19 91.89 10.6
0 -3 19 94.09 13.6
0 -3 -19 69.99 14
0 -3 -19 84.59 5.6
0 -3 -19 84.09 6.4
0 -3 -19 95.69 11.1
0 -3 -19 73.49 9.9
0 3 -19 88.99 10.3
0 3 -19 80.99 12.5
0 3 -19 88.59 11.7
-1 -3 -19 104.79 7.7
1 -3 19 99.89 14
-1 -3 -19 102.99 11
1 -3 19 91.89 10.2
-1 -3 -19 130.49 14.4
-1 3 -19 122.49 17.5
-1 3 -19 111.79 10.8
-1 3 -19 93.49 10.3
-2 -3 -19 177.18 21.5
-2 -3 -19 143.39 9.4
2 -3 19 118.09 10.4
2 -3 19 127.39 15.6
-2 -3 -19 152.68 11.9
-2 3 -19 151.68 14.1
-2 3 -19 131.39 12.8
-2 3 -19 132.09 18.8
-3 -3 -19 16.7 5.8
3 -3 19 11.2 9.6
-3 -3 -19 10.6 6.9
-3 3 -19 20.5 8.1
-3 3 -19 26.6 11.3
-3 3 -19 14.9 6.8
-4 -3 -19 111.69 11.5
4 -3 19 136.69 18
-4 -3 -19 126.29 13.3
-4 3 -19 110.89 16.1
-4 3 -19 100.89 12.4
4 3 19 119.89 15.6
-5 -3 -19 -4.4 7.9
5 -3 19 11.3 12
-5 -3 -19 31 7.8
-5 3 -19 -7.2 12.8
-5 3 -19 12 10.7
5 -4 -19 104.19 12
-5 -4 19 95.19 14.4
5 -4 -19 70.89 21.6
5 4 -19 91.49 15.4
-5 4 19 140.89 20
4 -4 -19 103.99 11
-4 -4 19 88.19 14.7
4 -4 -19 76.79 20.5
-4 4 19 121.29 17.6
4 4 -19 89.99 9.9
-4 4 19 99.79 13.1
4 4 -19 117.69 14.9
3 -4 -19 119.89 20.1
-3 -4 19 73.39 13.9
3 -4 -19 90.49 10.6
3 4 -19 75.49 9.7
3 4 -19 96.09 13.7
2 -4 -19 108.69 13.9
2 -4 -19 62.39 20.5
-2 -4 19 55.89 11.9
2 4 -19 67.99 9.9
2 4 -19 79.99 12.3
1 -4 -19 166.38 23.7
1 -4 -19 151.18 15
-1 -4 19 139.19 18.4
1 4 -19 105.99 11.1
1 4 -19 179.98 18.5
0 -4 19 334.27 23.7
0 -4 -19 309.67 33.2
0 -4 -19 343.27 17.8
0 4 -19 340.47 20.7
0 4 -19 322.17 18.7
-1 -4 -19 40.5 20.1
1 -4 19 21.9 12.3
-1 -4 -19 42.9 9.7
-1 4 -19 33.3 9.5
-1 4 -19 66.59 15.4
-12 0 20 53.19 28
12 0 -20 -3.9 10.7
12 0 -20 2.7 11
11 0 -20 329.77 21.5
-11 0 20 250.87 13.8
-11 0 20 291.27 27.5
11 0 -20 278.47 18.8
10 0 -20 7.9 7.7
-10 0 20 1.6 12.1
-10 0 20 7 7.8
-10 0 20 6.5 5.6
-10 0 20 3.8 16.3
10 0 -20 15.4 8.7
-10 0 20 0.9 12.3
9 0 -20 525.55 22.7
-9 0 20 532.65 17.2
-9 0 20 593.74 28.4
-9 0 20 531.85 25.1
9 0 -20 553.04 20.7
-9 0 20 554.64 29.3
-9 0 20 552.54 19.4
9 0 -20 538.85 24.3
8 0 -20 334.27 18.6
8 0 -20 369.66 16.4
-8 0 20 380.36 19.2
8 0 -20 362.46 19.9
-8 0 20 368.16 15.3
-8 0 20 349.47 12.9
8 0 -20 367.06 17.8
-8 0 20 348.07 16.1
-8 0 20 321.47 23.4
-7 0 20 434.66 19.9
-7 0 20 493.45 25.3
-7 0 20 454.35 15.6
7 0 -20 491.25 21.5
7 0 -20 512.15 19.9
-7 0 20 469.35 17.3
7 0 -20 491.75 18.3
-7 0 20 487.35 15.2
7 0 -20 502.35 20.3
6 0 -20 1579.24 40.8
6 0 -20 1589.94 37.5
6 0 -20 1520.25 39.2
-6 0 20 1577.24 34.1
-6 0 20 1416.66 53.89
-6 0 20 1540.15 35.9
-6 0 20 1562.44 34.4
6 0 -20 1553.54 38.8
-6 0 20 1573.84 39.6
5 0 -20 126.79 11.5
-5 0 20 107.89 10.9
5 0 -20 112.09 10.5
-5 0 20 108.29 8.6
-5 0 20 106.69 14
-5 0 20 110.09 7.4
5 0 -20 97.79 9.8
-4 0 20 -1.2 4.9
-4 0 20 -3.2 5.1
-4 0 20 3.6 2.9
-4 0 20 -3.3 3.4
4 0 -20 -0.4 4.8
4 0 -20 1.1 3.9
4 0 -20 5.6 5.2
4 0 -20 2.3 5.2
3 0 -20 36.9 6.7
3 0 -20 33.5 5.7
-3 0 20 36.6 5.1
-3 0 20 38.6 6
-3 0 20 48.8 6.8
3 0 -20 23.6 5.2
-3 0 20 35 6.9
3 0 -20 40 6.8
3 0 -20 60.59 8.3
2 0 -20 1771.42 43.2
2 0 -20 1803.02 41.4
2 0 -20 1788.02 41.4
2 0 -20 1823.72 38.4
-2 0 20 1805.22 37.6
-2 0 20 1829.02 42.8
-2 0 20 1826.12 41.6
2 0 -20 1827.92 42.2
2 0 -20 1823.12 41.4
-2 0 20 1847.22 39.5
-1 0 20 382.26 16.7
-1 0 20 373.76 13.6
1 0 -20 379.46 16.4
1 0 -20 352.96 14.7
1 0 -20 371.46 15.5
-1 0 20 380.26 12.2
1 0 -20 383.96 12.8
-1 0 20 378.36 14.3
1 0 -20 377.16 14.3
0 0 -20 206.78 10.8
0 0 -20 208.38 12.2
0 0 20 205.58 8.9
0 0 -20 199.58 11.5
0 0 20 205.48 10.1
0 0 20 197.48 13.3
0 0 -20 195.68 9.4
0 0 20 201.18 10.4
-1 0 -20 536.15 17.5
1 0 20 535.95 17.1
1 0 20 527.55 15.8
-1 0 -20 548.95 19.1
1 0 20 510.45 15.8
-1 0 -20 550.94 16.1
-1 0 -20 532.05 19.8
2 0 20 3047.2 61.79
-2 0 -20 3098.89 60.99
2 0 20 3088.69 60.29
-2 0 -20 3062.09 65.79
-2 0 -20 3101.39 62.89
2 0 20 3086.69 62.39
-2 0 -20 3057.49 66.39
3 0 20 126.19 11.5
-3 0 -20 118.39 10.4
3 0 20 128.79 7.9
3 0 20 141.19 10.6
-3 0 -20 142.39 12.6
3 0 20 117.29 10.7
-3 0 -20 127.89 15.6
-4 0 -20 1080.09 28
4 0 20 1008.9 27
4 0 20 980.2 27.4
-4 0 -20 1029.2 26.9
-4 0 -20 1056.89 31.8
4 0 20 1022.3 23.6
4 0 20 974.7 28.7
-4 0 -20 1073.19 31
-5 0 -20 11.7 7.5
5 0 20 15.8 4.3
-5 0 -20 3.5 7.7
-5 0 -20 12.7 5.5
-5 0 -20 10.3 6.3
-6 0 -20 275.87 20.3
-6 0 -20 305.57 14.8
-6 0 -20 293.87 19.8
-6 0 -20 287.17 18
-7 0 -20 24.9 7.4
-7 0 -20 26.8 11.4
-7 0 -20 8.4 8.4
7 0 20 33.2 11.9
-11 -1 20 36.1 9.7
-11 -1 20 23 17.3
11 -1 -20 70.99 12.7
11 -1 -20 43.7 12.8
-11 -1 20 36.1 14.2
11 1 -20 46.4 9.8
11 1 -20 42.9 11.5
-11 1 20 72.69 14.5
-10 -1 20 5.2 6.8
-10 -1 20 22.9 14.8
10 -1 -20 39.6 9.5
-10 -1 20 16 15.7
-10 -1 20 1.4 11
-10 -1 20 20.4 10.6
10 -1 -20 21.9 9.8
10 1 -20 1 9.2
-10 1 20 38.4 12
10 1 -20 22.7 7.4
-9 -1 20 3.9 8
9 -1 -20 18.4 9.3
9 -1 -20 25.2 9.8
9 -1 -20 12 7.1
-9 -1 20 -5.1 11.9
-9 -1 20 16 10.7
-9 -1 20 3 11.8
-9 -1 20 18.4 7.7
9 1 -20 19 6
-9 1 20 9.1 10.4
9 1 -20 30.5 9.3
9 1 -20 2.2 8
-9 1 20 30.6 11.8
8 -1 -20 223.68 20.7
-8 -1 20 215.68 12.5
-8 -1 20 256.77 17.5
-8 -1 20 208.78 16.6
8 -1 -20 212.68 17.6
-8 -1 20 219.88 15.5
8 -1 -20 213.58 14.3
-8 -1 20 206.78 19.3
8 -1 -20 206.58 17.5
8 1 -20 215.18 11
-8 1 20 214.98 12.7
8 1 -20 227.18 17.2
8 1 -20 208.98 16.1
-8 1 20 212.78 16.5
-8 1 20 214.98 19.9
-7 -1 20 6.6 7.1
7 -1 -20 1.6 5
7 -1 -20 0.9 6.3
-7 -1 20 -0.4 6.7
-7 -1 20 -7.9 5.7
7 -1 -20 6.6 7.1
-7 -1 20 2.2 4.8
7 -1 -20 -5.4 7.1
-7 -1 20 1.4 5.9
7 1 -20 1.2 6.4
7 1 -20 4.7 4
-7 1 20 9.6 8.8
-7 1 20 2.4 5.2
-7 1 20 3.6 7
7 1 -20 13.6 6.5
7 1 -20 7.3 7
6 -1 -20 499.85 18.4
-6 -1 20 475.65 20.5
6 -1 -20 483.65 21.1
6 -1 -20 461.15 18.7
-6 -1 20 461.75 19.6
6 -1 -20 457.25 21.6
-6 -1 20 467.75 18.3
-6 -1 20 483.85 17.8
6 1 -20 501.55 21
-6 1 20 508.15 25.2
6 1 -20 472.35 19.5
6 1 -20 492.05 21.5
6 1 -20 484.85 13.6
-6 1 20 508.45 16.8
-6 1 20 512.25 20.2
5 -1 -20 24.9 7.2
-5 -1 20 6.5 5.9
-5 -1 20 27.2 5.5
5 -1 -20 14.9 4.9
-5 -1 20 20.2 5.9
5 -1 -20 21.6 7.7
5 -1 -20 23.7 6.6
5 1 -20 19.2 7.2
5 1 -20 19.3 3.4
-5 1 20 15.7 6.2
-5 1 20 14.6 4.7
5 1 -20 23.8 7.4
5 1 -20 20.8 5.6
-5 1 20 13.4 8.2
4 -1 -20 7.3 4.6
-4 -1 20 4.1 4.7
-4 -1 20 0 4.7
4 -1 -20 12.9 5.1
-4 -1 20 8.2 4.9
4 -1 -20 18.2 6.5
4 -1 -20 3 6.8
-4 -1 20 9.3 5.7
-4 1 20 8.2 4.4
-4 1 20 6.5 1.9
4 1 -20 3.5 2.9
4 1 -20 4.9 2.5
4 1 -20 1.6 5.5
-4 1 20 6.6 7.4
-4 1 20 3.6 4.4
4 1 -20 7.9 5.1
-3 -1 20 88.09 8.6
3 -1 -20 104.79 8.7
3 -1 -20 96.89 10.5
3 -1 -20 109.29 10.9
-3 -1 20 96.19 8.7
-3 -1 20 103.99 10.5
3 -1 -20 100.59 12.4
-3 -1 20 93.49 9.3
-3 1 20 99.69 5
3 1 -20 98.39 10.4
3 1 -20 93.69 4.5
-3 1 20 85.89 10.4
-3 1 20 95.89 12.5
-3 1 20 104.89 8.7
3 1 -20 96.09 11.6
3 1 -20 90.89 5
3 1 -20 97.69 9.8
-2 -1 20 441.66 16.7
2 -1 -20 438.26 16.8
-2 -1 20 422.36 15.5
2 -1 -20 416.36 13.6
-2 -1 20 403.96 14.5
2 -1 -20 407.36 17.5
2 -1 -20 426.56 19.8
-2 -1 20 479.35 18.2
2 -1 -20 436.86 15.3
2 1 -20 438.26 16.7
-2 1 20 435.86 17.3
2 1 -20 421.96 9.6
-2 1 20 429.76 11.8
-2 1 20 434.96 18.6
2 1 -20 435.46 17.7
-2 1 20 414.86 14.9
2 1 -20 426.16 10.7
2 1 -20 408.96 17.8
-1 -1 20 85.59 8.2
1 -1 -20 99.09 10.4
-1 -1 20 105.09 11.4
1 -1 -20 99.99 10.5
1 -1 -20 100.19 7.7
1 -1 -20 100.59 8
1 -1 -20 101.69 12.2
-1 -1 20 100.79 8.6
-1 -1 20 102.69 9
-1 1 20 99.99 9
1 1 -20 90.39 10.3
1 1 -20 104.59 4.5
1 1 -20 107.39 6.3
-1 1 20 89.49 10.3
-1 1 20 101.39 6.8
1 1 -20 108.59 9.3
-1 1 20 96.09 11
1 1 -20 85.09 10
0 -1 -20 186.08 11.9
0 -1 -20 160.78 9.5
0 -1 20 160.88 10.3
0 -1 20 140.29 12.9
0 -1 -20 152.78 11.7
0 -1 20 174.28 9.7
0 -1 -20 166.28 10.1
0 -1 20 162.18 9.8
0 1 20 162.88 12
0 1 20 166.88 9.3
0 1 -20 167.98 6.4
0 1 -20 150.08 11.9
0 1 -20 164.68 12.3
0 1 20 158.78 10.5
0 1 -20 151.08 10.3
0 1 -20 155.88 8.3
0 1 20 156.78 11.2
-1 -1 -20 25.2 5.5
-1 -1 -20 27.9 5.3
1 -1 20 32.5 5.3
-1 -1 -20 31.7 6.4
1 -1 20 36.6 6.4
-1 -1 -20 22.5 6.3
1 -1 20 36.9 5.9
-1 1 -20 30.6 4.1
-1 1 -20 23.1 6.1
-1 1 -20 40.5 6.4
1 1 20 30.1 5.8
1 1 20 31.9 6
1 1 20 32.5 6
-1 1 -20 29.3 6.7
-2 -1 -20 33.8 6.9
2 -1 20 38.3 6.2
-2 -1 -20 24.7 6.3
2 -1 20 26.6 5.7
-2 -1 -20 39.4 6.2
-2 -1 -20 44 6.4
2 -1 20 31 5.2
2 1 20 35.4 5.4
-2 1 -20 34 6.3
2 1 20 26.7 6.5
-2 1 -20 28.4 7.5
-2 1 -20 27 6.6
-2 1 -20 35.9 5.2
2 1 20 30.8 6.3
2 1 20 42.7 5
-3 -1 -20 7.2 6.1
-3 -1 -20 -1.1 5.5
-3 -1 -20 0.7 4.7
-3 -1 -20 4.6 3.9
3 -1 20 15.7 5.2
3 -1 20 12.5 8.7
3 -1 20 3.2 4.6
3 -1 20 6.3 4.8
-3 1 -20 -2.5 4.7
3 1 20 5.9 6.1
-3 1 -20 11.6 5.8
-3 1 -20 4.9 6
3 1 20 -7.1 6.3
-3 1 -20 1.7 6.3
4 -1 20 11.9 10.2
4 -1 20 24.7 6.1
-4 -1 -20 19 6
-4 -1 -20 10.6 8
4 -1 20 14.7 5.9
-4 -1 -20 22.8 7.8
-4 -1 -20 22 5.5
-4 1 -20 11.2 7.5
4 1 20 -4 7.6
-4 1 -20 14.2 7.4
-4 1 -20 21.6 5.7
-4 1 -20 16 7.3
-5 -1 -20 24.8 6.5
-5 -1 -20 29.8 7.4
-5 -1 -20 27.3 10.7
5 -1 20 26.4 7.1
-5 -1 -20 27.7 9.4
5 -1 20 24.2 10.6
-5 1 -20 22.7 10
-5 1 -20 15.6 8.1
-5 1 -20 18.2 8
-5 1 -20 25.6 6.4
6 -1 20 69.89 9.5
-6 -1 -20 47.9 7.4
6 -1 20 71.49 11.3
-6 -1 -20 58.49 9.7
-6 -1 -20 65.89 10.7
-6 1 -20 62.69 8.4
-6 1 -20 76.09 12.3
-6 1 -20 58.69 10.8
-6 1 -20 71.09 14.4
-7 -1 -20 59.49 8.9
7 -1 20 55.19 9.6
7 -1 20 51.79 12.4
-7 -1 -20 65.59 11
-7 1 -20 50.29 13.5
-7 1 -20 41.1 11
-7 1 -20 38.1 14.5
10 -2 -20 901.61 30
-10 -2 20 899.01 30.7
-10 -2 20 819.62 38.9
10 -2 -20 922.81 36.7
-10 2 20 972.7 42.2
10 2 -20 886.41 34.9
10 2 -20 870.31 25.2
9 -2 -20 403.56 19.4
-9 -2 20 349.77 24
9 -2 -20 388.36 24.2
9 -2 -20 436.06 26.8
-9 -2 20 396.46 20.2
9 2 -20 375.56 14.7
-9 2 20 448.26 28.4
9 2 -20 375.86 23.2
8 -2 -20 155.08 17.7
-8 -2 20 109.39 13.3
-8 -2 20 109.69 15.9
8 -2 -20 133.29 13.9
8 -2 -20 134.09 16.8
8 2 -20 126.29 15
-8 2 20 142.49 15.1
8 2 -20 157.18 16.6
8 2 -20 114.59 8.5
-8 2 20 164.48 19
7 -2 -20 94.49 11.9
7 -2 -20 96.49 14.4
-7 -2 20 92.19 11.1
7 -2 -20 96.69 12.4
-7 -2 20 124.09 13.6
7 -2 -20 91.49 15.5
-7 -2 20 74.69 12.3
-7 2 20 130.19 16.7
7 2 -20 107.79 12.8
7 2 -20 115.89 13.9
-7 2 20 58.09 9.8
-7 2 20 104.09 11.8
7 2 -20 94.39 5.9
6 -2 -20 228.98 17.2
6 -2 -20 216.98 20.8
-6 -2 20 258.17 16.3
-6 -2 20 264.07 17.8
6 -2 -20 238.78 13.7
-6 -2 20 236.38 16.1
6 -2 -20 243.08 15.6
-6 2 20 245.18 17.9
6 2 -20 261.67 16.5
6 2 -20 246.38 16.4
-6 2 20 271.77 14.2
-5 -2 20 50.99 8.2
5 -2 -20 68.09 12.3
5 -2 -20 60.09 8.9
5 -2 -20 77.89 10
5 -2 -20 63.79 7.6
-5 -2 20 58.39 9.9
-5 -2 20 61.49 9.1
-5 -2 20 46.1 7.4
5 2 -20 54.79 8.8
-5 2 20 77.29 12.8
-5 2 20 69.19 8.3
-5 2 20 80.99 9.5
5 2 -20 71.99 12.8
5 2 -20 55.19 8.9
4 -2 -20 583.34 19.4
4 -2 -20 571.34 22.3
4 -2 -20 599.34 27
-4 -2 20 547.05 19.3
-4 -2 20 566.14 22.3
4 -2 -20 584.44 19.7
-4 -2 20 577.04 21.7
-4 -2 20 567.24 21.2
-4 2 20 576.14 19.4
4 2 -20 569.44 21.7
4 2 -20 599.64 22.3
-4 2 20 570.94 22.8
-4 2 20 609.44 21
3 -2 -20 184.08 14.1
3 -2 -20 179.78 11.1
-3 -2 20 161.48 13.5
-3 -2 20 148.99 13.5
3 -2 -20 183.98 11
-3 -2 20 187.98 12.9
3 -2 -20 194.38 18.4
3 -2 -20 164.78 15.9
-3 -2 20 162.78 11.3
3 2 -20 176.88 13
-3 2 20 195.08 12.2
-3 2 20 174.38 13
3 2 -20 173.28 12.9
-3 2 20 166.38 18.1
-2 -2 20 119.59 11.2
-2 -2 20 105.99 9.6
-2 -2 20 119.19 12.7
2 -2 -20 108.49 12
2 -2 -20 110.69 9.6
2 -2 -20 139.99 17.5
-2 -2 20 116.59 11.4
2 -2 -20 124.29 8.7
-2 2 20 140.99 11.8
-2 2 20 123.99 11.1
2 2 -20 109.99 11.5
-1 -2 20 190.08 13.2
1 -2 -20 212.68 16.2
1 -2 -20 219.78 11.4
-1 -2 20 199.28 11.1
-1 -2 20 192.48 14.6
1 -2 -20 198.28 8.4
1 -2 -20 171.68 17.6
1 -2 -20 196.38 9.4
1 -2 -20 179.68 13.5
-1 -2 20 206.58 13.7
1 2 -20 201.78 13.5
1 2 -20 188.98 12.7
-1 2 20 196.38 8.3
-1 2 20 206.18 12.3
1 2 -20 197.68 15.3
0 -2 -20 170.08 10.7
0 -2 -20 176.58 7.8
0 -2 20 172.78 14.9
0 -2 20 169.28 10.4
0 -2 20 169.18 12.7
0 -2 -20 165.98 8.8
0 -2 20 174.28 12.7
0 -2 -20 155.88 14.7
0 -2 -20 171.98 13.7
0 2 20 158.08 9.1
0 2 -20 158.78 12.9
0 2 -20 174.58 15
0 2 20 176.68 12.7
0 2 -20 171.48 12.1
0 2 20 172.78 9.4
1 -2 20 81.19 10.4
1 -2 20 84.49 10.8
-1 -2 -20 63.69 7.1
-1 -2 -20 70.59 10.9
-1 -2 -20 67.09 8.6
-1 -2 -20 64.29 11.9
1 -2 20 74.69 8.8
-1 2 -20 65.79 8.1
-1 2 -20 59.39 10.5
-1 2 -20 56.59 7.6
2 -2 20 219.48 22.8
2 -2 20 228.18 14.8
-2 -2 -20 207.28 11.8
2 -2 20 194.58 11
-2 -2 -20 190.48 16.6
-2 -2 -20 210.28 10.8
2 2 20 180.08 12.3
-2 2 -20 210.78 14.6
-2 2 -20 218.88 16.8
-2 2 -20 220.48 12.8
-3 -2 -20 0 7.5
-3 -2 -20 16.1 5.1
3 -2 20 6.6 5.2
-3 -2 -20 7.2 5.8
3 -2 20 10.8 6.8
3 -2 20 34.2 13.7
3 2 20 15.8 7.2
-3 2 -20 6.6 7.1
-3 2 -20 17.4 6.3
-3 2 -20 7.9 7.8
4 -2 20 57.39 10
-4 -2 -20 46 10.1
-4 -2 -20 50.19 7.6
-4 -2 -20 45 7.4
4 -2 20 57.39 15.8
4 -2 20 49.5 7.1
-4 2 -20 30.8 10.5
-4 2 -20 49.5 10.4
-4 2 -20 48.2 8.1
4 2 20 41.9 10.1
-5 -2 -20 5.5 6.6
5 -2 20 9.2 8.4
5 -2 20 38.6 16.5
-5 -2 -20 9 6.2
-5 2 -20 1.3 9.1
-5 2 -20 20.3 9.1
-5 2 -20 -5.1 6.8
6 -2 20 125.39 18.3
-6 -2 -20 147.89 14.1
-6 -2 -20 188.88 15.1
-6 2 -20 204.88 23.4
-6 2 -20 170.68 20
-8 -3 20 129.09 18.7
-8 -3 20 113.49 13.9
8 -3 -20 148.39 21.8
8 -3 -20 134.39 13
-8 3 20 163.38 21.8
8 3 -20 99.29 14.7
-7 -3 20 -2.4 9.1
7 -3 -20 -1.9 7.8
7 -3 -20 14.8 16.2
7 3 -20 -13.3 7.3
7 3 -20 -7.9 9.2
-7 3 20 -9.8 11.8
-6 -3 20 330.17 20.3
6 -3 -20 332.57 28.6
6 -3 -20 303.67 16.5
6 3 -20 310.77 18.2
-6 3 20 327.87 25.2
6 3 -20 356.36 21.7
5 -3 -20 43.5 16.4
-5 -3 20 64.39 12
5 -3 -20 50.79 8.4
5 -3 -20 54.69 11.1
5 -3 -20 41.3 9.4
5 3 -20 43.6 9.9
5 3 -20 50.69 8.7
-5 3 20 55.79 12.9
4 -3 -20 268.57 15.7
4 -3 -20 281.87 25.8
-4 -3 20 279.67 18.3
4 -3 -20 264.87 14.6
-4 3 20 269.57 15.7
4 3 -20 300.27 19.1
4 3 -20 285.57 17
-4 3 20 306.67 20.9
3 -3 -20 32.8 9.4
3 -3 -20 50.69 15.4
3 -3 -20 51.09 8.1
3 -3 -20 35.2 7.5
-3 -3 20 42.1 9.4
-3 -3 20 53.09 10.2
3 3 -20 30.6 8
-3 3 20 67.29 11.6
3 3 -20 39.1 9.4
-3 3 20 63.29 8.4
2 -3 -20 359.56 15.7
2 -3 -20 329.37 15.8
2 -3 -20 352.46 19.1
-2 -3 20 366.76 16.8
-2 -3 20 370.86 19.9
2 -3 -20 320.37 27
-2 3 20 344.87 18.3
-2 3 20 346.57 16.4
2 3 -20 334.77 17.7
2 3 -20 365.16 18.6
-1 -3 20 49.3 7.7
1 -3 -20 35.3 9.6
-1 -3 20 23.8 8.2
1 -3 -20 30.8 5.6
1 -3 -20 20.2 6
1 -3 -20 22.6 12.6
1 3 -20 22.5 7.6
1 3 -20 28.7 8.3
-1 3 20 28.9 7.5
0 -3 -20 133.29 7.8
0 -3 -20 189.68 23.5
0 -3 -20 128.29 12.2
0 -3 20 134.19 11.6
0 -3 20 125.69 15.1
0 -3 -20 115.99 15.1
0 3 -20 128.79 13.4
0 3 -20 123.79 18.8
-1 -3 -20 92.69 9.8
-1 -3 -20 76.89 7.8
1 -3 20 76.89 8.2
1 -3 20 85.39 12.7
-1 3 -20 78.29 10.1
-1 3 -20 100.99 13.2
-1 3 -20 55.79 11.9
2 -3 20 12.8 6.2
2 -3 20 3.9 9.2
-2 -3 -20 13.7 5.3
-2 -3 -20 5.5 6.5
-2 3 -20 9.3 7.5
-2 3 -20 -13.5 10.1
-2 3 -20 5.7 7.5
-3 -3 -20 96.19 10.7
3 -3 20 89.99 14
-3 -3 -20 96.59 10.6
-3 3 -20 89.09 11.5
-3 3 -20 69.59 14.7
-3 3 -20 83.09 10.1
-4 -3 -20 16.7 7.1
-4 -3 -20 30.7 9.3
4 -3 20 9.2 11.5
-4 3 -20 -3.2 13.2
-4 3 -20 29.7 11.1
4 -4 -20 -3.1 33.3
4 -4 -20 -5.7 8.8
4 4 -20 11.1 12.4
4 4 -20 5.8 10.3
-4 4 20 24.2 14.7
3 -4 -20 4.2 17.6
3 -4 -20 18.5 9.1
-3 -4 20 0 12.5
3 4 -20 3.3 8.4
3 4 -20 -3.9 12.1
2 -4 -20 96.29 11.7
-2 -4 20 91.89 14.4
2 -4 -20 55.39 20.8
2 4 -20 91.39 14.7
2 4 -20 91.69 11.4
1 -4 -20 14 8.5
1 -4 -20 -24.8 20
-1 -4 20 25.1 12.2
1 4 -20 -9.6 11.3
1 4 -20 12.9 9.5
0 -4 -20 28.2 9.3
0 -4 20 30.5 12.3
-11 0 21 20.4 15.4
-11 0 21 -11.7 6.3
11 0 -21 -17.3 9.1
11 0 -21 25 10.9
10 0 -21 2.2 8
-10 0 21 -9 11.4
-10 0 21 -2.3 8.7
-10 0 21 14.9 16.2
10 0 -21 12.9 9.5
-10 0 21 -17.4 11.8
10 0 -21 -11 10.6
9 0 -21 -5.1 13.4
-9 0 21 -5.1 6.2
9 0 -21 -7.9 7.5
9 0 -21 2.2 9.1
-9 0 21 11.6 11.2
-9 0 21 -10.4 4.5
-9 0 21 6.6 12
-8 0 21 1.6 8.6
8 0 -21 4.1 6.1
-8 0 21 -0.5 3.8
-8 0 21 -6.1 11.2
8 0 -21 6 7.7
8 0 -21 3.6 6.3
7 0 -21 -5.8 6.9
7 0 -21 -0.3 7.2
-7 0 21 -0.2 7.9
-7 0 21 1.2 10.1
-7 0 21 -0.7 5.2
7 0 -21 5.9 5.8
-7 0 21 2.5 4.6
-7 0 21 0.3 3.6
7 0 -21 10.5 6.2
6 0 -21 0.7 6
6 0 -21 -0.7 5.7
-6 0 21 3.7 3.7
-6 0 21 -1 8.7
6 0 -21 -9.1 5.4
-6 0 21 -0.6 5.3
6 0 -21 -5.6 6.1
-6 0 21 0.1 3.7
-5 0 21 -6.8 7.2
5 0 -21 -2.4 5.7
5 0 -21 -1 4.4
5 0 -21 -2.5 5.2
5 0 -21 -7.2 5.1
-5 0 21 2.1 4.3
-5 0 21 -2.6 6.4
-5 0 21 4 3.4
4 0 -21 4.6 5.5
-4 0 21 1.4 6.6
4 0 -21 6.4 5.5
4 0 -21 -4.5 3.8
4 0 -21 4.7 5.2
-4 0 21 -0.7 3
-4 0 21 -1 4.3
-3 0 21 5.6 3.9
-3 0 21 0.8 2.8
3 0 -21 0.7 4.1
3 0 -21 8 5.6
3 0 -21 -7.4 4.5
-3 0 21 5.2 5.6
3 0 -21 -0.9 4.6
3 0 -21 2.6 4.6
-2 0 21 3.9 5.9
2 0 -21 12.3 4.6
2 0 -21 -1.6 3.9
2 0 -21 -2.1 3.9
-2 0 21 5.4 3.2
-2 0 21 6.8 4.1
-2 0 21 1.4 4.6
2 0 -21 -2.5 5.1
2 0 -21 -5.4 4.7
1 0 -21 -2.1 3.8
-1 0 21 -2.5 3.8
-1 0 21 1 4.2
1 0 -21 8.6 5.6
1 0 -21 4.1 4
-1 0 21 0.5 3
-1 0 21 -3 5.7
1 0 -21 2.1 4.9
0 0 -21 -4.4 3.8
0 0 -21 0.9 4.8
0 0 21 7.1 4
0 0 21 6.2 4.5
0 0 21 3.1 3
0 0 21 4.4 6.1
0 0 -21 8.1 5.6
0 0 -21 1.2 5.3
1 0 21 8.8 3.5
-1 0 -21 4.3 4.6
-1 0 -21 -0.9 6.1
-1 0 -21 2 5.9
1 0 21 -2.9 3.5
1 0 21 2.4 4.7
-1 0 -21 -1.8 5
-2 0 -21 6.3 5.2
-2 0 -21 7.4 4.6
2 0 21 3.2 3.6
-2 0 -21 1.5 5.2
-2 0 -21 1.7 5.5
2 0 21 4.8 5
-3 0 -21 -4.1 5.6
3 0 21 7.9 5.2
-3 0 -21 -2.2 6.5
3 0 21 -4.1 5.5
-3 0 -21 1 5.3
3 0 21 1.3 3.8
-3 0 -21 7.7 5.1
3 0 21 3 6.9
-4 0 -21 6.7 6.6
4 0 21 6.9 6.8
4 0 21 2.4 3.9
-4 0 -21 7.9 5.1
4 0 21 2.1 6.4
4 0 21 -3 6.6
-4 0 -21 -0.9 7.1
-4 0 -21 1.9 7.1
-5 0 -21 -2.6 6.9
5 0 21 -1.8 4.1
-5 0 -21 6.7 8.1
-5 0 -21 -17.7 8.5
-5 0 -21 -3.2 5.6
-6 0 -21 4.1 8.4
-6 0 -21 38.6 12.5
-6 0 -21 -4.6 6.6
-6 0 -21 1.9 10.5
-7 0 -21 1.1 13.5
-7 0 -21 0 9.4
-7 0 -21 4.4 8.2
11 -1 -21 20.4 12.3
11 -1 -21 4.7 11
-11 1 21 37.6 13.8
11 1 -21 20 11.4
11 1 -21 16.1 8.9
-10 -1 21 167.98 23
10 -1 -21 150.08 16.9
-10 -1 21 150.38 21
-10 -1 21 146.49 13.1
10 -1 -21 142.19 18.6
-10 -1 21 178.98 18.9
-10 1 21 144.69 21.4
10 1 -21 141.69 18
10 1 -21 156.08 13.2
9 -1 -21 61.99 11.7
-9 -1 21 49.7 10.9
-9 -1 21 40.2 8.9
-9 -1 21 56.79 13.5
9 -1 -21 49.2 9.3
9 -1 -21 57.89 11.4
-9 -1 21 22.3 12.3
-9 -1 21 44.4 12.4
9 1 -21 49 11.6
-9 1 21 72.49 13.4
9 1 -21 48.4 7.5
9 1 -21 52.49 11.2
-9 1 21 32.9 11.6
-8 -1 21 708.93 31.2
8 -1 -21 750.32 29.3
-8 -1 21 742.23 25.5
8 -1 -21 693.83 27.6
8 -1 -21 742.23 25.2
-8 -1 21 718.73 27.3
-8 -1 21 689.43 23.2
-8 1 21 737.03 27.4
8 1 -21 720.43 28.2
8 1 -21 733.23 20.3
-8 1 21 762.52 32.3
8 1 -21 772.32 27.7
7 -1 -21 7 6
-7 -1 21 1.7 7.3
7 -1 -21 6.1 7
-7 -1 21 7.3 5.4
-7 -1 21 15.4 8.3
7 -1 -21 4.4 7.9
-7 -1 21 11.2 6.8
7 1 -21 10.8 4.5
-7 1 21 21.3 10.1
-7 1 21 11 8.3
7 1 -21 10.5 6.9
-7 1 21 -1.2 5.3
7 1 -21 12.3 7.6
6 -1 -21 420.46 21.5
6 -1 -21 410.76 20.4
-6 -1 21 416.26 19.8
-6 -1 21 405.66 18.9
6 -1 -21 422.76 18.7
6 -1 -21 433.26 17.7
-6 -1 21 381.56 16.6
-6 -1 21 433.26 17.9
6 1 -21 399.26 20.6
6 1 -21 390.86 20.1
-6 1 21 448.46 19.5
-6 1 21 439.66 16.4
6 1 -21 412.46 18.9
-6 1 21 395.36 24.1
6 1 -21 430.76 12.6
-5 -1 21 94.99 11.4
5 -1 -21 84.19 10.1
5 -1 -21 98.49 12.1
-5 -1 21 83.89 10.2
5 -1 -21 83.59 10.5
-5 -1 21 80.49 10.8
5 -1 -21 101.69 12
-5 -1 21 99.79 10.3
5 1 -21 85.79 5.8
-5 1 21 75.09 9.1
5 1 -21 78.39 10.2
-5 1 21 75.69 8.9
-5 1 21 87.39 13.3
5 1 -21 101.09 12.5
5 1 -21 85.89 10.3
-4 -1 21 274.27 13.1
4 -1 -21 295.27 14
4 -1 -21 283.87 18.1
-4 -1 21 290.17 15.4
-4 -1 21 282.67 13.4
4 -1 -21 289.57 15.7
4 -1 -21 298.27 14
4 1 -21 267.67 16.6
4 1 -21 295.77 15
-4 1 21 277.07 15
4 1 -21 281.17 8.4
-4 1 21 278.97 7.9
-4 1 21 295.07 18.6
4 1 -21 288.37 15.5
4 1 -21 286.57 8.8
-4 1 21 297.07 13.4
-3 -1 21 120.79 9.7
-3 -1 21 107.89 11.9
3 -1 -21 125.09 10.3
-3 -1 21 123.69 10.7
-3 -1 21 110.49 9.3
3 -1 -21 103.49 13.5
3 -1 -21 122.99 12.1
3 -1 -21 116.39 11.8
3 -1 -21 116.19 9.6
3 1 -21 117.89 5.5
-3 1 21 118.19 5.7
-3 1 21 123.99 10.1
3 1 -21 125.89 12.6
3 1 -21 128.19 11
3 1 -21 108.79 11.2
-3 1 21 101.59 11.2
-3 1 21 117.49 13.6
3 1 -21 106.19 4.8
-2 -1 21 1384.16 35.6
2 -1 -21 1349.36 34.1
2 -1 -21 1372.86 32.9
2 -1 -21 1358.16 33.4
2 -1 -21 1328.17 30.6
-2 -1 21 1353.46 34.4
2 -1 -21 1312.57 38.1
-2 -1 21 1334.97 31.5
2 -1 -21 1337.07 35.9
-2 -1 21 1348.07 32.5
-2 1 21 1317.07 28.2
-2 1 21 1359.46 35
-2 1 21 1365.56 33
-2 1 21 1308.97 35.8
2 1 -21 1312.07 25.3
2 1 -21 1339.67 26.4
2 1 -21 1328.57 35.7
2 1 -21 1351.16 36.6
1 -1 -21 573.34 18.8
1 -1 -21 555.54 22.9
1 -1 -21 573.44 21
-1 -1 21 559.74 19.3
-1 -1 21 552.74 18
1 -1 -21 555.84 19.4
-1 -1 21 547.35 17.4
1 -1 -21 548.65 17.4
1 -1 -21 572.74 17.9
-1 -1 21 595.64 22.2
1 1 -21 581.64 20.1
1 1 -21 574.14 21.2
-1 1 21 549.65 15.7
-1 1 21 600.54 21.6
1 1 -21 553.34 21.7
-1 1 21 552.34 20.3
1 1 -21 576.14 12.5
1 1 -21 563.94 14.3
-1 1 21 580.54 18.9
0 -1 21 1004.1 27.3
0 -1 -21 937.31 28.9
0 -1 -21 1009 26.7
0 -1 -21 983.4 27.2
0 -1 21 956.5 25.8
0 -1 -21 992.9 25.9
0 -1 21 1056.49 30.7
0 -1 21 1034.5 25.4
0 1 -21 978.4 20.6
0 1 -21 973.4 30.3
0 1 21 986.6 26.7
0 1 -21 981.6 27.4
0 1 21 1032.9 29.7
0 1 -21 959.9 29.1
0 1 21 985.3 25.1
0 1 21 1004.5 26.9
0 1 -21 949.71 22.7
-1 -1 -21 -2.9 5.8
1 -1 21 2.2 4.6
1 -1 21 1.1 4.6
-1 -1 -21 2.4 4.3
1 -1 21 2.7 4.5
-1 -1 -21 -2.9 5.3
-1 -1 -21 6 4.4
1 1 21 7.7 5.3
-1 1 -21 1.6 5.3
-1 1 -21 4.2 4.9
1 1 21 -0.8 4.9
-1 1 -21 1.1 3.7
1 1 21 -6.8 5.1
-1 1 -21 -5.3 4.7
-1 1 -21 2.8 5.8
2 -1 21 277.57 13
2 -1 21 286.87 13.6
-2 -1 -21 276.17 15
-2 -1 -21 260.37 15.4
-2 -1 -21 265.97 13.1
2 -1 21 269.17 13.2
-2 -1 -21 280.87 13.8
-2 1 -21 274.97 15.8
2 1 21 272.67 14.7
-2 1 -21 275.87 11.3
-2 1 -21 260.87 13.3
2 1 21 259.17 14.3
-2 1 -21 290.97 17.1
-3 -1 -21 124.29 10.4
-3 -1 -21 89.89 10.5
-3 -1 -21 106.39 12
3 -1 21 105.69 17
3 -1 21 107.49 10.6
3 -1 21 132.39 13.8
3 -1 21 107.69 10.4
-3 1 -21 99.79 10.8
-3 1 -21 99.89 13
-3 1 -21 104.69 10.9
-3 1 -21 122.99 13.4
3 1 21 93.29 11
-4 -1 -21 277.17 18
4 -1 21 265.67 14.1
-4 -1 -21 249.38 14.9
4 -1 21 276.27 14.3
4 -1 21 258.67 21
-4 -1 -21 249.88 13.5
-4 -1 -21 269.37 17.9
-4 1 -21 285.77 18.7
4 1 21 240.58 18.5
-4 1 -21 282.77 16.3
-4 1 -21 267.77 18.6
5 -1 21 77.89 13
-5 -1 -21 44.9 7.5
5 -1 21 49.1 8.4
-5 -1 -21 55.09 11.4
-5 -1 -21 48.9 9.5
-5 1 -21 43.1 7.5
-5 1 -21 33.7 10.7
-5 1 -21 44.5 11.9
-5 1 -21 55.29 10.9
-6 -1 -21 94.69 10.2
6 -1 21 75.29 10.1
-6 -1 -21 89.99 13.6
-6 1 -21 57.19 12
-6 1 -21 116.99 13.1
-6 1 -21 72.99 13.3
10 -2 -21 -11.8 13.4
10 -2 -21 -4.7 9.1
-10 -2 21 -11.1 14.9
-10 -2 21 12.5 9.5
-10 2 21 48.1 16.7
10 2 -21 20 12.7
-9 -2 21 42.8 12.7
9 -2 -21 72.49 15.4
9 -2 -21 63.39 10.2
-9 -2 21 74.69 11
9 2 -21 65.09 12.2
9 2 -21 59.59 11.7
9 2 -21 66.99 8
-9 2 21 95.89 17.2
8 -2 -21 7 7.8
-8 -2 21 -2.3 6.7
8 -2 -21 -2.1 12
-8 -2 21 -7.3 8.8
8 -2 -21 17.2 10.3
8 2 -21 2 4.5
8 2 -21 4.1 9.4
8 2 -21 -8.3 8
-8 2 21 18 10.2
-7 -2 21 666.23 26.8
-7 -2 21 622.04 28.4
7 -2 -21 650.53 27.9
7 -2 -21 686.53 31.4
7 -2 -21 654.33 23.5
7 2 -21 698.73 26.7
-7 2 21 674.83 29.8
7 2 -21 667.73 26.8
-6 -2 21 4.1 7.9
-6 -2 21 -0.5 8.3
6 -2 -21 6.4 8.6
6 -2 -21 12.2 6.1
-6 -2 21 4 7
6 -2 -21 15.9 11
6 -2 -21 24.7 8
-6 2 21 17.8 8.7
6 2 -21 7.8 7.3
-6 2 21 6.9 8.7
6 2 -21 15.4 7.7
-6 2 21 -1.3 7.4
5 -2 -21 539.85 27.5
-5 -2 21 566.74 22.8
5 -2 -21 575.74 20.8
5 -2 -21 593.24 20.4
5 -2 -21 582.84 24.3
-5 -2 21 556.34 23.5
-5 -2 21 565.04 23
-5 2 21 581.44 24.6
-5 2 21 536.35 19.8
5 2 -21 566.34 23.2
5 2 -21 562.14 22.7
-5 2 21 575.34 22.5
4 -2 -21 2.5 5.6
-4 -2 21 6.2 6.5
-4 -2 21 1.1 7.4
4 -2 -21 8.1 10.1
4 -2 -21 3.9 5.2
-4 -2 21 12.4 6.2
4 -2 -21 21.4 7.6
-4 -2 21 2.4 6.7
4 2 -21 10.8 6.7
-4 2 21 3.9 6
-4 2 21 1.8 6.7
-4 2 21 12.9 6.8
4 2 -21 15.9 7.3
-3 -2 21 181.98 13.3
3 -2 -21 188.88 11.2
3 -2 -21 177.08 11.8
-3 -2 21 159.28 14.8
3 -2 -21 172.78 17.2
-3 -2 21 175.88 13.9
3 -2 -21 196.58 15.2
3 -2 -21 202.88 19.6
-3 -2 21 186.58 12.5
3 2 -21 178.98 13.8
-3 2 21 191.68 13.7
-3 2 21 198.78 13.2
-3 2 21 176.28 13.7
3 2 -21 181.98 13.7
-2 -2 21 46.8 9.3
2 -2 -21 50.09 8.8
2 -2 -21 53.09 11.7
2 -2 -21 43.3 6.6
2 -2 -21 52.99 7.5
2 -2 -21 52.39 10.3
-2 -2 21 56.29 8.7
-2 -2 21 49.4 7
-2 -2 21 56.79 8.6
-2 2 21 40 7.5
-2 2 21 78.99 11.1
2 2 -21 49.8 8
2 2 -21 56.49 8.8
1 -2 -21 149.59 8.1
-1 -2 21 122.19 14.8
1 -2 -21 156.78 11
1 -2 -21 140.19 15.7
1 -2 -21 153.18 16
1 -2 -21 150.58 9.1
-1 -2 21 143.09 12.8
-1 -2 21 135.19 10.8
-1 -2 21 120.79 12.3
1 -2 -21 124.59 13.3
1 2 -21 148.99 14.7
-1 2 21 167.18 12
-1 2 21 141.89 7.9
1 2 -21 144.29 12.7
1 2 -21 165.78 13.6
0 -2 -21 6.9 9
0 -2 -21 -1 4.9
0 -2 21 8 6.9
0 -2 21 -1.8 6
0 -2 -21 5.9 7.7
0 -2 -21 6.9 4.4
0 -2 21 3.8 5.1
0 2 21 9.9 4.6
0 2 -21 14.5 7
0 2 21 8.1 4.5
0 2 -21 3.6 6
0 2 -21 4.9 7
-1 -2 -21 157.58 10.9
1 -2 21 134.19 10.4
-1 -2 -21 153.68 16.5
-1 -2 -21 104.99 11.4
-1 -2 -21 139.19 9.7
1 -2 21 135.29 13
1 2 21 139.49 10.7
-1 2 -21 113.79 13.5
-1 2 -21 164.28 16
-1 2 -21 140.09 12.4
-2 -2 -21 3.8 5.4
2 -2 21 -1 6.6
2 -2 21 6 13.2
-2 -2 -21 4.3 7.7
-2 -2 -21 2.5 4.9
2 -2 21 9 5.6
-2 2 -21 -2.6 7.9
-2 2 -21 2.5 6.5
-2 2 -21 3 7.1
2 2 21 -1.6 6.1
3 -2 21 113.89 10.7
-3 -2 -21 107.39 12.1
-3 -2 -21 106.09 12.2
-3 -2 -21 110.79 11.2
3 -2 21 157.58 25.4
3 -2 21 107.99 13.7
-3 2 -21 84.19 12.5
-3 2 -21 100.19 11.4
-3 2 -21 118.09 12.6
3 2 21 97.39 13.5
-4 -2 -21 -0.2 5.8
4 -2 21 45.7 17.9
-4 -2 -21 10.2 6.4
4 -2 21 -4.3 8
4 -2 21 5.2 7.2
4 2 21 17.8 9.9
-4 2 -21 -0.3 8.7
-4 2 -21 0.5 7
-4 2 -21 -7 9.6
-5 -2 -21 90.39 10.3
-5 -2 -21 87.39 12.8
5 -2 21 60.79 11.5
-5 2 -21 79.39 14.7
-5 2 -21 86.99 10
-5 2 -21 73.79 13.2
-8 -3 21 220.88 21.3
8 -3 -21 209.38 18.6
8 -3 -21 210.88 25.5
-8 -3 21 202.18 20.7
-8 3 21 232.28 28.4
8 3 -21 247.58 24.5
7 -3 -21 107.29 21.4
7 -3 -21 127.19 16.3
-7 -3 21 140.69 18.6
7 3 -21 159.08 20.8
7 3 -21 135.79 16.8
-7 3 21 140.89 19.9
6 -3 -21 245.18 28.7
-6 -3 21 285.37 20.9
6 -3 -21 285.87 17
6 3 -21 253.37 21.6
-6 3 21 272.07 25.6
6 3 -21 286.77 18.8
5 -3 -21 -3.8 8.5
-5 -3 21 6.4 9
5 -3 -21 10.2 7.4
5 -3 -21 15.4 13.8
5 3 -21 3.1 9.4
-5 3 21 -8.2 10.3
5 3 -21 16.3 8.5
-4 -3 21 74.49 11.2
4 -3 -21 82.89 16.4
4 -3 -21 79.49 9.8
4 -3 -21 64.89 10
-4 3 21 93.79 13.9
4 3 -21 86.59 10.9
4 3 -21 87.19 12.5
3 -3 -21 22.8 6.9
-3 -3 21 32.6 10
3 -3 -21 23.7 7.4
3 -3 -21 28.6 14.7
3 3 -21 17.6 9.2
-3 3 21 1.5 7.1
-3 3 21 31.4 10.3
3 3 -21 25.7 8.1
-2 -3 21 97.99 13.4
2 -3 -21 92.69 17.4
-2 -3 21 73.19 11.9
2 -3 -21 100.09 11.4
2 -3 -21 71.49 10.9
2 3 -21 90.49 11.6
-2 3 21 61.39 9.2
2 3 -21 73.49 10.4
-2 3 21 86.79 14
-1 -3 21 13.6 7.9
-1 -3 21 24 8.5
1 -3 -21 30.1 7.4
1 -3 -21 38.1 15.6
1 3 -21 34.5 9.3
1 3 -21 18.2 8
0 -3 -21 45.5 5.3
0 -3 -21 48.8 8.6
0 -3 21 41.9 8
0 -3 -21 38.6 15.9
0 -3 21 33.7 9.2
0 3 -21 46.9 9.1
0 3 -21 59.69 13.9
0 3 -21 39.2 9.2
1 -3 21 112.89 16.2
-1 -3 -21 146.99 13.3
-1 -3 -21 138.59 9.6
1 -3 21 115.99 13.2
-1 3 -21 159.38 15.6
-1 3 -21 147.19 18.7
-1 3 -21 163.28 21.5
-2 -3 -21 75.49 9.9
2 -3 21 79.89 13
-2 -3 -21 78.59 9.4
-2 3 -21 65.09 11.3
-2 3 -21 66.99 14.8
-2 3 -21 81.29 10.7
3 -3 21 236.48 20.6
-3 -3 -21 198.68 16.4
-3 -3 -21 228.78 14.9
-3 3 -21 191.88 18.3
-3 3 -21 197.78 17
-3 3 -21 234.98 26.4
-11 0 22 41.2 16.8
11 0 -22 24.7 11.1
11 0 -22 54.19 13.6
10 0 -22 378.66 19.4
-10 0 22 310.37 14.6
-10 0 22 334.07 30.7
10 0 -22 338.07 25.1
-10 0 22 348.47 29.2
10 0 -22 327.47 21.8
9 0 -22 4.9 8.3
-9 0 22 13.6 12.4
-9 0 22 11.5 7.2
9 0 -22 3.4 8.4
-9 0 22 9.3 12
-8 0 22 790.22 21.6
-8 0 22 781.92 24.4
8 0 -22 853.31 31.5
-8 0 22 777.22 35
8 0 -22 858.61 28.3
-8 0 22 824.02 29.5
8 0 -22 828.72 25.6
-7 0 22 269.97 12.7
-7 0 22 263.67 11.7
7 0 -22 269.57 16.5
7 0 -22 268.97 18.5
7 0 -22 284.17 18.6
-7 0 22 282.17 22.6
-7 0 22 267.47 18.2
7 0 -22 249.78 14.9
-6 0 22 709.53 22.2
6 0 -22 711.83 25.5
6 0 -22 739.53 24.9
-6 0 22 746.03 19.7
6 0 -22 748.03 27.3
-6 0 22 711.73 30.4
6 0 -22 746.93 23.4
-6 0 22 743.43 25.9
-5 0 22 90.79 7.3
5 0 -22 95.69 10.9
5 0 -22 95.79 10.7
5 0 -22 87.39 11.9
-5 0 22 85.89 8.9
5 0 -22 75.99 9.7
-4 0 22 405.06 20.1
4 0 -22 386.26 16.9
-4 0 22 396.06 14.8
4 0 -22 386.56 17.9
4 0 -22 398.46 17
-4 0 22 385.36 15.5
4 0 -22 395.86 15.3
4 0 -22 410.66 19.1
-4 0 22 417.26 18.4
3 0 -22 221.98 13.6
-3 0 22 234.08 14.9
3 0 -22 229.48 14.7
3 0 -22 205.78 11.2
3 0 -22 193.48 13.3
-3 0 22 227.88 12.1
-3 0 22 222.78 9.3
3 0 -22 225.98 12.9
-3 0 22 217.58 14.3
-2 0 22 255.27 15.3
-2 0 22 279.27 14.1
2 0 -22 264.67 13.4
2 0 -22 242.78 11.3
2 0 -22 245.98 13.1
-2 0 22 278.77 13
-2 0 22 251.67 10.3
2 0 -22 237.78 14.8
2 0 -22 258.27 14.4
2 0 -22 241.28 14.1
1 0 -22 158.28 11.3
-1 0 22 142.79 10.5
1 0 -22 149.99 12.6
1 0 -22 149.88 12.8
1 0 -22 157.28 10.9
-1 0 22 133.99 13.6
1 0 -22 150.18 9.5
-1 0 22 141.79 10.8
-1 0 22 155.68 8.4
0 0 22 345.97 18.2
0 0 -22 348.47 15.2
0 0 -22 339.67 15.9
0 0 -22 336.87 16.9
0 0 22 340.57 12.4
0 0 22 337.97 14.7
0 0 -22 333.17 16.3
0 0 22 338.07 14
-1 0 -22 71.49 8.3
1 0 22 62.09 7.9
-1 0 -22 63.29 9.3
1 0 22 54.29 7.6
-1 0 -22 68.29 9.1
1 0 22 73.69 7.8
-1 0 -22 54.09 6.6
-2 0 -22 405.16 18.7
2 0 22 425.16 15.7
2 0 22 407.56 17.2
-2 0 -22 414.16 16.6
-2 0 -22 387.66 18.8
-2 0 -22 398.96 15.5
2 0 22 400.56 14.2
3 0 22 -7 6.3
3 0 22 0 5.9
-3 0 -22 -2.1 5.2
-3 0 -22 3.8 7.3
3 0 22 4.9 7.5
-3 0 -22 3.7 6.4
-3 0 -22 -1.3 5.9
3 0 22 -3 4.2
-4 0 -22 136.99 14.8
-4 0 -22 135.09 15.9
4 0 22 140.19 9
4 0 22 125.19 13.3
-4 0 -22 154.38 12.5
-4 0 -22 167.68 15.3
-5 0 -22 49.1 11.4
-5 0 -22 50.49 8.2
-5 0 -22 40.9 10.3
-5 0 -22 45.4 11.3
-6 0 -22 -5.6 9
-6 0 -22 20.1 8
11 -1 -22 514.75 27.1
-11 -1 22 466.05 22.2
11 -1 -22 524.75 28.4
11 1 -22 540.45 22.1
-11 1 22 563.64 36
11 1 -22 489.45 28.8
10 -1 -22 48.1 13.5
10 -1 -22 44.8 10.8
-10 -1 22 52.59 13
-10 -1 22 49.2 8.6
10 -1 -22 25.9 11.4
-10 -1 22 36.9 17.6
-10 1 22 58.49 14.9
10 1 -22 56.69 13.5
10 1 -22 44.2 8.9
10 1 -22 57.09 12.5
-9 -1 22 333.87 20
-9 -1 22 299.37 22.8
-9 -1 22 286.27 26.4
9 -1 -22 277.17 21.2
9 -1 -22 290.87 23.1
-9 -1 22 282.87 15.7
9 -1 -22 301.27 18.7
-9 1 22 323.57 25.2
9 1 -22 302.77 14.2
9 1 -22 280.87 20.5
9 1 -22 301.87 20.6
-8 -1 22 5.1 7.8
8 -1 -22 -3.8 9.8
-8 -1 22 -6.8 10.9
-8 -1 22 6.7 9.5
8 -1 -22 4.7 6.9
8 -1 -22 4.7 9.3
-8 -1 22 -3.8 5.6
8 1 -22 11.4 5.2
8 1 -22 5.6 8.3
8 1 -22 -0.7 8
-8 1 22 11.7 11.2
-8 1 22 -6.7 9.7
-7 -1 22 47.4 9
-7 -1 22 36.9 7.3
7 -1 -22 32.7 9
7 -1 -22 35.1 10.7
-7 -1 22 60.49 9.6
-7 -1 22 44.6 10.3
7 -1 -22 24.5 9.8
7 -1 -22 40.1 8.3
7 1 -22 47.9 10.7
7 1 -22 49.8 5.9
-7 1 22 56.79 12.3
7 1 -22 44.6 9.5
-7 1 22 39 9.6
6 -1 -22 1.2 7.4
-6 -1 22 12.1 7.4
-6 -1 22 11.7 6.8
6 -1 -22 9.3 7.9
6 -1 -22 10.4 6
-6 -1 22 10.3 6.8
6 -1 -22 7.3 8.9
-6 1 22 2.7 7.7
6 1 -22 3.9 3.7
-6 1 22 14.3 9.3
6 1 -22 1.3 6.1
6 1 -22 -5.6 8.5
6 1 -22 11.5 9.1
-6 1 22 7.8 9.1
-5 -1 22 3.1 5.5
5 -1 -22 0.3 8.1
-5 -1 22 10.4 5.7
5 -1 -22 -7.6 5
-5 -1 22 3.4 5.2
-5 -1 22 -2.5 5.6
5 -1 -22 3.3 5.8
5 -1 -22 -2.5 6.7
5 1 -22 -1 3.8
-5 1 22 0.6 6.6
5 1 -22 -1 7.5
5 1 -22 -3.1 5
5 1 -22 -1.9 3
5 1 -22 -7.2 6
-5 1 22 7.2 5.6
-5 1 22 -0.7 9
-4 -1 22 3 5.2
-4 -1 22 5.3 5.4
-4 -1 22 11.1 6.4
-4 -1 22 6.6 7
4 -1 -22 13 6.8
4 -1 -22 15.8 6.2
4 -1 -22 4.3 8.4
4 -1 -22 9.3 5.4
-4 1 22 9.2 7.3
-4 1 22 11.7 2.6
4 1 -22 6.1 6.3
-4 1 22 2.6 5.3
-4 1 22 -6.8 7.7
4 1 -22 9.5 2.9
4 1 -22 7.3 3.2
4 1 -22 3.7 7.2
4 1 -22 13.6 6.4
-3 -1 22 1154.58 29.5
3 -1 -22 1154.28 30
-3 -1 22 1114.39 28.6
3 -1 -22 1137.69 30.2
3 -1 -22 1124.59 33.2
-3 -1 22 1132.19 32.4
3 -1 -22 1183.98 31.6
3 -1 -22 1104.09 34.4
3 1 -22 1122.59 22.5
-3 1 22 1131.79 34.2
3 1 -22 1165.58 33.4
3 1 -22 1121.89 21.9
-3 1 22 1122.49 31.9
-3 1 22 1114.79 24
-3 1 22 1112.59 29.2
3 1 -22 1156.58 32
-2 -1 22 9.4 4.6
2 -1 -22 8.7 7
2 -1 -22 9.6 4.8
-2 -1 22 5 7.3
2 -1 -22 13 6.7
2 -1 -22 -2.4 7.8
-2 -1 22 2.4 4.8
-2 -1 22 17.9 5.9
2 -1 -22 7.4 4
2 -1 -22 3.2 4.8
2 1 -22 19.6 6.2
-2 1 22 7.2 3.5
2 1 -22 4 6
-2 1 22 5 6.8
2 1 -22 3.6 5.7
-2 1 22 4.6 5.1
-2 1 22 9.3 7.6
1 -1 -22 1079.29 27.4
-1 -1 22 1083.59 27.4
1 -1 -22 1076.59 28.9
-1 -1 22 1076.49 27.7
1 -1 -22 1060.79 29.2
-1 -1 22 1070.59 32.2
-1 -1 22 1091.39 29.7
1 -1 -22 1091.09 33.9
1 -1 -22 1026.9 31.3
1 -1 -22 1110.49 27.9
-1 1 22 1110.99 31.8
1 1 -22 1081.89 32.6
1 1 -22 1071.19 31.5
-1 1 22 1070.29 25.3
1 1 -22 1065.89 21.3
1 1 -22 1104.49 29.8
-1 1 22 1070.89 30.3
1 1 -22 1041.6 22.9
0 -1 22 14.3 4.9
0 -1 22 7.6 5.5
0 -1 22 17.2 5.5
0 -1 -22 17 8.7
0 -1 -22 21.3 5.3
0 -1 22 26.9 8.4
0 -1 -22 17.5 5.6
0 -1 -22 11.6 6.4
0 -1 -22 13.7 7
0 1 22 5.6 5.9
0 1 -22 15.9 3.6
0 1 -22 18 7.3
0 1 22 7.8 5.2
0 1 -22 12.4 4.7
0 1 22 10.4 5.9
0 1 -22 12.2 7
0 1 -22 15.2 6.1
0 1 22 9.9 7.3
-1 -1 -22 -4.5 5
-1 -1 -22 1.5 6.6
-1 -1 -22 11.6 6.9
1 -1 22 -5.8 4.8
1 -1 22 0.8 5.2
1 -1 22 5.6 5.3
-1 -1 -22 -2.1 4.7
1 1 22 -1.6 5
1 1 22 -6.7 5
-1 1 -22 3.8 6.4
-1 1 -22 2.6 6.1
-1 1 -22 -6.8 5.2
-1 1 -22 -3.2 4
-1 1 -22 5.1 5.6
1 1 22 2.9 6.2
2 -1 22 19.1 5.6
-2 -1 -22 14.4 7.4
2 -1 22 15.9 9.7
-2 -1 -22 16.2 6.9
-2 -1 -22 25.7 6.2
-2 -1 -22 20.6 6.5
2 -1 22 14.8 6
2 -1 22 12.4 6
-2 1 -22 16.6 6.1
-2 1 -22 12.5 7.4
2 1 22 4.6 6.9
-2 1 -22 15 8.1
-2 1 -22 16.7 5.6
3 -1 22 148.69 12
-3 -1 -22 128.79 12.5
-3 -1 -22 141.49 15.2
3 -1 22 148.59 20.4
-3 -1 -22 145.79 11.9
-3 -1 -22 139.79 15.5
3 -1 22 123.39 12.4
-3 1 -22 161.68 12.5
-3 1 -22 149.88 15.1
-3 1 -22 160.48 12.6
-3 1 -22 133.19 15.4
3 1 22 120.99 12.8
-4 -1 -22 12.9 9.1
4 -1 22 -1.2 7
4 -1 22 -2.2 6.5
-4 -1 -22 7 6.6
4 -1 22 3.6 11.7
-4 -1 -22 5.9 11.2
-4 -1 -22 -0.2 6.2
-4 1 -22 -6.1 9
-4 1 -22 12.2 8.7
4 1 22 -14.8 11.8
-4 1 -22 6.5 9.4
-4 1 -22 6.7 6.7
-5 -1 -22 -2 6.4
-5 -1 -22 1.4 8
5 -1 22 4.9 7
-5 -1 -22 -4.5 11.7
-5 1 -22 -9.1 10.2
-5 1 -22 5.7 10.1
-5 1 -22 -2.1 7.5
-6 -1 -22 -7 7.3
-6 -1 -22 -16 8.5
-6 1 -22 -15.1 11.9
-6 1 -22 -4.7 11.8
-9 -2 22 33.3 13.7
9 -2 -22 69.39 11.8
9 -2 -22 87.79 16.6
-9 -2 22 60.09 11.6
9 2 -22 42 13.9
-9 2 22 71.09 14.9
9 2 -22 61.19 12.4
-8 -2 22 450.75 22.4
8 -2 -22 563.74 36
-8 -2 22 492.65 26.1
8 -2 -22 490.95 22.4
8 -2 -22 441.36 28.8
8 2 -22 523.25 25.5
8 2 -22 492.55 25.4
-8 2 22 542.05 29.2
-7 -2 22 127.09 16.2
7 -2 -22 160.28 14.7
7 -2 -22 142.39 18.6
7 -2 -22 146.89 18.1
-7 2 22 157.68 19.2
7 2 -22 147.09 15.6
7 2 -22 150.28 17.1
-6 -2 22 485.15 22.4
6 -2 -22 467.25 27.6
6 -2 -22 463.95 19.9
-6 -2 22 476.75 24.6
6 -2 -22 467.75 21
6 -2 -22 486.85 23.8
6 2 -22 464.85 22.6
6 2 -22 469.35 22.5
-6 2 22 469.85 24.4
-5 -2 22 62.29 10.3
-5 -2 22 39.3 8.8
5 -2 -22 60.99 9.5
5 -2 -22 47.9 9.6
5 -2 -22 33.1 12.1
-5 -2 22 38.9 10.6
5 -2 -22 56.59 8
5 2 -22 37.4 9.1
5 2 -22 47.2 9.2
-4 -2 22 188.78 16.9
-4 -2 22 202.98 15.4
-4 -2 22 175.48 15.7
4 -2 -22 168.78 13.1
4 -2 -22 205.58 21.2
4 -2 -22 206.68 16.7
4 -2 -22 188.18 13.5
4 2 -22 188.98 15.4
-4 2 22 190.38 14.8
-4 2 22 223.08 16.4
4 2 -22 190.08 15.8
-3 -2 22 297.87 15.5
3 -2 -22 325.87 20.8
-3 -2 22 350.96 19
-3 -2 22 331.47 17.8
3 -2 -22 369.36 24
3 -2 -22 351.16 16.1
3 -2 -22 349.47 19.3
-3 -2 22 342.07 18.1
3 -2 -22 350.36 15.3
-3 2 22 337.17 17.7
3 2 -22 341.67 17.9
-3 2 22 362.06 18.3
3 2 -22 354.56 18.1
2 -2 -22 168.98 15.8
-2 -2 22 187.78 15
2 -2 -22 180.28 20.8
-2 -2 22 212.18 17.5
-2 -2 22 152.38 12.5
-2 -2 22 184.48 14.1
2 -2 -22 199.68 18.4
2 -2 -22 188.08 12.7
-2 2 22 158.78 14.3
2 2 -22 195.08 15.1
-2 2 22 202.78 14.6
2 2 -22 213.28 15
1 -2 -22 893.91 21.8
1 -2 -22 941.21 26.8
-1 -2 22 875.61 24.7
-1 -2 22 914.81 30.6
1 -2 -22 895.01 34.5
1 -2 -22 915.71 23.2
-1 -2 22 967.1 29.4
1 -2 -22 903.61 29.6
1 -2 -22 939.61 30.5
-1 2 22 926.11 26.1
-1 2 22 746.63 30.8
1 2 -22 912.81 29.2
1 2 -22 937.51 32.8
-1 2 22 890.01 21.3
1 2 -22 937.11 28.4
0 -2 -22 308.77 14.9
0 -2 -22 300.97 19.9
0 -2 -22 324.17 23.2
0 -2 -22 315.77 12.6
0 -2 22 293.97 16.9
0 -2 -22 306.17 18.2
0 -2 22 307.47 14.4
0 2 22 308.07 12.9
0 2 -22 328.37 20.7
0 2 -22 308.17 16.5
0 2 -22 317.77 18
0 2 22 307.77 12.1
1 -2 22 98.49 9.3
-1 -2 -22 78.79 11
1 -2 22 107.89 13.3
-1 -2 -22 102.19 9.8
-1 -2 -22 107.29 10.9
1 2 22 99.59 11
-1 2 -22 107.29 12.7
-1 2 -22 93.09 13.8
-1 2 -22 92.09 11.1
2 -2 22 167.18 15.2
2 -2 22 179.58 13
-2 -2 -22 187.18 16.7
-2 -2 -22 184.18 11.9
2 -2 22 168.48 25.1
-2 -2 -22 183.18 12.6
-2 2 -22 170.98 16.6
-2 2 -22 189.88 18.8
-2 2 -22 177.88 16.7
2 2 22 193.68 14.3
-3 -2 -22 14.8 6.9
-3 -2 -22 27.9 7.1
3 -2 22 10.8 19.5
3 -2 22 25.3 9.6
3 -2 22 10.5 7.4
-3 2 -22 14.9 9.1
-3 2 -22 3.7 8.1
3 2 22 19.5 9.1
-4 -2 -22 16.7 7.5
-4 -2 -22 22.4 7.9
4 -2 22 23 9.8
4 2 22 25.4 13
-4 2 -22 20.4 9.7
-4 2 -22 19.6 11.6
-4 2 -22 9.7 10.2
-5 -2 -22 206.78 16.4
-5 -2 -22 164.18 15.3
5 -2 22 203.68 19
-5 2 -22 172.48 23.7
-5 2 -22 204.08 21.4
7 -3 -22 44.6 11.3
-7 -3 22 39.3 12.9
7 -3 -22 62.79 20.4
7 3 -22 52.39 13.2
-7 3 22 61.79 17.3
7 3 -22 18 9.8
-6 -3 22 2.7 10
6 -3 -22 5.1 8.2
6 -3 -22 -6.6 16.4
6 3 -22 -10 11.1
6 3 -22 11.3 9.3
-6 3 22 7.6 13.6
-5 -3 22 101.79 14.1
5 -3 -22 91.99 19.6
5 -3 -22 78.19 10.5
5 -3 -22 71.19 11.8
-5 3 22 82.19 15.4
5 3 -22 103.79 12.7
5 3 -22 69.29 12.7
4 -3 -22 22.8 8.6
4 -3 -22 20.2 8.1
4 -3 -22 35.5 16.3
-4 -3 22 27.7 9.8
4 3 -22 19.7 9.1
-4 3 22 24.6 13.2
4 3 -22 39.9 11.8
3 -3 -22 42.1 15.5
-3 -3 22 36.3 10.7
3 -3 -22 39.2 8.8
3 3 -22 35.8 9.4
3 3 -22 29.6 9.5
-3 3 22 40.3 11.7
-2 -3 22 149.99 17.5
2 -3 -22 124.39 19.8
2 -3 -22 167.98 14.2
2 3 -22 142.29 15.7
2 3 -22 130.49 17.2
-2 3 22 148.39 16.3
1 -3 -22 31.7 7.9
1 -3 -22 27 15
-1 -3 22 26.8 10.5
1 3 -22 19.5 8.7
1 3 -22 37.8 10.3
0 -3 22 31 8.9
0 -3 -22 9.9 7.1
0 -3 -22 2.4 15.8
0 -3 22 26.6 9.7
0 3 -22 39.4 10.3
0 3 -22 7.3 8.4
0 3 -22 31.7 12.7
-1 -3 -22 224.18 29.8
-1 -3 -22 314.77 17.8
1 -3 22 254.87 20.4
-1 3 -22 313.07 20
-1 3 -22 290.07 19.4
-1 3 -22 270.77 26
-2 -3 -22 36 8.6
2 -3 22 60.89 13.5
-2 3 -22 61.09 11.2
-2 3 -22 44.7 10.8
-2 3 -22 71.79 16.5
10 0 -23 5.4 9.5
10 0 -23 16.5 10.6
10 0 -23 13.1 12.1
-10 0 23 -5.6 14.6
9 0 -23 8.3 8.8
-9 0 23 24.3 11.9
9 0 -23 4.6 9.2
-9 0 23 8.9 13.2
9 0 -23 -2.9 11
-8 0 23 0.7 9.3
-8 0 23 -0.2 5.8
-8 0 23 -14.8 12.3
8 0 -23 12.8 9.4
-8 0 23 -10.9 4.6
8 0 -23 14.4 7.4
8 0 -23 7.4 7.6
7 0 -23 3.2 6.9
7 0 -23 -6.2 6.6
-7 0 23 -2.2 8.4
-7 0 23 -2.8 4.2
-7 0 23 12.6 8.4
-7 0 23 -11.5 10.6
7 0 -23 0.6 7.9
6 0 -23 11.4 7.8
6 0 -23 1.6 6.8
6 0 -23 -5 6.3
-6 0 23 -12.2 9.4
-6 0 23 3.6 8.8
6 0 -23 0.4 8.2
-5 0 23 -16.2 8.6
-5 0 23 7.8 7.7
5 0 -23 5.7 7.4
5 0 -23 0.6 5.8
-5 0 23 4.2 4.9
5 0 -23 2.6 6.8
5 0 -23 -2.8 6.1
4 0 -23 11.9 6.6
4 0 -23 12.5 7.4
-4 0 23 3.4 3.4
-4 0 23 -5.1 7.1
4 0 -23 1.4 6.6
-4 0 23 -2.7 5.1
-4 0 23 -4.5 7.6
-3 0 23 -0.3 3.4
3 0 -23 1.9 6.3
-3 0 23 1.1 6.5
3 0 -23 6 6.2
-3 0 23 0.5 5.4
-3 0 23 0.2 7.1
3 0 -23 5.9 5.2
3 0 -23 10.6 5
3 0 -23 12.8 6.6
2 0 -23 5.5 4.8
2 0 -23 8.2 6.9
2 0 -23 4.2 5
2 0 -23 -7.1 5.7
2 0 -23 1.4 4.9
-2 0 23 5.3 3.6
-2 0 23 -2.6 5.5
2 0 -23 -0.6 6.3
-2 0 23 -2.1 5.5
-2 0 23 0.6 7.5
1 0 -23 3.5 5.2
1 0 -23 7.9 6.3
-1 0 23 3.1 7.5
-1 0 23 -11.3 4.9
1 0 -23 2.3 7.2
-1 0 23 -0.7 5.1
1 0 -23 5.9 4.7
1 0 -23 -3.2 4.9
-1 0 23 10.1 3.8
0 0 23 3.7 5.9
0 0 -23 4 4.9
0 0 23 6.6 3.8
0 0 -23 -3.4 5.7
0 0 -23 0.5 5.4
0 0 23 9.2 5.4
0 0 -23 14.9 7.2
0 0 23 17.2 9
0 0 -23 4.7 4.8
-1 0 -23 7.3 5.4
1 0 23 13.3 4.6
-1 0 -23 -7.8 5.2
1 0 23 7.5 6.1
-1 0 -23 2.2 5.9
-1 0 -23 -1.5 10.2
1 0 23 -6.3 4.5
-2 0 -23 9 7.2
-2 0 -23 7.1 6.4
-2 0 -23 -2.5 5.3
2 0 23 1.1 4.7
-2 0 -23 7.7 6.5
2 0 23 0.3 8.4
2 0 23 -2.4 7.3
2 0 23 6.4 5.4
-3 0 -23 4.4 8.6
-3 0 -23 7.1 7.6
3 0 23 -3 4.9
-3 0 -23 11.4 6.7
-3 0 -23 12 7.6
3 0 23 -4.4 8.2
-4 0 -23 9.2 9.5
-4 0 -23 16 10
-4 0 -23 15.2 8.8
-5 0 -23 -14.7 11.5
-5 0 -23 0.4 7.1
-5 0 -23 -0.9 11.1
-5 0 -23 2.3 9.1
-6 0 -23 10.1 11.1
10 -1 -23 829.52 36.4
-10 -1 23 825.52 26.7
10 -1 -23 835.82 32.5
-10 -1 23 670.33 40.7
10 -1 -23 795.02 31
10 1 -23 822.02 34.9
10 1 -23 816.32 25.5
10 1 -23 859.21 34.2
-10 1 23 866.91 38.8
-9 -1 23 220.48 14.8
-9 -1 23 190.28 19.1
9 -1 -23 227.78 18
-9 -1 23 153.78 25
9 -1 -23 221.68 23.4
-9 -1 23 213.48 27.9
9 -1 -23 233.68 21.5
9 1 -23 222.98 22.5
9 1 -23 213.58 19.9
9 1 -23 211.48 13
-9 1 23 269.87 24.5
8 -1 -23 230.98 21.6
8 -1 -23 201.58 16.7
-8 -1 23 207.28 17.1
-8 -1 23 250.77 17.7
8 -1 -23 223.58 20.3
-8 -1 23 213.38 20.8
-8 -1 23 184.28 23
-8 1 23 245.38 26.8
8 1 -23 167.38 19.5
8 1 -23 215.58 18.2
8 1 -23 205.78 11.6
-8 1 23 214.88 22.4
-7 -1 23 275.87 19.6
7 -1 -23 253.67 19.7
-7 -1 23 283.47 15.3
7 -1 -23 278.97 20.5
7 -1 -23 254.97 16.8
-7 -1 23 275.47 20.6
-7 -1 23 256.37 16.7
-7 1 23 262.77 19.4
7 1 -23 259.67 19.7
7 1 -23 286.07 18.5
7 1 -23 273.57 11.2
-7 1 23 314.87 22.9
6 -1 -23 38.9 8.7
6 -1 -23 38.2 10.3
6 -1 -23 40.1 9.9
-6 -1 23 49.9 10.5
-6 -1 23 40.4 10.2
-6 -1 23 39.9 8
-6 1 23 41.7 9.7
6 1 -23 42.7 9.5
6 1 -23 36 5
6 1 -23 42.3 9.6
-6 1 23 45.1 11.7
5 -1 -23 606.44 22.6
5 -1 -23 641.34 26
5 -1 -23 666.43 27
5 -1 -23 634.04 22.8
-5 -1 23 632.64 24.8
-5 -1 23 648.84 24.9
-5 -1 23 629.54 21.5
5 1 -23 650.63 23.9
5 1 -23 635.84 15.2
5 1 -23 640.84 16
5 1 -23 599.14 26.1
-5 1 23 662.93 25.1
5 1 -23 667.23 26.3
-5 1 23 623.84 31.5
4 -1 -23 28.8 8.3
4 -1 -23 23.7 6.8
4 -1 -23 23.7 7.2
4 -1 -23 33.3 9.3
-4 -1 23 23.3 7.3
4 -1 -23 27.2 10.1
-4 -1 23 34.2 6.7
-4 -1 23 26.2 8.9
4 1 -23 28.1 7.6
-4 1 23 35.3 10.6
4 1 -23 26.7 10.7
4 1 -23 33.1 10.1
4 1 -23 25.1 3.4
-4 1 23 27.9 9.3
-4 1 23 34.1 3.7
4 1 -23 30 3.6
-3 -1 23 146.09 11.6
3 -1 -23 165.28 11.8
3 -1 -23 154.78 12.1
3 -1 -23 174.88 16.6
-3 -1 23 169.88 11.5
-3 -1 23 166.48 13
3 -1 -23 155.78 13.9
-3 -1 23 198.88 15.7
3 -1 -23 170.98 14.9
-3 1 23 145.79 14.7
3 1 -23 151.78 14.1
3 1 -23 151.18 13.1
-3 1 23 149.79 7.5
-3 1 23 159.98 15.7
-2 -1 23 43.1 7
-2 -1 23 54.59 10.1
2 -1 -23 43.8 7.2
2 -1 -23 55.29 10.7
2 -1 -23 43.7 7.2
2 -1 -23 48.1 8.7
2 -1 -23 47.4 6.6
2 -1 -23 52.09 9.7
-2 -1 23 39.8 7
2 1 -23 46 8.1
-2 1 23 24 9
-2 1 23 42.9 9
-2 1 23 38.5 5.2
2 1 -23 48.8 9
2 1 -23 43.6 10.6
-1 -1 23 3.1 5.6
-1 -1 23 -2.8 7.9
1 -1 -23 9.7 5.2
1 -1 -23 17.4 7.8
1 -1 -23 2.2 8.7
-1 -1 23 4.9 5.2
1 -1 -23 3.1 6.7
-1 -1 23 2.2 5.6
1 -1 -23 1.4 5.4
-1 1 23 -0.3 7.4
-1 1 23 4.7 7.1
1 1 -23 -8 6.2
1 1 -23 4.2 5.7
1 1 -23 4 6.9
0 -1 23 9 5.5
0 -1 -23 6.8 7.1
0 -1 23 4.7 5.7
0 -1 23 11.7 5.8
0 -1 -23 7.2 5.5
0 -1 -23 2.4 8.9
0 -1 23 5.9 8.8
0 -1 -23 10.9 7.4
0 -1 -23 4.8 5.1
0 1 -23 6.3 7
0 1 -23 8 5.9
0 1 -23 4.8 4.7
0 1 23 -1.8 7.6
0 1 -23 8 7.2
0 1 -23 12.5 3.7
0 1 23 3.1 5.5
0 1 23 8.9 6.5
-1 -1 -23 287.17 14.9
-1 -1 -23 295.57 17.9
1 -1 23 314.47 15.1
-1 -1 -23 311.77 16.7
1 -1 23 292.07 14.8
-1 -1 -23 293.87 14.8
1 -1 23 313.47 14.8
-1 1 -23 288.27 18.3
-1 1 -23 285.57 11.1
1 1 23 329.67 13.2
-1 1 -23 315.87 16
-1 1 -23 282.47 13.5
1 1 23 266.07 14.8
-2 -1 -23 208.68 15.7
-2 -1 -23 162.88 21.6
2 -1 23 183.18 13.2
2 -1 23 196.18 13.1
2 -1 23 211.08 21.5
-2 -1 -23 217.98 13.6
-2 -1 -23 239.88 17.7
2 1 23 162.08 15.1
-2 1 -23 208.88 12.1
-2 1 -23 211.88 17.7
-2 1 -23 205.28 17.3
-2 1 -23 215.78 14.3
3 -1 23 669.13 30.5
-3 -1 -23 647.14 23.4
-3 -1 -23 614.44 21.8
3 -1 23 645.44 21.8
-3 -1 -23 627.64 25.7
3 -1 23 606.44 21.9
-3 -1 -23 601.04 24.2
-3 1 -23 666.23 26.5
-3 1 -23 647.04 24.1
3 1 23 570.34 24.9
-3 1 -23 620.64 27.3
-3 1 -23 663.23 22.7
4 -1 23 37.2 8.2
4 -1 23 41.8 9.8
-4 -1 -23 31.9 10.8
-4 -1 -23 25.7 8.6
-4 -1 -23 40 8.2
-4 1 -23 23.9 8.4
-4 1 -23 28.4 10.2
-4 1 -23 48.4 11.5
5 -1 23 180.88 15.4
-5 -1 -23 223.58 16.2
-5 -1 -23 184.08 16.7
-5 1 -23 180.78 22.2
-5 1 -23 190.08 21.3
-5 1 -23 204.48 16.5
9 -2 -23 11.3 15.3
9 -2 -23 27.4 10.3
-9 -2 23 2.4 13.1
-9 -2 23 29.8 10.2
9 2 -23 14.2 12.3
9 2 -23 25.7 11.8
-9 2 23 36.1 14.4
8 -2 -23 4.4 13.4
-8 -2 23 14.5 10.4
8 -2 -23 -1.3 8.9
-8 -2 23 -4 8.9
-8 2 23 23.3 12.5
8 2 -23 23.3 11
7 -2 -23 185.28 16.4
7 -2 -23 217.28 23.1
-7 -2 23 208.08 18.6
7 -2 -23 160.08 18.8
7 2 -23 173.78 18.8
-7 2 23 239.58 21.9
7 2 -23 194.98 19
6 -2 -23 131.79 15.6
6 -2 -23 163.68 15
-6 -2 23 137.49 16.4
6 -2 -23 119.29 17
6 -2 -23 149.19 19.3
-6 2 23 158.88 18.4
6 2 -23 169.48 18.5
6 2 -23 125.49 14.3
5 -2 -23 386.06 19.6
5 -2 -23 417.06 27.2
5 -2 -23 436.06 19
-5 -2 23 432.96 21.4
5 -2 -23 426.66 22.9
5 2 -23 425.86 21.9
-5 2 23 436.26 23
5 2 -23 403.56 21.5
4 -2 -23 15.7 9.1
4 -2 -23 8.2 11.7
-4 -2 23 13 11.6
-4 -2 23 8.3 7.5
4 -2 -23 5.8 6.3
4 -2 -23 -15.3 16
4 -2 -23 2.7 6.8
4 2 -23 4.1 7.8
4 2 -23 4.4 7.9
-4 2 23 25.1 8.6
-3 -2 23 42.1 8.6
-3 -2 23 27.9 10.8
3 -2 -23 34.6 9.9
3 -2 -23 46 8.7
3 -2 -23 28.5 13
3 -2 -23 41.3 12.2
3 -2 -23 34.6 7.7
-3 2 23 55.89 9.6
3 2 -23 28.6 8.5
3 2 -23 34.4 8.7
2 -2 -23 199.08 13.8
-2 -2 23 230.48 15.9
-2 -2 23 252.97 20.5
2 -2 -23 223.68 20.5
2 -2 -23 238.98 18
2 -2 -23 243.78 12.9
2 -2 -23 201.58 23.1
2 2 -23 226.38 16.8
-2 2 23 249.58 16.1
2 2 -23 230.98 16.5
-1 -2 23 40 8.1
1 -2 -23 44.4 7.8
1 -2 -23 45.8 9.4
1 -2 -23 59.79 7.3
-1 -2 23 55.69 9.6
1 -2 -23 35.4 13
1 -2 -23 47.5 12.5
-1 -2 23 44.6 11.5
1 -2 -23 54.59 7.5
-1 2 23 50.49 7.5
-1 2 23 65.19 8.9
1 2 -23 72.49 10.7
1 2 -23 64.69 12.6
1 2 -23 55.79 9.3
0 -2 23 228.18 14.5
0 -2 -23 282.47 24.2
0 -2 -23 228.08 12.1
0 -2 -23 262.77 14.8
0 -2 -23 242.88 18.7
0 -2 23 253.67 17.2
0 2 -23 264.97 17.6
0 2 -23 262.07 19.9
0 2 23 233.48 12.4
0 2 -23 244.88 16.5
1 -2 23 4.9 8.3
1 -2 23 6.8 6.5
-1 -2 -23 -3.6 6.2
-1 -2 -23 11.8 5.7
-1 -2 -23 9.8 9.4
1 2 23 0.7 6.9
-1 2 -23 9.6 7.9
-1 2 -23 3.2 6.9
-1 2 -23 5.3 9.4
2 -2 23 145.99 13.7
-2 -2 -23 161.38 13.1
2 -2 23 144.69 15.9
-2 -2 -23 162.48 13.3
-2 2 -23 170.18 16.7
2 2 23 156.28 15.2
-2 2 -23 151.08 19.4
-2 2 -23 211.98 16.1
-3 -2 -23 37.1 8.3
-3 -2 -23 22.8 7
3 -2 23 24.1 9.8
-3 2 -23 21.5 10
-3 2 -23 32.4 9.4
3 2 23 66.19 17.6
-3 2 -23 53.09 13.1
-4 -2 -23 73.59 10.8
-4 -2 -23 82.39 11
4 -2 23 94.59 13.6
-4 2 -23 90.19 11.9
-4 2 -23 61.49 11.6
-4 2 -23 83.59 14.8
6 -3 -23 121.79 20.5
-6 -3 23 94.19 14.7
6 -3 -23 99.49 13.6
6 3 -23 74.99 13.2
-6 3 23 114.49 19.7
6 3 -23 73.39 14.9
5 -3 -23 307.47 31.8
5 -3 -23 315.67 20
-5 -3 23 303.67 23.2
-5 3 23 394.96 27.7
5 3 -23 326.17 21.1
5 3 -23 320.47 23.9
4 -3 -23 5.2 16.7
-4 -3 23 7.8 9.9
4 -3 -23 25.2 9
-4 3 23 25.3 14.4
4 3 -23 21.6 10.5
4 3 -23 0.8 10.9
-3 -3 23 103.79 13.6
3 -3 -23 140.09 15
3 -3 -23 116.09 19.1
3 3 -23 141.39 14.6
3 3 -23 115.09 13.7
-3 3 23 128.89 18.7
-2 -3 23 62.19 12.1
2 -3 -23 45.7 9.3
2 -3 -23 29.6 17.8
-2 3 23 54.49 13.8
2 3 -23 63.19 11.3
2 3 -23 57.89 12.5
-1 -3 23 -5.7 9.4
1 -3 -23 -4.7 7.8
1 -3 -23 51.09 17.2
1 3 -23 8.4 8.9
1 3 -23 1.3 9.8
0 -3 23 11.5 10.6
0 -3 -23 41.9 17.8
0 -3 -23 30.9 9.3
0 3 -23 15.7 11
0 3 -23 3.7 9.4
-1 -3 -23 115.39 21.5
1 -3 23 115.89 18.8
-1 -3 -23 96.99 11.6
-1 3 -23 101.69 13.3
-1 3 -23 97.79 16.1
-1 3 -23 106.99 13.5
10 0 -24 569.44 23.9
-10 0 24 476.45 35.6
10 0 -24 583.84 32.4
10 0 -24 529.25 27.9
9 0 -24 682.63 24.6
-9 0 24 601.34 19.5
-9 0 24 640.64 34.6
9 0 -24 641.54 31.7
9 0 -24 654.13 28
8 0 -24 20.9 8.8
-8 0 24 15.3 5.7
8 0 -24 11.7 11.8
-8 0 24 -10.3 13.4
-8 0 24 24.2 12.7
8 0 -24 18 8.5
-7 0 24 684.53 27.9
-7 0 24 589.34 31.8
7 0 -24 636.44 22.7
7 0 -24 665.93 28.9
-7 0 24 640.44 18.8
7 0 -24 634.84 25.8
-7 0 24 642.84 19.4
6 0 -24 179.18 14.4
6 0 -24 177.78 15.6
6 0 -24 196.08 17.6
-6 0 24 182.38 10.1
-6 0 24 148.99 20.5
-5 0 24 634.34 25.2
5 0 -24 636.04 26.5
5 0 -24 636.44 21.7
5 0 -24 643.64 24
-5 0 24 624.64 29.1
-5 0 24 634.44 17.8
5 0 -24 662.63 22.3
5 0 -24 625.74 25.3
4 0 -24 197.18 16.7
4 0 -24 223.28 16
4 0 -24 217.78 14.9
4 0 -24 240.58 13.3
-4 0 24 237.18 17.4
-4 0 24 203.98 18.9
4 0 -24 241.88 14.4
-4 0 24 225.68 10.1
-3 0 24 490.85 22.6
3 0 -24 514.55 22.6
3 0 -24 507.65 21.7
3 0 -24 534.85 20.5
-3 0 24 517.05 15.6
3 0 -24 477.15 20
-3 0 24 522.75 22.9
2 0 -24 245.08 14.4
2 0 -24 251.67 16.7
2 0 -24 216.28 15.9
-2 0 24 248.88 18.5
-2 0 24 255.37 15.9
2 0 -24 268.77 15
-2 0 24 258.07 10.9
1 0 -24 404.16 19.3
-1 0 24 369.06 21.5
-1 0 24 395.76 17.7
1 0 -24 394.46 18.1
-1 0 24 401.06 13.9
1 0 -24 383.16 17.6
1 0 -24 414.66 20.6
1 0 -24 393.46 14.6
0 0 -24 11.7 7.3
0 0 -24 0.7 8.3
0 0 24 16 4.7
0 0 24 8 9.7
0 0 -24 11.8 6
0 0 24 4.1 5.8
0 0 -24 2.8 6.2
0 0 -24 2.8 5.6
1 0 24 281.27 14.2
-1 0 -24 306.17 18.7
-1 0 -24 315.57 16.3
-1 0 -24 310.57 14.6
-1 0 -24 309.77 17.7
1 0 24 310.97 13.9
-2 0 -24 0 7.8
-2 0 -24 -9.8 6.2
-2 0 -24 14.5 8.6
2 0 24 4.9 5.9
2 0 24 8.8 6.3
-2 0 -24 -4.8 7.1
-3 0 -24 270.47 17.1
-3 0 -24 284.47 19.7
3 0 24 239.88 12.8
-3 0 -24 275.27 19.3
-3 0 -24 269.57 16
-4 0 -24 -7.7 7.8
-4 0 -24 -10.4 9.2
-4 0 -24 5.8 9.9
-5 0 -24 159.38 20.1
-5 0 -24 199.18 16.7
-5 0 -24 164.38 18.1
10 -1 -24 82.69 15.7
10 -1 -24 115.39 15.2
-10 -1 24 98.29 14.4
10 1 -24 146.79 24.8
10 1 -24 100.89 15.2
9 -1 -24 24.5 12.7
9 -1 -24 6.9 12.2
9 -1 -24 13.3 9.7
-9 -1 24 9.9 7.7
9 1 -24 15.4 10.6
9 1 -24 5 7.2
9 1 -24 1.5 12.3
-9 1 24 21.4 13.1
-8 -1 24 -8.4 9.1
8 -1 -24 20 9
-8 -1 24 11.8 7.1
8 -1 -24 17.1 11.3
8 -1 -24 11.2 11.2
-8 -1 24 5.8 13.4
-8 -1 24 32.5 12.8
8 1 -24 18.8 11.4
8 1 -24 15.4 10.2
8 1 -24 6.1 6
-8 1 24 26 12.6
7 -1 -24 23.8 11.3
7 -1 -24 26.5 8.6
-7 -1 24 29.1 11.6
-7 -1 24 20.3 8.7
-7 -1 24 22.1 11.9
-7 -1 24 24.3 9.2
7 -1 -24 22.4 10.8
7 1 -24 17.5 10.5
7 1 -24 11.1 9
-7 1 24 34 13.7
7 1 -24 33.4 5.7
-7 1 24 29 12.1
-6 -1 24 331.67 20.1
6 -1 -24 341.47 17.8
-6 -1 24 312.47 20.7
6 -1 -24 331.27 22.4
6 -1 -24 343.37 22.1
-6 -1 24 351.46 17.3
6 -1 -24 319.67 19
6 1 -24 307.87 12.5
-6 1 24 311.57 20.1
6 1 -24 294.67 20
-6 1 24 322.97 23.5
6 1 -24 324.77 11.1
6 1 -24 325.37 19.3
-5 -1 24 16 6.6
5 -1 -24 20.3 7.3
5 -1 -24 25.6 8.6
5 -1 -24 -1.5 18.1
-5 -1 24 1.7 7.7
-5 -1 24 32.7 8.8
5 -1 -24 12 8.9
5 1 -24 20.6 3.8
-5 1 24 18 9.1
5 1 -24 43.1 9
5 1 -24 24.2 9.1
5 1 -24 20.8 4.3
-5 1 24 16.9 11
-4 -1 24 91.39 11.9
4 -1 -24 123.39 13
4 -1 -24 112.89 14.5
-4 -1 24 115.59 13.5
4 -1 -24 119.09 12.6
-4 -1 24 108.09 11.4
4 -1 -24 134.79 15.4
4 -1 -24 134.09 15.3
-4 1 24 109.79 16.6
-4 1 24 111.19 6.4
-4 1 24 96.39 11.7
4 1 -24 126.09 14
4 1 -24 116.79 14.4
4 1 -24 106.99 16.7
4 1 -24 107.19 5.4
3 -1 -24 13.2 6.9
3 -1 -24 2 6.6
3 -1 -24 -5.3 5.4
3 -1 -24 -3.9 9.2
3 -1 -24 -1.1 8.1
-3 -1 24 8.7 6.7
-3 -1 24 9.9 5.6
-3 -1 24 7.4 8.4
-3 1 24 13.4 8.4
3 1 -24 6.9 6.9
-3 1 24 5.4 3.8
3 1 -24 -1.1 6.3
-3 1 24 4.6 8.4
-2 -1 24 4.1 6.1
2 -1 -24 11.5 6
2 -1 -24 3.3 7.6
-2 -1 24 -0.3 9.1
2 -1 -24 0.4 7.4
2 -1 -24 7.9 9.7
-2 -1 24 9.1 5.4
2 -1 -24 1.8 6.4
2 -1 -24 3.7 5.1
2 1 -24 5.7 6.9
-2 1 24 -0.4 4.4
-2 1 24 4.7 7.9
2 1 -24 11.8 7.7
2 1 -24 2.6 6.2
-2 1 24 3 7.9
-1 -1 24 -3.2 10.3
-1 -1 24 21.5 6.2
1 -1 -24 13.3 10.6
1 -1 -24 16.5 6.2
1 -1 -24 18.9 8
-1 -1 24 0.9 6
1 -1 -24 6.8 7
1 -1 -24 22.2 6.5
-1 1 24 -0.7 5.5
1 1 -24 8.3 7.7
1 1 -24 10.9 6.7
1 1 -24 5.8 7.3
-1 1 24 1.4 8
-1 1 24 15.3 8.3
0 -1 -24 111.19 13.9
0 -1 -24 91.39 23.2
0 -1 -24 85.59 10.9
0 -1 -24 86.29 11.1
0 -1 24 95.09 14.3
0 -1 24 131.99 15.9
0 -1 24 111.59 11.6
0 -1 -24 118.89 11.8
0 1 24 88.19 11.3
0 1 -24 96.19 12.6
0 1 -24 101.29 12.4
0 1 -24 116.09 13.2
0 1 24 95.09 12
0 1 -24 77.09 6.7
0 1 -24 106.29 9
-1 -1 -24 6.1 7.9
1 -1 24 5.1 6.5
-1 -1 -24 6.4 8.3
-1 -1 -24 9.4 6.4
-1 -1 -24 2.8 6.2
-1 1 -24 7.8 8.1
-1 1 -24 9.9 5.5
-1 1 -24 13.5 7
-1 1 -24 13.5 8.7
-1 1 -24 2.6 6.5
1 1 24 -10.4 7.4
1 1 24 17.4 5.5
2 -1 24 218.88 14.4
2 -1 24 193.68 23.8
-2 -1 -24 203.38 17.6
-2 -1 -24 227.88 15.8
-2 -1 -24 201.48 14.3
-2 -1 -24 210.38 18.7
-2 1 -24 209.58 18.4
-2 1 -24 246.28 15.1
2 1 24 153.68 16.7
-2 1 -24 205.98 15.2
-2 1 -24 245.98 18.2
-3 -1 -24 6.9 7.7
-3 -1 -24 -0.4 7.6
3 -1 24 12.5 7.1
-3 -1 -24 2.4 10.1
3 -1 24 14.9 15.3
-3 1 -24 -2.8 10.3
-3 1 -24 -2 8.1
-3 1 -24 -3.1 8.9
-4 -1 -24 104.59 15.9
4 -1 24 113.29 13.7
-4 -1 -24 113.69 14.7
-4 1 -24 115.99 12.1
-4 1 -24 97.59 14.6
-4 1 -24 82.39 13.5
-8 -2 24 54.49 11.8
-8 -2 24 82.39 15.7
8 -2 -24 92.89 13.8
8 -2 -24 38 15.8
8 2 -24 56.59 13.7
8 2 -24 63.39 14
7 -2 -24 220.08 26.4
-7 -2 24 251.97 21.5
7 -2 -24 227.68 18.7
7 2 -24 226.68 21.5
-7 2 24 281.97 23.5
7 2 -24 247.88 21.3
6 -2 -24 -9.1 13.3
6 -2 -24 19 8.9
-6 -2 24 -7.5 8.4
6 2 -24 5.3 9.7
6 2 -24 -0.6 10.5
-6 2 24 16.7 10.6
5 -2 -24 263.97 22
5 -2 -24 288.27 17.8
5 -2 -24 238.78 17.9
-5 -2 24 269.17 18.9
5 -2 -24 265.97 25.7
5 2 -24 244.08 19.8
-5 2 24 315.87 20.9
5 2 -24 256.97 19.4
4 -2 -24 33.3 13
4 -2 -24 37.8 11.2
-4 -2 24 38.7 9.5
4 -2 -24 32.6 8.7
4 -2 -24 24.3 8.6
-4 2 24 45.9 10.5
4 2 -24 17 9
4 2 -24 29 10.1
3 -2 -24 67.59 15.1
3 -2 -24 48.3 8.4
-3 -2 24 70.89 11.3
3 -2 -24 60.79 9.5
3 -2 -24 46.9 10.5
3 2 -24 69.69 11.1
-3 2 24 107.49 15.7
3 2 -24 67.49 11.4
2 -2 -24 635.54 23.2
2 -2 -24 634.84 32.6
-2 -2 24 651.63 25.3
2 -2 -24 641.24 21.1
2 -2 -24 617.74 26.7
-2 2 24 702.43 24.8
2 2 -24 668.23 25.9
2 2 -24 671.93 26.5
-1 -2 24 30.6 8.9
1 -2 -24 40.6 10.6
1 -2 -24 78.19 15.4
1 -2 -24 31.9 7.5
1 -2 -24 61.39 8.4
1 2 -24 55.59 10
1 2 -24 45.3 11.8
1 2 -24 42.6 10.1
-1 2 24 59.39 9
0 -2 -24 346.17 17.7
0 -2 24 360.86 20.1
0 -2 -24 416.36 29.5
0 -2 -24 339.07 14.7
0 -2 -24 329.17 26.7
0 2 -24 321.27 20.8
0 2 -24 321.27 18.8
0 2 -24 331.37 23.8
-1 -2 -24 229.78 14.3
-1 -2 -24 212.08 15.5
1 -2 24 230.48 18.3
-1 2 -24 244.58 18.3
-1 2 -24 190.48 21.4
-1 2 -24 246.48 20.1
2 -2 24 447.46 22.7
-2 -2 -24 392.66 28.4
-2 -2 -24 455.65 20.6
2 -2 24 490.75 24.9
-2 2 -24 465.95 22.3
-2 2 -24 460.75 27.4
-2 2 -24 448.86 24
-3 -2 -24 393.76 20.4
3 -2 24 396.26 22.8
-3 -2 -24 380.06 19.5
-3 2 -24 424.86 27.8
-3 2 -24 405.76 24.8
-3 2 -24 429.46 21.7
-5 -3 24 -6.6 11.6
5 -3 -24 -6.7 9.4
5 -3 -24 12.4 18.9
5 3 -24 2 10.9
-5 3 24 28.5 15.1
5 3 -24 -3.1 12.4
4 -3 -24 209.78 25.3
4 -3 -24 268.17 18.8
-4 -3 24 250.77 21.8
-4 3 24 259.07 25.4
4 3 -24 228.88 23
4 3 -24 222.38 21.5
-3 -3 24 39 11.7
3 -3 -24 10.5 9.1
3 -3 -24 53.49 20.1
3 3 -24 35.9 11.3
3 3 -24 24.8 11.6
-2 -3 24 94.39 14.6
2 -3 -24 117.19 12.6
2 -3 -24 152.28 24.4
2 3 -24 143.29 16.4
2 3 -24 107.39 13.2
1 -3 -24 0.2 17.9
-1 -3 24 -8.4 11.2
1 -3 -24 11 9.4
1 3 -24 21.6 11.5
1 3 -24 -8.5 10
0 -3 -24 10.2 18
0 -3 -24 23.2 12.8
0 -3 24 19.4 12.2
0 3 -24 15.4 11.7
9 0 -25 2.4 12.8
9 0 -25 21.7 9.8
9 0 -25 -0.1 10.9
-9 0 25 10.1 15.1
8 0 -25 -5.6 9.5
8 0 -25 6.6 8.4
-8 0 25 -5.3 5.5
8 0 -25 -7.3 11.1
-8 0 25 -2.8 13.9
-7 0 25 0.8 7.2
-7 0 25 -4.4 5
-7 0 25 -12.8 12.5
-7 0 25 7.2 10.4
7 0 -25 1.9 8.3
7 0 -25 -1.8 7.8
-6 0 25 -12.2 10.9
6 0 -25 -2.6 7.7
6 0 -25 6 7.4
-6 0 25 -3.7 10.2
6 0 -25 1.3 9
-6 0 25 0.1 4.8
5 0 -25 -1 7.2
-5 0 25 -20.1 9.2
5 0 -25 9 7.7
5 0 -25 14.3 7.8
5 0 -25 -5.4 9.4
-5 0 25 3.4 4.6
-5 0 25 -14.5 9.6
5 0 -25 -5 9.2
4 0 -25 -1.4 8.3
-4 0 25 -9.2 8.7
-4 0 25 -3.3 9.8
-4 0 25 8.3 4.8
4 0 -25 -3.2 6.7
4 0 -25 -2.3 7.2
4 0 -25 7.8 6.6
4 0 -25 1 7.8
3 0 -25 -14.2 5.9
3 0 -25 -10.3 5.7
-3 0 25 4 4.4
-3 0 25 20.8 9
3 0 -25 -8.8 6.7
-3 0 25 -9.1 9.5
3 0 -25 13.4 8.2
3 0 -25 -6.5 7.7
-2 0 25 -6.2 7.7
2 0 -25 -5.3 7.9
2 0 -25 -4.9 7.2
2 0 -25 -1.4 6.4
2 0 -25 9.1 6.5
2 0 -25 0.6 5.8
-2 0 25 12.5 4.4
-2 0 25 25.5 10.6
1 0 -25 23.1 8.5
-1 0 25 -5.7 10
1 0 -25 2.7 8.6
1 0 -25 -10 5.4
1 0 -25 -7.6 5.8
-1 0 25 11.3 4.6
1 0 -25 -2.1 6.3
0 0 25 10.3 5.1
0 0 -25 20.6 6.7
0 0 -25 -2.5 7
0 0 -25 3.7 9.3
0 0 -25 7.1 6.3
0 0 25 -4.5 6.6
0 0 -25 2.2 8.4
-1 0 -25 -13.2 7.9
1 0 25 21.2 6.7
-1 0 -25 6.8 9.5
1 0 25 -4.1 6.7
-1 0 -25 3.8 7
-1 0 -25 -5.4 6.2
-1 0 -25 1.7 7.2
-2 0 -25 10.5 8.2
-2 0 -25 16.3 7.6
-2 0 -25 1.3 9.8
-2 0 -25 11 8.4
-3 0 -25 15.2 9.9
-3 0 -25 -20.4 9
-3 0 -25 6 7.6
-4 0 -25 9.9 12.8
-4 0 -25 -14.5 10.2
-4 0 -25 10.4 9.1
9 -1 -25 36.9 21.1
9 -1 -25 62.29 14.4
9 -1 -25 32.6 10.8
-9 -1 25 48.1 9.6
9 1 -25 42.7 14.8
9 1 -25 84.29 15.4
-8 -1 25 14.5 15.5
8 -1 -25 29.5 12.4
8 -1 -25 34.1 10.4
8 -1 -25 36.8 13.4
-8 -1 25 13.9 7.8
-8 1 25 35.1 13.5
8 1 -25 31.6 12.8
8 1 -25 35 11.5
7 -1 -25 1067.09 35.9
7 -1 -25 1050.39 37.6
-7 -1 25 976.8 35.8
-7 -1 25 1028 30.7
7 -1 -25 1044.3 33.4
-7 -1 25 1068.59 39.6
-7 -1 25 1035.7 31.1
-7 1 25 1037.1 39.7
7 1 -25 1092.09 37.3
7 1 -25 1047.3 35.4
7 1 -25 954.1 23.6
-6 -1 25 345.77 23.8
-6 -1 25 384.26 23.9
6 -1 -25 351.16 24
6 -1 -25 381.06 19.4
-6 -1 25 359.76 18.1
6 -1 -25 367.46 23.8
-6 1 25 359.06 25.6
6 1 -25 381.36 21.3
6 1 -25 369.26 22.9
-5 -1 25 711.83 28.3
-5 -1 25 694.43 27.9
5 -1 -25 707.63 30.2
5 -1 -25 706.13 29.4
-5 -1 25 686.73 23.3
5 -1 -25 690.83 26.1
5 -1 -25 715.93 28
5 -1 -25 701.93 25.8
-5 1 25 719.53 30.9
-5 1 25 636.34 27.9
5 1 -25 757.62 27.4
5 1 -25 735.23 28.9
4 -1 -25 293.17 19
-4 -1 25 263.17 17.9
4 -1 -25 272.27 16.5
-4 -1 25 266.67 15
4 -1 -25 279.07 17.3
-4 -1 25 262.17 21.1
4 -1 -25 236.58 19
-4 1 25 248.48 23.3
4 1 -25 274.17 19.2
4 1 -25 291.57 18
-4 1 25 258.37 20.4
3 -1 -25 209.68 15.5
3 -1 -25 224.68 14.5
-3 -1 25 189.18 12.9
-3 -1 25 194.98 15.2
3 -1 -25 219.68 29
3 -1 -25 180.98 17.2
3 -1 -25 175.88 17.5
-3 -1 25 206.58 19.6
-3 1 25 170.38 9.6
-3 1 25 205.68 18.6
-3 1 25 177.78 18.7
3 1 -25 177.28 17
3 1 -25 168.58 15.7
2 -1 -25 259.87 13.9
2 -1 -25 272.47 17.4
-2 -1 25 326.37 22.8
2 -1 -25 238.78 18.9
2 -1 -25 303.57 16.6
-2 -1 25 272.37 16.4
-2 -1 25 284.07 14.6
2 -1 -25 260.37 16
-2 1 25 281.97 19
2 1 -25 294.07 17.3
-2 1 25 231.58 20.5
-2 1 25 248.08 15.7
2 1 -25 270.77 19.1
1 -1 -25 233.28 25.8
1 -1 -25 274.77 19.7
1 -1 -25 281.47 16.3
-1 -1 25 287.27 15.2
1 -1 -25 291.77 17.8
1 -1 -25 276.77 14.7
-1 -1 25 301.67 22.4
-1 -1 25 307.07 16.6
1 1 -25 330.67 17.7
1 1 -25 284.07 19.7
1 1 -25 281.87 19.4
-1 1 25 277.37 17.6
-1 1 25 273.67 14.1
0 -1 -25 138.09 13.6
0 -1 -25 148.69 16.8
0 -1 -25 139.79 16
0 -1 -25 96.19 12.6
0 -1 25 128.09 13.2
0 -1 -25 135.79 17.1
0 1 -25 122.29 16.2
0 1 -25 146.39 16.5
0 1 25 142.39 13.2
0 1 25 117.29 11.2
0 1 -25 131.69 14.2
-1 -1 -25 116.29 12.4
-1 -1 -25 76.79 9.8
1 -1 25 81.19 13
-1 -1 -25 72.69 12.7
-1 1 -25 88.99 10.9
-1 1 -25 64.59 10.4
1 1 25 95.59 11.8
-1 1 -25 115.29 16.2
-2 -1 -25 3.7 11.4
-2 -1 -25 10.2 7.7
2 -1 25 17 13.9
-2 -1 -25 7.7 9
2 -1 25 -5.4 8.3
-2 -1 -25 7.9 8.1
-2 1 -25 -5.6 9
-2 1 -25 13.1 8.6
-2 1 -25 3.9 7.9
-3 -1 -25 19.6 9.2
-3 -1 -25 16.6 8.7
3 -1 25 3.5 15.3
-3 1 -25 3.2 8.5
-3 1 -25 29 11.3
-3 1 -25 9.8 11.1
-4 -1 -25 44.8 11.8
-4 -1 -25 65.19 10.7
-4 1 -25 59.79 11.7
-4 1 -25 66.59 15.8
-4 1 -25 79.89 14.5
7 -2 -25 55.79 17.6
-7 -2 25 41.7 13.3
7 -2 -25 36 11.4
7 2 -25 51.29 12.5
-7 2 25 61.99 14.5
7 2 -25 47.7 12.6
-6 -2 25 6 9.8
6 -2 -25 6.1 8.9
6 -2 -25 -0.2 14.7
6 2 -25 28.5 12.1
6 2 -25 26.2 11.8
5 -2 -25 38.5 9.8
5 -2 -25 40.8 15.4
-5 -2 25 10.9 9.7
5 -2 -25 23.4 10.6
5 2 -25 28.8 11.6
-5 2 25 41.2 11.8
5 2 -25 21.6 10.6
4 -2 -25 65.99 16.6
4 -2 -25 58.29 9.8
-4 -2 25 57.39 11.3
4 -2 -25 60.09 10.6
4 2 -25 76.09 13.3
4 2 -25 77.49 12.4
-3 -2 25 -12.7 8
3 -2 -25 6.2 13.7
3 -2 -25 -0.9 8.1
3 -2 -25 17 13.4
-3 2 25 30.8 10.9
3 2 -25 -16.5 8.6
3 2 -25 5.6 9.1
-2 -2 25 430.56 22.1
2 -2 -25 435.76 20.8
2 -2 -25 475.45 31
2 2 -25 400.56 23.2
-2 2 25 470.05 22
2 2 -25 443.16 22.9
1 -2 -25 -7.5 14.3
1 -2 -25 7.7 7.6
-1 -2 25 -2.9 8.1
1 2 -25 -4 10.4
-1 2 25 15.6 8.3
1 2 -25 4 8.7
1 2 -25 9.7 9.6
0 -2 -25 288.77 14.9
0 -2 25 300.67 19.7
0 -2 -25 274.67 17.5
0 -2 -25 274.87 27.8
0 2 -25 287.97 19.6
0 2 -25 289.97 21.4
0 2 -25 259.77 23.1
-1 -2 -25 15.4 15.9
1 -2 25 11.1 10.2
-1 -2 -25 14.9 7.8
-1 -2 -25 35.7 9.2
-1 2 -25 1.2 10
-1 2 -25 12.2 11.6
-1 2 -25 26.9 11.7
-2 -2 -25 11.7 9.3
-2 -2 -25 30.8 9.7
2 -2 25 28.9 11.3
-2 2 -25 27.2 11.8
-2 2 -25 33.1 11.2
-2 2 -25 15.2 13.9
9 0 -26 1455.85 45.3
-9 0 26 1361.66 52.59
9 0 -26 1540.65 39.3
9 0 -26 1471.95 49.4
-8 0 26 120.09 20.2
8 0 -26 155.38 18.5
8 0 -26 146.39 18.8
7 0 -26 -0.2 8.9
7 0 -26 -1.7 9.2
-7 0 26 3.3 5.7
7 0 -26 -9.6 12.2
-7 0 26 -25.8 12.7
-6 0 26 687.43 33.7
6 0 -26 684.33 25.7
6 0 -26 726.83 25
-6 0 26 730.53 30
6 0 -26 653.03 41.5
6 0 -26 687.23 27.6
-5 0 26 88.79 15.2
-5 0 26 100.29 9.3
5 0 -26 98.49 11.4
5 0 -26 92.29 11.1
5 0 -26 99.19 14
5 0 -26 94.19 12.7
-5 0 26 77.39 15.9
4 0 -26 668.13 28.2
4 0 -26 670.73 27.8
4 0 -26 630.74 24.8
4 0 -26 631.44 23.8
-4 0 26 635.54 28.1
-4 0 26 632.94 30.5
4 0 -26 653.03 21.1
-4 0 26 685.03 19
3 0 -26 7.1 7.2
-3 0 26 -3.1 11.1
3 0 -26 23.4 10
3 0 -26 19.4 9.6
3 0 -26 1.8 7.2
-3 0 26 27.2 11.6
3 0 -26 9.9 8.2
2 0 -26 283.87 20.7
2 0 -26 265.67 17.1
2 0 -26 268.87 18.7
2 0 -26 274.27 16.8
-2 0 26 284.27 23.1
2 0 -26 234.28 13.8
-2 0 26 294.97 12.7
-1 0 26 21.6 12
1 0 -26 32.1 10.9
-1 0 26 13.6 9.6
1 0 -26 13.1 9.7
1 0 -26 0.9 9.4
1 0 -26 17.6 7.2
1 0 -26 21.1 7
0 0 26 233.08 13.2
0 0 -26 195.98 19.2
0 0 26 151.68 15.9
0 0 -26 194.58 15.8
0 0 -26 173.88 16.1
0 0 -26 173.28 16
0 0 -26 187.88 13.8
-1 0 -26 15.9 8
-1 0 -26 21.3 9.3
-1 0 -26 -7.7 8.1
1 0 26 6.3 8.7
-1 0 -26 1.9 10.9
2 0 26 230.18 18
-2 0 -26 273.67 17.5
-2 0 -26 293.07 20.1
-3 0 -26 0.5 10.3
-3 0 -26 -9.7 11.6
-3 0 -26 7.7 9.1
-8 -1 26 1.9 8.3
8 -1 -26 14.2 10.1
8 -1 -26 -17.7 13.5
8 -1 -26 31.3 22.5
-8 1 26 37.9 14.3
8 1 -26 37.7 14.5
8 1 -26 -9.8 11.1
7 -1 -26 -4 9.1
-7 -1 26 0 7.6
7 -1 -26 14.2 12.3
7 -1 -26 -13.6 12.2
7 1 -26 6.5 10
7 1 -26 24.9 12.8
-7 1 26 19.3 13.3
6 -1 -26 10.1 8.2
-6 -1 26 -4.1 10.7
-6 -1 26 4.7 8.2
-6 -1 26 -12.4 11.7
6 -1 -26 22.2 12.1
6 -1 -26 22.3 12.6
-6 1 26 3.5 11.4
6 1 -26 7.7 8.9
6 1 -26 13.5 11.8
5 -1 -26 -22.1 10.3
-5 -1 26 6.2 7.6
5 -1 -26 7.3 9.9
-5 -1 26 -8.4 8.7
5 -1 -26 8.3 11.5
-5 -1 26 -3.7 11.7
5 -1 -26 -2 8.2
5 -1 -26 37.1 12
5 1 -26 -11.7 7.6
5 1 -26 -8.4 10
-5 1 26 2.6 11.3
4 -1 -26 7.2 7.2
4 -1 -26 4.6 9.1
-4 -1 26 24.9 10.1
-4 -1 26 9.6 7
4 -1 -26 12.3 11.1
-4 -1 26 12.5 11.8
4 -1 -26 -4.8 11.2
4 -1 -26 8.6 10.9
4 1 -26 -0.1 7.9
4 1 -26 17.6 9.2
-4 1 26 19.4 11.5
-3 -1 26 37.3 12.3
3 -1 -26 46.1 9.8
3 -1 -26 28.7 12.4
3 -1 -26 41.2 10.3
3 -1 -26 22.9 10
3 -1 -26 36.1 10.8
-3 -1 26 38.7 9.7
-3 -1 26 41.3 8.3
3 1 -26 30.6 9.9
3 1 -26 43.7 9.4
-3 1 26 37.8 11.8
-2 -1 26 23 7.7
-2 -1 26 5.5 7.5
2 -1 -26 10 8.4
2 -1 -26 15.7 12.1
2 -1 -26 -4.8 6.2
2 -1 -26 -8.1 10.2
-2 -1 26 6.8 12.8
2 -1 -26 -4.1 9.8
2 1 -26 -4.9 8.7
2 1 -26 -10.8 7.7
-2 1 26 -4.1 7.7
-2 1 26 -0.9 9.1
-1 -1 26 57.69 14.8
-1 -1 26 61.49 10.5
1 -1 -26 76.29 13.1
1 -1 -26 61.09 14.4
1 -1 -26 63.79 9.3
1 -1 -26 36.2 10.4
1 -1 -26 48.6 9.8
1 1 -26 55.59 11.4
1 1 -26 55.69 10.7
1 1 -26 61.29 11.9
-1 1 26 40.8 8.7
-1 1 26 68.89 11.4
0 -1 -26 -0.2 9.7
0 -1 26 -7.7 7.5
0 -1 -26 18 10.9
0 -1 -26 4.7 7.6
0 -1 -26 22.9 13.5
0 -1 -26 -9.9 7.3
0 1 -26 2.2 9.4
0 1 -26 -13 7.9
0 1 26 18.1 7.7
0 1 -26 2.4 9.3
-1 -1 -26 13.6 8.3
-1 -1 -26 45.4 12.2
1 -1 26 11.7 8.1
-1 -1 -26 2.4 8
-1 -1 -26 17.3 14
-1 -1 -26 -6 10.6
-1 1 -26 11.7 9
1 1 26 -30.7 15.4
-1 1 -26 3.7 9.4
-1 1 -26 14.9 10.3
2 -1 26 18.7 8.9
-2 -1 -26 11 8.2
-2 -1 -26 25.3 10.1
-2 1 -26 32.6 10.1
-2 1 -26 9.8 10
-2 1 -26 10.7 10.9
-3 -1 -26 250.77 18.4
3 -1 26 208.68 19.6
-3 -1 -26 207.48 20.5
-3 1 -26 206.28 23.5
-3 1 -26 222.48 19.5
6 -2 -26 147.09 15.5
-6 -2 26 174.68 21.2
6 -2 -26 138.09 21.2
6 2 -26 187.28 23.4
6 2 -26 188.28 22.8
-5 -2 26 153.88 19.1
5 -2 -26 154.38 17.3
5 -2 -26 119.09 19.8
5 2 -26 123.69 15.1
5 2 -26 123.09 16.7
-4 -2 26 302.77 21.3
4 -2 -26 236.98 29.2
4 -2 -26 307.37 19.1
4 2 -26 328.07 23.1
4 2 -26 311.87 23.8
-3 -2 26 30.5 10.5
3 -2 -26 -2.4 14.8
3 -2 -26 26.1 9.2
-3 2 26 60.59 11.9
3 2 -26 17.5 11.4
3 2 -26 18.5 10.6
2 -2 -26 221.68 23.7
-2 -2 26 225.68 19.7
2 -2 -26 237.68 18.3
2 2 -26 218.28 21.2
2 2 -26 248.48 20.7
-2 2 26 294.67 21.7
1 -2 -26 328.07 31.7
1 -2 -26 292.57 18.9
-1 -2 26 358.46 21.5
1 2 -26 295.27 22.7
1 2 -26 326.87 21.8
0 -2 26 45.9 11.3
0 -2 -26 21.4 8.8
0 -2 -26 44.2 18.7
0 2 -26 30.3 11
0 2 -26 61.49 13.5
0 2 -26 15.2 12.9
1 -2 26 94.29 13.5
-1 -2 -26 86.39 16.6
-1 -2 -26 94.09 19.6
-1 2 -26 82.29 17.1
-1 2 -26 84.09 13.7
-1 2 -26 78.89 13
-8 0 27 -30.9 16
8 0 -27 -0.3 10.8
8 0 -27 -22.8 14.3
8 0 -27 0.9 10.3
7 0 -27 2.3 9.4
7 0 -27 -6 14.2
-7 0 27 -20.1 14.8
7 0 -27 14.9 11.4
6 0 -27 8 11.7
6 0 -27 5.2 10.3
-6 0 27 -0.3 14
6 0 -27 4.4 9.1
-5 0 27 -26.7 12.8
5 0 -27 20.7 9.6
5 0 -27 7.2 11.5
5 0 -27 -8.2 8.6
-4 0 27 -0.6 17.9
4 0 -27 -0.1 7.4
-4 0 27 7.2 7.7
4 0 -27 -2.5 8.9
-4 0 27 -11.8 11.7
-3 0 27 -2.7 16.2
3 0 -27 13.4 10
-3 0 27 -14.2 11.6
3 0 -27 -8.4 9.5
3 0 -27 -9.4 7.5
2 0 -27 -1.8 8
2 0 -27 5.1 9.9
-2 0 27 21.8 5.8
-2 0 27 -10.6 11.6
2 0 -27 8.8 9.6
1 0 -27 14.5 10.8
1 0 -27 -5.6 8.2
1 0 -27 8.5 8.4
1 0 -27 12.2 10.5
-1 0 27 25 6.5
0 0 -27 15.6 9.6
0 0 -27 -1.9 12.2
0 0 27 -18.2 9.8
0 0 -27 7.6 8.4
0 0 -27 31.2 21.5
-1 0 -27 5.5 10
-1 0 -27 0.4 12.7
-1 0 -27 10.7 11.8
-1 0 -27 13.7 8.3
-2 0 -27 0.2 16.5
-2 0 -27 -3.9 9.1
-2 0 -27 -16.5 10.8
-2 0 -27 -0.7 11.6
-7 -1 27 49.8 10.1
-7 -1 27 -6 15.7
7 -1 -27 18.7 10.4
7 -1 -27 46.2 14.8
7 1 -27 27.6 13.9
-7 1 27 55.09 16.8
7 1 -27 7.2 10.9
6 -1 -27 126.69 17.4
6 -1 -27 125.79 17.7
-6 -1 27 96.69 17
6 -1 -27 100.59 13.8
-6 1 27 173.28 22.5
6 1 -27 170.18 19.4
6 1 -27 129.59 17.2
5 -1 -27 9.3 12.4
5 -1 -27 6.6 8.5
-5 -1 27 15.6 8.7
-5 -1 27 -6.3 14.1
-5 -1 27 -19.4 10.1
5 -1 -27 -8.2 12.9
5 -1 -27 -6.2 12.1
-5 1 27 27.5 13.1
5 1 -27 -17.2 9.1
5 1 -27 -0.2 11.5
4 -1 -27 334.27 20.8
4 -1 -27 314.17 21.8
-4 -1 27 284.07 26
-4 -1 27 315.57 21.1
4 -1 -27 302.87 23.1
-4 -1 27 322.17 17
4 -1 -27 280.57 23.8
4 -1 -27 331.27 25.6
4 1 -27 342.67 22
4 1 -27 315.97 23.6
-4 1 27 301.17 23.6
-3 -1 27 108.99 16.3
3 -1 -27 84.59 12.5
3 -1 -27 121.79 15.4
3 -1 -27 125.39 17.8
-3 -1 27 112.99 16.7
3 -1 -27 139.79 19.6
3 -1 -27 127.89 14.5
-3 1 27 123.79 18.2
3 1 -27 153.38 17.7
3 1 -27 97.99 12.9
2 -1 -27 105.09 14.1
2 -1 -27 99.79 16
-2 -1 27 82.39 16.5
2 -1 -27 69.49 12.3
2 -1 -27 127.89 13.3
-2 -1 27 98.09 15.8
2 1 -27 113.49 14.2
2 1 -27 76.19 12.2
-2 1 27 119.29 17.7
1 -1 -27 33.8 9.6
1 -1 -27 47.6 14.3
1 -1 -27 33.4 9.2
-1 -1 27 30.4 15.2
1 -1 -27 27.5 11.8
-1 -1 27 29.2 9.4
1 -1 -27 29.6 15.1
1 1 -27 41.8 11.9
-1 1 27 50.79 10.7
1 1 -27 37.4 10.5
1 1 -27 32.8 11.2
0 -1 -27 17.5 12
0 -1 -27 14.9 9.6
0 -1 -27 1.8 15.3
0 -1 27 27.7 10.2
0 1 -27 29.5 11.2
0 1 -27 44.5 10.9
0 1 -27 37.6 12.8
1 -1 27 10.1 8.9
-1 -1 -27 59.89 16.7
-1 -1 -27 29.3 10.6
-1 -1 -27 19.7 10.1
-1 1 -27 20.8 12.3
-1 1 -27 11.9 9.6
-1 1 -27 4.3 12.9
5 -2 -27 41.9 18.6
-5 -2 27 15.8 12.5
5 -2 -27 41.7 11.4
5 2 -27 37.1 14
5 2 -27 35.4 13.1
4 -2 -27 1.9 8.9
-4 -2 27 11.1 11.6
4 -2 -27 -1.5 17.1
4 2 -27 25.9 13.1
4 2 -27 -11 12.3
-3 -2 27 35 11.9
3 -2 -27 59.49 18.1
3 -2 -27 71.39 12.4
3 2 -27 15.1 11.7
-3 2 27 90.69 19.9
3 2 -27 49.8 13.5
2 -2 -27 -9.7 9.9
2 -2 -27 -23.5 17.7
-2 -2 27 -3.2 10.6
2 2 -27 -6 11.7
2 2 -27 10.5 11.9
-1 -2 27 34.3 11.5
1 -2 -27 52.99 19.5
1 2 -27 29.7 12.1
1 2 -27 35.3 12.5
-7 0 28 -22.6 15.8
7 0 -28 -16.3 15.4
6 0 -28 1353.06 44.7
6 0 -28 1304.47 41.1
-6 0 28 1197.98 47.1
-5 0 28 74.79 17.6
5 0 -28 108.29 17
5 0 -28 98.69 13.2
5 0 -28 89.99 14
-4 0 28 649.83 34
4 0 -28 679.93 25.2
4 0 -28 709.53 28
4 0 -28 666.03 31.2
3 0 -28 205.88 19.4
3 0 -28 203.28 22.4
-3 0 28 204.98 21.4
3 0 -28 198.88 18.1
2 0 -28 355.46 20.9
2 0 -28 310.57 25.4
-2 0 28 284.57 25.4
2 0 -28 331.67 21.8
1 0 -28 107.79 14
1 0 -28 99.79 17.1
1 0 -28 106.99 13.6
1 0 -28 104.79 15.5
0 0 -28 402.66 23.5
0 0 28 324.87 24.5
0 0 -28 422.56 22.6
0 0 -28 378.96 27.6
-1 0 -28 27.7 12.4
-1 0 -28 21.6 10.5
-1 0 -28 49.1 14.5
6 -1 -28 -10.1 10.7
6 -1 -28 22 14.6
-6 -1 28 6.5 14.6
6 1 -28 19.5 13
6 1 -28 17 14
-6 1 28 31.7 14.3
5 -1 -28 4.9 10.7
5 -1 -28 2.6 14.2
-5 1 28 27.6 13.6
5 1 -28 -22.3 9.7
5 1 -28 -4 13.4
-4 -1 28 -17.2 10.3
4 -1 -28 2.2 14.5
4 -1 -28 6.7 9.4
-4 1 28 33.5 12.8
4 1 -28 8.1 13.6
4 1 -28 -6.6 11
-3 -1 28 24.7 11.4
3 -1 -28 30.3 11
3 -1 -28 41.2 15.8
3 1 -28 25.1 12.6
3 1 -28 47.2 12.5
2 -1 -28 96.19 11.8
-2 -1 28 106.29 14
2 -1 -28 74.19 16.7
2 1 -28 105.79 14.2
2 1 -28 103.69 16.9
-2 1 28 121.49 18.8
1 -1 -28 51.59 17.3
-1 -1 28 71.79 12.3
1 -1 -28 58.19 10.4
1 1 -28 74.29 14.1
1 1 -28 59.89 12.6
1 1 -28 94.79 14.9
0 -1 -28 40 17.9
0 -1 -28 63.99 12.4
0 -1 28 50.09 11.7
0 -1 -28 40.8 11.6
0 1 -28 20.3 11.2
0 1 -28 21.5 12.6
0 1 -28 58.49 14.3
5 0 -29 -11.8 14.4
4 0 -29 15.3 10.7
-4 0 29 -28.5 14.3
4 0 -29 -3.6 14.2
3 0 -29 2.2 12.4
3 0 -29 -16.5 10.2
2 0 -29 -3.7 10.5
2 0 -29 15.1 14.1
1 0 -29 -16.5 10.9
