#------------------------------------------------------------------------------
#$Date: 2019-11-24 16:56:44 +0200 (Sun, 24 Nov 2019) $
#$Revision: 238676 $
#$URL: file:///home/coder/svn-repositories/cod/cif/1/55/54/1555439.cif $
#------------------------------------------------------------------------------
#
# This file is available in the Crystallography Open Database (COD),
# http://www.crystallography.net/
#
# All data on this site have been placed in the public domain by the
# contributors.
#
data_1555439
loop_
_publ_author_name
'Vita, Maria Victoria'
'Caramenti, Paola'
'Waser, Jerome'
_publ_section_title
;
 Enantioselective Synthesis of Homoallylic Azides and Nitriles via
 Palladium-Catalyzed Decarboxylative Allylation.
;
_journal_issue                   23
_journal_name_full               'Organic letters'
_journal_page_first              5832
_journal_page_last               5835
_journal_paper_doi               10.1021/acs.orglett.5b03002
_journal_volume                  17
_journal_year                    2015
_chemical_absolute_configuration ad
_chemical_formula_moiety         'C15 H15 N O'
_chemical_formula_sum            'C15 H15 N O'
_chemical_formula_weight         225.28
_space_group_crystal_system      monoclinic
_space_group_IT_number           4
_space_group_name_Hall           'P 2yb'
_space_group_name_H-M_alt        'P 1 21 1'
_atom_sites_solution_hydrogens   geom
_audit_creation_date             31-07-2015
_audit_creation_method           'SHELXL-2014/7, STOE X-RED'
_cell_angle_alpha                90
_cell_angle_beta                 92.659(6)
_cell_angle_gamma                90
_cell_formula_units_Z            2
_cell_length_a                   7.0716(5)
_cell_length_b                   6.6011(3)
_cell_length_c                   13.3983(10)
_cell_measurement_reflns_used    10795
_cell_measurement_temperature    292
_cell_measurement_theta_max      67.22
_cell_measurement_theta_min      3.30
_cell_volume                     624.76(7)
_computing_cell_refinement       'X_Area, 1.36 (Stoe, 2006)'
_computing_data_collection       'X_Area, 1.36 (Stoe, 2006)'
_computing_data_reduction        'X_Area, 1.36 (Stoe, 2006)'
_computing_structure_refinement  'SHELXL-2014/7 (Sheldrick, 2014)'
_computing_structure_solution    'SIR2004 (Burla, XXXX)'
_diffrn_ambient_temperature      292
_diffrn_detector                 'image plate (34 cm diameter)'
_diffrn_detector_area_resol_mean 6.67
_diffrn_detector_type            STOE
_diffrn_measured_fraction_theta_full 0.979
_diffrn_measured_fraction_theta_max 0.977
_diffrn_measurement_details      ' 904 frames, detector distance = 40 mm'
_diffrn_measurement_device       '2-circle goniometer'
_diffrn_measurement_device_type  'STOE IPDS 2T'
_diffrn_measurement_method       'rotation method'
_diffrn_radiation_collimation    '0.5 mm diameter'
_diffrn_radiation_monochromator  'plane graphite'
_diffrn_radiation_polarisn_norm  0
_diffrn_radiation_type           'Cu K\a'
_diffrn_radiation_wavelength     1.54186
_diffrn_reflns_av_R_equivalents  0.0497
_diffrn_reflns_av_unetI/netI     0.0347
_diffrn_reflns_Laue_measured_fraction_full 0.979
_diffrn_reflns_Laue_measured_fraction_max 0.977
_diffrn_reflns_limit_h_max       8
_diffrn_reflns_limit_h_min       -8
_diffrn_reflns_limit_k_max       7
_diffrn_reflns_limit_k_min       -7
_diffrn_reflns_limit_l_max       15
_diffrn_reflns_limit_l_min       -15
_diffrn_reflns_number            6532
_diffrn_reflns_point_group_measured_fraction_full 0.961
_diffrn_reflns_point_group_measured_fraction_max 0.958
_diffrn_reflns_theta_full        67.686
_diffrn_reflns_theta_max         67.937
_diffrn_reflns_theta_min         3.302
_diffrn_source
'sealed X-ray tube, 12 x 0.4 mm long-fine focus'
_diffrn_source_current           1.000
_diffrn_source_power             0.050
_diffrn_source_voltage           50
_exptl_absorpt_coefficient_mu    0.588
_exptl_absorpt_correction_T_max  0.9372
_exptl_absorpt_correction_T_min  0.7555
_exptl_absorpt_correction_type   integration
_exptl_absorpt_process_details   'Stoe XRed32 1.31, Stoe (2005)'
_exptl_crystal_colour            Colourless
_exptl_crystal_density_diffrn    1.198
_exptl_crystal_description       Block
_exptl_crystal_F_000             240
_exptl_crystal_size_max          0.588
_exptl_crystal_size_mid          0.333
_exptl_crystal_size_min          0.108
_refine_diff_density_max         0.135
_refine_diff_density_min         -0.134
_refine_diff_density_rms         0.031
_refine_ls_abs_structure_details
;
 Flack x determined using 767 quotients [(I+)-(I-)]/[(I+)+(I-)]
 (Parsons, Flack and Wagner, Acta Cryst. B69 (2013) 249-259).
;
_refine_ls_abs_structure_Flack   0.0(2)
_refine_ls_extinction_coef       0.025(4)
_refine_ls_extinction_expression Fc^*^=kFc[1+0.001xFc^2^\l^3^/sin(2\q)]^-1/4^
_refine_ls_extinction_method     'SHELXL-2014/7 (Sheldrick 2014'
_refine_ls_goodness_of_fit_ref   1.131
_refine_ls_hydrogen_treatment    constr
_refine_ls_matrix_type           full
_refine_ls_number_parameters     157
_refine_ls_number_reflns         2171
_refine_ls_number_restraints     1
_refine_ls_restrained_S_all      1.131
_refine_ls_R_factor_all          0.0409
_refine_ls_R_factor_gt           0.0354
_refine_ls_shift/su_max          0.000
_refine_ls_shift/su_mean         0.000
_refine_ls_structure_factor_coef Fsqd
_refine_ls_weighting_details
'w=1/[\s^2^(Fo^2^)+(0.0599P)^2^] where P=(Fo^2^+2Fc^2^)/3'
_refine_ls_weighting_scheme      calc
_refine_ls_wR_factor_gt          0.0918
_refine_ls_wR_factor_ref         0.0955
_reflns_Friedel_coverage         0.793
_reflns_Friedel_fraction_full    0.939
_reflns_Friedel_fraction_max     0.936
_reflns_number_gt                1917
_reflns_number_total             2171
_reflns_threshold_expression     'I > 2\s(I)'
_cod_data_source_file            ol5b03002_si_001.cif
_cod_data_source_block           global
_cod_original_sg_symbol_H-M      'P 21'
_cod_database_code               1555439
_audit_contact_author            'Kurt J. Schenk'
_shelx_space_group_comment
;
The symmetry employed for this shelxl refinement is uniquely defined
by the following loop, which should always be used as a source of
symmetry information in preference to the above space-group names.
They are only intended as comments.
;
_shelx_res_file
;

    shelxl.res created by SHELXL-2014/7


TITL pc in P2(1)
CELL  1.54186    7.0716   6.6011  13.3983   90.000   92.659   90.000
ZERR     2.00    0.0005   0.0003   0.0010    0.000    0.006    0.000
LATT  -1
SYMM  - X, 1/2 + Y, - Z
SFAC  C    H    N    O
UNIT  30  30   2    2
L.S.   9
ACTA
FMAP   2
PLAN   20
BOND   $H
CONF
WGHT    0.059900
EXTI    0.024547
FVAR       1.41113
O1    4    0.118401    0.623533    0.261782    11.00000    0.06982    0.03731 =
         0.05846    0.00060   -0.00445    0.00401
N1    3   -0.173531    0.165075    0.188113    11.00000    0.05034    0.07379 =
         0.05752    0.00100    0.00109   -0.01622
C1    1    0.178810    0.264097    0.229462    11.00000    0.04350    0.03520 =
         0.03735   -0.00292    0.00016   -0.00397
C2    1    0.160191    0.459065    0.294921    11.00000    0.03407    0.03307 =
         0.04680   -0.00174    0.00026   -0.00208
C3    1    0.200463    0.400871    0.398657    11.00000    0.03074    0.04124 =
         0.04280   -0.00582    0.00231   -0.00182
C4    1    0.181695    0.516498    0.484846    11.00000    0.03876    0.04576 =
         0.05273   -0.01405    0.00470    0.00235
AFIX  43
H4    2    0.137568    0.649099    0.480807    11.00000   -1.20000
AFIX   0
C5    1    0.229566    0.430598    0.575240    11.00000    0.04092    0.07103 =
         0.03787   -0.01707    0.00677   -0.00090
AFIX  43
H5    2    0.217275    0.506221    0.633144    11.00000   -1.20000
AFIX   0
C6    1    0.297022    0.230471    0.582864    11.00000    0.02926    0.06954 =
         0.03821   -0.00253    0.00358   -0.00693
C7    1    0.315187    0.117494    0.496469    11.00000    0.03444    0.04629 =
         0.04530    0.00250    0.00183    0.00079
AFIX  43
H7    2    0.360684   -0.014585    0.500427    11.00000   -1.20000
AFIX   0
C8    1    0.265259    0.202179    0.404134    11.00000    0.03127    0.03734 =
         0.03880   -0.00296    0.00242   -0.00184
C9    1    0.275185    0.108458    0.302534    11.00000    0.05279    0.03876 =
         0.04301   -0.00475   -0.00137    0.00498
AFIX  23
H9B   2    0.208422   -0.019924    0.299620    11.00000   -1.20000
H9A   2    0.405692    0.085774    0.286185    11.00000   -1.20000
AFIX   0
C10   1    0.349500    0.142461    0.683685    11.00000    0.05430    0.10067 =
         0.04348    0.00586    0.00092   -0.00194
AFIX  37
H10A  2    0.264831    0.193157    0.731785    11.00000   -1.50000
H10B  2    0.476956    0.180460    0.703166    11.00000   -1.50000
H10C  2    0.340271   -0.002516    0.680580    11.00000   -1.50000
AFIX   0
C11   1    0.282747    0.311304    0.133534    11.00000    0.04729    0.04791 =
         0.04469    0.00071    0.00715   -0.00890
AFIX  23
H11A  2    0.235488    0.438828    0.106433    11.00000   -1.20000
H11B  2    0.416329    0.328979    0.151136    11.00000   -1.20000
AFIX   0
C12   1    0.262141    0.151627    0.053034    11.00000    0.04467    0.06026 =
         0.03765   -0.00238    0.01226   -0.00900
C13   1    0.166093    0.194988   -0.032021    11.00000    0.09250    0.08745 =
         0.04576   -0.00233    0.00133   -0.01124
AFIX  93
H13A  2    0.153733    0.098171   -0.082326    11.00000   -1.20000
H13B  2    0.111314    0.322115   -0.041170    11.00000   -1.20000
AFIX   0
C14   1    0.351525   -0.047065    0.071325    11.00000    0.08931    0.07759 =
         0.06346   -0.02690    0.00404    0.02008
AFIX  37
H14A  2    0.483573   -0.028651    0.088865    11.00000   -1.50000
H14B  2    0.337787   -0.128232    0.011978    11.00000   -1.50000
H14C  2    0.291527   -0.113931    0.125063    11.00000   -1.50000
AFIX   0
C15   1   -0.017840    0.204283    0.204471    11.00000    0.05171    0.04070 =
         0.03106    0.00156    0.00538   -0.00672

HKLF    4

REM  pc in P2(1)
REM R1 =  0.0354 for    1917 Fo > 4sig(Fo)  and  0.0409 for all    2171 data
REM    157 parameters refined using      1 restraints

END

WGHT      0.0599      0.0000

REM Highest difference peak  0.135,  deepest hole -0.134,  1-sigma level  0.031
Q1    1   0.2342  0.1398  0.5473  11.00000  0.05    0.14
Q2    1   0.1138  0.1847  0.0248  11.00000  0.05    0.13
Q3    1   0.1628  0.2789  0.4023  11.00000  0.05    0.12
Q4    1   0.3873  0.2808  0.7603  11.00000  0.05    0.12
Q5    1   0.1831  0.4227  0.6532  11.00000  0.05    0.12
Q6    1   0.2290  0.1812  0.2633  11.00000  0.05    0.12
Q7    1  -0.3055  0.1675  0.1795  11.00000  0.05    0.11
Q8    1   0.2136  0.2805  0.1822  11.00000  0.05    0.11
Q9    1   0.2559  0.4916  0.4403  11.00000  0.05    0.11
Q10   1   0.2275  0.1160  0.3582  11.00000  0.05    0.10
Q11   1   0.4491 -0.0065  0.6853  11.00000  0.05    0.10
Q12   1  -0.0927  0.2959  0.1658  11.00000  0.05    0.10
Q13   1   0.2303  0.6852  0.2721  11.00000  0.05    0.10
Q14   1   0.2233  0.5252  0.4193  11.00000  0.05    0.10
Q15   1   0.3206 -0.1522  0.0428  11.00000  0.05    0.10
Q16   1   0.2582  0.0097  0.7112  11.00000  0.05    0.10
Q17   1   0.2154  0.0795  0.7075  11.00000  0.05    0.10
Q18   1   0.3202  0.3297  0.4029  11.00000  0.05    0.10
Q19   1  -0.2576  0.2815  0.1629  11.00000  0.05    0.09
Q20   1  -0.2817  0.0749  0.1931  11.00000  0.05    0.09
;
_shelx_res_checksum              11718
_shelx_hkl_file
;
  -7  -2   5   15.84    2.21   0
  -7  -1   5    1.68    2.23   0
  -6   0   2   55.63    2.18   0
  -6   1   4  150.53    3.61   0
  -5  -5   5   18.52    4.34   0
  -7   0   7    1.09    5.26   0
  -6  -4   4   43.40    2.66   0
  -6  -3   2   40.37    2.05   0
  -6  -1   1  136.21    2.81   0
  -5  -3   0   23.87    2.00   0
  -5   0   0    1.68    1.71   0
  -4   0  -1    0.64    1.48   0
  -1  -3  -1  738.95    5.15   0
  -1   0  -1 1623.19    7.91   0
  -7  -3   6   24.03    3.94   0
  -7  -3   7   29.11    6.14   0
  -7  -2   4    1.11    2.20   0
  -7  -1   4    3.19    2.34   0
  -7   0   6   14.45    4.04   0
  -6  -2   1   74.27    2.32   0
  -5   2   4   98.96    4.45   0
  -4  -4   0   12.34    2.44   0
  -4  -3  -1   47.99    1.99   0
  -4   1   0  889.50    4.74   0
  -3  -2  -2   35.29    1.69   0
  -3  -1  -2   99.29    1.88   0
  -2  -2  -2   34.43    1.47   0
  -2  -1  -2  275.60    2.61   0
  -7   0   5   -0.72    3.41   0
  -5  -5   4   17.40    4.21   0
  -5  -4   1   30.54    2.42   0
  -5   1   1  107.62    2.64   0
  -4  -5   2    7.95    3.66   0
  -4   2   2    8.80    2.67   0
  -1  -4   0   57.59    3.41   0
  -7  -3   5   89.64    3.40   0
  -6  -4   3    7.49    2.51   0
  -6   1   3  198.19    3.84   0
  -5  -2  -1   39.14    2.42   0
  -5  -1  -1   80.43    2.61   0
  -7  -2   3   50.74    2.60   0
  -7  -1   3    2.95    2.38   0
  -6  -3   1    9.88    2.06   0
  -6   0   1   94.32    2.63   0
  -4  -2  -2   45.50    2.41   0
  -7  -3   4    8.50    2.67   0
  -7   0   4    0.35    2.88   0
  -6  -2   0    5.56    2.15   0
  -6  -1   0   73.20    2.43   0
  -5  -5   3   16.31    4.37   0
  -3  -5   1  113.76    4.71   0
  -3  -4  -1   21.38    2.61   0
  -3  -3  -2   52.04    2.04   0
  -1   1   0 4805.33   19.56   0
  -6  -4   2   25.24    2.78   0
  -5  -3  -1   55.21    2.37   0
  -5   2   3   61.68    3.88   0
  -3   0  -2  368.86    3.04   0
  -2  -3  -2  623.89    4.41   0
  -1   2   3  371.11    5.98   0
  -7  -3   3    0.62    2.63   0
  -7  -2   2   66.21    2.61   0
  -7  -1   2   17.20    2.40   0
  -6   1   2  284.51    4.28   0
  -5  -4   0   88.75    2.89   0
  -5   0  -1    0.13    1.82   0
  -3   1  -1   57.95    1.80   0
  -3   2   1 1268.79    7.79   0
  -2  -5   1   26.00    5.40   0
  -2  -4  -1   49.43    2.70   0
  -2   0  -2  448.87    3.44   0
  -7   0   3    5.80    3.04   0
  -6  -3   0   46.30    2.39   0
  -5   1   0   56.89    2.60   0
  -4  -5   1   21.06    3.94   0
  -4  -4  -1   28.69    2.50   0
  -4  -3  -2   26.98    2.16   0
  -4   0  -2   46.43    1.97   0
  -1  -2  -2  164.63    2.71   0
  -6   0   0  133.16    2.90   0
  -5  -5   2   39.31    4.65   0
  -5  -2  -2   53.43    2.58   0
  -5  -1  -2    9.04    2.44   0
  -4   1  -1   63.69    2.29   0
  -2   1  -1  381.66    3.72   0
  -1  -1  -2  951.54    6.08   0
  -7  -3   2   28.09    2.77   0
  -6  -4   1   32.78    2.88   0
  -6  -2  -1   40.13    2.41   0
  -3  -2  -3  268.50    2.92   0
  -3  -1  -3   32.45    1.84   0
  -7  -2   1  131.85    2.98   0
  -7  -1   1   51.25    2.56   0
  -7   0   2   28.91    2.99   0
  -6  -1  -1   14.09    2.27   0
  -4   2   1  160.81    3.43   0
  -6   1   1  147.59    3.37   0
  -5  -3  -2   20.64    2.38   0
  -5   2   2  207.18    4.58   0
  -4  -2  -3   46.32    2.54   0
  -2  -2  -3   21.72    1.61   0
  -6  -3  -1   21.21    2.43   0
  -5  -4  -1   48.27    2.77   0
  -5   0  -2   39.89    2.13   0
  -3  -5   0    5.74    4.55   0
  -2  -1  -3  136.79    2.17   0
  -7  -3   1   59.89    2.95   0
  -7   1   4    3.00    6.37   0
  -6   0  -1   27.41    2.42   0
  -5  -5   1   96.15    5.10   0
  -4  -5   0   72.70    4.54   0
  -3  -4  -2    3.39    2.32   0
  -3  -3  -3  129.50    2.62   0
  -2   2   1  193.83    5.11   0
  -7  -4   3   11.75    6.90   0
  -7  -2   0   76.81    2.80   0
  -7  -1   0   10.72    2.27   0
  -7   0   1    1.82    2.80   0
  -6  -4   0   22.75    2.99   0
  -5  -2  -3  169.31    3.05   0
  -5   1  -1   91.79    2.58   0
  -4  -4  -2   15.46    2.65   0
  -4  -3  -3   83.72    2.62   0
  -3   0  -3   99.09    2.08   0
  -1  -3  -2  961.71    6.50   0
   0  -2  -1  592.28    9.26   0
  -6  -2  -2    5.65    2.26   0
  -6  -1  -2    4.29    2.26   0
  -5  -1  -3   62.61    2.66   0
  -4   0  -3   97.63    2.45   0
  -7  -4   2   19.63    6.50   0
  -7   1   3    2.61    5.02   0
  -6   1   0   78.37    3.02   0
  -5   2   1  615.01    6.20   0
  -4   1  -2   80.41    2.25   0
  -3   1  -2  108.79    2.17   0
  -2  -4  -2    4.03    3.01   0
  -2  -3  -3   33.14    2.04   0
  -8  -2   3   45.60    7.41   0
  -8  -1   3   16.28    6.79   0
  -7  -3   0   -0.46    2.67   0
  -6  -3  -2   24.28    2.84   0
  -5  -3  -3   13.99    2.45   0
  -4   2   0  138.83    3.49   0
  -3   2   0  228.64    3.75   0
  -2  -5   0  225.44    7.82   0
  -1  -4  -1   42.23    4.19   0
  -7  -2  -1   29.09    2.62   0
  -7   0   0   47.82    3.14   0
  -5  -5   0   18.80    4.99   0
  -5  -4  -2   12.23    2.84   0
  -4  -2  -4   43.37    2.57   0
  -3  -2  -4   55.22    2.23   0
  -3  -1  -4  111.09    2.57   0
  -2   0  -3  755.96    4.40   0
  -1   0  -2 1374.15    7.50   0
   0  -1  -1 1344.10   12.56   0
  -8  -2   2   52.24    6.73   0
  -7  -1  -1    1.57    2.42   0
  -7   1   2   15.97    4.74   0
  -6  -4  -1   19.85    3.12   0
  -6   0  -2    1.45    2.41   0
  -6   2   3   29.09    6.74   0
  -5   0  -3  114.70    2.63   0
  -8  -1   2   31.01    5.39   0
  -7  -4   1    8.43    5.97   0
  -6  -2  -3   93.27    2.77   0
  -5   1  -2   11.34    2.33   0
  -4  -5  -1   52.90    4.90   0
  -3  -5  -1   13.85    5.15   0
  -7  -3  -1   -0.24    2.76   0
  -6  -1  -3   22.33    2.50   0
  -6   1  -1   13.54    2.74   0
  -5  -2  -4   67.32    2.66   0
  -5  -1  -4  208.63    3.43   0
  -4  -4  -3   67.90    3.08   0
  -4  -3  -4  420.45    4.08   0
  -3  -4  -3   51.49    3.29   0
  -3  -3  -4  163.53    2.96   0
  -2  -2  -4  602.26    4.16   0
  -2   1  -2  276.29    3.18   0
  -1  -2  -3   71.93    2.06   0
  -8  -2   1    9.51    5.86   0
  -7   0  -1   22.51    3.38   0
  -7   1   1   51.87    4.71   0
  -6   2   2  106.52    6.71   0
  -5   2   0  182.83    4.43   0
  -4   0  -4  451.37    4.03   0
  -2  -1  -4  494.37    3.69   0
  -1  -1  -3  670.47    4.61   0
  -8  -1   1   15.04    4.85   0
  -7  -2  -2    1.27    2.58   0
  -7  -1  -2    4.42    2.59   0
  -6  -3  -3   50.91    2.80   0
  -4   1  -3   94.16    2.68   0
  -3   0  -4   46.31    2.17   0
  -7  -4   0    1.35    6.15   0
  -6  -4  -2   39.38    3.60   0
  -6   0  -3  124.30    3.11   0
  -5  -5  -1    2.15    5.48   0
  -5  -4  -3   34.15    3.23   0
  -5  -3  -4   81.58    2.95   0
  -3   1  -3   33.84    1.87   0
  -5   0  -4    7.28    2.41   0
  -4  -2  -5   30.23    2.60   0
  -4   2  -1   11.30    2.52   0
  -2  -3  -4  727.61    5.29   0
  -8  -2   0    2.67    5.61   0
  -8  -1   0    9.98    5.25   0
  -7  -3  -2    2.78    3.13   0
  -7   1   0   11.80    4.47   0
  -6  -2  -4   19.40    2.52   0
  -6  -1  -4   24.63    2.61   0
  -6   1  -2    4.18    3.25   0
  -6   2   1   68.28    6.22   0
  -5   1  -3   65.79    3.02   0
  -3  -2  -5    3.19    2.10   0
  -3  -1  -5  402.35    4.18   0
  -3   2  -1  672.42    5.83   0
  -2  -4  -3   50.78    3.84   0
  -7   0  -2   -0.40    3.52   0
  -5  -2  -5    1.22    2.55   0
  -4  -5  -2   69.86    5.73   0
  -1  -3  -3  762.56    6.26   0
  -7  -4  -1   52.12    8.88   0
  -7  -2  -3    5.84    2.79   0
  -7  -1  -3    1.01    3.04   0
  -5  -1  -5   63.21    2.91   0
  -5   2  -1   39.51    3.56   0
  -4  -4  -4    4.67    3.48   0
  -4  -3  -5  181.20    3.59   0
  -3  -5  -2    7.68    6.49   0
  -2   0  -4   16.83    1.47   0
  -1   1  -1  252.20    4.23   0
  -6  -3  -4   65.06    3.38   0
  -4   0  -5  308.41    3.96   0
  -3  -4  -4  182.16    4.45   0
  -3  -3  -5  197.71    3.44   0
  -8  -2  -1    2.50    6.05   0
  -8  -1  -1    0.56    5.57   0
  -6  -4  -3   10.02    3.97   0
  -6   0  -4  177.05    3.58   0
  -5  -5  -2   46.39    6.93   0
  -5  -4  -4  170.18    4.76   0
  -5  -3  -5   24.75    3.00   0
  -4   1  -4   80.00    2.94   0
  -2  -2  -5  340.51    3.63   0
  -2   2   0   93.59    3.82   0
  -8   0   0   13.97    9.06   0
  -7  -3  -3   -0.71    3.64   0
  -7   1  -1    2.84    4.70   0
  -6   2   0    3.94    5.58   0
  -5   0  -5  318.04    3.96   0
  -3   0  -5  325.59    3.53   0
  -2  -1  -5  303.04    3.31   0
  -2   1  -3  130.36    2.51   0
  -1   0  -3  121.72    2.32   0
  -7   0  -3    0.60    3.69   0
  -6  -2  -5   24.94    2.69   0
  -6  -1  -5   38.05    2.95   0
  -6   1  -3   25.90    3.19   0
  -5   1  -4  227.38    4.09   0
  -4  -2  -6   22.60    2.80   0
  -4   2  -2   51.45    3.17   0
  -3   1  -4  113.40    2.70   0
  -1  -4  -2   14.23    5.40   0
  -1  -2  -4  439.11    4.19   0
  -4  -1  -6   82.99    2.89   0
  -3  -2  -6   27.27    2.51   0
  -1  -1  -4  805.20    5.18   0
  -7  -2  -4   28.89    3.18   0
  -7  -1  -4   34.90    3.20   0
  -5  -2  -6   38.33    3.03   0
  -5  -1  -6    1.63    2.82   0
  -5   2  -2   54.41    4.10   0
  -4  -5  -3    1.78    7.07   0
  -3   2  -2   36.75    2.65   0
  -2  -3  -5  164.53    3.67   0
  -8  -2  -2    1.85    8.49   0
  -8  -1  -2    0.52    6.39   0
  -8   0  -1    3.25   10.47   0
  -6  -3  -5   89.89    3.81   0
  -6   2  -1   37.03    5.90   0
  -4  -4  -5   98.14    4.81   0
  -4  -3  -6   66.33    3.42   0
  -7   1  -2    3.10    4.42   0
  -6  -4  -4    2.44    4.88   0
  -6   0  -5   17.06    2.97   0
  -4   0  -6   75.36    3.32   0
  -2  -4  -4   18.53    3.88   0
  -2   0  -5   70.53    2.44   0
  -7  -3  -4   32.39    4.62   0
  -6   1  -4   24.33    4.03   0
  -5  -5  -3    1.64    9.68   0
  -5  -4  -5   57.81    4.90   0
  -5  -3  -6   94.54    3.69   0
  -4   1  -5    5.62    2.65   0
  -3  -5  -3   29.77    8.22   0
  -3  -4  -5  209.85    5.30   0
  -3  -3  -6  191.09    3.99   0
  -7   0  -4    5.41    3.79   0
  -6  -2  -6   63.35    3.25   0
  -6  -1  -6   15.79    2.83   0
  -5   0  -6    4.97    2.90   0
  -4   2  -3   48.04    3.39   0
  -2  -2  -6   21.77    2.89   0
  -2   1  -4  488.21    4.42   0
  -1  -3  -4   43.65    3.08   0
   0  -2  -2  693.48    9.41   0
  -7  -2  -5   86.25    4.08   0
  -5   1  -5   62.07    3.28   0
  -5   2  -3  177.88    4.89   0
  -4  -2  -7   63.22    3.27   0
  -4  -1  -7   16.81    3.27   0
  -3   1  -5  448.10    4.33   0
  -2  -1  -6   31.00    2.61   0
  -2   2  -1   60.36    3.21   0
  -1   1  -2  847.41    7.59   0
   0  -3   0    0.12    6.47   0
  -8  -1  -3   65.63    9.18   0
  -7  -1  -5   28.90    3.55   0
  -7   1  -3    1.99    5.54   0
  -6   2  -2    6.82    6.11   0
  -5  -2  -7  159.77    4.16   0
  -1   0  -4    1.60    1.88   0
   0  -1  -2 1308.49   11.31   0
  -6  -3  -6   47.24    4.46   0
  -5  -1  -7    0.13    3.06   0
  -3  -2  -7  125.02    3.46   0
  -3  -1  -7   13.46    3.69   0
  -3   2  -3  261.18    4.25   0
  -1  -2  -5  446.78    4.53   0
  -1  -1  -5 1225.69    6.48   0
   0   0   2   22.34    2.21   0
  -6  -4  -5   30.70    7.65   0
  -6   0  -6    9.09    3.13   0
  -4  -5  -4   29.71    9.38   0
  -4  -3  -7  129.31    4.52   0
  -2  -3  -6   43.25    3.58   0
  -7  -3  -5   43.23    7.59   0
  -7   0  -5    0.86    4.20   0
  -6   1  -5   38.34    3.93   0
  -4  -4  -6  118.65    5.19   0
  -4   0  -7    1.68    3.27   0
  -4   1  -6   88.97    3.46   0
  -2   0  -6  822.11    5.64   0
  -5  -4  -6   20.87    5.80   0
  -5  -3  -7   37.70    4.06   0
  -5   0  -7  147.96    3.90   0
  -4   2  -4   48.73    3.55   0
  -3  -3  -7   33.67    4.09   0
  -2  -4  -5    8.02    4.95   0
   0   0   1  706.95   10.72   0
  -7  -2  -6   18.19    5.28   0
  -7  -1  -6    6.19    4.54   0
  -6  -2  -7    6.25    3.46   0
  -6  -1  -7    6.89    3.25   0
  -6   2  -3   86.30    6.97   0
  -5   1  -6    0.44    3.36   0
  -5   2  -4   69.69    4.84   0
  -3  -4  -6   88.03    5.47   0
  -3   1  -6  148.83    3.44   0
  -2   1  -5  296.94    3.79   0
  -2   2  -2   32.06    3.08   0
  -1  -4  -3   59.30    6.81   0
  -7   1  -4   32.61    6.36   0
  -4  -2  -8  139.17    4.09   0
  -4  -1  -8    4.41    3.26   0
  -2  -2  -7  161.32    3.67   0
  -2  -1  -7    4.46    3.15   0
  -1   1  -3  622.30    5.47   0
  -5  -2  -8   82.57    3.94   0
  -5  -1  -8    5.84    3.21   0
  -3   2  -4   55.34    3.07   0
  -1  -3  -5  558.39    6.22   0
  -1   0  -5   46.19    2.43   0
  -6  -3  -7   21.81    5.09   0
  -6   0  -7   15.54    3.82   0
  -3  -2  -8   11.24    3.40   0
  -3  -1  -8    9.75    3.49   0
   0  -2  -3  162.93    4.33   0
  -7   0  -6   13.79    4.97   0
  -6   1  -6   18.34    4.32   0
  -4  -3  -8    5.00    4.37   0
  -4   0  -8   49.91    3.56   0
  -4   1  -7   17.35    3.72   0
  -4   2  -5   35.41    4.01   0
  -1  -2  -6   32.80    2.79   0
  -1  -1  -6  223.89    3.57   0
   0  -1  -3  715.64    6.64   0
  -6   2  -4   20.27    6.48   0
  -5   0  -8   65.47    3.59   0
  -5   1  -7    0.78    4.14   0
  -5   2  -5    1.37    4.67   0
  -4  -4  -7   30.57    6.34   0
  -2  -3  -7   11.35    4.05   0
  -2   2  -3   19.75    2.85   0
  -7   1  -5   28.21    7.32   0
  -6  -2  -8   10.92    4.20   0
  -6  -1  -8   14.41    3.63   0
  -5  -3  -8   19.54    4.43   0
  -3  -3  -8   16.50    4.41   0
  -3   0  -8   28.74    3.92   0
  -3   1  -7   15.09    3.64   0
  -2   1  -6   32.89    2.85   0
   0   0  -1  708.66   11.09   0
  -7  -2  -7   13.51    8.45   0
  -7  -1  -7   11.66    5.75   0
  -5  -4  -7    1.28    7.01   0
  -3   2  -5    3.05    3.36   0
  -1   1  -4  761.36    5.77   0
  -4  -2  -9   48.44    3.87   0
  -4  -1  -9  101.79    3.91   0
  -3  -4  -7   88.68    6.48   0
  -2  -4  -6  323.73    7.14   0
  -2  -2  -8   67.91    3.55   0
  -2  -1  -8    7.96    3.55   0
  -1   0  -6   79.40    2.94   0
  -6   0  -8    1.92    3.95   0
  -5  -2  -9  195.02    4.90   0
  -5  -1  -9   94.50    3.83   0
  -3  -1  -9  214.07    4.49   0
  -2   2   2   96.53    6.29   0
  -1  -4  -4  116.08    7.91   0
  -1  -3  -6  121.44    4.39   0
  -7   0  -7   21.04    7.36   0
  -6  -3  -8   33.02    8.96   0
  -6   1  -7    5.27    4.55   0
  -6   2  -5   21.30    7.23   0
  -4   0  -9    3.88    3.45   0
  -4   1  -8    3.09    3.53   0
  -4   2  -6   21.64    3.80   0
  -3  -2  -9   87.29    4.06   0
  -2   2  -4  599.37    5.62   0
  -1  -1  -7  300.72    4.18   0
   0  -1  -4 1079.01    7.37   0
   0   0  -2   25.68    2.13   0
  -5   1  -8    6.30    4.44   0
  -5   2  -6   41.16    4.47   0
  -1  -2  -7    2.87    2.88   0
   0  -2  -4 1840.51   12.17   0
  -7   1  -6   10.57   10.38   0
  -5   0  -9   20.92    3.65   0
  -4  -3  -9   29.97    4.85   0
  -3   0  -9    6.06    3.70   0
  -3   1  -8   10.91    3.33   0
  -3   2  -6   32.47    3.83   0
  -2  -3  -8  116.36    5.12   0
  -2   1  -7    4.04    3.19   0
  -1   1  -5 1238.34    6.97   0
  -6  -2  -9   58.23    6.54   0
  -6  -1  -9   19.69    4.19   0
  -5  -3  -9   27.77    5.69   0
  -4  -4  -8    1.55    7.32   0
   0   0  -3    3.07    2.22   0
  -7  -1  -8   23.87   12.00   0
  -4  -1 -10  145.50    4.22   0
  -3  -3  -9  134.13    5.05   0
  -2  -2  -9   10.22    4.21   0
  -2  -1  -9  248.90    4.63   0
  -2   2  -5  369.36    4.98   0
  -1   0  -7  236.22    4.28   0
   0  -2   1  516.37    7.55   0
  -5  -1 -10   13.61    3.80   0
  -4  -2 -10  110.29    4.51   0
  -4   2  -7   69.51    4.16   0
  -4   3  -2   25.12    8.26   0
  -2  -4  -7   41.56    7.13   0
   0  -1  -5  392.58    4.56   0
  -6   0  -9    0.98    4.77   0
  -6   1  -8   15.60    5.14   0
  -6   2  -6   68.97    7.79   0
  -5  -2 -10   33.26    4.58   0
  -5   2  -7  170.48    6.30   0
  -4   1  -9  114.04    4.35   0
  -3  -4  -8   15.08    7.17   0
  -3  -2 -10  263.23    5.73   0
  -3  -1 -10   53.45    3.90   0
  -1  -3  -7  126.82    4.76   0
  -1  -1  -8  289.44    4.47   0
   0  -2  -5 1805.13   12.00   0
   0   0  -4  978.33    6.80   0
  -4   0 -10   44.47    3.70   0
  -4   3  -3   73.50    7.62   0
  -3   2  -7  132.80    4.08   0
  -2   0  -9   93.00    4.58   0
  -2   1  -8    4.27    3.78   0
  -1  -4  -5   10.83    7.74   0
  -1  -2  -8    0.01    3.18   0
  -1   1  -6  221.35    3.41   0
  -1   1   2  712.41    8.62   0
  -5   0 -10    1.25    3.98   0
  -5   1  -9   92.97    4.77   0
  -3   0 -10   28.05    3.75   0
  -3   1  -9  201.85    4.49   0
  -2   2  -6   23.03    3.45   0
  -4  -3 -10   22.87    6.21   0
  -2  -3  -9   19.10    5.18   0
   0  -3  -3   78.60    6.87   0
   0  -1   1 1165.00   12.52   0
  -6  -1 -10   61.04    6.96   0
  -4   2  -8  151.75    5.47   0
  -4   3  -4  403.26    8.66   0
  -2  -1 -10   74.95    3.91   0
   0  -1  -6  728.08    5.86   0
   0   0  -5   39.77    2.60   0
  -5  -3 -10   56.78   11.42   0
  -4  -1 -11   17.81    4.04   0
  -3  -3 -10   15.30    5.70   0
  -2  -2 -10    1.55    3.89   0
  -1   1  -7  284.85    4.56   0
   0  -2  -6  286.42    4.79   0
  -6   1  -9   19.26    7.19   0
  -6   2  -7    9.18    9.02   0
  -5   2  -8   81.58    5.58   0
  -5   3  -4   74.43   11.59   0
  -4  -2 -11   83.51    5.02   0
  -4   1 -10  134.17    4.36   0
  -3  -1 -11  152.01    4.31   0
  -3   2  -8   12.06    3.74   0
  -3   3  -3  128.87    6.47   0
  -3   3  -2   55.26    6.92   0
  -2   0 -10   84.63    4.26   0
  -2   1  -9  237.72    4.80   0
  -1  -1  -9  260.86    4.52   0
  -6   0 -10   41.27    7.12   0
  -5  -1 -11    9.50    4.49   0
  -4   0 -11   18.59    3.63   0
  -4   3  -5  194.35    7.36   0
  -3  -2 -11   80.42    5.06   0
  -2  -4  -8    2.40    8.10   0
  -2   2  -7  167.99    4.00   0
  -1  -3  -8  107.29    5.29   0
  -1  -2  -9   16.62    3.55   0
  -1   2  -3   69.60    3.23   0
   0  -3  -4  273.49    7.29   0
   0   0  -6  250.81    3.82   0
  -5  -2 -11   16.28    6.68   0
  -5   1 -10   15.42    4.47   0
  -3  -4  -9   21.95    8.82   0
  -3   0 -11   13.46    3.59   0
  -3   1 -10   52.68    3.73   0
  -3   3  -4  175.28    6.14   0
  -1   2  -4  438.19    5.20   0
  -1   2  -2  161.24    4.44   0
   0  -1  -7   87.57    3.30   0
  -5   0 -11   -0.79    4.47   0
  -1  -4  -6   34.23    8.22   0
  -1   1  -8  245.31    4.80   0
  -5   3  -5   28.45   10.43   0
  -4   2  -9   55.25    4.42   0
  -3   3  -5  206.66    6.03   0
  -2  -3 -10   63.65    6.01   0
  -2  -1 -11   75.13    3.97   0
  -1   2  -5  454.35    4.92   0
   0  -3  -5   83.52    5.35   0
   0  -2  -7  118.48    3.74   0
  -4  -3 -11   16.73    9.22   0
  -4   3  -6   75.01    6.31   0
  -3   2  -9   90.51    4.17   0
  -2   2  -8   70.67    3.65   0
  -1  -1 -10  106.56    3.90   0
   0   0  -7   43.30    3.02   0
  -5   2  -9  224.54    6.64   0
  -4  -1 -12    4.47    4.12   0
  -4   1 -11   17.46    4.36   0
  -2  -2 -11  288.65    5.48   0
  -2   0 -11  321.75    4.94   0
  -2   1 -10   75.26    3.81   0
   0  -2   0 2532.35   21.47   0
   0   1  -4 1037.91    7.02   0
   0   1  -3  725.41    6.46   0
  -3  -3 -11   33.60    6.22   0
  -3  -1 -12   12.36    3.73   0
  -3   1 -11  154.22    4.28   0
  -3   3  -6  196.84    5.73   0
  -1  -3  -9  195.60    6.26   0
  -1  -2 -10   67.66    4.21   0
  -1   0 -10  139.89    4.27   0
  -1   2  -6   32.23    2.83   0
   0  -1  -8   51.07    3.26   0
   0   1  -5  358.91    4.30   0
  -5  -1 -12    8.92    9.13   0
  -5   3  -6   80.26   10.72   0
  -4  -2 -12   16.51    5.91   0
  -4   0 -12   61.12    4.16   0
  -1   1  -9  234.86    4.93   0
  -1   2  -1 1517.86   15.93   0
   0  -3  -6   99.28    5.36   0
   0  -2  -8   67.02    4.00   0
  -5   1 -11    8.63    5.47   0
  -4   2 -10  110.27    5.69   0
  -4   3  -7  131.64    7.07   0
  -3  -2 -12   10.97    4.71   0
  -3   0 -12   62.96    3.74   0
  -2  -4  -9   54.46    9.89   0
  -2   2  -9   11.87    3.45   0
  -1  -4  -7  112.66    9.90   0
  -1   2  -7    2.79    3.42   0
   0   0  -8  146.53    4.13   0
   0   1  -6  649.07    5.41   0
   0   1  -2 1373.16   10.67   0
  -5   0 -12    2.69    8.09   0
  -3   2 -10  265.39    5.20   0
  -3   3  -7   33.35    5.12   0
  -2  -1 -12   45.92    4.37   0
  -2   2   1  206.35    7.78   0
  -2  -3 -11   20.04    6.28   0
  -2   1 -11   74.83    3.93   0
  -2   3  -5  167.55    5.34   0
  -2   3  -4  749.21    8.42   0
  -1  -1 -11  424.55    5.54   0
   0  -1  -9  230.95    4.38   0
   0   1  -7   72.60    3.38   0
  -5   2 -10   34.77    8.05   0
  -2  -2 -12    0.20    4.77   0
  -2   0 -12    3.10    3.40   0
  -2   3  -3   33.55    4.65   0
  -1   0 -11    6.32    3.44   0
  -1   1 -10  105.05    4.21   0
   0  -3  -7  205.40    6.26   0
  -4   1 -12    3.56    4.47   0
  -4   3  -8    6.99    6.61   0
  -3   1 -12    9.17    3.87   0
  -2   3  -6   45.13    4.33   0
  -1  -3 -10   88.41    6.28   0
  -1  -2 -11  172.71    4.99   0
  -1   2  -8   -1.15    2.97   0
   0  -2  -9  161.80    4.90   0
   0   0  -9  305.71    4.53   0
  -4  -1 -13   16.06    6.45   0
  -3  -1 -13    2.06    4.40   0
  -3   3  -8   15.16    5.28   0
  -2   2 -10    3.30    3.58   0
  -4   0 -13   -0.52    5.29   0
  -4   2 -11   89.85    6.05   0
  -3  -3 -12    3.07   12.12   0
  -3   0 -13    2.23    3.95   0
  -3   2 -11   76.55    5.01   0
  -2   3  -7   13.23    4.19   0
   0  -1 -10    1.49    3.31   0
  -3  -2 -13   22.52    7.18   0
  -2   1 -12   45.26    3.68   0
  -1  -4  -8   57.01   11.41   0
  -1   2  -9   15.18    3.19   0
  -2  -1 -13   24.06    4.28   0
  -1  -1 -12    4.71    3.69   0
  -1   1 -11  395.81    5.26   0
   0  -3  -8  168.69    6.02   0
   0   0 -10  339.26    5.07   0
  -4   3  -9   31.16    7.25   0
  -3   3  -9  132.67    6.19   0
  -2   0 -13    8.91    3.67   0
  -2   2 -11  266.99    5.49   0
  -2   3  -8  113.86    4.92   0
  -2   3  -2  614.58   10.65   0
  -1   0 -12  159.68    4.36   0
   0  -2 -10   15.86    3.99   0
   1  -1  -6  655.80    6.03   0
   1  -1  -5  129.02    3.41   0
  -2  -3 -12    2.15    8.31   0
  -1  -2 -12    1.51    4.71   0
   0   2  -5 1833.95    9.15   0
  -4   1 -13   16.11    7.05   0
  -3   1 -13   -0.12    4.11   0
  -2  -2 -13    3.13    5.48   0
  -1  -3 -11   18.20    6.89   0
  -1   1   1 2585.12   20.85   0
  -1   2 -10   64.06    3.72   0
   0  -1 -11  141.66    4.35   0
   0   1  -1 1396.35   12.95   0
   0   2  -6  256.09    4.18   0
   1  -1  -7  428.59    4.93   0
   1  -1  -4  401.19    5.11   0
   1   0  -6  482.59    4.94   0
   1   0  -5 1544.38    8.18   0
  -3   2 -12   11.01    4.55   0
  -1   1 -12    5.08    3.48   0
   0  -3  -9  124.62    6.77   0
   0   0 -11  494.26    5.65   0
   0   1 -10    2.17    3.69   0
   0   2  -7  104.70    3.54   0
   0   2  -4 1764.27    9.10   0
   1   0  -7  563.15    5.26   0
   1   0  -4 2681.63   12.01   0
  -4   2 -12   15.95    7.15   0
  -3  -1 -14   25.86    7.51   0
  -2   1 -13   24.29    3.84   0
  -2   3  -9   18.62    4.22   0
  -1  -1 -13    9.46    4.47   0
  -1   3  -6  126.92    4.48   0
  -1   3  -5  599.11    6.67   0
   1  -1  -8  102.65    3.52   0
  -3   0 -14   18.82    5.49   0
  -3   3 -10   16.21    5.42   0
  -2   2 -12   -0.90    4.30   0
  -1   0 -13    1.77    3.39   0
  -1   3  -7  107.02    4.50   0
   0  -2 -11   72.03    4.62   0
   0   2  -8   58.31    3.57   0
   1  -2  -6  134.55    4.27   0
   1  -2  -5  881.49    8.33   0
   1   0  -8   39.17    3.34   0
  -4   3 -10   24.23    9.51   0
  -2  -1 -14    5.58    5.23   0
  -1   2 -11  162.23    4.51   0
  -1   3  -4   44.71    3.67   0
   0   2  -3  171.71    3.81   0
   1  -2  -7  733.84    7.23   0
   1  -1  -3 1501.09   11.43   0
  -2   0 -14    3.79    4.09   0
  -2   3 -10   62.60    5.38   0
  -1   3  -8  103.00    4.88   0
   0  -1 -12  100.64    4.47   0
   0   0 -12    3.76    3.53   0
   0   1 -11  128.29    3.69   0
   0   2  -9  145.97    4.13   0
   1  -1  -9  110.55    3.76   0
   1   0  -9   91.17    3.98   0
   1   1  -6  596.10    5.32   0
  -1  -2 -13    9.54    5.52   0
   0  -3 -10   70.47    7.81   0
   0  -1   0    0.15    2.78   0
   1  -2  -8   88.81    4.51   0
   1   0  -3  188.63    3.78   0
   1   1  -7  364.92    5.15   0
   1   1  -5  132.50    3.25   0
  -3   1 -14   25.01    6.62   0
  -3   2 -13   22.60    6.70   0
  -1  -3 -12   16.72    9.69   0
  -1   1 -13    9.17    3.77   0
  -1   3  -9  201.21    5.51   0
   1  -2  -4  224.40    5.39   0
  -3   3 -11   35.02    7.01   0
  -2  -2 -14    2.73   13.47   0
  -2   1 -14    5.41    4.61   0
  -1   2 -12    1.07    3.85   0
   0  -2 -12    7.63    5.90   0
   0   2 -10   13.46    3.82   0
   1  -2  -9  124.89    5.18   0
   1  -1 -10   72.44    4.21   0
   1   0 -10   86.71    4.09   0
   1   1  -4  456.35    4.83   0
  -2   2 -13    1.40    4.59   0
  -1  -1 -14   -0.61    5.00   0
  -1   0 -14   -0.27    4.06   0
  -1   3  -3  836.71    8.50   0
   0   1 -12  102.06    4.29   0
  -2   3 -11   18.67    4.96   0
  -1   3 -10   90.44    5.04   0
   0  -1 -13   92.14    5.08   0
   0   0 -13   41.78    4.05   0
   0   2 -11   68.00    4.10   0
   1  -1 -11  832.45    7.26   0
   1   0 -11  151.34    4.42   0
   1   1 -10   64.64    4.40   0
  -2   0 -15    2.77    7.59   0
  -1   1 -14    1.79    3.91   0
   0  -3 -11  125.75    9.14   0
   0   2  -2  836.53    7.55   0
   1  -2 -10  135.59    5.06   0
  -1  -2 -14    8.21    9.72   0
  -1   2 -13    6.44    3.95   0
   0   1 -13   93.83    3.96   0
   0   3  -7  223.85    4.53   0
   0   3  -6  105.25    4.08   0
   1   1  -3 1728.31    9.89   0
   1   2  -7  686.59    5.98   0
  -3   3 -12    3.09   10.26   0
  -2   3 -12    0.08    5.88   0
  -1   3 -11   19.11    4.01   0
   0  -2 -13   46.74    6.42   0
   0   3  -8  163.19    4.30   0
   1   1 -11  737.72    6.40   0
   1   2  -8   71.81    4.00   0
   1   2  -6  129.58    3.51   0
  -2   2 -14   10.50    6.39   0
   0   2 -12    5.21    3.34   0
   0   3  -9  125.86    4.73   0
   0   3  -5  101.42    3.89   0
   1  -1 -12    7.61    4.56   0
   1   0 -12  602.58    6.27   0
   1   0  -2  494.33    5.85   0
   1   2  -9  103.01    4.06   0
   1   2  -5  905.14    6.27   0
  -2   1 -15    1.45    7.89   0
  -1   0 -15    1.91    5.43   0
   0  -1 -14    6.11    5.56   0
   0   0 -14    9.43    3.98   0
   1  -2 -11   39.93    4.78   0
  -2   4  -7   46.41    8.05   0
  -2   4  -6  357.32    9.92   0
  -1  -1 -15   30.10    8.62   0
   0  -2  -1  633.79   10.62   0
   0   3 -10   64.42    4.55   0
   1  -1  -2  848.33   10.23   0
   1   1 -12    8.89    3.50   0
   1   2 -10  113.81    4.08   0
  -2   4  -8    0.96    7.70   0
  -1   3 -12   15.60    4.56   0
   0   1 -14    6.26    3.77   0
   1  -3  -8  134.11    7.72   0
   1  -3  -7   59.12    6.57   0
   1  -2  -3  394.43    7.89   0
   2   0  -8   13.69    3.22   0
   2   0  -7  719.82    5.92   0
   2   0  -6   67.73    2.96   0
  -1   0   1 2143.01   14.11   0
  -1   1 -15   23.83    5.06   0
  -1   2 -14    2.01    4.19   0
   0  -3 -12    0.19   11.64   0
   0   2 -13   41.52    3.82   0
   0   3  -4  292.42    4.50   0
   1   0 -13   56.90    3.84   0
   1   2  -4  264.04    3.87   0
   2  -1  -8  136.55    4.04   0
   2  -1  -7  194.81    4.09   0
   2   0  -9  207.64    4.18   0
  -2   3 -13    9.39    8.61   0
  -2   4  -9   56.55    7.78   0
  -1   3  -2  980.20   11.10   0
   0   3 -11  109.97    4.38   0
   1  -3  -9   11.38    8.08   0
   1  -3  -6  135.08    7.68   0
   1  -2 -12   18.72    6.18   0
   1  -1 -13   23.74    4.67   0
   1   2 -11   33.90    3.58   0
   2  -1  -9   98.54    3.88   0
   2  -1  -6   77.92    3.17   0
   2   0 -10   39.49    3.59   0
  -2   4  -5   12.15    7.85   0
   1   1 -13   23.77    3.36   0
   2   0  -5  103.97    3.01   0
   2   1  -9   83.06    4.25   0
   2   1  -6   70.78    3.31   0
  -1   4  -8   66.21    6.03   0
  -1   4  -7  123.96    6.17   0
   0  -2 -14   30.05   10.21   0
   0   0 -15    0.39    4.92   0
   1   1  -2  849.99    6.66   0
   2  -1 -10  110.50    4.31   0
  -2   4 -10    7.21    8.23   0
  -1   3 -13   12.46    5.24   0
  -1   4  -9   23.69    5.84   0
  -1   4  -6   35.41    5.48   0
   0  -1 -15    2.30    9.03   0
   1   2 -12   19.44    3.49   0
   2  -1  -5  608.17    5.65   0
   2   0 -11  381.80    5.32   0
   2   1 -10   97.62    3.99   0
   0   1 -15    2.70    4.56   0
   0   2 -14   25.08    4.01   0
   0   3 -12    1.59    3.96   0
   1  -3 -10  107.69    9.43   0
   1   0 -14    9.34    4.03   0
   1   2  -3  411.43    4.63   0
   1   3  -9    9.77    3.83   0
   1   3  -8  122.87    3.98   0
   1   3  -7   55.10    3.36   0
   2  -1 -11   14.61    3.81   0
   2   1  -5  642.15    5.17   0
   0   3  -3   85.82    3.38   0
   1  -1 -14    3.61    5.74   0
   1   3  -6  156.15    3.65   0
   2  -2  -8  106.08    4.84   0
   2   0  -4  147.06    3.14   0
   2   1 -11   14.11    3.46   0
  -1   4 -10  102.47    6.57   0
   1  -2 -13   30.78    7.37   0
   1   1 -14    2.59    3.75   0
   1   2 -13   26.57    3.41   0
   1   3 -10  105.29    4.02   0
   2  -2  -9  198.53    5.94   0
   2  -2  -7  233.17    5.20   0
   2   0 -12  113.09    4.14   0
   2   2  -9  164.25    4.37   0
   2   2  -8   89.34    4.20   0
   2   2  -7  202.38    4.59   0
  -1   4  -5   10.85    4.92   0
   2  -1 -12  146.78    5.40   0
   2   1 -12  137.88    4.12   0
   0   3 -13    1.21    4.42   0
   1   3 -11  119.23    4.04   0
   1   3  -5   20.28    2.72   0
   2  -2 -10   58.62    5.48   0
   2  -2  -6  596.26    6.83   0
   2  -1  -4  256.77    4.12   0
   2   1  -4  263.35    3.61   0
   2   2 -10   51.55    2.87   0
   2   2  -6  629.24    5.57   0
  -1   3 -14   17.50   10.03   0
  -1   4 -11   22.53    7.09   0
   0   2  -1  626.40    7.41   0
   0   4  -9   83.51    5.27   0
   0   4  -8  195.14    5.81   0
   0   4  -7   22.03    4.73   0
   2   0 -13   49.42    4.35   0
   2   2 -11   31.80    3.40   0
   0   2 -15   10.39    6.09   0
   1   0 -15    4.84    5.27   0
   2  -2 -11   33.72    6.33   0
   2   2  -5  252.70    3.79   0
   0   4 -10   59.58    5.55   0
   0   4  -6  104.31    4.74   0
   1   1 -15   12.93    4.48   0
   1   2 -14    7.15    3.79   0
   1   3 -12    4.16    3.58   0
   2   1 -13   17.39    3.41   0
   1  -1 -15   17.78   11.63   0
   1   3  -4  330.41    4.32   0
   2  -1 -13   19.39    4.87   0
   2   0  -3 1535.13    7.83   0
   2   2 -12   16.44    3.11   0
   0   3 -14   20.47    6.23   0
   0   4 -11    2.47    5.45   0
   1   2  -2  785.20    6.09   0
   2  -2  -5  223.92    4.97   0
   3   0  -9   18.98    3.45   0
   3   0  -8   49.45    3.28   0
  -1   4  -4  125.04    6.90   0
   1   0  -1 2139.42   12.84   0
   1   3 -13    2.21    4.28   0
   2  -2 -12   16.16    7.05   0
   2   0 -14   -0.58    4.28   0
   2   1  -3  331.85    3.86   0
   2   2  -4   84.35    2.74   0
   2   3  -9   38.86    3.53   0
   2   3  -8   30.33    3.37   0
   3   0 -10   -0.17    3.37   0
   3   0  -7   60.71    3.10   0
   3   1  -9   23.16    3.46   0
   3   1  -8   10.96    3.48   0
   0   4  -5  315.86    5.78   0
   2   1 -14    2.58    3.79   0
   2   2 -13    2.97    3.38   0
   2   3 -10   93.29    3.88   0
   2   3  -7  100.12    3.48   0
   3  -1  -9   26.91    4.14   0
   3  -1  -8   10.18    3.61   0
   3   0 -11  235.70    5.13   0
   3   0  -6    0.70    2.98   0
   3   1 -10   68.76    3.61   0
   3   1  -7   81.31    4.15   0
   1   2 -15   20.80    5.67   0
   3  -1 -10   78.28    4.73   0
   3  -1  -7   93.34    3.81   0
   3   1 -11   63.45    3.50   0
   0   3  -2  276.99    4.97   0
   0   4 -12    3.52    7.09   0
   1   1  -1 2710.97   12.37   0
   1   4  -9   26.60    4.12   0
   1   4  -8   99.61    4.43   0
   2  -1 -14    1.98    6.65   0
   2  -1  -3  341.65    4.59   0
   2   3 -11   44.26    3.43   0
   2   3  -6   30.60    3.04   0
   1   4 -10   34.92    4.55   0
   1   4  -7   38.52    3.91   0
   3  -1 -11   67.55    4.95   0
   3   0 -12  185.70    4.57   0
   3   1 -12   73.63    4.16   0
   3   2  -9   59.00    3.52   0
   3   2  -8   20.26    3.52   0
   1   3 -14    4.14    5.67   0
   1   3  -3  289.10    4.04   0
   2   2 -14   27.64    3.94   0
   2   3 -12   36.45    3.84   0
   3  -1  -6  276.34    4.21   0
   3   0  -5    3.04    2.36   0
   3   1  -5  163.92    3.65   0
   3   2 -10   82.83    3.71   0
   3   2  -7  206.61    4.44   0
   1   4 -11    5.23    4.58   0
   1   4  -6  169.60    4.20   0
   2   0 -15   12.00    7.22   0
   2   1 -15   69.91    5.87   0
   2   2  -3  144.84    2.92   0
   2   3  -5   28.14    2.74   0
   3   2 -11   86.30    3.51   0
   0   4  -4   10.52    3.90   0
   3  -1 -12   81.53    5.61   0
   3   0 -13    2.44    4.09   0
   2  -2  -4   85.34    4.07   0
   2   0  -2 4721.58   14.07   0
   2   1  -2  551.38    4.67   0
   2   3 -13   12.81    4.33   0
   3   1 -13   48.39    3.79   0
   3   2 -12   18.10    3.12   0
   0   1   0    0.26    2.31   0
   1   4 -12   69.41    5.79   0
   1   4  -5  120.37    4.12   0
   3  -1  -5  165.49    3.46   0
   3   0  -4  654.45    5.04   0
   2   3  -4  189.10    3.39   0
   3  -2  -9   65.23    5.56   0
   3  -2  -8   22.53    4.97   0
   3   1  -4  508.45    4.60   0
   2   2 -15   13.80    7.58   0
   2   4  -9   60.97    4.61   0
   2   4  -8  156.53    4.90   0
   3  -2 -10   93.38    6.50   0
   3  -1 -13   49.94    6.73   0
   3   2 -13   12.32    3.54   0
   3   3 -10    9.22    3.25   0
   3   3  -9   10.26    3.13   0
   3   3  -8   24.64    3.18   0
   2   4 -10   12.96    4.09   0
   2   4  -7   58.21    4.11   0
   3  -2  -7  210.88    5.77   0
   3   0 -14   54.24    5.72   0
   3   1 -14    8.50    4.46   0
   3   3 -11   14.16    3.80   0
   3   3  -7   74.79    3.30   0
   1   2  -1  350.01    4.29   0
   2   3 -14    7.63    6.86   0
   3  -2 -11   89.03    8.30   0
   4   0 -10    1.05    3.98   0
   4   0  -9   16.24    3.46   0
   4   0  -8    0.59    3.14   0
   4   1 -10   46.40    3.54   0
   4   1  -9   27.92    3.36   0
   4   1  -8   90.47    3.59   0
   1   3  -2  307.58    4.29   0
   2   2  -2  111.02    2.69   0
   2   4 -11   15.62    4.36   0
   3   2  -4   77.70    2.75   0
   3   3  -6   27.07    2.79   0
   4   0  -7  103.08    3.82   0
   4   1 -11   67.23    3.60   0
   4   1  -7   41.39    3.38   0
   1   4  -4  165.50    4.33   0
   2   4  -6   12.90    3.32   0
   3  -1  -4  565.27    5.19   0
   3   1  -3   90.12    2.73   0
   3   2 -14   27.17    5.02   0
   3   3 -12   16.66    3.72   0
   4   0 -11  122.39    4.44   0
  -1   0   0  808.11    7.89   0
   1  -1  -1 2926.44   19.58   0
   2  -1  -2  572.41    5.81   0
   2   3  -3   16.65    2.35   0
   2   4 -12   60.28    6.19   0
   3  -2  -6    6.69    4.07   0
   3   0  -3  140.32    2.94   0
   4   1  -6   68.91    3.49   0
   4   2 -10    4.16    3.07   0
   4   2  -9   23.48    3.31   0
   4   2  -8    7.39    3.16   0
   0   4  -3  145.78    5.68   0
   3   3  -5   73.13    2.96   0
   4  -1  -9   33.43    4.74   0
   4  -1  -8  102.26    4.69   0
   4   0 -12   13.86    4.39   0
   4   0  -6   36.50    3.05   0
   4   1 -12   61.03    3.86   0
   4   2 -11   27.66    3.45   0
   4   2  -7   40.81    3.27   0
  -1   1   0 4882.37   24.70   0
   2   4  -5  212.57    4.27   0
   3   3 -13    8.80    4.70   0
   4  -1 -10   52.20    4.81   0
   2   1  -1 2112.42    9.50   0
   3   2  -3   79.16    2.97   0
   4  -1 -11   76.47    6.15   0
   4  -1  -7   44.39    4.08   0
   4   1  -5  250.14    4.32   0
   4   2 -12   29.77    3.65   0
   4   2  -6   95.23    3.62   0
   3   4  -9   44.10    4.57   0
   3   4  -8    5.67    4.15   0
   4   0 -13   59.90    6.68   0
   4   0  -5  145.15    3.51   0
   4   1 -13   11.16    4.60   0
   0  -2  -2  747.06    9.17   0
   1   5  -9   10.87    9.99   0
   1   5  -8    2.57    8.05   0
   2   0  -1 2531.69   10.82   0
   3   3  -4   47.71    2.84   0
   3   4 -10    7.03    4.20   0
   4   3  -9    2.74    3.11   0
   1   4  -3   60.95    4.13   0
   2   4  -4  125.93    4.19   0
   3  -2  -5   75.87    4.24   0
   3  -1  -3  105.50    3.17   0
   3   1  -2  408.94    4.05   0
   3   4 -11   27.73    5.26   0
   3   4  -7  143.73    4.26   0
   4  -1 -12   66.10    7.53   0
   4  -1  -6   71.59    3.45   0
   4   2 -13   18.99    5.17   0
   4   2  -5   26.60    3.61   0
   4   3 -10   11.40    3.56   0
   4   3  -8   40.67    3.33   0
   0   3  -1  201.36    5.31   0
   1   5  -7  148.38    8.08   0
   2  -2  -3  166.03    5.12   0
   2   3  -2  203.34    3.43   0
   4   1  -4  221.14    4.30   0
   4   3 -11    1.45    3.67   0
   4   3  -7   93.15    3.67   0
   1   1   0 5053.89   16.93   0
   2   2  -1  229.07    3.36   0
   3   0  -2   66.29    2.48   0
   3   4  -6  240.55    4.55   0
   4   0  -4  164.77    3.45   0
   4   3  -6  216.64    4.08   0
   3   2  -2   59.23    2.63   0
   3   3  -3    8.11    3.01   0
   3   4 -12   23.04    8.24   0
   4  -1  -5  259.88    4.58   0
   4   3 -12   40.55    4.53   0
   1   3  -1  812.82    6.64   0
   1   5  -6  269.47    8.91   0
   5   1 -10    3.56    3.72   0
   5   1  -9   20.48    3.38   0
   5   1  -8   -0.26    3.36   0
   2   5  -9    5.97    8.74   0
   2   5  -8   70.28    7.72   0
   3   4  -5  149.66    4.04   0
   4   3  -5   70.78    3.32   0
   5   0  -9    8.71    3.90   0
   5   0  -8    4.92    4.24   0
   5   1  -7   71.44    3.49   0
   2   4  -3  171.90    4.26   0
   4   1  -3  100.01    3.78   0
   5   0 -10   45.34    4.71   0
   5   1 -11   40.06    4.28   0
   5   2 -10   13.76    3.65   0
   5   2  -9   10.92    3.22   0
   5   2  -8   30.71    3.29   0
   0   2   0 2858.01   19.36   0
   2   5  -7   16.46    6.44   0
   4  -2  -9   28.17    7.88   0
   4  -2  -8    8.40    6.83   0
   4   0  -3    6.71    2.91   0
   4   3 -13   -1.22   11.37   0
   5   0 -11   21.09    5.66   0
   5   0  -7    3.53    3.36   0
   5   1  -6  172.96    3.92   0
   5   2  -7   39.69    3.31   0
   1   0   0  851.61    8.74   0
   1   2   0  232.40    3.79   0
   3  -2  -4   89.77    4.29   0
   3   1  -1  634.24    4.78   0
   4  -1  -4  241.26    4.38   0
   4   4  -9    7.85    3.97   0
   4   4  -8   42.99    4.16   0
   5   1 -12  110.68    5.91   0
   5   2 -11   41.30    3.93   0
   2   5  -6   18.68    6.33   0
   3   4  -4   26.61    3.40   0
   4  -2  -7   40.95    5.87   0
   4   3  -4   91.01    3.36   0
   4   4 -10    0.28    4.46   0
   4   4  -7    2.33    3.53   0
   5   0  -6   37.13    3.36   0
   5   2  -6   83.66    3.52   0
   1   4  -2  248.23    5.20   0
   1   5  -5  255.77    8.86   0
   2   1   0 4879.98   13.70   0
   2   3  -1   81.09    2.78   0
   3  -1  -2  490.78    4.91   0
   3   3  -2   33.09    2.76   0
   5   0 -12   29.81    8.92   0
   5   1  -5    9.77    3.06   0
   5   2 -12   99.36    6.15   0
   2  -1  -1 2102.03   11.61   0
   3   0  -1   94.79    2.63   0
   3   2  -1 1366.06    6.75   0
   4   1  -2  370.58    4.59   0
   4   4 -11   29.45    7.08   0
   4   4  -6    0.01    3.40   0
   5  -1  -9   22.55    5.92   0
   5  -1  -8   -0.85    5.13   0
   5   0  -5   12.84    3.56   0
   5   2  -5   55.93    3.35   0
   5   3 -10    7.85    4.00   0
   5   3  -9   15.54    3.47   0
   5   3  -8   47.37    3.43   0
   4  -2  -6   86.52    5.57   0
   5  -1 -10    1.77    6.96   0
   5  -1  -7   72.44    4.96   0
   5   3  -7   11.24    3.05   0
   0   4  -2   50.30    6.58   0
   2   2   0  111.26    2.66   0
   2   5  -5   89.84    6.65   0
   3   4  -3   92.35    3.96   0
   3   5  -9   21.14    9.14   0
   3   5  -8   51.30    7.14   0
   4   3  -3    3.68    2.63   0
   5   1  -4   81.20    3.52   0
   5   3 -11    1.12    5.03   0
   5   3  -6   30.58    3.31   0
   2   0   0 8262.93   18.49   0
   2   4  -2  350.28    5.08   0
   3   5  -7   57.75    6.40   0
   4  -1  -3  115.48    3.64   0
   4   0  -2  946.11    5.97   0
   4   4  -5  238.11    4.55   0
   5   2  -4  108.89    3.52   0
   5  -1  -6  162.16    4.63   0
   5   0  -4   64.15    3.10   0
   3   3  -1   51.47    3.02   0
   3   5  -6    2.98    5.48   0
   5   3  -5  119.93    3.71   0
   1   5  -4   11.15    8.07   0
   4  -2  -5   25.57    4.59   0
   4   4  -4   20.89    3.27   0
   5   1  -3   79.56    3.38   0
   6   1  -9    4.73    4.50   0
   6   1  -8   79.74    4.51   0
   2   5  -4   70.20    6.04   0
   3  -2  -3   89.05    4.26   0
   3   1   0 1805.61    7.32   0
   4   1  -1 1537.82    7.40   0
   4   3  -2   13.89    2.57   0
   5  -1  -5    9.18    3.48   0
   5   2  -3   65.91    3.36   0
   6   1 -10   11.01    5.51   0
   6   1  -7    8.56    3.35   0
   6   2  -8    0.14    3.69   0
   0  -1  -1 1518.12   14.80   0
   1   3   0  279.08    4.47   0
   3   2   0  240.80    3.39   0
   3   4  -2   36.61    3.40   0
   3   5  -5  191.32    6.17   0
   4   2  -1  148.09    3.91   0
   5   0  -3   11.46    3.16   0
   5   3  -4   10.80    3.04   0
   5   4  -9    9.97    4.94   0
   5   4  -8   18.59    4.18   0
   5   4  -7  126.12    4.68   0
   6   2  -9   52.63    4.08   0
   6   2  -7    8.30    3.14   0
   2   3   0  120.12    3.14   0
   5   4 -10    4.73   10.53   0
   6   0  -9   -0.75    5.63   0
   6   0  -8    1.11    4.57   0
   6   1  -6   21.95    3.22   0
   6   2 -10   30.10    5.14   0
  -1   0  -1 1642.02   11.22   0
   3  -1  -1  708.76    5.54   0
   3   0   0  173.84    2.94   0
   4  -1  -2  420.34    4.78   0
   4   0  -1  155.57    3.13   0
   4   4  -3    3.88    2.87   0
   5   4  -6   78.12    3.99   0
   6   0 -10   39.09    8.25   0
   6   0  -7  148.88    4.86   0
   6   1 -11   43.67   10.85   0
   6   2  -6   18.40    3.00   0
   4   5  -8   36.65    9.00   0
   4   5  -7    5.11    6.29   0
   5  -1  -4   83.09    3.60   0
   5   1  -2  170.66    3.68   0
   5   3  -3   30.47    2.98   0
   6   0  -6  164.81    4.87   0
   6   1  -5    1.69    3.07   0
   1   4  -1   41.95    3.91   0
   2   4  -1   63.82    3.32   0
   3   5  -4  137.96    5.60   0
   4  -2  -4    7.80    3.93   0
   5   2  -2  208.78    3.93   0
   5   4  -5  103.50    3.84   0
   6   2  -5   99.29    3.42   0
   6   3  -9   11.01    4.77   0
   6   3  -8  106.06    4.28   0
   6   3  -7   52.70    3.45   0
   2   1   1  410.13    3.97   0
   3   3   0  351.92    3.95   0
   4   3  -1  110.52    3.05   0
   4   5  -6   70.88    5.89   0
   6   0  -5    1.90    3.74   0
   1   1   1  295.36    4.06   0
   2   2   1   69.81    2.24   0
   2   5  -3  114.89    6.48   0
   4   1   0  820.76    5.64   0
   5   0  -2    0.75    2.62   0
   6   1  -4  139.75    3.75   0
   6   2  -4    5.96    2.85   0
   6   3 -10    8.73   10.59   0
   6   3  -6   48.35    3.28   0
   1   2   1 1478.93    9.12   0
   3   4  -1   14.19    3.19   0
   4   2   0  128.41    3.59   0
   4   4  -2   88.32    3.42   0
   4   5  -5   31.10    5.12   0
   5   3  -2   12.37    2.76   0
   5   4  -4   91.96    3.60   0
   6   3  -5   77.26    3.23   0
   3   1   1   55.65    2.17   0
   5  -1  -3   82.09    3.44   0
   5   1  -1  102.64    3.41   0
   6   0  -4   33.48    3.69   0
   3   2   1  672.32    4.75   0
   3   5  -3    1.93    5.29   0
   4   0   0   46.39    2.41   0
   5   2  -1  602.55    5.17   0
   6  -1  -8   71.87    8.34   0
   6  -1  -7    9.57    6.59   0
   6   1  -3  195.31    3.74   0
   2  -1   0 4679.78   15.97   0
   4  -1  -1 1679.00    8.03   0
   5   4  -3    0.06    3.58   0
   6   2  -3   39.69    3.06   0
   6   3  -4   47.01    2.92   0
   2   0   1  102.38    2.32   0
   4   3   0   14.00    2.68   0
   5   0  -1    0.61    2.55   0
  -5  -2 -10   38.18    5.03   0
  -2  -5  -5    3.45    2.16   0
   0   0  -4  966.01    6.32   0
  -4  -5  -7    4.64    2.29   0
  -2  -3  -9   18.21    2.00   0
  -1  -4  -6   32.41    2.30   0
  -4  -4  -9    2.67    2.20   0
  -4  -3 -10   25.17    2.58   0
  -3  -5  -7   25.88    2.15   0
  -2  -5   2  119.79    5.17   0
  -2  -4  -8    2.12    1.96   0
  -2   0  -9  109.86    2.95   0
  -1  -3  -8   95.64    2.36   0
   0  -3  -5   72.21    2.31   0
   0  -3   1  174.99    2.96   0
   0  -2  -6  251.55    2.60   0
   0  -1  -6  737.32    4.13   0
  -5  -5  -7    0.32    4.18   0
  -4  -6  -2   17.66    6.05   0
  -3  -4  -9   20.63    1.98   0
  -3  -3 -10   14.46    2.08   0
  -2  -5  -6   36.26    2.17   0
  -5  -4  -9   26.76    4.20   0
  -5  -3 -10   62.62    5.19   0
  -4  -6  -3   15.45    4.59   0
  -2  -2 -10    2.42    1.91   0
  -1  -5  -3   47.09    2.58   0
  -1  -5  -2  157.27    2.98   0
  -1  -4  -7  105.40    2.38   0
   0  -2   2  654.65    8.81   0
  -4  -6  -4    5.31    4.89   0
  -3  -6  -3   37.04    3.76   0
  -3  -6  -2  160.46    4.83   0
  -2  -1 -10   80.61    2.79   0
  -1  -5  -4  107.51    2.78   0
  -1  -5  -1   18.74    2.25   0
  -1  -2  -9   15.46    1.74   0
  -1   0  -8   -0.10    1.70   0
   0  -4  -3  127.92    2.48   0
   0  -4  -2   44.70    2.06   0
   0   0  -5   38.94    1.67   0
  -4  -5  -8    4.36    2.43   0
  -3  -6  -1    3.42    4.60   0
  -3   0 -10   27.33    4.36   0
  -2  -5  -7   72.49    2.17   0
  -2  -4  -9   53.55    2.08   0
  -1  -1  -9  264.53    3.08   0
  -1   1  -6  220.28    4.18   0
   0  -4  -4    8.08    1.84   0
   0  -4  -1    6.35    1.83   0
   0  -2  -7  100.35    1.99   0
  -4  -2 -11   89.19    4.34   0
  -3  -6  -4   11.05    3.11   0
  -3  -5  -8    4.82    1.95   0
  -2  -3 -10   52.76    2.17   0
  -1  -5  -5  355.50    3.42   0
  -1  -5   0   13.64    2.56   0
  -1  -3  -9  162.91    2.52   0
   0  -1  -7   80.25    1.91   0
  -4  -6  -5    8.59    4.74   0
  -4  -4 -10    5.53    2.84   0
  -3  -2 -11   76.52    3.01   0
  -2   1  -8    7.86    3.93   0
  -1  -4  -8   54.60    2.11   0
   0  -4  -5  258.61    2.93   0
  -3  -6  -5   82.46    3.34   0
  -3  -4 -10   15.20    2.10   0
  -3  -1 -11  155.59    4.61   0
  -1  -5  -6  195.09    2.91   0
   0  -4   0  852.96    5.33   0
  -4  -3 -11   14.09    3.73   0
  -3  -3 -11   29.38    2.68   0
  -2  -6  -3  110.78    4.02   0
  -2  -5  -8    1.24    1.86   0
   0  -4  -6   83.88    2.33   0
   0  -2  -8   54.75    1.84   0
   0   0  -6  251.29    2.99   0
  -4  -6  -6    1.34    7.19   0
  -4  -5  -9   -0.30    4.70   0
  -2  -6  -4   69.32    3.55   0
  -2  -6  -2   41.92    3.97   0
  -2  -2 -11  275.88    3.82   0
  -1  -2 -10   60.42    2.17   0
  -3  -6  -6   29.41    3.14   0
  -3  -5  -9   12.80    2.24   0
  -2  -6  -1   57.13    5.09   0
  -2  -4 -10    7.65    1.99   0
  -1  -5  -7   15.45    1.96   0
  -1  -5   1  199.43    4.45   0
  -1  -4  -9   21.35    2.00   0
   0  -3  -8  141.45    2.57   0
   0  -1  -8   52.31    2.04   0
  -2  -6  -5   21.55    2.86   0
  -2  -3 -11   17.73    2.34   0
  -2   0 -10   88.07    4.04   0
  -1  -3 -10   83.59    2.40   0
  -1  -1 -10  116.83    2.98   0
   0  -4  -7   17.70    2.15   0
  -2  -5  -9   15.74    2.10   0
  -2  -1 -11   81.18    3.68   0
  -1   0  -9  106.81    2.99   0
  -1   1   0 5840.25   16.17   0
   0  -3   2  282.16    4.69   0
   1  -2  -4  239.18    2.58   0
   1  -2  -3  383.32    3.00   0
  -3  -6  -7    2.09    3.58   0
  -3  -4 -11   14.94    3.21   0
  -2  -6  -6   12.40    2.75   0
   0  -5  -3  294.85    3.85   0
   0  -4   1    7.17    2.35   0
   0  -2  -9  158.74    2.67   0
   1  -3  -4  310.72    3.01   0
   1  -3  -3  282.84    2.86   0
   1  -2  -5  844.64    4.31   0
   1  -2  -2  767.01    4.38   0
  -2  -6   0   16.71    6.48   0
  -1  -5  -8    2.41    1.87   0
   0  -5  -5    2.68    2.47   0
   0  -5  -4   80.76    2.58   0
   0  -5  -2   31.34    2.69   0
   0  -4  -8  178.10    2.79   0
   0  -3  -9  116.81    2.49   0
   0   0  -7   38.69    1.90   0
   1  -3  -5   16.94    2.18   0
   1  -3  -2  290.85    3.03   0
  -3  -5 -10   12.44    3.41   0
  -3  -2 -12   10.71    4.65   0
  -1  -4 -10   98.20    2.43   0
   1  -2  -6  118.74    2.33   0
  -3  -3 -12    2.24    4.55   0
  -2  -6  -7   12.06    2.95   0
  -2  -4 -11   16.47    2.47   0
  -1  -6  -4   52.81    3.65   0
  -1  -6  -3  171.09    4.52   0
  -1  -2 -11  172.50    3.14   0
  -1   1  -7  325.23    5.86   0
   0  -5  -6  127.02    2.79   0
   0  -1  -9  244.80    3.23   0
   1  -2  -1  352.54    3.33   0
   1  -1  -4  430.63    3.39   0
   1  -1  -3 1699.34    7.09   0
  -2  -5 -10    5.07    2.62   0
  -1  -6  -5   29.32    3.01   0
  -1  -6  -2   75.88    4.51   0
  -1  -5  -9   35.38    2.50   0
  -1  -3 -11   15.20    2.30   0
   0  -5  -1   30.21    2.71   0
   1  -3  -1  715.83    4.53   0
   1  -1  -5  130.90    2.16   0
  -2  -3 -12    0.88    3.36   0
  -2  -2 -12    1.86    3.60   0
   0  -5  -7   69.85    2.44   0
   0  -4  -9   82.11    2.46   0
   0  -2 -10   15.24    2.44   0
   1  -4  -5  109.88    2.77   0
   1  -4  -4  157.91    2.70   0
   1  -4  -3   53.42    2.34   0
   1  -2  -7  699.69    4.20   0
  -2  -6  -8    1.27    3.51   0
  -1  -6  -6   23.21    2.93   0
  -1  -1 -11  448.59    5.03   0
   0  -3 -10   62.38    2.42   0
   1  -1  -6  638.54    4.00   0
   1  -1  -2  779.94    5.44   0
  -1  -6  -1   84.04    5.25   0
  -1  -4 -11   23.73    2.64   0
   0   0  -8  172.94    2.98   0
   1  -4  -6  153.42    2.81   0
   1  -4  -2  191.03    2.85   0
  -1  -6  -7    6.98    2.74   0
  -1   0 -10  153.70    4.12   0
   0  -5  -8    1.84    2.03   0
   0  -5   0    0.50    3.20   0
   1  -3  -8  116.30    2.67   0
   1  -2  -8   72.34    2.24   0
   1  -1  -7  426.64    3.59   0
  -1  -5 -10    7.75    2.37   0
   0  -4 -10   59.63    2.35   0
   0  -1 -10    2.25    2.36   0
   1  -4  -7   36.50    2.32   0
  -2  -5 -11   10.99    4.26   0
  -2  -4 -12    6.79    3.53   0
  -2  -1 -12   46.21    5.29   0
  -1  -3 -12   15.51    3.06   0
  -1  -2 -12    1.88    3.31   0
  -1   1  -1  283.28    4.23   0
   1  -4  -1   36.96    2.32   0
   1  -3   0  249.27    3.25   0
   1  -2   0  220.70    3.08   0
  -2  -6  -9   14.61    5.29   0
  -1  -6  -8   11.12    2.92   0
   0  -5  -9   20.20    2.18   0
   0  -3 -11  109.43    2.82   0
   0  -2 -11   66.32    2.88   0
   1  -4  -8   87.62    2.56   0
   1  -3  -9    9.49    2.12   0
   1  -1  -1 2755.26   10.04   0
   0  -6  -4   56.42    3.88   0
   1  -5  -5  224.16    3.74   0
   1  -5  -4   14.34    2.70   0
   1  -2  -9  109.52    2.45   0
   1  -1  -8  100.91    2.23   0
   0  -6  -5  246.41    4.25   0
   0  -6  -3   18.93    3.95   0
   0  -4   2   47.13    4.28   0
   0   0  -9  365.71    4.22   0
   1  -5  -6  241.61    3.43   0
   1  -5  -3  169.60    3.56   0
  -1  -5 -11   -0.18    2.77   0
  -1  -4 -12    1.24    2.77   0
   0  -6  -6   52.30    3.21   0
   0  -4 -11    2.31    2.26   0
   1  -4  -9   26.30    2.23   0
  -1  -6  -9   14.33    3.57   0
  -1  -1 -12    4.70    4.20   0
   0  -6  -7    8.48    3.02   0
   0  -5 -10   16.70    2.32   0
   1  -5  -7  139.66    3.01   0
   1  -4   0   59.22    2.75   0
   1  -3 -10  104.57    2.59   0
  -1   1  -8  273.85    7.53   0
   0  -6  -2   54.00    4.31   0
   0  -1 -11  151.52    3.74   0
   1  -5  -2  136.29    3.24   0
   1  -2 -10  115.00    2.68   0
   1  -1  -9  112.42    2.58   0
   1   0  -5 1496.20    7.47   0
   2  -3  -5   23.46    2.55   0
   2  -3  -4  180.01    2.73   0
   0  -5   1   32.55    4.73   0
   0  -3 -12    2.03    2.66   0
   1  -5  -8    1.35    2.16   0
   1   0  -6  486.82    4.04   0
   1   0  -4 2682.04    9.61   0
   2  -2  -5  246.47    3.03   0
   2  -2  -4   80.88    2.08   0
  -1  -3 -13   12.20    4.36   0
   0  -6  -8    0.85    2.83   0
   0  -2 -12    7.08    2.72   0
   1  -4 -10   32.36    2.23   0
   2  -3  -7   91.22    2.84   0
   2  -3  -3   16.12    1.82   0
  -1  -2 -13    7.41    4.48   0
  -1   0 -11    5.69    5.32   0
   1  -5  -1  200.90    4.18   0
   1  -3   1  704.23    5.67   0
   1   0  -7  587.34    4.43   0
   2  -4  -6   12.61    2.26   0
   2  -4  -5  178.93    2.84   0
   2  -4  -4  101.38    2.59   0
   2  -2  -7  202.45    3.03   0
   2  -2  -3  138.69    2.24   0
  -1  -6 -10    5.44    7.47   0
   0  -6  -1   30.15    5.71   0
   0  -5 -11   10.41    2.68   0
   0  -4 -12    2.78    2.67   0
   0   0 -10  375.69    4.98   0
   1  -5  -9   12.60    2.15   0
   1  -3 -11  117.29    2.78   0
   1   0  -3  178.76    2.77   0
   2  -4  -7   50.39    2.40   0
   2  -3  -8   30.62    2.38   0
   2  -3  -2  169.16    2.67   0
  -1  -5 -12   34.55    7.39   0
  -1  -4 -13   12.84    6.82   0
   0  -6  -9   12.25    3.38   0
   1  -2 -11   33.21    2.45   0
   1  -1 -10   64.88    2.55   0
   2  -4  -3  132.38    2.68   0
   2  -2  -8   99.49    2.50   0
   1  -4 -11    4.49    2.32   0
   2  -4  -8  142.98    2.81   0
   2  -3  -9   45.30    2.35   0
   2  -2  -2  102.95    2.05   0
   2  -1  -5  613.36    3.95   0
  -1   1  -2  919.60    8.86   0
   0  -1 -12  102.89    4.50   0
   1  -6  -6   43.94    3.28   0
   1  -6  -5    2.46    3.19   0
   1  -6  -4   88.35    4.12   0
   1  -5 -10    6.03    2.33   0
   1  -2   1 1522.19    8.85   0
   1  -1   0 5734.19   15.79   0
   1   0  -8   42.35    2.25   0
   2  -4  -2  280.93    3.52   0
   2  -1  -6   78.45    2.08   0
   2  -1  -4  252.18    2.72   0
   0  -3 -13    2.35    3.81   0
   0   1  -5  372.50    6.09   0
   1  -6  -7   43.91    3.20   0
   2  -5  -5   79.20    3.19   0
   2  -4  -9   58.27    2.42   0
   2  -2  -9  174.26    2.82   0
   2  -1  -7  176.73    2.62   0
  -1   0   1 1996.59   10.20   0
   0  -6 -10   24.10    5.34   0
   0   1  -6  731.45    7.70   0
   1  -6  -3   26.71    4.03   0
   1  -4   1   44.59    2.87   0
   1  -3 -12    3.93    2.60   0
   2  -5  -6   13.86    2.52   0
   2  -5  -4   56.25    3.03   0
   2  -3  -1   69.21    2.04   0
   0  -5 -12    5.90    5.01   0
   0  -2 -13   39.76    4.16   0
   1  -6  -8   16.06    3.02   0
   1  -5   0   18.70    3.49   0
   1  -2 -12   19.85    3.11   0
   1  -1 -11  791.29    5.88   0
   2  -5  -7   14.26    2.31   0
   2  -3 -10   93.34    2.55   0
   2  -1  -8  121.76    2.46   0
   2  -1  -3  335.23    3.06   0
   0  -4 -13   21.24    4.66   0
   1  -4 -12   66.35    2.96   0
   1   0  -9  102.67    2.87   0
   1   0  -2  465.46    4.37   0
   2  -5  -8   61.91    2.54   0
   2  -5  -3   89.28    3.24   0
   2  -4 -10   13.69    2.13   0
   2  -2 -10   55.27    2.43   0
   2  -2  -1  216.26    2.62   0
   1  -5 -11    8.17    2.51   0
   2  -4  -1   51.64    2.52   0
   0   0 -11  510.68    6.88   0
   0   1  -7   82.13    3.79   0
   0   1  -4 1015.10   12.14   0
   1  -6  -9    0.46    3.52   0
   1  -6  -2    4.11    4.73   0
   2  -5  -9    5.99    2.56   0
   2  -3 -11   44.87    2.71   0
   2  -1  -9   91.75    2.40   0
   2  -5  -2  122.96    3.48   0
   2  -1  -2  536.41    3.75   0
   3  -3  -6   25.46    2.43   0
   3  -3  -5   64.25    2.59   0
   1  -3 -13    2.00    3.53   0
   2  -4 -11   15.26    2.42   0
   2  -2 -11   30.47    2.44   0
   3  -3  -7   71.30    2.52   0
   3  -3  -4   40.11    2.24   0
   1   0 -10   84.65    3.32   0
   2  -3   0  106.04    2.47   0
   2  -1 -10  106.83    2.95   0
   3  -4  -7  127.01    2.86   0
   3  -4  -6  205.25    3.16   0
   3  -4  -5  121.73    2.82   0
   3  -3  -8   24.29    2.22   0
   3  -2  -7  206.81    3.19   0
   0  -1 -13   75.85    6.88   0
   1  -6 -10   14.32    6.43   0
   1  -2 -13   31.23    3.87   0
   1  -1 -12    9.37    3.49   0
   2  -5 -10   16.30    2.43   0
   3  -4  -8    6.85    2.25   0
   3  -4  -4   20.00    2.19   0
   3  -3  -3    6.87    2.06   0
   3  -2  -8   19.41    2.27   0
   3  -2  -4   70.17    2.51   0
   1  -4 -13   13.09    4.46   0
   2  -6  -7   10.04    3.77   0
   2  -6  -6   89.94    3.89   0
   2  -6  -5   67.06    4.30   0
   2  -3 -12   35.58    3.06   0
   2   0  -6   69.31    1.95   0
   3  -3  -9   10.06    2.18   0
  -1  -1   2  816.24    6.30   0
   0   1  -8   54.65    4.44   0
   1  -6  -1   51.78    6.76   0
   2  -5  -1   26.55    3.65   0
   2  -4   0  132.52    3.13   0
   2  -2   0  107.12    2.27   0
   2   0  -7  735.80    4.69   0
   2   0  -5  109.78    2.15   0
   3  -4  -9   40.72    2.38   0
   3  -4  -3   72.87    2.80   0
   3  -2  -9   62.87    2.63   0
   2  -6  -8   30.77    3.72   0
   2  -6  -4    6.56    3.61   0
   2  -4 -12   61.68    3.21   0
   2  -2 -12   16.79    3.23   0
   3  -2  -3   71.79    2.13   0
   2  -5 -11   11.97    2.99   0
   2  -1 -11   15.55    2.61   0
   2  -1  -1 2018.07    7.69   0
   2   0  -8   15.04    1.96   0
   2   0  -4  152.65    2.36   0
   3  -5  -7   53.15    2.76   0
   3  -5  -6    5.01    2.46   0
   3  -5  -5  164.63    3.34   0
   3  -3 -10   10.25    2.18   0
   3  -3  -2   31.44    1.92   0
   3  -1  -6  301.58    3.22   0
  -1   1  -3  683.58    7.51   0
   1  -3   2  958.38    9.68   0
   2  -6  -3   40.73    4.86   0
   3  -5  -8   48.48    2.82   0
   3  -4 -10    7.76    2.29   0
   3  -2 -10   90.73    2.66   0
   3  -1  -7   98.11    2.39   0
   3  -1  -5  170.27    2.74   0
   1  -5   1   19.18    6.15   0
   1   0 -11  145.75    4.62   0
   1   0  -1 2110.85    9.98   0
   2  -6  -9    7.35    5.13   0
   2   0  -9  221.01    3.50   0
   3  -5  -4  108.77    3.20   0
   3  -4  -2   31.67    2.36   0
   3  -2  -2   57.49    1.92   0
   3  -1  -8   10.65    2.07   0
   3  -1  -4  509.40    3.71   0
   2  -3 -13   14.05    3.86   0
   3  -5  -9   17.03    2.69   0
   3  -3 -11   15.44    2.42   0
   1  -1 -13   22.92    5.65   0
   2   0  -3 1487.65    6.81   0
   3  -5  -3    1.82    3.10   0
   3  -1  -9   27.94    2.33   0
   2  -5 -12   -0.88   10.27   0
   2  -4 -13    5.62    6.96   0
   2  -3   1   60.52    2.58   0
   3  -4 -11   27.58    2.60   0
   3  -3  -1   47.63    2.08   0
   3  -2 -11   93.44    2.92   0
   3  -1  -3   88.71    2.06   0
   1   1  -6  681.13    6.10   0
   2  -6  -2   17.22    6.24   0
   2  -2 -13    2.65    3.65   0
   2  -1 -12  151.37    4.40   0
   2   0 -10   42.25    3.35   0
   3  -5 -10   24.26    3.10   0
   4  -3  -7   93.26    2.69   0
   4  -3  -6  202.76    3.14   0
   1  -1   1  286.35    4.27   0
   1   1  -7  435.48    5.30   0
   2  -5   0  251.38    5.60   0
   3  -4  -1   13.22    2.22   0
   3  -1 -10   78.49    2.74   0
   4  -4  -6    2.19    2.47   0
   4  -3  -8   40.90    2.40   0
   4  -3  -5   62.39    2.54   0
   1  -4   2   15.70    5.70   0
   1   1  -5  136.19    3.13   0
   2  -4   1   48.45    3.52   0
   3  -5  -2   42.11    3.57   0
   3  -3 -12   17.30    2.92   0
   3  -2  -1 1280.17    5.65   0
   4  -4  -8   42.09    2.38   0
   4  -4  -7    4.13    2.31   0
   4  -4  -5  206.55    3.32   0
   4  -3  -4   80.35    2.48   0
   4  -2  -7   39.82    2.46   0
   4  -2  -6   93.76    2.75   0
  -1   0   0  816.52    6.52   0
   2  -1   0 4812.01   11.94   0
   2   0  -2 4769.96   11.42   0
   3  -6  -7   41.60    5.68   0
   3  -6  -6   47.15    5.24   0
   3  -4 -12   21.29    3.71   0
   3  -1  -2  404.45    3.28   0
   4  -3  -9    2.48    2.13   0
   4  -2  -8    7.58    2.23   0
   4  -2  -5   26.50    2.25   0
   1   1  -8  107.34    3.78   0
   2  -2   1   70.01    2.17   0
   3  -6  -5    8.00    5.00   0
   3  -5 -11    1.72    5.47   0
   3  -2 -12   19.74    3.01   0
   4  -4  -9    7.68    2.45   0
   4  -4  -4   17.08    2.46   0
   4  -2  -9   27.22    2.37   0
   4  -2  -4    7.00    2.59   0
   1  -2   2  163.55    4.15   0
   1   0 -12  501.03    9.10   0
   3  -6  -8   16.11    6.79   0
   3  -1 -11   73.70    3.01   0
   3   0  -7   71.40    2.33   0
   3   0  -6    0.35    1.74   0
   4  -3 -10   13.47    2.40   0
   4  -3  -3    2.17    2.03   0
  -1   1  -4  807.63    8.43   0
   2   0 -11  416.19    5.81   0
   3  -6  -4   24.01    5.39   0
   3  -3   0  359.48    3.67   0
   3   0  -8   52.10    2.33   0
   3   0  -5    3.22    1.71   0
   4  -5  -7    6.85    3.19   0
   4  -5  -6   66.98    3.54   0
   4  -4  -3    3.76    2.79   0
   1   1  -4  470.51    4.91   0
   2  -1 -13   17.02    5.77   0
   3  -3 -13   10.72    5.40   0
   4  -5  -8   37.36    3.55   0
   4  -5  -5   26.93    3.61   0
   4  -4 -10    1.21    2.52   0
   4  -2 -10    4.71    2.35   0
   4  -2  -3    4.79    2.24   0
   4  -1  -7   47.24    2.42   0
   4  -1  -6   75.02    2.68   0
   3  -5  -1  114.59    4.57   0
   3  -4   0   29.88    2.92   0
   3   0  -9   19.89    2.74   0
   3   0  -4  689.90    4.23   0
   4  -3 -11    1.93    2.60   0
   4  -3  -2   13.90    2.05   0
   4  -1  -8  101.95    2.73   0
   1   1  -9  118.59    5.13   0
   3  -2   0  253.99    2.90   0
   3  -1  -1  632.72    4.02   0
   4  -5  -9   12.00    3.68   0
   4  -5  -4   49.67    3.82   0
   3  -6  -3    3.05    6.76   0
   3  -2 -13   14.65    4.84   0
   3  -1 -12   84.19    4.20   0
   4  -4 -11   27.16    3.62   0
   4  -4  -2   80.17    3.00   0
   4  -2 -11   28.77    2.92   0
   4  -2  -2    8.75    1.99   0
   4  -1  -9   33.11    2.61   0
   3   0 -10    1.19    3.09   0
   3   0  -3  137.77    2.28   0
   2   0  -1 2740.35    9.06   0
   2   1  -7  215.84    3.62   0
   2   1  -6   92.03    2.73   0
   4  -5 -10    3.27    7.44   0
   4  -5  -3   14.45    3.87   0
   4  -1 -10   53.65    2.79   0
   2   1  -8  145.09    3.79   0
   2   1  -5  777.68    5.34   0
   4  -3 -12   47.41    4.14   0
   4  -3  -1  117.49    2.78   0
   5  -3  -8   46.36    2.61   0
   5  -3  -7   12.09    2.30   0
   5  -3  -6   32.40    2.53   0
   2   0 -12  114.75    6.53   0
   5  -4  -7  132.55    3.38   0
   5  -4  -6   80.96    3.40   0
   5  -3  -5  113.24    2.82   0
   5  -2  -7   40.06    2.53   0
   5  -2  -6   92.90    2.86   0
  -1  -1   1 2472.63   11.49   0
   1   1  -3 1805.58   10.32   0
   2  -3   2  643.90    6.36   0
   3  -3   1    9.39    2.21   0
   4  -4  -1  154.37    3.96   0
   4  -2 -12   33.61    3.66   0
   4  -2  -1  175.50    2.81   0
   5  -4  -8   17.77    2.80   0
   5  -4  -5   98.34    3.03   0
   5  -3  -9   17.35    2.48   0
   5  -3  -4   12.57    2.41   0
   5  -2  -8   29.98    2.43   0
   5  -2  -5   54.48    2.52   0
   1   0   0  781.11    6.82   0
   2  -1   1  385.90    3.71   0
   2   1  -4  278.84    3.32   0
   3  -1   0 1674.00    6.43   0
   3   0 -11  253.34    5.08   0
   3   0  -2   81.06    1.77   0
   4  -5  -2    6.01    4.56   0
   4  -1 -11   69.35    3.38   0
   4  -1  -2  328.35    3.56   0
   4   0  -7  113.02    2.72   0
   4   0  -6   39.90    2.30   0
   5  -2  -9   10.07    2.31   0
   2   1  -9  107.80    3.97   0
   3  -5   0    6.38    5.49   0
   3  -1 -13   42.08    7.29   0
   4   0  -8    0.48    2.23   0
   4   0  -5  153.74    2.80   0
   5  -4  -9   12.28    3.03   0
   5  -4  -4   84.16    3.12   0
   5  -3 -10    7.44    2.86   0
   5  -2  -4  104.18    2.77   0
   3  -4   1   22.88    3.53   0
   3  -2   1  800.68    4.99   0
   5  -3  -3   29.88    2.49   0
   4  -3   0   15.78    2.57   0
   4   0  -9   17.81    2.60   0
   4   0  -4  167.57    2.89   0
   5  -4 -10    7.17    5.24   0
   5  -2 -10   13.50    2.67   0
   5  -2  -3   64.17    2.59   0
   5  -1  -8   -1.01    2.77   0
   5  -1  -7   77.95    2.74   0
   5  -1  -6  178.97    3.18   0
   2  -2   2   40.40    2.11   0
   5  -5  -7    2.01    6.13   0
   5  -5  -6    8.98    4.95   0
   5  -4  -3    1.42    2.72   0
   5  -1  -5    9.94    2.45   0
   2  -4   2    4.52    5.12   0
   2   1  -3  383.11    3.62   0
   3   0  -1   90.23    2.02   0
   3   1  -7  115.75    2.87   0
   3   1  -6  381.28    3.91   0
   4  -2   0  155.30    2.67   0
   4  -1 -12   67.23    4.69   0
   4  -1  -1 1641.61    6.35   0
   5  -5  -5   20.65    4.84   0
   5  -3 -11    1.66    4.19   0
   5  -3  -2   13.38    2.44   0
   5  -1  -9   23.58    2.61   0
   5  -1  -4   84.32    2.86   0
  -1   0  -1 1520.02    9.55   0
   2   0   0 8095.09   15.25   0
   3   1  -8   11.54    2.86   0
   3   1  -5  211.26    2.94   0
   4  -4   0   14.72    3.45   0
   4   0 -10    3.26    2.77   0
   4   0  -3    2.86    2.31   0
   5  -2 -11   47.97    3.60   0
   2   1 -10  109.75    5.85   0
   3   0 -12  189.69    7.00   0
   4  -5  -1   21.15    5.62   0
   5  -5  -4   15.58    4.98   0
   5  -2  -2  222.51    3.17   0
   3   1  -4  596.51    4.16   0
   5  -4  -2   28.83    3.09   0
   5  -1 -10    3.27    2.92   0
   5  -1  -3   71.48    2.74   0
   3  -1   1   59.24    1.88   0
   3   1  -9   29.54    3.44   0
   0  -2   2  802.58   10.48   0
   4   0 -11  133.21    4.79   0
   5  -3  -1   36.29    2.60   0
   5   0  -6   41.34    2.89   0
   6  -3  -8  106.19    3.37   0
   6  -3  -7   50.82    3.01   0
   6  -3  -6   51.60    2.79   0
   6  -3  -5   78.54    3.16   0
   6  -2  -7    8.31    2.40   0
   1   1  -2  904.62    7.22   0
   2   1  -2  602.46    4.38   0
   3  -3   2   58.06    3.09   0
   3   1  -3  104.22    2.24   0
   4  -3   1   55.44    2.87   0
   4  -1   0  932.42    4.95   0
   5  -5  -3   13.61    5.52   0
   5  -2  -1  650.12    4.66   0
   5  -1 -11   41.22    4.23   0
   5  -1  -2  166.47    3.08   0
   5   0  -8    6.75    2.91   0
   5   0  -7    5.62    2.43   0
   5   0  -5    9.01    2.32   0
   6  -2  -8    1.43    2.58   0
   6  -2  -6   20.11    2.52   0
   6  -2  -5  103.31    2.82   0
   4  -2   1   12.00    2.22   0
   6  -4  -7    8.10    4.85   0
   6  -4  -6   25.58    4.14   0
   6  -3  -9   10.38    3.74   0
   6  -3  -4   45.13    2.70   0
   3  -2   2   42.22    2.26   0
   3   0   0  173.64    2.43   0
   3   1 -10   83.83    5.34   0
   4   1  -7   50.28    2.93   0
   4   1  -6   87.64    2.65   0
   5  -4  -1   34.51    3.88   0
   5   0  -9    9.98    3.17   0
   5   0  -4   61.35    2.59   0
   6  -4  -8    2.66    8.10   0
   6  -4  -5   27.41    4.08   0
   6  -2  -9   52.20    3.20   0
   6  -2  -4    5.83    2.26   0
   4   0  -1  127.09    2.77   0
   4   1  -8  116.04    3.66   0
   4   1  -5  288.58    3.40   0
   6  -1  -7    9.32    2.40   0
   6  -1  -6   22.98    2.49   0
   2  -1   2  323.27    3.64   0
   4  -4   1   30.14    4.40   0
   5  -3   0   28.70    3.05   0
   5  -1  -1  104.44    2.70   0
   5   0  -3   13.05    2.52   0
   6  -4  -4   45.92    3.76   0
   6  -3 -10   -0.05    8.41   0
   6  -3  -3   28.56    2.80   0
   6  -2  -3   39.75    2.53   0
   6  -1  -8   74.94    3.09   0
   6  -1  -5    1.20    2.23   0
   3   1  -2  440.42    3.50   0
   4   1  -4  245.10    3.08   0
   5  -5  -2   35.27    7.40   0
   5  -2   0  209.85    3.27   0
   5   0 -10   45.51    3.93   0
   6  -2 -10   33.23    4.22   0
   3  -4   2    4.00    5.10   0
   4   1  -9   36.93    3.58   0
   6  -1  -9    7.93    2.95   0
   6  -1  -4  149.86    2.79   0
   1  -1   2  976.70    9.42   0
   2   0   1   98.16    2.11   0
   4  -1   1   66.02    2.16   0
   4   1  -3  105.19    2.44   0
   6  -4  -3    6.88    3.78   0
   6  -3  -2   38.75    2.92   0
   6  -2  -2  122.15    3.00   0
   2   1  -1 1999.89    7.94   0
   4   0   0   45.32    2.18   0
   5  -4   0   89.47    4.87   0
   6  -1  -3  196.39    3.17   0
  -1   0  -2 1326.06    7.93   0
   3  -1   2  128.57    2.33   0
   5  -1   0   55.20    2.22   0
   6  -1 -10   12.40    3.89   0
   3   0   1   81.31    1.93   0
   3   1  -1  638.29    4.02   0
   4  -3   2   31.86    2.86   0
   4  -2   2   57.34    2.59   0
   4   1 -10   51.22    4.87   0
   5   0 -11   20.90    5.55   0
   5   1  -6  177.92    3.59   0
   6   0  -7  146.29    3.22   0
   6   0  -6  175.27    3.30   0
   4   1  -2  364.61    3.46   0
   5  -3   1   60.71    3.55   0
   5  -2   1   43.85    2.78   0
   5   1  -7   77.54    2.91   0
   5   1  -5   11.10    2.29   0
   6  -4  -2   26.06    4.66   0
   6  -3  -1    8.82    3.20   0
   6  -2  -1   82.53    2.86   0
   6  -1  -2  255.20    3.40   0
   6   0  -8    2.04    3.20   0
   6   0  -5    1.85    2.23   0
   1   0   1 1529.53    8.99   0
   5   1  -8    0.11    3.20   0
   5   1  -4   80.14    2.52   0
   6   0  -4   35.13    2.39   0
   1   1  -1 2849.60   11.76   0
   6   0  -9   -0.37    3.57   0
   7  -3  -7   26.81    9.54   0
   7  -3  -6   22.39    4.98   0
   7  -2  -7    3.81    3.27   0
   7  -2  -6   81.81    3.15   0
   7  -2  -5   15.72    2.76   0
   2  -2   3   23.83    2.47   0
   4  -1   2   86.15    2.42   0
   5   1  -3   74.15    2.52   0
   6  -1  -1  144.37    2.90   0
   6   0  -3    1.26    2.20   0
   7  -3  -5   97.34    4.37   0
   7  -2  -8   70.01    5.32   0
   3  -2   3  293.88    3.97   0
   4   0   1    4.44    1.78   0
   4   1  -1 1459.33    6.03   0
   5  -1   1   92.81    2.51   0
   5   1  -9   21.04    3.92   0
   7  -3  -4    8.39    3.64   0
   7  -2  -4    1.69    2.54   0
   2  -3   3   33.55    5.59   0
   2   2  -6  811.70    7.25   0
   3   2  -6   10.32    2.66   0
   3   2  -5   97.32    2.94   0
   5   0   0    1.00    2.31   0
   6  -4  -1   33.84    5.45   0
   6  -2   0    6.32    2.46   0
   6   0  -2   52.36    2.46   0
   7  -1  -7    4.19    2.89   0
   7  -1  -6   14.90    2.63   0
   7  -1  -5    1.62    2.41   0
   2   1   0 4759.45   11.31   0
   2   2  -5  314.13    4.46   0
   3  -3   3  135.62    4.30   0
   3   1   0 1670.36    6.04   0
   3   2  -7  272.24    4.77   0
   3   2  -4  101.75    2.70   0
   5  -4   1   49.94    5.95   0
   5   1  -2  155.59    2.97   0
   6  -3   0   46.54    3.47   0
   6   0 -10   34.18    6.07   0
   7  -3  -3   -1.33    4.04   0
   7  -2  -3   48.83    2.92   0
   7  -1  -8   45.72    4.30   0
   7  -1  -4    4.39    2.39   0
   4  -4   2   13.79    6.19   0
   6  -1   0   81.48    2.88   0
   2   2  -7  259.36    5.57   0
   2   2  -4  102.70    2.68   0
   3   0   2  411.26    3.36   0
   4   2  -6  113.67    3.46   0
   4   2  -5   34.93    2.70   0
   5  -2   2   64.86    2.68   0
   5   1 -10    4.23    5.86   0
   6   1  -6   26.61    3.03   0
   7  -2  -2   63.16    3.20   0
   7  -1  -3    3.92    2.27   0
   2   0   2  468.99    3.76   0
   3  -1   3   39.72    2.01   0
   3   2  -8   24.81    4.24   0
   3   2  -3   90.05    2.24   0
   4  -2   3   56.96    2.72   0
   4   2  -7   52.44    3.46   0
   4   2  -4   11.71    2.36   0
   5  -3   2   25.17    3.69   0
   6   0  -1   97.84    2.62   0
   6   1  -7   10.54    3.24   0
   6   1  -5    0.64    2.32   0
   7  -1  -9    6.96   10.34   0
   5  -1   2   11.85    2.34   0
   5   0   1   -0.40    2.09   0
   5   1  -1  101.92    2.85   0
   6  -2   1   43.37    3.11   0
   6   1  -4  149.37    3.06   0
   7  -3  -2   26.79    4.06   0
   7   0  -6   16.03    2.70   0
   7   0  -5   -0.89    2.66   0
   2  -1   3  149.58    2.72   0
   2   2  -3  166.30    2.88   0
   4   0   2   48.38    1.99   0
   4   2  -3    8.65    2.17   0
   6   1  -8   76.85    4.04   0
   6   1  -3  193.12    3.17   0
   7  -1  -2   14.91    2.29   0
   7   0  -7    0.61    3.06   0
   7   0  -4    3.38    2.23   0
   3   1   1   51.21    1.73   0
   4  -3   3   87.33    3.97   0
   4  -1   3  103.14    2.57   0
   4   2  -8    8.66    4.20   0
   6  -3   1   25.80    4.14   0
   6  -1   1   13.31    2.70   0
   7  -2  -1  123.11    3.49   0
   3   2  -2   59.42    1.92   0
   6   0   0  122.26    2.74   0
   7   0  -8   16.97    4.39   0
   7   0  -3    5.00    2.18   0
   4   2  -2   10.06    1.83   0
   5   1   0   45.78    2.79   0
   5   2  -6   92.94    3.19   0
   5   2  -5   55.68    2.77   0
   5   2  -4  112.63    3.15   0
   6   1  -9    8.05    5.20   0
   6   1  -2  254.58    3.32   0
   7  -3  -1   60.01    5.25   0
   7  -1  -1   52.96    2.52   0
   2   1   1  409.92    3.38   0
   5   2  -7   39.56    3.68   0
   7   0  -2   28.90    2.22   0
   1   1   0 4813.91   13.58   0
   2   2  -2  127.33    2.33   0
   5  -2   3  191.84    3.83   0
   5   0   2   40.60    2.04   0
   5   2  -3   63.22    2.48   0
   0  -1   1 1416.26   13.48   0
   3   0   3  113.93    2.30   0
   3   2  -1 1304.65    5.60   0
   4   2  -9   23.58    6.38   0
   6  -2   2    5.86    3.29   0
   6   0   1   29.62    2.23   0
   6   1  -1  136.54    2.80   0
   7  -2   0   83.40    3.53   0
   4   0   3  112.88    2.55   0
   4   2  -1  154.99    2.64   0
   5  -1   3   74.39    2.61   0
   5   1   1   83.02    2.74   0
   5   2  -8   30.67    4.40   0
   5   2  -2  215.06    3.05   0
   6  -1   2    4.71    2.62   0
   7  -1   0   12.25    2.52   0
   7   0  -1    2.00    2.04   0
   7   1  -6   16.84    3.13   0
   7   1  -5    1.90    2.71   0
   7   1  -4    2.90    2.53   0
   8  -1  -5    9.92    6.11   0
   0   1  -5  354.97    6.12   0
   3  -2   4   58.22    3.08   0
   3   1   2  113.14    2.12   0
   4   1   2   71.03    2.49   0
   5  -3   3   15.97    4.72   0
   6   1   0   73.00    2.50   0
   7  -3   0    0.60    7.04   0
   7   1  -7    2.77    4.44   0
   7   1  -3    3.34    2.26   0
   8  -1  -4    4.28    4.37   0
   0  -2   1  555.65    5.81   0
   0   1  -4  982.85   12.58   0
   2   0   3  733.00    4.65   0
   2   2  -1  218.66    2.72   0
   3   2   0  224.59    2.66   0
   4  -2   4   50.68    3.23   0
   5   2  -1  590.44    4.31   0
   6  -3   2   22.75    4.86   0
   6   2  -6   17.71    3.55   0
   6   2  -5  100.61    3.24   0
   6   2  -4    6.20    2.45   0
   8  -1  -3   14.75    3.93   0
   1   0   2 1129.36    7.36   0
   3  -1   4  128.50    2.51   0
   4  -1   4   88.30    2.67   0
   4   2   0  121.45    2.36   0
   5   0   3  123.88    2.68   0
   6   0   2    0.83    2.15   0
   6   2  -3   38.87    2.49   0
   7  -2   1   31.48    3.95   0
   7  -1   1    1.16    3.00   0
   7   0   0   47.80    2.43   0
   7   1  -2   14.94    2.26   0
   5   1   2   10.55    2.23   0
   6   2  -7    6.93    4.12   0
   8  -1  -2   32.63    4.34   0
   1   2  -4  252.15    5.11   0
   2   1   2  282.01    2.83   0
   5   2   0  180.87    3.00   0
   6   1   1   13.42    2.15   0
   6   2  -2  119.90    2.87   0
   8   0  -5   -0.48    5.52   0
   8   0  -4    3.63    3.82   0
   6  -2   3   99.06    4.22   0
   6  -1   3   25.38    2.57   0
   7   1  -1   54.95    2.41   0
   8   0  -3   31.23    3.24   0
   2   2   0  102.90    2.04   0
   5  -2   4   70.02    3.95   0
   5  -1   4  241.78    3.72   0
   6   2  -8    2.31    7.09   0
   6   2  -1   71.05    2.52   0
   7   0   1   24.64    2.29   0
   1   2  -3  394.70    5.03   0
   3   0   4   48.30    1.75   0
   3   1   3   31.21    1.67   0
   3   2   1  624.61    3.92   0
   4   0   4  490.75    3.78   0
   4   1   3   88.44    2.40   0
   8  -1  -1   13.86    3.91   0
   8   0  -2   19.15    2.99   0
   1   1   1  261.44    3.14   0
   2  -1   4  487.63    4.66   0
   4   3  -5   67.52    3.36   0
   4   3  -4   89.56    3.44   0
   5   2   1   36.02    2.42   0
   6   0   3  120.63    2.90   0
   7  -1   2    5.24    2.90   0
   7   1   0   10.83    2.11   0
   4  -3   4  357.91    8.62   0
   4   3  -3    2.88    2.15   0
   5   0   4    8.21    2.42   0
   5   1   3   62.37    2.41   0
   6   1   2    4.97    2.13   0
   6   2   0    5.72    2.12   0
   7  -2   2    0.46    4.70   0
   3   3  -5   84.90    3.59   0
   3   3  -4   45.30    2.82   0
   3   3  -3    7.96    2.23   0
   4   3  -6  215.30    5.07   0
   4   3  -2   12.63    2.32   0
   5   3  -5  111.20    3.95   0
   5   3  -4   14.42    3.20   0
   7   2  -5   16.83    3.50   0
   7   2  -4    1.86    2.97   0
   7   2  -3   47.64    2.86   0
   8   0  -1   60.12    3.43   0
   1  -1   3  623.99    7.67   0
   1   2  -2  738.62    5.82   0
   2  -2   4  600.86    7.84   0
   5   3  -3   28.54    2.54   0
   7   0   2   -0.27    2.36   0
   7   2  -6   90.37    5.93   0
   8  -1   0    8.77    4.75   0
   8   1  -4    4.70    5.12   0
   2   2   1   59.56    1.75   0
   3   2   2   32.25    1.94   0
   3   3  -2   30.01    2.28   0
   4   3  -1  101.45    2.75   0
   5   3  -6   31.38    4.61   0
   5   3  -2   11.56    2.27   0
   6  -1   4   26.92    3.27   0
   7   1   1    0.46    2.05   0
   7   2  -2   60.17    2.83   0
   8   1  -3   14.69    3.90   0
   2   1   3  138.36    2.17   0
   4  -1   5    5.83    2.08   0
   4   1   4   81.08    2.28   0
   5   2   2   50.15    2.37   0
   6   2   1   39.50    2.27   0
   8   0   0   12.15    3.30   0
   8   1  -2   30.91    3.36   0
   2   0   4   20.10    1.48   0
   3   3  -6   28.18    4.02   0
   3   3  -1   48.79    2.26   0
   4   3  -7   91.00    6.20   0
   5   3  -1   35.45    2.37   0
   6  -2   4   19.90    4.89   0
   6   1   3   24.75    2.19   0
   7  -1   3    2.37    3.69   0
   7   2  -1  131.38    3.09   0
   3  -1   5  507.20    4.55   0
   3   1   4  117.29    2.22   0
   4  -2   5   37.16    3.88   0
   4   0   5  373.21    3.65   0
   4   3   0   13.76    1.97   0
   5  -1   5   73.84    3.38   0
   5   1   4  227.60    3.03   0
   6   0   4  185.27    3.29   0
   6   3  -4   48.07    3.86   0
   6   3  -3   30.24    3.33   0
   8  -1   1    1.79    7.50   0
   1   2  -1  352.84    3.70   0
   5   3  -7    9.48    6.62   0
   6   3  -5   81.87    4.53   0
   6   3  -2   41.61    3.07   0
   7   0   3   -0.04    2.77   0
   7   1   2    3.28    2.27   0
   7   2   0   79.26    2.60   0
   8   1  -1   16.04    3.04   0
   3   0   5  394.43    3.54   0
   3   3   0  331.67    3.44   0
   5   0   5  369.52    3.92   0
   5   2   3  171.57    2.91   0
   5   3   0   25.09    2.26   0
   6   2   2    4.73    2.08   0
   8   0   1    1.95    3.72   0
   1   0   3  128.83    2.54   0
   1   1   2  887.19    5.08   0
   2   2   2   54.79    1.69   0
   5  -2   5   -0.22    4.73   0
   6   3  -6   47.85    6.52   0
   6   3  -1   10.85    2.32   0
   8   1   0    9.24    3.42   0
   2   3  -3   17.84    2.16   0
   3  -2   5    3.01    3.30   0
   4   3   1   47.21    2.16   0
   6   1   4   25.82    2.29   0
   2   3  -4  200.09    3.92   0
   2   3  -2  197.02    3.12   0
   4   1   5    5.67    1.85   0
   5   3   1   55.90    2.33   0
   6   3   0   43.03    2.40   0
   7   2   1   29.67    2.26   0
   1   2   0  219.73    2.80   0
   2   1   4  508.04    3.55   0
   3   3   1    6.83    1.75   0
   6  -1   5   42.89    3.97   0
   6   2   3   96.82    2.52   0
   7   1   3    1.44    2.42   0
   2   3  -1   72.89    2.07   0
   4   2   4   39.65    2.43   0
   4   3   2   26.17    2.15   0
   5   1   5   68.02    2.40   0
   6   0   5   21.72    2.58   0
   7  -1   4   35.76    4.94   0
   7   0   4    5.90    3.38   0
   8   0   2   -1.27    5.74   0
   8   1   1    2.14    3.46   0
   0  -1   0   -0.08    1.32   0
   3   1   5  470.52    3.57   0
   5   2   4   66.06    2.38   0
   5   3   2   20.15    2.18   0
   6   3   1   23.07    2.20   0
   7   2   2    1.04    2.20   0
   7   3  -3    0.40    4.24   0
   2   2   3   19.11    1.49   0
   2   3  -5   29.43    3.97   0
   2   3   0  109.13    2.28   0
   4  -1   6  105.38    3.19   0
   4   0   6   91.26    2.75   0
   7   3  -4   11.60    5.68   0
   7   3  -2   26.78    3.32   0
   8   2  -1   12.22    4.89   0
   2  -1   5  338.53    4.11   0
   2   0   5   80.26    2.14   0
   3   3   2   46.82    2.11   0
   5  -1   6    1.22    3.67   0
   5   0   6    5.06    2.77   0
   6   1   5   38.85    2.82   0
   7   3  -1   59.74    3.08   0
   1   2   1 1362.33    6.44   0
   6   2   4   19.89    2.05   0
   7   1   4   35.85    2.71   0
   8   1   2    0.31    3.96   0
   8   2   0    3.49    4.80   0
   1   1   3  659.24    4.15   0
   3   0   6  117.32    2.60   0
   4   2   5   32.21    2.12   0
   4   3   3   77.27    2.49   0
   5   3   3   15.02    2.06   0
   6   3   2   21.86    2.10   0
   7   2   3    7.04    2.56   0
   7   3   0    0.77    2.60   0
   2   3   1   55.42    1.90   0
   3  -1   6  179.81    3.58   0
   4   1   6  103.13    2.36   0
   4   4  -3    2.51    3.23   0
   4   4  -2   90.60    3.53   0
   5   1   6    0.66    2.41   0
   5   2   5   -0.18    1.99   0
   5   4  -3    0.78    3.74   0
   5   4  -2   29.67    3.44   0
   0  -1  -1 1241.62    7.52   0
   3   3   3  114.63    2.69   0
   4   4  -1  147.85    3.21   0
   5   4  -1   32.47    2.69   0
   7   3   1    0.33    2.75   0
   8   2   1    5.88    5.25   0
   2   1   5  331.58    3.00   0
   2   2   4  564.92    3.64   0
   3   1   6  168.54    2.73   0
   3   2   5    2.67    2.12   0
   4   4  -4   20.91    4.14   0
   4   4   0   12.19    2.46   0
   5   4  -4   91.49    4.75   0
   5   4   0   83.03    3.19   0
   6   0   6   10.75    3.04   0
   6   3   3   52.72    2.27   0
   7   0   5    1.07    4.20   0
   1   2   2  151.04    2.19   0
   2   3   2  579.21    3.76   0
   4   3   4  393.13    3.60   0
   5   3   4   79.63    2.55   0
   6  -1   6   18.03    5.24   0
   6   2   5   26.25    2.20   0
   8   1   3    7.20    8.46   0
   1   0   4    2.37    1.24   0
   3   4  -2   34.64    2.89   0
   3   4  -1   14.93    2.55   0
   4   4   1   26.02    2.60   0
   5   4   1   47.95    2.91   0
   6   1   6   18.09    3.03   0
   6   4  -3   10.85    4.78   0
   6   4  -2   26.87    3.71   0
   6   4  -1   32.88    3.54   0
   7   1   5   32.96    3.53   0
   7   2   4   33.42    2.61   0
   3   4  -3   83.09    3.26   0
   4  -2   6   19.64    5.96   0
   4   0   7    2.68    2.64   0
   7   3   2    3.41    2.54   0
   8   2   2    2.47    6.04   0
   3   4   0   29.03    2.22   0
   4   2   6   20.90    2.05   0
   4   4  -5  202.13    6.93   0
   5   0   7  163.18    3.94   0
   5   2   6   43.28    2.40   0
   6   4   0   21.17    2.85   0
   1   1   4  800.62    4.37   0
   2   3   3   28.96    1.99   0
   3   4   1   19.76    2.48   0
   4   1   7   20.10    2.45   0
   4   4   2   14.64    2.22   0
   5   4   2   13.28    2.20   0
   6   3   4   65.28    2.42   0
   1  -2   2  141.42    4.13   0
   1   2   3   67.39    1.74   0
   2   0   6  994.95    5.38   0
   2   2   5  322.24    3.13   0
   3   2   6   29.47    2.17   0
   3   4  -4   23.34    3.90   0
   4  -1   7   20.18    3.94   0
   4   3   5  178.12    2.89   0
   5   1   7    0.39    2.40   0
   5   3   5   25.95    2.19   0
   6   4   1   19.30    2.65   0
   7   3   3    0.29    2.46   0
   3   0   7    3.81    2.20   0
   5  -1   7    0.59    4.97   0
   6   2   6   69.00    2.69   0
   1  -1   4  734.08    7.96   0
   1   3  -1  737.81    5.08   0
   2   1   6   35.83    1.74   0
   3   1   7   19.37    2.19   0
   3   3   5  172.33    3.18   0
   3   4   2    3.46    2.13   0
   4   4   3   64.93    2.40   0
   5   4   3   34.64    2.34   0
   6   4   2   40.08    2.69   0
   7   2   5   97.48    3.45   0
   1   3  -2  299.27    3.90   0
   1   3   0  257.86    2.95   0
   6   0   7   16.13    4.31   0
   6   3   5   93.87    2.66   0
   4   2   7   67.10    2.46   0
   5   2   7  163.37    3.40   0
   6   1   7    5.42    3.04   0
   7   1   6   10.31    4.43   0
   1   3   1  656.75    4.12   0
   2  -1   6   37.27    2.76   0
   2   4  -1   60.30    2.66   0
   2   4   0  138.61    2.95   0
   3   4   3   48.55    2.23   0
   4   3   6   68.72    2.44   0
   5   3   6   92.64    2.49   0
   6   4   3    8.84    2.44   0
   7   3   4   29.65    3.14   0
   7   4   0    2.34    7.43   0
   0   1  -1  993.59   11.92   0
   0   1   0    0.79    1.38   0
   1   2   4  412.51    3.17   0
   2   2   6   21.08    2.00   0
   2   4  -2  322.23    4.39   0
   3  -1   7   18.40    3.05   0
   4   4   4    4.96    2.15   0
   5   4   4  169.10    2.83   0
   1   0   5   51.86    1.76   0
   1   1   5 1268.74    5.39   0
   1   3   2  893.63    4.60   0
   2   4   1   47.19    2.14   0
   3   2   7  131.45    2.59   0
   4   1   8    3.76    2.71   0
   1   3  -3  292.45    4.92   0
   3   3   6  172.12    2.92   0
   3   4   4  178.19    2.93   0
   4   0   8   64.45    3.49   0
   5   0   8   70.74    4.65   0
   5   1   8    7.26    3.25   0
   6   2   7    8.19    2.77   0
   7   2   6   14.59    4.93   0
   0   1   1 1235.86    7.70   0
   2   1   7    6.29    2.01   0
   2   4   2    4.16    1.89   0
   6   3   6   51.28    2.62   0
   6   4   4   -0.05    2.54   0
   7   4   2    1.49    6.52   0
   1   3   3  739.92    4.22   0
   2   0   7    1.33    2.02   0
   2   4  -3  160.46    4.11   0
   3   1   8   12.03    2.50   0
   4   4   5   99.07    2.64   0
   5   4   5   64.18    2.54   0
   7   3   5   45.60    4.62   0
   1   2   5  452.98    3.47   0
   2   4   3   52.43    2.17   0
   3   0   8   36.54    2.94   0
   4   2   8  165.91    3.17   0
   4   3   7  128.38    2.84   0
   4   5  -1   22.03    4.19   0
   4   5   0   84.44    4.14   0
   5   2   8   92.07    3.35   0
   5   3   7   38.41    2.41   0
   5   5  -1  103.06    5.43   0
   5   5   0   23.41    4.40   0
   3   4   5  225.44    3.20   0
   4   5   1   57.75    3.33   0
   5   5   1    2.47    3.46   0
   6   1   8   20.74    4.90   0
   0   1   2 1406.83    7.58   0
   2   2   7  176.27    2.77   0
   3   2   8   11.61    2.28   0
   3   3   7   36.99    2.49   0
   4   5  -2    7.29    5.36   0
   4   5   2   83.75    3.51   0
   5   5   2   48.17    3.71   0
   6   4   5   31.39    3.03   0
   0   0   1  781.14   10.78   0
   1   1   6  269.46    2.98   0
   1   3   4   43.27    2.36   0
   2   4   4   20.55    2.34   0
   4   4   6  129.05    2.90   0
   5   4   6   22.88    2.51   0
   6   3   7   22.11    3.47   0
   3   5   0    7.00    3.61   0
   3   5   1   17.58    3.41   0
   4   5   3    4.37    3.16   0
   6   2   8   14.61    4.50   0
   0   2   0 2512.98   10.65   0
   0   2   1  707.51    5.02   0
   1   2   6   34.67    2.19   0
   3   4   6  105.32    2.94   0
   4   3   8    8.20    2.52   0
   5   5   3    3.26    3.25   0
  -4  -3   6  236.43    2.61   0
  -2  -4  13    2.48    2.25   0
  -2  -2  13    1.94    1.06   0
  -2  -1  12  131.36    1.55   0
  -2   0  10   36.89    1.26   0
  -1  -2  14    7.32    1.19   0
  -1   1   6  616.90    2.59   0
   0   1   9  237.89    1.95   0
   1   1   9  256.44    2.20   0
  -4  -3   7  103.83    1.82   0
  -3  -1  10   74.83    1.37   0
  -1   1   5  126.82    1.31   0
  -1   1   7  412.99    2.14   0
   2   1   8    8.25    1.34   0
  -4  -3   5   73.95    1.86   0
  -4  -3   8   47.45    1.50   0
  -3  -3  12   14.72    1.28   0
  -1   0  12  555.43    2.64   0
  -1   1   8   98.62    1.30   0
   0   1   3  699.49    3.45   0
  -4  -4   6    2.33    2.44   0
  -4  -4   7    3.06    2.20   0
  -4  -2   6  109.81    1.57   0
  -4  -2   7   44.44    1.31   0
  -4  -2   8    9.05    1.27   0
  -3  -2  12   17.93    1.10   0
   0  -1  14    5.45    1.32   0
   1  -1  14    1.10    2.02   0
  -4  -4   8   40.69    2.45   0
  -4  -3   9    3.64    1.35   0
  -4  -2   5   34.27    1.31   0
  -3  -4  12   13.85    2.73   0
  -3  -1  11   63.14    1.25   0
  -3   0   6   10.49    0.94   0
  -3   0   7   71.26    1.36   0
  -2  -3  14    4.98    1.66   0
  -2  -1  13   16.94    1.01   0
  -2   0   2 5104.86    7.80   0
  -2   0  11  348.66    2.10   0
  -1   1   4  431.48    2.13   0
  -1   1   9  101.26    1.32   0
   0   1  10    2.51    0.95   0
   1   1  10   98.83    1.70   0
   2   0  12    2.31    2.18   0
  -4  -3   4   86.40    1.99   0
  -4  -2   9   26.13    1.20   0
  -3  -2   1 1224.61    6.29   0
  -3   0   8   44.29    1.32   0
  -1  -1  14    0.83    1.11   0
   0   0  13   31.86    1.36   0
   2   1   9  232.68    2.80   0
  -4  -4   5  191.17    3.69   0
  -4  -3  10   13.24    1.51   0
  -3  -1   2  396.72    2.41   0
  -3   0   5    3.52    0.78   0
  -3   0   9   16.36    1.16   0
  -2  -2  14   24.55    1.17   0
  -1   1  10   60.40    1.34   0
   1   0  13    0.59    1.64   0
  -4  -4   9    7.89    2.35   0
  -4  -2   4    9.93    1.10   0
  -4  -2  10    4.84    1.25   0
  -3  -3  13    7.41    1.48   0
  -3  -1  12   69.19    1.26   0
  -2   0  12   98.80    1.37   0
  -2   1   7  154.91    1.61   0
  -1  -2  15   18.86    2.22   0
  -1   0  13   45.79    1.23   0
  -4  -1   6   79.35    1.41   0
  -4  -1   7   44.48    1.24   0
  -4  -1   8   97.37    1.42   0
  -3  -2  13   11.54    1.10   0
  -3   0   4  666.30    2.56   0
  -3   0  10    1.25    0.99   0
  -2   1   6   65.59    1.15   0
  -2   1   8  103.46    1.50   0
   0   1  11  122.68    1.62   0
  -4  -1   9   31.12    1.29   0
  -2   1   5  590.45    2.34   0
  -2   1   9   81.20    1.34   0
  -1   1   3 1728.75    4.42   0
   1   1  11  376.17    2.84   0
  -4  -3  11    1.96    1.42   0
  -4  -2  11   25.53    1.43   0
  -4  -1   5  287.79    2.07   0
  -2  -1  14    1.77    1.05   0
  -1   1  11  703.87    2.92   0
  -4  -1  10   48.29    1.25   0
  -3   0  11  221.95    1.80   0
  -2   1  10   99.45    1.38   0
   0  -1  15    1.71    2.40   0
   2   1  10   73.10    2.56   0
  -4  -3   3    2.54    2.00   0
  -3  -1  13   44.89    1.22   0
  -2   0  13   45.14    1.15   0
  -2   1   4  271.53    1.65   0
  -1  -1  15   10.63    1.64   0
   0   0  14    8.83    1.48   0
   0   1  12   88.87    1.73   0
   2   0   1   85.20    1.47   0
  -4  -2   3    7.06    1.23   0
  -4  -1   4  253.87    1.99   0
  -3  -2  14   23.57    1.66   0
  -3   0   3  149.22    1.36   0
  -1   0  14    8.35    1.20   0
  -1   1  12    9.08    1.24   0
   0   1   2 1375.82    5.19   0
  -4  -3  12   38.25    2.47   0
  -4  -2  12   25.86    1.34   0
  -4  -1  11   65.22    1.31   0
  -3   0  12  170.85    1.60   0
  -2   1  11   12.67    1.05   0
  -4   0   7  114.72    1.54   0
  -4   0   8    2.79    0.99   0
  -3   1   8    9.20    1.30   0
   0  -1  -1 1466.73    5.90   0
   1   1  12    4.40    1.82   0
  -4   0   6   44.22    1.26   0
  -4   0   9   14.87    1.08   0
  -3   1   9   25.15    1.16   0
  -2  -1  15   58.23    2.03   0
  -2   0   1 2700.03    6.18   0
  -4  -1  12   55.45    1.34   0
  -3  -1  14    7.72    1.17   0
  -2   0  14    0.94    1.10   0
  -2   1   3  350.54    1.86   0
  -2   1  12  132.19    1.55   0
  -1   1   2  870.86    3.39   0
   0   2   7  119.30    1.55   0
  -4   0   5  159.35    1.59   0
  -4   0  10    3.38    0.99   0
  -3  -1   1  657.51    3.78   0
  -3   0  13    1.14    0.98   0
  -3   1   5  170.87    1.52   0
  -3   1  10   70.13    1.30   0
  -1   1  13   22.88    1.45   0
  -1   2   7  719.14    2.84   0
  -1   2   8   76.62    1.39   0
   0   1  13   79.44    1.91   0
   0   2   8   62.75    1.27   0
  -5  -2   8   28.61    1.77   0
  -4  -2  13   18.46    1.67   0
  -4  -1   3  108.83    1.50   0
  -1   2   6  122.34    1.41   0
  -1   2   9  103.68    1.52   0
   0   2   6  271.54    1.90   0
   0   2   9  146.50    1.76   0
  -5  -2   7   36.64    1.77   0
  -5  -2   9    8.75    1.68   0
  -4   0  11  107.11    1.40   0
  -3   0   2   63.86    1.02   0
  -3   1  11   61.54    1.25   0
  -1   0  15    2.01    2.08   0
  -5  -3   8   42.45    2.84   0
  -5  -2   6   87.30    2.12   0
  -4  -1  13    6.57    1.20   0
  -2   1  13   17.37    1.14   0
  -1   2  10  103.60    1.49   0
   0   2   5 1841.86    4.85   0
   0   2  10   13.26    1.37   0
  -5  -3   7   10.94    2.57   0
  -5  -2  10   11.88    1.56   0
  -5  -1   8    0.83    1.30   0
  -4   0   4  162.19    1.48   0
  -3   1   4  529.81    2.17   0
  -2   2   7  194.95    1.68   0
  -2   2   8   95.20    1.37   0
  -2   2   9  168.35    1.68   0
  -1   2   5  877.43    2.90   0
   1   2   7    3.41    1.15   0
   1   2   8    0.35    1.25   0
  -5  -1   7   73.05    1.49   0
  -5  -1   9   20.23    1.28   0
  -4   0  12   12.08    1.02   0
  -3  -1  15   25.50    2.69   0
  -3   0  14   40.00    1.31   0
  -3   1  12   67.69    1.23   0
  -2   0  15    9.10    1.71   0
  -2   2   6  582.64    2.42   0
  -5  -2  11   40.05    2.10   0
  -5  -1   6  170.73    2.00   0
  -5  -1  10    2.33    1.24   0
  -4  -2   2    8.32    1.48   0
  -4   1   8   89.25    1.40   0
  -2   2  10   48.47    1.22   0
  -1   1  14    2.01    1.40   0
  -1   2  11   29.29    1.20   0
   0   2  11   56.68    1.61   0
   1   2   6   30.25    1.17   0
   1   2   9   14.49    1.49   0
  -5  -2   5   50.53    1.96   0
  -4   1   7   40.04    1.23   0
  -4   1   9   28.93    1.14   0
  -2   1   2  549.29    2.29   0
  -1   0   0  827.77    5.01   0
   0   1  14    5.54    2.29   0
   1   1   2  816.12    6.97   0
  -5  -1  11   36.11    1.46   0
  -4  -1  14   34.92    2.23   0
  -4   0  13   47.19    1.29   0
  -4   1   6   75.96    1.28   0
  -4   1  10   47.08    1.19   0
  -3   1   3   97.44    1.13   0
  -3   1  13   42.75    1.19   0
  -2   1  14    1.56    1.38   0
  -2   2   5  251.39    1.59   0
  -2   2  11   30.22    1.18   0
  -1   2   4  252.51    1.62   0
  -5  -1   5   11.08    1.31   0
  -5   0   8    4.75    1.12   0
  -4  -1   2  401.69    2.66   0
  -4   0   3    4.99    0.81   0
  -3   2   8   20.31    1.21   0
  -1   2  12   17.51    1.45   0
   0   2   4 1852.40    4.77   0
   1   2  10   59.44    2.02   0
  -5   0   7    4.56    1.04   0
  -5   0   9    7.19    1.11   0
  -4   1   5  266.12    1.75   0
  -4   1  11   64.25    1.26   0
  -3   2   7  199.58    1.80   0
  -3   2   9   61.27    1.28   0
  -5  -1  12   89.01    2.08   0
  -5   0   6   39.59    1.37   0
  -5   0  10   36.92    1.26   0
  -3   2  10   81.45    1.35   0
  -2   2   4   80.91    1.08   0
  -2   2  12   14.22    1.14   0
   0   2  12    5.75    1.60   0
   1   2   5  433.89    3.31   0
  -4   1  12   51.90    1.24   0
  -3   0   1   89.41    1.22   0
  -5  -2   4  103.04    2.51   0
  -5   0  11   16.86    1.16   0
  -4   0  14    2.47    1.58   0
  -3   1  14    7.96    1.24   0
  -3   2  11   82.60    1.34   0
  -1   1   1 2801.70    5.98   0
   1   2  11  132.10    2.84   0
  -5  -1   4   82.54    1.64   0
  -5   0   5    9.78    1.21   0
  -4   1   4  227.13    1.63   0
  -1   2   3  399.78    1.97   0
  -1   2  13   25.18    1.67   0
  -5   0  12   21.80    1.45   0
  -3   1   2  407.76    1.98   0
  -3   2  12   16.47    1.10   0
  -2   1  15   67.64    3.01   0
  -2   2  13    2.40    1.18   0
  -5   1   8    1.37    1.06   0
  -5   1   9   19.95    1.28   0
  -4   0   2  981.74    3.79   0
  -4   1  13    6.57    1.09   0
  -4   2   8    7.20    1.06   0
  -4   2   9   24.43    1.13   0
  -2   2   3  137.81    1.24   0
   0   2   3  169.62    1.54   0
  -5   1   7   70.01    1.34   0
  -5   1  10    2.66    1.05   0
  -4   2   7   37.29    1.19   0
  -4   2  10    4.59    0.98   0
  -2   1   1 2013.11    4.58   0
   0   1   1 1406.46    5.57   0
   0   2  13   24.34    2.66   0
  -5   0   4   69.34    1.43   0
  -4   1   3  105.14    1.26   0
  -4   2   6   91.75    1.37   0
  -1   3   7   57.54    1.31   0
  -1   3   8  128.58    1.62   0
  -1   3   9    9.99    1.28   0
  -5   0  13   17.32    2.76   0
  -5   1   6  176.83    1.68   0
  -5   1  11   33.34    1.24   0
  -4   2  11   26.19    1.12   0
  -3   2  13   11.23    1.18   0
  -2   3   7  101.86    1.37   0
  -2   3   8   31.07    1.18   0
  -2   3   9   40.33    1.25   0
   1   2   4  417.19    3.34   0
  -5  -1   3   81.15    1.81   0
  -4   1  14   37.43    2.34   0
  -2   2  14   29.50    2.12   0
  -2   3  10   93.37    1.49   0
  -1   3   6  160.14    1.49   0
  -1   3  10  101.49    1.61   0
   2   1   4  418.68    5.45   0
  -6  -1   8   71.76    2.38   0
  -6  -1   9    6.49    2.38   0
  -5   1   5   11.15    1.06   0
  -4   2   5   28.47    1.13   0
  -3   2   3   77.42    1.17   0
  -2   3   6   29.03    0.99   0
   0   3   7  203.28    2.04   0
   0   3   8  170.42    1.99   0
   0   3   9  118.13    2.03   0
  -6  -1   7    7.80    2.12   0
  -5   1  12   80.71    1.62   0
  -4   2  12   25.50    1.17   0
  -3  -1   0 1655.85    7.11   0
  -3   3   8   22.42    1.13   0
  -3   3   9   10.38    1.09   0
  -2   3  11   42.93    1.37   0
  -1   2   2  713.69    2.88   0
  -1   3  11  106.35    1.97   0
  -6   0   8    1.29    1.59   0
  -4  -1   1 1541.11    6.34   0
  -3   3   7   67.84    1.32   0
  -3   3  10    8.24    1.03   0
  -2   2   2  101.47    1.10   0
  -2   3   5   24.42    0.97   0
  -1   3   5   18.85    0.85   0
   0   3   6   98.11    1.51   0
   0   3  10   53.38    2.00   0
  -6   0   7  135.99    2.11   0
  -6   0   9    0.36    1.48   0
  -5   0   3   13.22    1.19   0
  -4   1   2  382.32    2.10   0
  -4   2   4    7.85    1.00   0
  -3   1   1  626.31    2.47   0
  -3   2  14   24.79    2.20   0
  -3   3   6   23.77    1.13   0
  -6  -1   6   20.48    2.21   0
  -6   0  10   29.44    1.85   0
  -5   1   4   83.95    1.35   0
  -5   2   8   24.73    1.10   0
  -5   2   9    8.60    0.98   0
  -4   2  13   15.86    1.44   0
  -3   3  11   12.78    1.14   0
  -2   3  12   31.49    1.66   0
  -5   2   7   33.74    1.14   0
  -5   2  10    9.68    1.11   0
  -4   0   1  138.50    1.57   0
  -3   3   5   60.88    1.36   0
  -2   3   4  173.28    1.46   0
  -1   3  12    2.92    1.79   0
  -6   0   6  167.21    2.13   0
  -5   2   6   81.08    1.37   0
  -4   3   8   39.69    1.21   0
  -4   3   9    1.99    1.17   0
  -3   0   0  162.07    1.63   0
  -3   2   2   53.25    1.01   0
  -1   3   4  324.01    1.85   0
   0   2   2  704.77    3.25   0
   0   3   5   81.67    1.31   0
   0   3  11   89.82    2.59   0
   1   0   1 1564.71    6.98   0
  -5   2  11   35.99    1.27   0
  -4   2   3    6.62    0.94   0
  -4   3   7   82.46    1.37   0
  -4   3  10   11.18    1.09   0
  -3   3  12   13.40    1.31   0
  -6  -1   5    1.24    2.34   0
  -6   1   7   10.52    1.48   0
  -6   1   8   65.32    1.59   0
  -6   1   9    5.11    1.38   0
  -5   1   3   78.12    1.45   0
  -5   2   5   50.23    1.23   0
  -4   3   6  189.52    1.69   0
  -6   0   5    1.27    1.58   0
  -6   1  10    9.76    1.53   0
  -5   2  12   76.45    1.99   0
  -4   3  11    2.79    1.12   0
  -2  -2   0   97.23    2.11   0
  -2   1   0 5120.14    7.40   0
  -2   3  13   13.25    2.34   0
  -6   1   6   22.94    1.52   0
  -5  -1   2  170.30    2.52   0
  -5   0   2    1.01    1.10   0
  -4   3   5   63.73    1.31   0
  -2   2   1  215.07    1.48   0
  -2   3   3   15.07    0.90   0
   0  -1   0    4.41    0.58   0
  -6   1  11   39.60    2.87   0
  -4   1   1 1678.08    4.58   0
  -3   3  13    9.30    2.31   0
  -1   2   1  360.30    1.94   0
  -1   3   3  288.23    1.77   0
   0   3   4  283.28    2.00   0
  -5   2   4  107.48    1.44   0
  -4   2   2    8.93    0.88   0
  -4   3  12   35.60    1.59   0
   1   2   3   66.22    1.55   0
  -6   1   5    0.74    1.35   0
  -4   3   4   83.57    1.41   0
  -3   1   0 1785.27    4.49   0
  -3   2   1 1251.75    3.31   0
  -2   4   7   53.11    1.46   0
  -2   4   8  148.74    1.83   0
  -2   4   9   55.52    1.62   0
   1   3   7  100.43    2.35   0
   1   3   8   95.37    2.65   0
  -6   0   4   34.55    1.81   0
  -5   1   2  178.81    1.82   0
  -5   3   7   10.29    1.04   0
  -5   3   8   38.89    1.18   0
  -5   3   9   14.51    1.14   0
  -3   4   8    7.12    1.34   0
  -6  -1   4  124.22    3.39   0
  -6   2   7    7.16    1.41   0
  -6   2   8    1.28    1.19   0
  -6   2   9   45.77    1.56   0
  -5   3   6   27.64    1.31   0
  -5   3  10    6.07    1.13   0
  -3   4   7  124.51    1.62   0
  -3   4   9   39.16    1.31   0
  -2   3   2  172.98    1.46   0
  -2   4   6   11.18    1.06   0
  -2   4  10   12.65    1.41   0
  -1   4   7   38.66    1.53   0
  -1   4   8   95.13    1.74   0
  -1   4   9   24.78    1.66   0
  -6   2  10   26.10    1.81   0
  -5   2   3   61.99    1.28   0
  -3   4   6  198.44    1.77   0
  -3   4  10    5.41    1.31   0
  -1   4   6  168.79    1.86   0
   1   3   6  115.99    2.23   0
  -6   1   4  144.87    1.86   0
  -6   2   6   17.58    1.26   0
  -5   3  11    1.34    1.47   0
  -4   3   3    1.68    1.06   0
  -2   4   5  189.16    1.72   0
  -1   3   2  302.20    1.79   0
  -1   4  10   30.36    2.06   0
   0   3   3   84.28    1.26   0
  -5   3   5  109.64    1.46   0
  -4   0   0   47.44    1.23   0
  -4   4   8   39.25    1.43   0
  -3   4   5  121.04    1.50   0
  -2   4  11   12.94    1.70   0
  -6   2   5   96.66    1.58   0
  -4   2   1  154.67    1.50   0
  -4   4   7    2.72    1.03   0
  -4   4   9    7.64    1.22   0
  -3   4  11   23.88    1.64   0
  -2   2   0  100.31    1.14   0
  -1   4   5  117.90    1.51   0
  -6   0   3    0.96    1.87   0
  -5   0   1    1.67    1.33   0
  -5   3   4   11.58    1.06   0
  -4   1   0  970.73    3.43   0
  -4   4   6    1.24    1.04   0
  -4   4  10   -0.17    1.22   0
  -2   4   4  108.37    1.38   0
   0   2   1  579.53    3.05   0
  -5   2   2  220.59    1.87   0
  -3   2   0  226.36    1.60   0
  -3   4   4   21.76    1.15   0
  -2   0  -1   90.43    1.54   0
  -1   4  11    3.61    2.95   0
   1   3   5  549.45    3.78   0
  -6   1   3  200.82    2.28   0
  -6   2   4    5.39    1.40   0
  -5   1   1  112.11    1.58   0
  -4   3   2   12.82    1.10   0
  -4   4   5  205.70    1.79   0
  -2   3   1   63.56    1.11   0
  -1   2   0  220.63    1.61   0
  -1   4   4  161.46    1.60   0
   0   4   7   21.31    1.73   0
   0   4   8  179.84    2.81   0
  -6   3   8   92.44    1.91   0
  -4   4  11   22.60    2.07   0
  -6   3   7   46.71    1.50   0
  -6   3   9    8.07    1.74   0
  -5   3   3   28.76    1.19   0
  -4  -1   0  835.61    6.72   0
  -4   4   4   16.83    1.13   0
  -3   0  -1   79.04    1.42   0
  -3   4   3   73.56    1.40   0
  -2   1  -1  394.90    2.21   0
  -2   4   3  142.87    1.48   0
   0   4   6  102.10    1.80   0
   0   4   9   70.09    2.84   0
  -6   3   6   45.26    1.45   0
  -5   4   7  107.62    1.65   0
  -5   4   8   15.71    1.27   0
  -5   4   9    9.98    1.50   0
  -3   1  -1   56.25    1.10   0
  -1   3   1  713.83    2.65   0
   0   3   2  283.13    1.98   0
  -6   2   3   39.10    1.63   0
  -5   4   6   64.57    1.36   0
  -4   2   0  136.43    1.46   0
  -1   4   3   54.96    1.28   0
   0   1   0    0.48    0.55   0
   0   4   5  305.07    2.46   0
  -6   3   5   72.72    1.58   0
  -5  -1   1   92.01    3.47   0
  -5   2   1  654.82    2.96   0
  -5   4  10    6.29    2.14   0
  -4   3   1   96.82    1.43   0
  -4   4   3    2.81    1.07   0
  -6   0   2   54.26    2.56   0
  -6   1   2  262.41    2.65   0
  -5   3   2   14.06    1.15   0
  -5   4   5   88.31    1.41   0
  -3   4   2   27.52    1.26   0
  -2   4   2  281.92    1.93   0
   1   3   4   41.69    1.53   0
  -3   5   7   47.39    1.80   0
  -3   5   8   43.15    1.87   0
  -2   2  -1   64.29    1.03   0
  -2   3   0   95.47    1.28   0
  -2   5   7   14.18    1.78   0
  -1   1  -1  276.91    2.08   0
  -6   3   4   43.48    1.51   0
  -5   1   0   57.37    1.51   0
  -5   4   4   81.06    1.42   0
  -3   2  -1  683.37    2.68   0
  -3   5   6    2.52    1.24   0
  -2   5   6   15.31    1.53   0
  -2   5   8   59.02    1.91   0
   0   4   4    9.23    1.18   0
  -6   2   2  123.50    2.04   0
  -4   1  -1   63.89    1.34   0
  -4   4   2   73.39    1.41   0
  -3   5   5  162.69    1.97   0
  -3   5   9   15.82    1.80   0
  -2   5   9    5.22    2.15   0
  -1   4   2  210.21    1.72   0
   1   2   2  145.31    2.20   0
  -7   2   6   74.82    3.64   0
  -5   0   0    0.84    1.64   0
  -4   5   7    4.96    1.34   0
  -4   5   8   33.25    1.84   0
  -2   5   5   78.59    1.56   0
  -6   3   3   29.35    1.47   0
  -5   2   0  199.38    2.05   0
  -5   3   1   34.01    1.32   0
  -5   4   3    1.50    1.06   0
  -4   0  -1    1.48    1.15   0
  -4   3   0   12.00    1.10   0
  -4   5   6   57.03    1.52   0
  -3   4   1   11.70    1.28   0
  -3   5  10   30.11    4.04   0
  -2   4   1   50.16    1.31   0
  -1   3   0  240.74    1.69   0
  -7   2   5   17.29    2.90   0
  -6   4   7    5.59    1.85   0
  -6   4   8    2.63    3.46   0
  -4   2  -1   11.96    0.99   0
  -4   5   5   23.73    1.23   0
  -4   5   9    9.74    2.24   0
  -3   5   4  116.07    1.67   0
  -2   5   4   61.56    1.45   0
  -1   0  -1 1584.89    7.74   0
  -1   2  -1 1455.24    4.23   0
  -1   5   6  250.86    2.75   0
  -1   5   7  135.18    2.58   0
  -1   5   8    0.88    2.43   0
   0  -1   1 1234.79    5.34   0
   0   2   0 2846.40    6.41   0
   0   3   1  186.35    1.66   0
   0   4   3  138.03    1.76   0
  -6   1   1  148.38    2.71   0
  -6   4   6   18.50    1.58   0
  -1   5   5  240.85    2.52   0
   1   0   2 1188.22    6.04   0
  -6   4   5   24.19    1.55   0
  -4   4   1  130.78    1.66   0
  -4   5   4   49.10    1.34   0
  -3   3  -1    5.73    1.21   0
  -3   5   3    1.47    1.12   0
   1   3   3  706.31    4.77   0
  -7   2   4    1.36    2.78   0
  -6   2   1   79.33    2.01   0
  -6   3   2   39.75    1.52   0
  -5   4   2   26.53    1.25   0
  -2   3  -1   50.14    1.08   0
  -2   5   3  103.53    1.63   0
  -1   4   1   38.05    1.18   0
  -6   4   4   39.18    1.72   0
  -5   5   6    6.06    1.48   0
  -5   5   7    3.60    1.80   0
  -5   5   8   -0.02    3.47   0
  -3   1  -2  118.84    1.54   0
  -3   4   0   23.33    1.45   0
  -1   5   4   10.74    1.33   0
  -5   3   0   25.08    1.38   0
  -5   5   5   13.21    1.42   0
  -4   3  -1   43.77    1.26   0
  -4   5   3   12.05    1.24   0
  -3   2  -2   35.03    1.10   0
  -2   1  -2  283.12    2.07   0
  -2   4   0  110.94    1.50   0
  -1  -1   0 5633.30   15.97   0
  -7   3   5  114.85    4.52   0
  -6   0   1   74.73    3.93   0
  -5   1  -1   88.58    1.90   0
  -4   4   0    9.21    1.25   0
  -3   5   2   39.55    1.40   0
  -2   2  -2   32.77    0.99   0
  -2   5   2  119.70    1.71   0
   0   4   2   44.15    1.23   0
  -6   4   3    6.94    1.48   0
  -5   2  -1   40.91    1.53   0
  -5   4   1   28.71    1.41   0
  -5   5   4   14.62    1.37   0
  -1   3  -1  619.00    2.69   0
  -1   5   3  183.40    2.10   0
  -7   2   3   47.07    3.37   0
  -6   3   1    8.28    1.56   0
  -4   1  -2   79.04    1.62   0
  -4   2  -2   49.23    1.48   0
  -4   5   2    6.22    1.23   0
  -1   4   0   55.05    1.43   0
   0   3   0   -0.10    0.97   0
  -7   3   4    8.42    3.63   0
  -5   5   3   12.75    1.34   0
  -3   5   1   97.72    1.69   0
  -6   1   0   71.64    2.91   0
  -6   2   0    4.58    1.97   0
  -3   3  -2   44.70    1.45   0
  -3   4  -1   15.72    1.49   0
  -2   3  -2  497.54    2.65   0
  -2   4  -1   36.35    1.69   0
  -2   5   1   23.65    1.38   0
  -1   5   2  149.01    2.13   0
  -6   4   2   24.81    1.66   0
  -5   3  -1   53.08    1.60   0
  -5   4   0   75.38    1.90   0
  -4   5   1   17.10    1.37   0
  -3   0  -2  369.64    3.23   0
  -1   2  -2  143.34    1.57   0
   0   4   1    6.40    1.26   0
   0   5   6  114.25    3.72   0
   1   3   2  897.24    5.29   0
  -7   3   3   -0.58    3.88   0
  -5   5   2   32.93    1.51   0
  -4   3  -2   25.49    1.43   0
  -4   4  -1   23.19    1.43   0
  -3   6   5    6.47    2.16   0
  -3   6   6   39.63    2.56   0
  -3   6   7   36.53    4.05   0
   0   5   5    2.64    2.29   0
  -7   2   2   64.08    4.29   0
  -6   3   0   45.13    2.19   0
  -2   6   6   86.00    3.51   0
  -1   1  -2  910.84    4.26   0
   0   2  -1  609.36    3.15   0
   0   5   4   76.84    2.62   0
   1   4   5   10.26    3.15   0
  -6   5   5    1.56    3.96   0
  -5   0  -1    0.30    2.52   0
  -4   6   5    3.40    2.36   0
  -4   6   6   19.16    3.23   0
  -3   5   0    5.74    1.40   0
  -3   6   4   24.43    1.89   0
  -2   0  -2  417.14    3.97   0
  -2   6   5   63.54    2.51   0
  -2   6   7    8.62    4.75   0
  -1   5   1  228.89    2.48   0
   1   2   1 1410.10    7.05   0
  -6   4   1   31.21    1.90   0
  -6   5   4   14.72    3.24   0
  -5   2  -2   58.44    2.03   0
  -4   5   0   68.35    1.67   0
  -4   6   4   27.31    2.15   0
  -3   2  -3  270.52    2.18   0
  -3   6   3    3.30    1.92   0
  -2   5   0  235.18    2.26   0
  -2   6   4    8.15    1.95   0
  -1   3  -2  855.49    3.38   0
  -1   4  -1   40.49    1.41   0
   1   4   4  122.76    3.25   0
  -5   5   1   86.45    1.98   0
  -3   4  -2    1.53    1.54   0
  -2   2  -3   21.83    1.12   0
   0   1  -1 1428.84    6.22   0
   0   5   3  304.84    3.32   0
  -7   3   2   26.99    4.30   0
  -6   2  -1   39.69    2.83   0
  -5   1  -2   12.65    2.09   0
  -5   3  -2   22.23    1.95   0
  -5   4  -1   50.12    1.76   0
  -4   0  -2   46.26    2.18   0
  -4   2  -3   52.75    1.76   0
  -4   6   3   14.07    1.80   0
  -3   1  -3   37.19    1.30   0
  -3   3  -3  119.63    1.90   0
  -2   6   3   48.17    2.12   0
   0   3  -1  191.64    1.91   0
   0   4   0 1048.64    4.25   0
  -6   5   3    9.96    2.55   0
  -4   4  -2   14.05    1.54   0
  -3   5  -1   13.58    1.53   0
  -3   6   2   50.01    1.81   0
  -2   3  -3   27.73    1.63   0
  -6   4   0   20.52    2.29   0
  -4   3  -3   83.89    1.82   0
  -2   1  -3  144.34    1.79   0
  -2   5  -1   51.85    1.72   0
  -2   6   2   23.39    2.08   0
  -1   5   0   18.74    1.57   0
   0   5   2   36.82    2.10   0
   1   4   3   65.43    2.60   0
  -6   3  -1   24.27    2.27   0
  -6   5   2    4.42    2.80   0
  -5   5   0   19.45    1.78   0
  -4   1  -3  104.44    2.10   0
  -4   5  -1   52.40    1.76   0
  -4   6   2   22.10    1.83   0
  -1   6   5    2.46    3.72   0
   1   3   1  700.21    4.31   0
  -6   1  -1   13.16    3.62   0
  -3   6   1    3.09    1.60   0
  -1   4  -2   14.88    1.52   0
  -1   6   4   94.84    3.29   0
  -5   4  -2   13.20    1.82   0
  -5   6   3    5.52    2.99   0
  -3   4  -3   46.14    1.91   0
  -2   6   1   66.02    2.39   0
  -1   2  -3   72.45    1.44   0
  -1   6   3   35.17    2.84   0
  -4   6   1   60.78    2.10   0
  -3   5  -2    5.99    1.63   0
  -1   3  -3  708.22    3.40   0
   0   4  -1    7.35    1.51   0
   0   5   1   37.36    2.04   0
  -6   5   1    5.53    2.72   0
  -5   2  -3  193.85    3.06   0
  -5   3  -3   16.84    2.18   0
  -5   5  -1    2.95    1.96   0
  -4   4  -3   66.18    1.93   0
  -3   2  -4   56.29    1.63   0
  -2   5  -2   88.68    2.05   0
  -1   5  -1   21.46    1.69   0
  -1   6   2    3.19    2.48   0
   0   2  -2  765.29    3.75   0
   1   4   2   16.58    2.08   0
  -6   4  -1   19.74    2.42   0
  -5   6   2   19.13    2.64   0
  -4   5  -2   71.83    2.00   0
  -3   3  -4  163.02    2.22   0
  -3   6   0    1.32    1.68   0
   0   3  -2  282.26    2.39   0
  -6   2  -2    5.74    3.07   0
  -6   3  -2   24.60    2.97   0
  -4   2  -4   49.60    2.07   0
  -4   6   0   40.89    1.99   0
  -2   2  -4  597.14    3.24   0
  -2   3  -4  637.42    3.67   0
  -2   6   0   26.49    1.98   0
  -5   6   1   10.25    2.78   0
  -4   3  -4  443.82    3.41   0
  -1   1  -3  681.31    3.78   0
  -1   4  -3   59.06    2.04   0
  -1   6   1   64.63    2.73   0
   0   5   0    0.50    1.99   0
   1   2   0  217.37    2.97   0
   1   3   0  254.03    2.92   0
  -6   5   0    3.51    3.02   0
  -5   1  -3   67.35    3.33   0
  -5   4  -3   34.66    2.49   0
  -3   4  -4  170.55    2.51   0
  -3   6  -1    3.59    2.08   0
  -1  -1   1 2554.17   10.31   0
   1   4   1   43.43    2.29   0
  -5   5  -2   42.40    2.36   0
  -3   1  -4  127.17    2.10   0
  -3   5  -3   32.44    1.95   0
  -2   4  -4   13.23    2.21   0
  -1   5  -2  154.92    2.44   0
   0   4  -2   46.24    1.91   0
  -4   4  -4    3.65    1.93   0
  -4   5  -3    3.14    1.73   0
  -4   6  -1    0.85    1.87   0
  -3   0  -3  108.27    2.73   0
  -2   5  -3   76.65    2.19   0
  -2   6  -1   81.62    2.33   0
  -1   6   0    1.72    2.35   0
  -6   4  -2   42.95    3.04   0
  -5   6   0   29.50    2.92   0
  -2   1  -4  540.81    3.48   0
  -1   2  -4  416.84    2.88   0
  -1   3  -4   36.15    1.99   0
  -5   3  -4   84.11    2.64   0
  -4   1  -4   88.29    2.59   0
  -3   3  -5  192.09    2.56   0
  -1   0  -2 1281.41    8.28   0
   0   1  -2 1379.35    6.47   0
   0   3  -3   79.72    1.77   0
   0   5  -1   35.61    2.09   0
  -6   5  -1   17.73    3.99   0
  -5   2  -4   70.20    3.09   0
  -3   2  -5    3.08    1.63   0
  -3   6  -2  149.84    2.65   0
   0   2  -3  165.38    2.12   0
   1   4   0   62.56    2.28   0
  -6   3  -3   53.68    3.84   0
  -4   3  -5  188.50    3.05   0
  -4   6  -2   15.21    2.13   0
  -3   5  -4   23.99    2.01   0
  -3   7   2    9.60    5.64   0
  -2   0  -3  716.85    5.98   0
  -2   3  -5  148.28    2.61   0
  -2   6  -2   43.59    2.17   0
  -1   4  -4  114.09    2.56   0
  -1   5  -3   43.79    2.07   0
  -1   6  -1  110.06    3.00   0
   0   6   3   14.84    4.93   0
   1   3  -1  745.35    4.52   0
  -6   2  -3   85.57    4.87   0
  -5   4  -4  176.31    3.25   0
  -5   5  -3    0.57    2.38   0
  -5   6  -1   14.64    3.26   0
  -4   0  -3  103.03    3.91   0
  -4   2  -5   36.08    2.43   0
  -3   4  -5  197.97    2.80   0
  -2   2  -5  345.03    2.93   0
  -2   5  -4   11.65    2.01   0
   0   4  -3  128.56    2.29   0
   0   6   2   65.57    4.38   0
  -4   5  -4   33.57    2.22   0
  -3   7   1    4.72    4.37   0
  -2  -1   0 4386.24   18.97   0
  -2   4  -5    6.89    2.22   0
  -2   7   2   12.89    5.97   0
   0   5  -2   32.08    2.43   0
  -6   4  -3    8.84    4.02   0
  -4   4  -5   98.98    2.59   0
  -3   6  -3   34.71    2.19   0
   0   6   1   34.49    3.71   0
   1   2  -1  336.59    3.44   0
   1   5   3   40.94    5.83   0
  -6   5  -2   13.15    6.54   0
  -3   7   0   11.16    4.53   0
  -2   6  -3  107.78    2.89   0
  -2   7   1    7.04    4.15   0
  -1   1  -4  796.05    4.38   0
  -1   6  -2   77.14    2.97   0
   1   4  -1   39.60    2.22   0
   1   5   2  149.33    4.91   0
  -5   6  -2    5.82    4.44   0
  -4   6  -3   13.29    2.40   0
  -1   5  -4  101.88    2.53   0
   0   3  -4  249.91    2.71   0
  -5   3  -5   25.78    2.86   0
  -3   1  -5  520.81    4.08   0
  -3   3  -6  188.81    2.96   0
  -3   5  -5  140.45    2.75   0
  -2   7   0    7.59    4.24   0
  -1   2  -5  436.64    3.27   0
  -1   4  -5    7.62    2.45   0
   0   6   0   78.59    3.74   0
   1   1   3  585.64    6.39   0
   1   5   1   19.39    3.47   0
  -5   1  -4  235.15    5.16   0
  -5   5  -4    6.90    2.82   0
  -2   1  -5  342.44    3.29   0
  -2   3  -6   41.55    2.38   0
  -2   5  -5    1.67    2.13   0
   0   4  -4    8.15    1.90   0
   0   5  -3  295.32    3.47   0
   1   1   2  853.03   12.13   0
   1   3  -2  322.41    3.14   0
  -6   3  -4   66.15    5.75   0
  -5   2  -5    1.11    3.49   0
  -5   4  -5   63.04    3.25   0
  -4   3  -6   71.70    2.75   0
  -4   5  -5    6.95    2.43   0
  -3   2  -6   30.69    2.14   0
  -3   4  -6   88.55    2.58   0
  -3   6  -4   10.83    2.23   0
  -3   7  -1   30.55    4.33   0
  -2   4  -6  303.68    3.46   0
   0   2  -4 1732.80    5.98   0
   1   5   0   19.49    3.26   0
  -4   1  -5    4.51    2.74   0
  -2   2  -6   23.23    2.01   0
  -2   6  -4   68.30    2.62   0
  -2   7  -1    8.85    4.14   0
  -1   6  -3  166.03    3.20   0
   0   1  -3  762.38    4.64   0
   0   6  -1   35.45    3.24   0
   1   4  -2  227.61    3.10   0
  -6   4  -4    2.23    6.21   0
  -4   2  -6   25.26    3.06   0
  -4   4  -6  119.22    3.03   0
  -4   6  -4   13.17    2.75   0
  -3   7  -2   12.03    5.03   0
  -1   5  -5  373.69    3.77   0
   1   2  -2  794.93    4.87   0
   1   5  -1  241.08    4.50   0
  -3   0  -4   55.07    3.00   0
  -3   5  -6   86.33    2.66   0
  -1   4  -6   33.51    2.72   0
  -1   7   0    8.10    6.03   0
   0   3  -5   75.37    2.59   0
   0   5  -4   80.70    2.75   0
   0   6  -2   73.65    3.74   0
   1   3  -3  306.07    3.29   0
  -5   5  -5    4.22    4.27   0
  -3   3  -7   30.23    2.81   0
  -2   5  -6   39.87    2.52   0
  -2   7  -2   25.33    4.02   0
  -1   6  -4   48.50    2.83   0
   0   4  -5  290.45    3.46   0
  -5   3  -6   97.94    4.58   0
  -4   5  -6   30.05    2.94   0
  -3   4  -7   88.98    2.97   0
  -3   6  -5   81.08    2.98   0
  -2   3  -7   12.43    2.35   0
  -2   6  -5   19.92    2.70   0
  -1   1  -5 1368.81    5.96   0
  -1   2  -6   29.68    2.14   0
  -1   7  -1   52.23    5.42   0
   1   4  -3   59.24    2.45   0
  -5   4  -6   23.23    4.27   0
  -2   0  -4   20.07    2.00   0
  -2   4  -7   43.37    2.72   0
  -1   0  -3  136.10    2.83   0
   0   2  -5 1841.64    6.57   0
   1   5  -2  162.20    3.82   0
  -4   3  -7  131.83    3.61   0
  -4   6  -5    8.12    3.69   0
  -3   1  -6  174.92    3.48   0
  -3   2  -7  139.90    3.49   0
  -3   7  -3   30.12    5.97   0
  -1   5  -6  200.77    3.45   0
   0   0   2   25.63    1.88   0
   0   6  -3   16.23    3.50   0
  -4   4  -7   33.93    3.28   0
  -2   1  -6   37.82    2.16   0
  -2   2  -7  165.22    3.13   0
  -2   7  -3   11.23    4.32   0
  -1   7  -2    4.43    5.19   0
   0   1  -4 1107.00    5.62   0
   0   5  -5    1.62    2.66   0
   1   2  -3  417.96    3.69   0
  -5   2  -6   43.59    5.42   0
  -3   5  -7   27.36    2.83   0
  -1   3  -7   93.13    3.42   0
  -1   4  -7  111.28    3.10   0
  -1   6  -5   26.78    2.77   0
   0   4  -6   91.48    3.04   0
   1   1   0 4280.11   22.11   0
   1   3  -4  333.44    3.55   0
   1   4  -4  165.37    3.41   0
  -5   1  -5   64.04    7.34   0
  -4   0  -4  508.44    9.07   0
  -4   2  -7   71.38    4.15   0
  -3   6  -6   25.24    3.03   0
  -2   5  -7   76.66    2.91   0
   1   5  -3  197.83    3.97   0
  -5   5  -6    3.56    7.22   0
  -4   1  -6  101.67    4.21   0
  -3   7  -4    9.75   10.50   0
  -2   6  -6   10.98    2.94   0
   0   0   1  747.82   10.19   0
   0   6  -4   53.99    3.83   0
  -4   5  -7    4.96    3.53   0
  -3   3  -8   15.22    3.06   0
  -3   4  -8   16.12    2.94   0
  -2   3  -8  113.88    3.15   0
  -2   4  -8   -0.31    2.75   0
  -2   7  -4   27.34    5.16   0
  -1   2  -7    4.28    2.47   0
  -1   7  -3    5.24    5.64   0
  -1   1  -6  253.28    3.29   0
  -1   5  -7   15.33    2.88   0
   0   2  -6  257.16    3.23   0
   0   5  -6  131.14    3.50   0
   1   1  -1 2427.21   13.18   0
   1   2  -4  264.97    3.26   0
   1   6   0    0.08    7.72   0
  -5   3  -7   36.87    5.78   0
  -5   4  -7    0.66    6.31   0
  -1   6  -6   22.22    3.31   0
   1   3  -5   19.51    2.44   0
   1   4  -5  116.15    3.15   0
   1   5  -4    9.44    3.18   0
   1   6  -1   59.91    6.52   0
  -4   3  -8    7.67    4.32   0
  -4   4  -8    4.00    4.22   0
  -3   2  -8   11.75    3.60   0
  -1   3  -8  101.77    3.52   0
  -1   4  -8   58.69    3.16   0
   0   1  -5  384.21    3.72   0
   0   4  -7   20.17    3.04   0
   0   6  -5  251.79    5.12   0
  -3   0  -5  415.56    5.96   0
  -3   1  -7   21.07    3.26   0
  -3   5  -8    4.85    3.33   0
  -3   6  -7    3.10    4.30   0
  -2   1  -7    5.25    2.73   0
  -2   2  -8   71.10    2.96   0
  -2   5  -8    1.70    2.75   0
  -2   6  -7    9.97    3.30   0
  -1   0  -4    2.06    1.74   0
  -1   7  -4    2.58    6.24   0
   1   6  -2    4.40    5.84   0
  -2   0  -5   86.83    3.00   0
  -2   7  -5   20.90    7.33   0
   1   1  -2  860.33    6.43   0
  -1   5  -8    2.19    2.77   0
   0   5  -7   70.56    3.40   0
   1   2  -5  904.56    5.37   0
   1   5  -5  248.56    4.35   0
  -4   2  -8  160.18    5.49   0
  -4   5  -8    4.89    5.83   0
  -3   3  -9  135.59    4.31   0
  -3   4  -9   22.49    3.76   0
  -2   3  -9   17.59    3.07   0
  -2   4  -9   57.74    3.26   0
  -1   2  -8   -1.08    2.75   0
  -1   6  -7    5.74    3.36   0
   0   0  -1  756.80   10.77   0
   1   3  -6  155.26    3.42   0
   1   4  -6  166.89    3.63   0
   1   6  -3   32.55    5.42   0
   2   3  -1   72.65    3.50   0
   2   4  -1   57.40    4.22   0
  -1   1  -7  333.73    3.86   0
  -1   7  -5    2.41    6.99   0
   0   6  -6   49.92    4.02   0
   2   3  -2  208.82    3.96   0
   2   4  -2  333.07    5.24   0
  -1   4  -9   21.85    2.96   0
   0   1  -6  735.88    4.86   0
   0   3  -8  151.27    3.88   0
   0   4  -8  179.01    3.70   0
   1   1  -3 1565.68    8.50   0
   0  -7  -6    6.64    2.69   0
   0  -7  -5    5.52    2.32   0
   2  -5  -2  127.46    1.98   0
   3  -4  -6  233.50    2.49   0
   3  -4  -5  133.61    2.15   0
   3  -3  -8   28.91    2.03   0
   3  -3  -4   45.68    1.45   0
   3  -2  -7  267.94    2.79   0
   3  -2  -6   10.53    1.34   0
   3  -2  -5  101.05    1.91   0
  -2  -4   3  140.79    3.92   0
   0  -7  -7    3.32    3.90   0
   0  -7  -4    3.17    2.08   0
   0  -6   0   85.25    2.10   0
   1  -6 -10   17.16    5.87   0
   2  -5 -10   18.71    2.29   0
   2  -3   0  102.58    1.62   0
   3  -4  -7  147.62    2.23   0
  -1  -4   3   54.68    2.00   0
   2  -6  -6   85.52    1.91   0
   2  -6  -5   62.18    1.75   0
   3  -4  -8    7.62    1.63   0
   3  -4  -4   20.21    1.51   0
   3  -3  -3    6.02    1.34   0
   3  -2  -8   23.19    1.84   0
   3  -2  -4   89.00    1.51   0
  -1  -7  -2    1.67    3.15   0
  -1  -6   1   59.84    2.81   0
  -1  -2   3  385.18    5.07   0
   0  -7  -3    2.85    2.03   0
   1  -6  -1   58.71    1.73   0
   2  -6  -7   10.10    1.59   0
   2  -6  -4    6.41    1.31   0
   2  -5  -1   23.32    1.44   0
   2  -4   0  119.93    1.82   0
   2  -2   0  102.12    1.38   0
   3  -3  -9   11.02    2.07   0
  -2  -1   2  531.64    4.47   0
   0  -5   2   33.98    1.80   0
   1  -5   1   20.20    1.39   0
   1  -3   2  945.72    3.66   0
   2  -6  -8   27.65    2.01   0
   2   0  -6   65.53    2.57   0
   3  -4  -3   69.67    1.67   0
   3  -2  -3   78.77    1.53   0
   0  -3   3   84.30    1.66   0
   1  -4   2   16.67    1.29   0
   2  -6  -3   34.92    1.43   0
   3  -5  -6    3.03    1.37   0
   3  -5  -5  151.63    2.00   0
   3  -4  -9   39.54    1.98   0
   3  -3  -2   25.26    1.50   0
   0  -7  -2    9.06    2.16   0
   1  -7  -6    1.31    2.29   0
   1  -7  -5    4.46    1.97   0
   2  -1  -1 2001.04    5.64   0
   2   0  -5  104.78    2.40   0
   3  -5  -7   49.04    1.69   0
   3  -5  -4  106.69    1.77   0
   3  -4  -2   26.48    1.53   0
   3  -2  -9   61.85    2.58   0
  -1  -7  -1   45.81    4.67   0
   0  -6   1   34.73    2.10   0
   0  -4   3  136.37    2.00   0
   1  -7  -4   15.77    1.89   0
   1  -6   0    1.12    1.44   0
   2  -6  -9    3.33    3.09   0
   2  -5   0  226.79    2.12   0
   2  -3   1   52.41    1.25   0
   3  -5  -8   42.66    1.88   0
   3  -3 -10    9.65    2.67   0
   1  -2   2  152.03    1.63   0
   2  -6  -2   18.56    1.42   0
   2  -4   1   41.78    1.32   0
   3  -5  -3    1.66    1.28   0
   3  -2  -2   53.69    1.22   0
   1  -7  -3   22.72    1.88   0
   1  -1   1  271.56    2.33   0
   2   0  -4  144.69    2.46   0
   3  -4 -10    5.64    2.47   0
   3  -1  -6  324.29    2.93   0
   3  -1  -5  186.74    2.20   0
   0  -7  -1    8.21    2.70   0
   3  -5  -9   17.94    2.10   0
   3  -5  -2   36.17    1.46   0
   3  -4  -1    9.54    1.27   0
   3  -1  -7   97.34    2.28   0
  -1  -5   3  180.35    3.49   0
   1  -7  -2    1.12    2.12   0
   1  -5   2  161.37    2.11   0
   1   0  -1 2160.83    9.55   0
   2  -6  -1   59.47    1.63   0
   2  -2   1   61.30    1.19   0
   3  -1  -4  550.71    3.14   0
   0  -2   3  173.65    2.22   0
   2  -5   1   54.08    1.57   0
   3  -6  -6   41.39    2.00   0
   3  -6  -5    5.36    1.39   0
   3  -2  -1 1211.22    3.93   0
  -1  -6   2    3.50    3.46   0
   0  -1   2 1339.75    7.38   0
   1  -6   1  110.93    2.13   0
   3  -6  -7   38.36    2.29   0
   3  -6  -4   21.90    1.56   0
   3  -5  -1   95.49    1.77   0
   3  -2 -10   75.85    3.98   0
   3  -1  -3  100.65    1.63   0
   0  -5   3  296.36    3.20   0
   1  -4   3   67.44    1.70   0
   1  -3   3  792.98    3.58   0
   2  -7  -6    0.56    3.30   0
   2  -7  -5   76.98    2.76   0
   2  -7  -4   15.44    2.34   0
   2  -4   2    3.01    1.41   0
   2  -3   2  580.63    2.88   0
   2  -1   0 4889.22    8.56   0
   3  -4   0   22.93    1.33   0
   3  -1  -8    9.86    2.54   0
   4  -4  -6    1.95    1.57   0
   4  -4  -5  217.37    2.39   0
   4  -3  -6  224.81    2.52   0
   4  -3  -5   69.00    1.74   0
   4  -3  -4   85.94    1.84   0
   0  -7   0    0.18    3.69   0
   0  -6   2   66.43    2.69   0
   1  -7  -1   12.93    2.19   0
   2  -6   0   26.91    1.64   0
   3  -6  -3    2.78    1.41   0
   4  -4  -7    3.25    1.76   0
   4  -4  -4   16.99    1.50   0
   4  -3  -7   94.19    2.13   0
  -1   0   0  766.94    5.42   0
   2  -7  -3   27.68    2.06   0
   2   0  -3 1492.85    7.11   0
   3  -6  -8   13.09    3.29   0
   4  -4  -3    3.36    1.37   0
   4  -3  -3    2.04    1.25   0
   3  -6  -2   45.09    1.66   0
   3  -5   0    6.20    1.42   0
   3  -2   0  218.12    1.98   0
   3  -1  -2  427.92    2.72   0
   4  -5  -6   61.94    2.19   0
   4  -5  -5   25.13    1.57   0
   4  -4  -8   44.92    2.54   0
   4  -3  -8   44.88    2.51   0
   1  -5   3   49.85    2.03   0
   2  -7  -2    9.60    2.25   0
   2  -5   2   94.90    1.89   0
   3  -4   1   17.13    1.49   0
   4  -5  -4   49.23    1.70   0
   4  -4  -2   72.73    1.73   0
   4  -3  -2   11.81    1.42   0
   4  -2  -6  105.48    2.25   0
   4  -2  -5   31.82    1.56   0
   4  -2  -4    9.73    1.52   0
   1  -7   0    9.11    2.84   0
   1  -6   2   81.54    2.67   0
   2  -6   1   82.08    2.22   0
   2  -2   2   34.54    1.11   0
   4  -5  -7    5.69    1.98   0
   4  -5  -3   11.63    1.46   0
   4  -2  -7   43.11    2.40   0
   0  -4   4   10.06    1.81   0
   1  -2   3   73.87    1.39   0
   3  -6  -1    3.48    1.39   0
   4  -2  -3    5.32    1.22   0
  -1  -4   4  150.40    3.81   0
   0  -3   4  283.51    2.95   0
   2  -7  -1    8.20    2.45   0
   3  -5   1   14.12    1.50   0
   4  -5  -8   37.30    3.19   0
   4  -5  -2    6.45    1.42   0
   4  -4  -9    6.94    3.24   0
   4  -4  -1  122.98    1.98   0
   4  -3  -9    3.10    3.33   0
   4  -3  -1   93.61    1.90   0
   2  -4   3   51.66    1.55   0
   2  -3   3   32.33    1.32   0
   3  -1  -1  628.26    3.15   0
  -1  -3   4  315.58    4.84   0
   1  -1   2  928.51    4.67   0
   2  -1   1  389.58    2.51   0
   2   0  -2 4929.46   11.47   0
   3  -7  -5    6.60    6.57   0
   3  -6   0    3.17    1.59   0
   3  -2   1  646.49    3.14   0
   4  -2  -8    8.05    2.84   0
   4  -2  -2    9.00    1.29   0
  -1  -1   2  870.66   11.75   0
   1  -4   4  132.13    2.21   0
   3  -7  -4   90.90    3.99   0
   3  -4   2    3.40    1.34   0
   3  -3   2   45.53    1.70   0
   4  -6  -5    2.82    2.02   0
   4  -6  -4   28.46    1.92   0
   4  -5  -1   17.54    1.50   0
   4  -4   0   10.29    1.51   0
   0  -6   3   18.16    3.63   0
   0  -5   4   75.92    3.30   0
   1  -7   1   53.71    4.41   0
   1  -3   4   46.09    1.55   0
   2  -7   0    7.30    2.89   0
   2  -6   2   43.23    2.33   0
   2  -5   3   83.60    1.98   0
   3  -7  -3    7.44    2.92   0
   4  -6  -6   20.43    2.76   0
   4  -6  -3   12.00    1.73   0
   4  -3   0   10.44    1.72   0
   3  -5   2    6.22    1.55   0
   4  -2  -1  147.51    1.95   0
   1  -6   3  162.63    3.43   0
   3  -7  -2    9.96    2.71   0
   3  -6   1    4.37    1.94   0
   3  -1   0 1715.99    4.97   0
   4  -6  -2   19.28    1.72   0
   4  -5   0   69.33    1.84   0
   1  -5   4  107.90    2.68   0
   2  -2   3   22.41    1.12   0
   4  -4   1   23.55    1.58   0
   5  -4  -5   94.45    2.32   0
   5  -4  -4   82.06    2.08   0
   2  -4   4   18.73    1.70   0
   3  -4   3   47.45    1.87   0
   3  -2   2   33.79    1.45   0
   4  -6  -1   52.46    1.88   0
   4  -3   1   41.62    1.95   0
   4  -2   0  121.93    1.95   0
   4  -1  -5  285.77    3.08   0
   4  -1  -4  242.91    2.67   0
   5  -4  -6   71.42    2.42   0
   5  -4  -3    1.26    1.51   0
   5  -3  -5  111.89    2.34   0
   5  -3  -4   12.83    1.69   0
  -1   0  -1 1606.40    7.24   0
   2   0  -1 2424.31    7.91   0
   3  -7  -1    7.07    2.93   0
   4  -1  -6   83.50    2.56   0
   4  -1  -3  106.72    1.85   0
   5  -4  -2   27.27    1.93   0
   5  -3  -6   29.34    2.23   0
   5  -3  -3   28.46    1.75   0
   1   0   0  826.31    5.92   0
   2  -7   1    8.31    3.70   0
   2  -3   4  726.58    3.53   0
   2  -1   2  285.31    2.23   0
   3  -3   3  118.07    1.90   0
   4  -5   1   51.24    1.68   0
   5  -5  -5   16.64    2.15   0
   5  -5  -4   14.77    1.95   0
   5  -5  -3   13.33    1.70   0
   5  -4  -7  121.58    3.52   0
   5  -3  -2   13.45    1.60   0
   0  -2   4 1806.73    7.76   0
   2  -6   3  112.75    2.92   0
   2  -5   4   12.70    2.11   0
   3  -6   2  149.03    2.70   0
   3  -5   3   34.72    1.80   0
   4  -1  -2  378.45    2.75   0
   5  -5  -6    7.30    2.77   0
   5  -3  -7   10.33    2.77   0
   1  -2   4  459.42    3.02   0
   3  -7   0   11.94    3.76   0
   3  -1   1   51.51    1.29   0
   4  -6   0   37.04    1.85   0
   4  -4   2   12.92    1.55   0
   5  -5  -2   33.49    1.84   0
   5  -4  -1   27.11    1.64   0
   3   0  -4  724.31    4.94   0
   4  -3   2   21.98    1.74   0
   4  -1  -7   45.03    3.22   0
   5  -3  -1   30.89    1.62   0
   5  -2  -5   56.98    2.38   0
   5  -2  -4  110.76    2.26   0
   5  -2  -3   66.04    2.10   0
   1  -4   5    9.78    1.78   0
   3   0  -5    4.42    1.91   0
   3   0  -3  146.75    2.32   0
   4  -5   2   74.15    1.91   0
   4  -1  -1 1637.19    5.11   0
   5  -5  -1   83.38    2.01   0
   5  -4   0   78.45    1.92   0
   0  -4   5  302.49    4.02   0
   3  -4   4  188.95    2.36   0
   3  -2   3  258.80    2.32   0
   4  -6   1    1.33    1.95   0
   5  -3   0   25.97    1.63   0
   5  -2  -6   91.15    2.89   0
   5  -2  -2  223.36    2.51   0
   1  -6   4   49.22    4.03   0
   1  -3   5  618.68    3.80   0
   1  -1   3  714.91    3.80   0
   2  -2   4  631.77    3.25   0
   3  -3   4  166.07    2.03   0
   5  -6  -4   13.64    4.89   0
   1  -5   5  393.93    4.54   0
   2  -4   5   10.29    1.85   0
   2   0   0 8868.17   13.46   0
   3  -7   1   34.27    6.10   0
   3  -6   3   38.03    2.62   0
   3  -5   4   26.04    2.09   0
   3   0  -2   64.81    1.64   0
   4  -4   3   63.24    1.81   0
   5  -6  -3    5.97    3.06   0
   5  -5   0   18.20    1.66   0
   5  -2  -1  627.31    3.56   0
   0  -3   5   81.31    2.30   0
   3  -1   2  105.93    1.57   0
   4  -3   3   75.82    1.88   0
   4  -1   0  893.80    3.80   0
   5  -6  -2   19.54    2.58   0
   5  -4   1   46.61    1.73   0
   5  -2  -7   36.77    3.60   0
   2  -6   4   69.13    3.32   0
   2  -3   5  171.84    2.12   0
   2  -1   3  138.24    1.70   0
   4  -5   3    3.10    1.60   0
   5  -3   1   53.20    1.73   0
   0  -1   3  728.09    5.66   0
   2  -5   5    2.93    2.32   0
   3   0  -1   87.86    1.65   0
   4  -6   2   15.77    2.09   0
   5  -6  -1   11.11    2.43   0
   5  -5   1    4.40    1.56   0
   5  -2   0  182.08    2.18   0
   0  -5   5    2.23    4.49   0
   3  -2   4   50.51    1.47   0
   3   0  -6    0.15    3.88   0
   3  -4   5  209.66    2.67   0
   4  -1   1   54.25    1.46   0
   5  -4   2   10.83    1.45   0
   6  -4  -4   46.47    2.55   0
   6  -4  -3    6.75    1.99   0
   3  -3   5  194.27    2.32   0
   4  -4   4    5.21    1.50   0
   5  -6   0   27.66    2.43   0
   5  -3   2   19.17    1.52   0
   5  -2   1   35.21    1.62   0
   5  -1  -4   84.47    2.48   0
   5  -1  -3   78.27    2.11   0
   6  -4  -5   27.36    3.35   0
   6  -4  -2   25.86    1.91   0
   6  -3  -4   45.53    2.57   0
   6  -3  -3   30.87    2.08   0
   1  -2   5  444.47    3.17   0
   1   0   1 1582.60    6.87   0
   2   0   1   83.72    1.50   0
   3  -6   4   10.56    2.85   0
   3  -1   3   30.94    1.23   0
   3   0   0  152.60    1.81   0
   4  -3   4  388.77    2.83   0
   5  -5   2   39.43    1.80   0
   5  -1  -2  164.67    2.38   0
   6  -4  -1   29.79    1.86   0
   6  -3  -5   77.09    3.12   0
   6  -3  -2   37.40    1.87   0
   2  -2   5  333.71    2.50   0
   3  -5   5  142.57    2.69   0
   4  -6   3   15.73    2.74   0
   4  -5   4   33.52    1.94   0
   5  -1  -5   11.22    2.36   0
   6  -5  -3    9.23    3.27   0
   6  -5  -2    2.89    2.69   0
   6  -3  -1    8.57    1.60   0
   1  -4   6   33.47    2.45   0
   2  -4   6  327.92    3.39   0
   4  -1   2   66.98    1.74   0
   5  -6   1   12.73    2.76   0
   5  -4   3   29.65    1.56   0
   5  -1  -1   98.04    1.86   0
   6  -4   0   19.07    1.82   0
   2  -1   4  486.83    2.84   0
   5  -3   3   12.66    1.48   0
   5  -2   2   47.42    1.70   0
   6  -5  -1    4.10    2.19   0
   6  -3  -6   43.16    4.71   0
   6  -3   0   40.32    1.71   0
   1  -3   6  119.87    2.32   0
   1  -1   4  793.35    3.97   0
   2  -3   6   43.95    1.63   0
   3  -2   5    3.57    1.18   0
   4  -2   4   40.75    1.74   0
   4   0  -3    4.50    1.48   0
   4   0  -2  899.99    4.50   0
   5  -5   3    0.99    1.85   0
   5  -1   0   49.86    1.61   0
   6  -2  -3   38.77    2.27   0
   6  -2  -2  117.93    2.55   0
   3   0   1   74.81    1.42   0
   4  -4   5   93.52    2.07   0
   4   0  -4  165.69    2.80   0
   5  -1  -6  162.95    4.39   0
   6  -5   0    1.30    2.06   0
   6  -4   1   16.53    1.63   0
   6  -2  -4    5.65    2.19   0
   2  -5   6   35.72    3.19   0
   3  -4   6   88.14    2.15   0
   4  -3   5  165.70    2.21   0
   4   0  -1  131.70    1.92   0
   5  -6   2    3.51    4.09   0
   6  -3   1   21.21    1.58   0
   6  -2  -5   97.48    3.65   0
   6  -2  -1   73.60    1.98   0
   0  -2   5 1958.77    8.83   0
   1  -5   6  180.51    5.15   0
   2   0   2  410.67    2.73   0
   3  -3   6  180.57    2.30   0
   3  -1   4  104.81    1.71   0
   4  -5   5    6.45    2.26   0
   5  -4   4  162.14    2.29   0
   5  -2   3  152.74    2.16   0
   5  -1   1   78.27    1.67   0
   4  -6   4   12.94    3.94   0
   4   0   0   43.54    1.34   0
   5  -3   4   73.65    1.84   0
   6  -5   1   15.15    2.15   0
   6  -2   0    5.41    1.55   0
   3  -6   5   84.32    5.35   0
   3  -5   6   93.72    3.15   0
   4   0  -5  161.47    3.54   0
   6  -4   2   35.31    1.73   0
   6  -3   2   20.90    1.53   0
   1   0   2 1371.53    5.98   0
   2  -2   6   24.51    1.37   0
   3   0   2  360.54    2.40   0
   4  -2   5   31.27    1.58   0
   5  -5   4    6.03    1.97   0
   5  -1   2    9.85    1.47   0
   6  -2   1   40.05    1.76   0
   4  -4   6  117.19    2.47   0
   4   0   1    0.19    1.13   0
   5  -2   4   65.16    1.79   0
   6  -5   2   10.89    2.72   0
   1  -2   6   33.24    1.55   0
   2  -1   5  324.04    2.48   0
   3  -2   6   30.26    1.48   0
   4  -3   6   68.74    1.88   0
   5  -4   5   63.20    2.16   0
   6  -4   3    7.52    1.55   0
   2  -4   7   45.51    2.67   0
   2   0   3  759.33    3.54   0
   3  -1   5  449.66    2.85   0
   5  -3   5   26.58    1.58   0
   6  -3   3   51.19    1.77   0
   6  -2   2    4.78    1.46   0
   6  -1  -2  285.58    3.42   0
   0  -3   6   95.54    3.42   0
   2  -3   7   14.26    1.90   0
   3   0   3   99.48    1.58   0
   5  -1   3   62.53    1.85   0
   6  -1  -3  218.88    3.39   0
   6  -1  -1  151.47    2.46   0
   1  -1   5 1294.90    5.53   0
   3  -4   7   94.07    2.49   0
   3  -3   7   33.76    1.86   0
   4  -5   6   31.88    2.97   0
   4   0   2   42.53    1.44   0
   5   0  -2    1.13    1.75   0
   5   0  -1    1.78    1.62   0
   6  -1   0   77.68    2.00   0
   7  -4  -1    6.34    4.84   0
   7  -3  -2   27.52    3.19   0
   7  -3  -1   63.65    2.96   0
  -1  -1   1 2665.80   11.96   0
   0  -1   4 1132.08    7.09   0
   4  -2   6   21.34    1.51   0
   5  -5   5    3.95    2.49   0
   5  -2   5    0.63    1.48   0
   5   0  -3   13.97    1.87   0
   6  -5   3    5.21    3.24   0
   6  -2   3   86.63    1.96   0
   6  -1  -4  157.13    3.62   0
   7  -3  -3   -0.55    4.58   0
   1  -4   7  121.92    4.14   0
   1  -3   7  115.92    2.78   0
   4  -1   5    3.50    1.71   0
   5   0   0    0.78    1.37   0
   6  -4   4    0.65    1.72   0
   6  -3   4   65.74    1.86   0
   6  -1   1   14.72    1.62   0
   7  -4   0    2.05    3.54   0
   7  -3   0    1.27    2.03   0
   4   0   3   99.43    1.94   0
   5  -1   4  227.24    2.47   0
   1   0   3  136.46    1.88   0
   2  -2   7  178.91    2.25   0
   3  -5   7   27.41    4.33   0
   3  -2   7  138.98    2.09   0
   4  -4   7   34.20    2.24   0
   4  -3   7  131.41    2.29   0
   5  -4   6   20.53    1.96   0
   5  -3   6   97.56    2.00   0
   5   0  -4   70.98    2.71   0
   5   0   1    0.83    1.32   0
   7  -4   1   46.28    3.63   0
   7  -3   1    0.20    1.97   0
   7  -2  -2   75.95    3.27   0
   7  -2  -1  148.37    3.19   0
   2  -1   6   37.93    1.30   0
   2   0   4   19.72    1.09   0
   3  -1   6  160.94    1.99   0
   3   0   4   48.41    1.29   0
   6  -2   4   20.09    1.56   0
   6  -1  -5    0.22    4.54   0
   6  -1   2    4.07    1.54   0
   7  -2   0   88.23    2.67   0
   5   0   2   42.16    1.52   0
   6  -5   4    3.93    6.25   0
   7  -3   2    3.88    1.85   0
   7  -2  -3   55.21    4.08   0
  -1  -1   0 4534.87   12.84   0
   4  -2   7   69.58    1.87   0
   4  -1   6   94.09    1.91   0
   5  -2   6   43.01    1.70   0
   6  -4   5   27.95    2.20   0
   6  -3   5   97.67    2.15   0
   7  -4   2    4.24    3.54   0
   7  -2   1   31.90    2.03   0
   5  -5   6    0.99    5.30   0
   5  -1   5   63.27    1.79   0
   6  -1   3   26.01    1.59   0
   1  -2   7    3.86    1.47   0
   2  -3   8  126.11    2.80   0
   3  -4   8   16.04    3.01   0
   3  -3   8   15.97    1.84   0
   4  -5   7    5.26    5.03   0
   5   0   3  123.36    2.03   0
   6  -2   5   24.44    1.60   0
   7  -2   2    0.87    1.94   0
   1  -1   6  263.88    2.47   0
   2  -4   8    1.28    3.55   0
   3   0   5  370.25    2.66   0
   3   1  -1  722.19    4.31   0
   3   1   0 1622.13    6.24   0
   5  -3   7   39.01    1.92   0
   7  -4   3   44.12    6.11   0
   7  -3   3    0.61    1.96   0
   0  -2   6  273.95    3.81   0
   1   0   4    2.11    0.86   0
   2   0   5   73.03    1.42   0
   3  -1   7   17.59    1.40   0
   3   1  -2  427.06    3.70   0
   3   1   1   53.13    1.50   0
   4  -3   8    7.38    2.11   0
   5  -4   7    0.90    2.25   0
   5   0  -5    9.46    4.28   0
   6  -1   4   24.15    1.59   0
   6   0  -1   98.05    2.68   0
   6   0   0  136.82    2.67   0
   2  -1   7    4.88    1.36   0
   3  -2   8   10.71    1.57   0
   4  -4   8    3.52    2.71   0
   4   1  -1 1672.68    6.18   0
   4   1   0  929.28    4.47   0
   5  -2   7  156.19    2.23   0
   5  -1   6    1.65    1.39   0
   5   0   4    8.28    1.51   0
   6  -3   6   49.81    2.00   0
   6   0  -2   63.78    2.63   0
   6   0   1   29.16    1.94   0
   7  -2   3    7.56    1.76   0
   7  -1  -1   58.67    2.91   0
   7  -1   0   14.29    2.42   0
   2  -2   8   72.18    2.03   0
   2   1   0 4416.14   10.33   0
   4  -1   7   18.57    1.42   0
   4   1   1   62.07    1.67   0
   6  -4   6   22.87    3.04   0
   7  -3   4   31.30    2.23   0
   7  -1  -2   16.96    3.36   0
  -1  -2   3  401.83    5.16   0
   2   1  -1 1924.85    7.99   0
   2   1   1  403.05    2.92   0
   3   1   2  113.66    1.63   0
   4  -2   8  151.85    2.27   0
   4   1  -2  424.66    3.60   0
   6  -2   6   67.58    1.82   0
   6   0  -3    0.60    2.86   0
   6   0   2    0.25    1.56   0
   7  -1   1    1.29    1.91   0
   3   0   6   97.41    1.76   0
   4   1   2   78.21    1.60   0
   6  -1   5   37.02    1.55   0
   7  -1   2    3.27    1.92   0
   0  -1   5  402.80    3.69   0
   5   0   5  327.46    2.62   0
   6   0   3  128.48    2.25   0
   7  -2   4   33.33    1.75   0
   1  -3   8  102.46    3.27   0
   1   0  -4 2958.06   11.05   0
   2   0   6  957.13    3.80   0
   2   1   2  292.41    2.30   0
   3   1  -3  108.64    2.55   0
   3   1   3   33.61    1.07   0
   4   0   6   77.27    1.83   0
   5  -3   8   23.10    1.99   0
   0   0   1  765.47    8.61   0
   1   0   5   50.94    1.21   0
   3  -3   9  127.22    2.95   0
   3  -1   8   10.77    1.33   0
   4   1   3   90.49    1.66   0
   5  -1   7    0.37    1.42   0
   5   1  -1  118.49    2.23   0
   5   1   0   61.63    1.82   0
   5   1   1   93.26    1.99   0
   6  -3   7   25.08    2.05   0
   7  -3   5   41.36    2.81   0
   7  -1   3    0.85    1.60   0
   1  -1   7  345.56    2.79   0
   2   1  -2  564.61    5.09   0
   4  -1   8    4.42    1.35   0
   4   1  -3  113.39    2.53   0
   5  -4   8    1.26    4.15   0
   5  -2   8   82.66    1.98   0
   6  -2   7    8.54    1.61   0
   6  -1   6   16.66    1.40   0
   6   0   4  178.12    2.17   0
   2  -1   8   10.03    1.40   0
   2   1   3  139.19    1.63   0
   3  -2   9   91.46    2.28   0
   3   1   4  107.50    1.65   0
   4  -3   9   29.40    2.41   0
   5   0   6    4.59    1.29   0
   5   1   2   11.06    1.28   0
   7  -2   5   94.03    2.17   0
   1  -2   8    0.61    1.69   0
   2  -3   9   16.46    2.77   0
   3   0   7    2.82    1.17   0
   4  -2   9   49.66    2.04   0
   4   1   4   76.65    1.69   0
   5   1  -2  186.23    2.71   0
   7  -1   4   34.63    1.73   0
   0   0   2   27.41    1.36   0
   4   0   7    2.89    1.29   0
   5   1   3   65.62    1.61   0
   2  -2   9   12.41    1.84   0
   2   0   7    1.63    1.12   0
   2   1   4  482.51    2.58   0
   5  -1   8    6.96    1.33   0
   6   0   5   18.05    1.32   0
   7  -3   6   -0.44    5.20   0
   7   0   0   48.79    2.57   0
   7   0   1   26.39    2.19   0
   4   1   5    2.96    1.45   0
   5   1   4  213.80    2.08   0
   6  -1   7    5.66    1.33   0
   7  -2   6   17.37    1.87   0
   7  -1   5   29.11    1.62   0
   7   0  -1    1.74    2.74   0
   7   0   2   -0.22    1.86   0
   1   0   6   85.77    1.35   0
   3  -1   9  215.88    2.40   0
   5  -3   9   29.08    2.37   0
   5  -2   9  190.80    2.55   0
   5   0   7  140.02    1.83   0
   6  -3   8   30.05    3.10   0
   6  -2   8   12.05    1.79   0
   4  -1   9  100.82    1.81   0
   5   1  -3   77.85    2.55   0
   6   0   6    9.46    1.17   0
   6   1   0   81.18    2.19   0
   6   1   1   14.61    1.52   0
   6   1   2    4.11    1.60   0
   7   0   3   -0.05    1.57   0
   0   0   3    1.71    0.82   0
   2   1   5  291.68    2.03   0
   3   0   8   28.15    1.23   0
   4   0   8   52.46    1.40   0
   5   1   5   56.86    1.45   0
   6   1  -1  153.11    2.81   0
   0  -1   6  721.84    4.76   0
   1  -1   8  297.44    2.60   0
   1   1   1  273.60    2.39   0
   1   1   2  855.93    4.04   0
   4   1   6   80.25    1.58   0
   6   1   3   23.50    1.42   0
   7  -1   6    7.69    1.43   0
   7   0   4    5.31    1.55   0
   2  -1   9  251.17    2.30   0
   3  -3  10   13.46    2.92   0
   3  -2  10  242.42    2.92   0
   5  -1   9   89.24    1.68   0
   6  -1   8   15.31    1.36   0
   0  -2   7  108.94    2.95   0
   1   1   3  651.07    3.02   0
   2   0   8   16.37    1.05   0
   4  -3  10   23.59    3.12   0
   4  -2  10  104.50    2.17   0
   5   0   8   61.69    1.43   0
   5   1   6    1.63    1.10   0
   6   1   4   24.35    1.31   0
   7  -2   7    8.21    2.71   0
   1   0   7  259.59    2.07   0
   1   1   0 5655.53   11.61   0
   2   1   6   32.92    1.06   0
   6   0   7   14.59    1.19   0
   6   1  -2  276.09    3.72   0
   7   0   5    1.99    1.28   0
   0   0   4  887.51    4.47   0
   3   1   7   16.05    1.19   0
   4   1   7   17.93    1.21   0
   6  -2   9   45.73    2.64   0
   6   1   5   36.63    1.32   0
   1  -2   9   14.16    1.97   0
   1   1   4  795.06    3.09   0
   3  -1  10   53.06    1.70   0
   3   0   9    5.56    1.10   0
   4  -1  10  128.27    1.92   0
   4   0   9    6.51    1.14   0
   4   2   1   11.39    1.04   0
   4   2   2   47.89    1.26   0
   4   2   3   43.79    1.22   0
   5  -2  10   31.44    2.22   0
   7  -1   7   10.30    1.63   0
   2  -2  10    2.11    1.85   0
   3   2   1  668.08    2.98   0
   3   2   2   34.50    1.10   0
   3   2   3  230.09    1.82   0
   4   2   0  141.92    1.82   0
   5   1   7    1.18    1.03   0
   4   2   4   39.62    1.18   0
   5   0   9   17.14    1.14   0
   5   2   1   43.00    1.50   0
   5   2   2   54.79    1.59   0
   6  -1   9   17.44    1.49   0
   6   0   8    1.19    1.08   0
   6   1   6   15.18    1.28   0
   7   0   6   11.98    1.30   0
   1   1   5 1152.58    3.54   0
   2   0   9   99.00    1.61   0
   2   1   7    4.08    0.92   0
   3   2   0  230.75    1.91   0
   3   2   4   53.30    1.24   0
   4   1   8    4.66    1.04   0
   5  -1  10   12.20    1.39   0
   5   2   3  170.97    1.83   0
   7   1   1    1.66    1.96   0
   7   1   2    3.40    1.82   0
   0   0   5   35.60    1.03   0
   2  -1  10   74.66    1.80   0
   3   1   8   10.66    0.99   0
   4   2  -1  164.20    1.99   0
   4   2   5   28.75    1.15   0
   5   2   0  197.69    2.20   0
   5   2   4   62.81    1.34   0
   7   1   3    0.34    1.45   0
   1  -1   9  255.16    2.42   0
   1   0  -3  174.94    2.40   0
   1   0   8    1.03    0.95   0
   5   1   8    6.26    0.99   0
   7   1   0   10.46    2.56   0
   7   1   4   34.19    1.70   0
   0  -1   7   82.19    1.70   0
   2   2   2   30.90    0.89   0
   2   2   3   17.67    0.81   0
   3   0  10   26.09    1.36   0
   4  -2  11   82.64    2.80   0
   4   0  10   42.55    1.27   0
   5   2   5   -0.13    0.99   0
   6   1   7    5.21    1.00   0
   7  -1   8   13.86    3.12   0
   7   0   7   18.34    1.52   0
   1   1   6  209.61    1.59   0
   2   1   8    8.86    0.89   0
   2   2   1   65.00    1.08   0
   2   2   4  482.53    2.26   0
   3  -2  11   66.06    2.62   0
   3   2  -1 1297.89    5.04   0
   4   2   6   18.69    1.08   0
   5   2  -1  665.27    3.76   0
   1   1  -1 2763.82    9.05   0
   4  -1  11   17.61    1.66   0
   4   1   9   96.13    1.36   0
   5   0  10    0.01    1.04   0
   6   0   9    0.41    1.18   0
   6   2   2    5.38    1.44   0
   6   2   3   97.49    1.78   0
   7   1   5   32.32    1.46   0
   2   2   5  279.85    1.85   0
   3  -1  11  144.74    2.22   0
   3   1   9  205.94    1.74   0
   5   2   6   36.04    1.11   0
   6  -1  10   46.51    3.03   0
   6   2   1   41.39    1.69   0
   6   2   4   17.82    1.33   0
   0   0   6  257.87    2.02   0
   2   0  10   89.53    1.57   0
   4   2   7   56.05    1.19   0
   5   1   9   83.35    1.29   0
   6   1   8   13.29    1.04   0
   1   1   7  302.87    1.83   0
   2   2   0  105.68    1.25   0
   3   2   7  115.11    1.41   0
   4   2  -2    9.43    1.17   0
   5  -1  11    7.42    2.15   0
   6   2   0    5.49    1.62   0
   6   2   5   23.16    1.16   0
   7   0   8    9.72    2.28   0
   7   1   6    8.71    1.35   0
   1   0   9  100.71    1.49   0
   5   2   7  144.64    1.54   0
   2   1   9  243.19    1.77   0
   4   0  11   18.41    1.27   0
   4   1  10  123.10    1.47   0
   4   2   8  126.51    1.45   0
   6   2   6   63.78    1.40   0
   0  -1  -1 1408.25    5.08   0
   2  -1  11   73.77    1.93   0
   3   0  11   11.30    1.18   0
   3   1  10   51.54    1.22   0
   3   2   8    9.57    0.93   0
   5   2  -2  223.69    2.83   0
   6   0  10   33.93    1.89   0
   7   1   7   11.33    1.74   0
   1  -1  10  113.72    2.03   0
   1   1   8  292.13    1.88   0
   2   2   7  146.07    1.46   0
   3   2  -2   62.39    1.40   0
   5   0  11    0.21    1.40   0
   5   2   8   77.62    1.27   0
   6   1   9   17.37    1.13   0
   0  -1   8   54.97    1.66   0
   0   0   7   46.17    1.06   0
   4   3   3   82.55    1.46   0
   5   1  10   12.89    1.02   0
   6   2  -1   76.56    2.41   0
   6   2   7    8.20    1.12   0
   1   2   3   70.97    0.98   0
   1   2   4  396.11    1.95   0
   4   3   2   28.90    1.09   0
   4   3   4  400.83    2.26   0
   7   2   3    8.38    1.93   0
   0   1   4 1074.16    3.62   0
   1   2   2  153.42    1.31   0
   1   2   5  412.43    1.98   0
   2   0  11  340.56    2.52   0
   2   1  10   80.35    1.29   0
   2   2  -1  231.61    1.89   0
   2   2   8   64.76    1.12   0
   3   2   9   84.75    1.26   0
   3   3   3  119.48    1.36   0
   3   3   4  148.80    1.46   0
   4  -1  12    1.60    2.83   0
   4   2   9   45.11    1.11   0
   4   3   5  175.36    1.58   0
   5   3   3   18.24    1.26   0
   5   3   4   83.05    1.51   0
   7   2   2    0.92    2.22   0
   7   2   4   37.36    2.06   0
   0   1   3  657.51    3.00   0
   3  -1  12    9.48    2.24   0
   3   3   2   51.24    1.00   0
   3   3   5  177.89    1.56   0
   4   1  11   16.51    1.19   0
   4   3   1   53.89    1.29   0
   5   2   9  180.00    1.69   0
   5   3   2   24.87    1.33   0
   5   3   5   24.41    1.21   0
   7   1   8    0.44    2.95   0
   0   1   5  364.60    1.97   0
   1   0  10  151.58    1.78   0
   1   1   9  259.99    1.87   0
   1   2   6   27.11    0.84   0
   3   1  11  139.64    1.68   0
   4   3   6   60.47    1.17   0
   6   2   8   11.06    1.07   0
   7   2   5  101.28    2.18   0
   3   3   1    7.12    0.85   0
   3   3   6  160.36    1.52   0
   4   0  12   56.85    1.94   0
   5   3   1   60.78    1.55   0
   5   3   6   85.53    1.30   0
   6   1  10   32.49    1.98   0
   0   0   8  169.50    1.70   0
   0   1   2 1290.22    4.24   0
   0   1   6  728.63    2.71   0
   1   2   1 1451.07    3.95   0
   1   2   7    3.15    0.75   0
   2   2   9   11.35    0.88   0
   3   0  12   63.27    1.81   0
   4   2  10   94.97    1.32   0
   4   3   0   14.73    1.15   0
   4   3   7  111.54    1.35   0
   5   1  11    9.42    1.24   0
   7   2   6   19.93    2.33   0
   2   3   3   27.44    0.87   0
   2   3   4  590.55    2.44   0
   3   2  10  229.10    1.74   0
   3   3   7   29.17    1.02   0
   2   1  11   72.86    1.45   0
   5   2  10   28.53    1.09   0
   5   3   7   32.49    1.08   0
   6   3   3   57.66    1.63   0
   6   3   4   70.78    1.62   0
   0   1   7   87.35    1.18   0
   2   3   2  592.63    2.36   0
   3   3   0  357.14    2.15   0
   4   3   8    7.07    0.85   0
   5   3   0   27.84    1.49   0
   6   2   9   47.19    1.45   0
   6   3   2   25.11    1.74   0
   6   3   5  100.45    1.65   0
   1   1  10  111.55    1.49   0
   1   2   8    0.71    0.73   0
   3   3   8   12.93    0.89   0
   6   3   6   53.10    1.56   0
   1  -1  11  391.59    3.93   0
   2   0  12    2.40    1.55   0
   2   2  10    1.93    0.89   0
   2   3   7   10.72    0.92   0
   3   1  12    9.52    1.30   0
   4   1  12    3.58    1.28   0
   5   3   8   17.87    1.01   0
   6   3   1   24.46    2.02   0
   0  -1   0    0.11    0.46   0
   0  -1   9  235.31    3.01   0
   1   0  11    7.00    1.45   0
   1   2   0  224.32    1.64   0
   2   3   1   57.93    0.92   0
   3   2  11   74.33    1.36   0
   4   2  11   79.02    1.32   0
   4   3   9   25.58    0.96   0
   0   0   9  377.22    2.54   0
   0   1   1 1381.02    4.62   0
   0   1   8   58.38    1.12   0
   1   2   9   15.99    0.94   0
   2   3   8  104.81    1.26   0
   3   3   9  121.29    1.35   0
   4   3  -1  112.67    1.76   0
   6   3   7   22.55    1.27   0
   5   2  11   11.37    1.38   0
   5   3   9   24.43    1.02   0
   6   2  10   -1.43    2.78   0
   1   3   4   36.86    0.95   0
   2   2  -2  121.01    1.68   0
   0   2   4 1749.47    4.00   0
   0   2   5 1849.58    3.93   0
   0   2   6  268.84    1.66   0
   1   3   3  709.15    2.43   0
   2   1  12   47.18    1.55   0
   2   2  11  280.59    1.95   0
   3   3  -1   52.06    1.14   0
   4   3  10   21.56    1.04   0
   4   4   4    4.94    0.99   0
   4   4   5   99.12    1.41   0
   5   3  -1   35.38    2.06   0
   6   3   8   32.98    1.74   0
   0   2   3  171.81    1.29   0
   1   1  11  457.81    2.65   0
   2   3   0  115.44    1.20   0
   2   3   9   16.92    0.90   0
   3   3  10   13.83    0.89   0
   3   4   4  178.18    1.60   0
   3   4   5  203.66    1.65   0
   4   4   3   70.63    1.29   0
   4   4   6  116.07    1.39   0
   0   1   9  247.22    1.85   0
   0   2   7  110.16    1.16   0
   1   2  10   63.44    1.15   0
   1   3   7   95.70    1.23   0
   3   4   3   50.46    1.10   0
   3   4   6   82.66    1.25   0
   4   2  12   13.01    1.46   0
   4   4   2   16.40    1.15   0
   5   4   4  192.33    2.07   0
   5   4   5   65.45    1.54   0
   1   3   2  918.38    2.73   0
   3   2  12   10.55    1.12   0
   3   4   7   81.36    1.19   0
   4   4   7   29.52    1.00   0
   5   3  10   44.67    1.36   0
   5   4   3   38.62    1.52   0
   5   4   6   20.21    1.27   0
   1   3   8   93.72    1.19   0
   2   3  10   52.41    1.17   0
   3   1  13   -0.17    2.12   0
   3   4   2    3.12    0.83   0
   0   0  10  377.08    2.82   0
   0   2   2  725.65    2.69   0
   0   2   8   60.72    0.99   0
   2   4   4   16.84    0.85   0
   2   4   5    7.98    0.90   0
   2   4   6  287.38    1.80   0
   4   4   8    2.33    0.88   0
   5   4   2   13.00    1.44   0
   5   4   7    0.86    1.02   0
   1   0  -2  472.73    3.64   0
   1   0  12  154.00    2.73   0
   2   2  12    0.08    1.16   0
   2   4   3   47.09    0.94   0
   3   3  11   28.37    1.03   0
   3   4   8   12.85    0.84   0
   4   3  11   11.06    1.00   0
   4   4   1   28.38    1.25   0
   0   1  10    1.99    0.97   0
   1   2  -1  356.11    2.39   0
   1   2  11  162.04    1.70   0
   1   3   1  685.52    2.39   0
   1   3   9  171.07    1.44   0
   2   4   7   37.95    0.99   0
   3   4   1   20.58    0.98   0
   0   2   9  153.56    1.47   0
   1   1  12    4.80    1.43   0
   3   4   9   19.08    0.87   0
   4   4   9    2.18    0.82   0
   5   4   8    3.80    1.10   0
   2   1  13   20.67    1.92   0
   2   3  -1   72.20    1.09   0
   2   3  11   16.28    0.94   0
   2   4   2    3.78    0.67   0
   2   4   8    1.01    0.77   0
   4   3  -2   12.38    1.59   0
   5   4   1   49.82    1.84   0
   6   4   4    1.99    2.72   0
   6   4   5   24.37    2.87   0
   0   3   5   67.04    1.05   0
   0   3   6   83.16    1.12   0
   3   2  13   20.63    2.09   0
   0   2   1  604.14    2.47   0
   0   3   4  226.89    1.44   0
   1   3  10   78.95    1.18   0
   1   4   5    7.34    0.91   0
   2   4   9   47.27    1.00   0
   4   4   0   11.58    1.28   0
   5   4   9   19.52    1.87   0
   0   1   0    0.47    0.42   0
   0   3   7  171.70    1.35   0
   1   4   4  103.79    1.19   0
   1   4   6   29.18    0.97   0
   2   4   1   45.30    0.96   0
   3   3  -2   30.43    1.20   0
   3   3  12    0.98    1.09   0
   3   4   0   30.51    1.04   0
   3   4  10   14.48    0.90   0
   4   3  12    0.89    2.06   0
   4   4  10    4.21    0.98   0
  -1   0   5 1591.26    5.59   0
  -1   0   6  510.57    3.02   0
  -1   1   5  126.52    1.21   0
  -1   1   6  632.96    2.86   0
   0   2  10   15.20    0.90   0
   0   3   3   71.47    0.89   0
   0   3   8  143.97    1.28   0
   1   3   0  242.65    1.49   0
   1   4   3   58.88    1.03   0
   1   4   7  100.87    1.20   0
  -1   1   7  429.27    2.20   0
   0  -1   1 1408.20    5.34   0
   0   1  11  139.59    1.89   0
   1   2  12    2.20    1.09   0
   1   4   8   53.69    1.01   0
   2   2  13    3.26    1.61   0
  -1   0   7  578.90    3.57   0
  -1   1   4  422.60    2.08   0
   0   0  11  480.23    3.84   0
   1   3  11   15.18    0.88   0
   2   3  12    1.76    0.99   0
   2   4  10    7.04    0.79   0
   3   5   5  139.71    1.60   0
   4   5   5    7.42    1.20   0
  -1   0   4 2940.95    7.60   0
   0   3   2  255.03    1.40   0
   0   3   9  116.69    1.23   0
   1   4   2   14.45    0.68   0
   3   5   4   24.42    1.00   0
   3   5   6   80.08    1.20   0
   4   5   4   36.30    1.24   0
   4   5   6   28.94    1.15   0
  -1   1   8  125.09    1.37   0
  -1   2   5  851.07    2.60   0
  -1   2   6  128.34    1.14   0
   1   4   9   20.05    0.82   0
   2   4   0  134.14    1.34   0
   3   4  11   13.36    0.97   0
   3   5   3   34.26    1.13   0
   3   5   7   24.70    0.95   0
   4   4  11   12.18    2.38   0
   4   5   7    4.68    1.00   0
  -1   2   7  718.49    2.50   0
   0   2  11   66.05    1.37   0
   2   5   5    2.62    0.84   0
   2   5   6   34.06    0.93   0
   3   5   8    4.73    0.89   0
   4   5   3    3.19    1.07   0
  -1   1   3 1585.36    4.19   0
  -1   2   4  236.38    1.41   0
   0   2   0 2896.89    5.18   0
   0   3  10   59.56    1.20   0
   2   4  11   15.61    0.93   0
   2   5   4   11.06    0.85   0
   2   5   7   65.63    1.05   0
   4   5   8    3.71    1.12   0
   5   5   5    4.57    2.28   0
  -1   2   8   77.01    1.06   0
   0   4   6   83.24    1.15   0
   1   3  12   13.94    1.18   0
   1   4   1   41.98    0.81   0
   1   4  10   91.80    1.16   0
   2   5   3   80.02    1.24   0
   3   4  -1   13.54    1.09   0
   3   5   2    6.90    1.04   0
   4   5   2   77.24    1.76   0
   5   5   4    6.89    2.26   0
  -1   1   9  115.04    1.48   0
   0   3   1  176.61    1.22   0
   0   4   7   17.24    0.86   0
   2   5   8    0.51    0.75   0
   3   5   9   12.07    0.94   0
  -1   2   3  396.15    1.78   0
   0   4   8  171.80    1.41   0
   1   3  -1  742.95    2.93   0
   2   3  13    4.12    1.83   0
   4   5   9    0.37    1.78   0
   0  -5   5    3.17    1.72   0
   0  -1   3  726.61    4.14   0
   2  -6   4   66.11    1.73   0
   2  -1   3  133.28    1.56   0
   3  -1   2  109.81    1.50   0
   4  -5   3    2.49    1.44   0
   4  -3   3   76.85    1.54   0
   4  -1   0  900.51    4.37   0
   5  -6  -2   13.52    4.49   0
   5  -4   1   45.12    1.68   0
   2  -5   5    2.94    1.34   0
   4  -6   2   16.05    1.64   0
   5  -3   1   55.05    1.75   0
   1  -7   3    3.88    2.36   0
   5  -6  -1    6.71    3.30   0
   5  -5   1    2.28    1.63   0
  -1  -4   5  122.13    2.28   0
   1  -2   5  432.04    2.55   0
   2  -7   3   11.04    2.44   0
   3  -7   2    9.88    2.39   0
   3  -4   5  193.26    2.15   0
   3  -2   4   49.69    1.41   0
   4  -7   0    1.98    7.08   0
   5  -2   0  194.26    2.60   0
  -1  -2   4  266.75    2.64   0
   1  -4   6   33.84    1.46   0
   3  -6   4    9.93    1.55   0
   3  -3   5  169.99    2.13   0
   4  -4   4    3.54    1.36   0
   5  -6   0   17.74    3.41   0
   5  -4   2    9.36    1.54   0
   1  -6   5   28.08    1.96   0
   2  -4   6  299.57    2.48   0
   2  -2   5  293.70    2.36   0
   3  -5   5  136.88    1.98   0
   4  -3   4  393.42    2.70   0
   4  -2   3   48.92    1.41   0
   4  -1   1   61.31    1.61   0
   5  -3   2   21.00    1.77   0
  -1  -6   4   88.45    4.01   0
  -1  -5   5  237.47    3.66   0
  -1  -3   5   33.09    1.50   0
   0  -4   6   99.66    1.86   0
   0  -2   5 1836.11    5.72   0
   1  -5   6  208.53    2.45   0
   1  -3   6  114.66    1.64   0
   2  -6   5   19.54    1.72   0
   3   0  -1   83.59    2.30   0
   4  -6   3   14.59    1.64   0
   4  -5   4   31.14    1.49   0
   5  -5   2   38.97    1.83   0
  -2  -4   4  113.11    3.61   0
   0  -6   5  233.20    3.61   0
   1  -1   4  770.90    3.39   0
   1   0   1 1693.47    7.71   0
   2  -5   6   34.63    1.58   0
   2  -3   6   38.59    1.59   0
   3  -1   3   33.14    1.18   0
   5  -2   1   41.19    1.91   0
   0  -5   6  129.34    2.59   0
   0  -3   6   96.62    1.69   0
   1  -7   4    2.33    3.74   0
   2  -1   4  477.96    2.64   0
   2   0   1   88.94    1.70   0
   3  -7   3   28.70    3.17   0
   5  -6   1    9.23    3.12   0
   5  -4   3   31.09    1.65   0
   2  -7   4   27.80    3.32   0
   3  -4   6   80.59    1.74   0
   3  -2   5    1.40    1.44   0
   4  -4   5   93.09    1.82   0
   6  -4  -1   30.56    3.86   0
   3  -6   5   74.86    1.99   0
   4  -2   4   43.15    1.45   0
   4  -1   2   79.33    1.71   0
   5  -5   3    1.41    1.71   0
   5  -3   3   14.88    1.52   0
   0  -1   4 1058.06    4.74   0
   3  -5   6   80.96    1.73   0
   3  -3   6  160.17    1.87   0
   3   0   0  156.08    2.42   0
   4  -6   4   12.30    1.73   0
   4  -5   5    6.22    1.44   0
   4  -3   5  169.14    2.07   0
   5  -2   2   56.12    1.92   0
   6  -4   0   19.16    3.38   0
   1  -6   6   20.59    2.13   0
   1  -4   7  110.11    1.93   0
   1  -2   6   33.94    1.24   0
   2  -6   6   11.27    2.03   0
   2  -4   7   37.14    1.52   0
   6  -3  -1    8.88    3.41   0
  -2  -3   4  186.53    3.70   0
  -1  -4   6  168.53    2.86   0
   1  -3   7   96.29    1.88   0
   3  -1   4  105.30    1.57   0
   5  -4   4  158.21    2.24   0
   1  -5   7   14.67    1.71   0
   2  -5   7   67.03    1.84   0
   2  -3   7   10.48    1.46   0
   3  -7   4    9.13    5.20   0
   6  -4   1   19.12    2.85   0
   6  -3   0   41.44    2.96   0
   0  -6   6   47.97    3.49   0
   0  -4   7   19.08    1.66   0
   0  -2   6  268.29    2.24   0
   0   0  -2   27.15    1.28   0
   1  -1   5 1169.84    4.10   0
   2  -1   5  275.61    2.15   0
   2   0   2  409.67    2.95   0
   3  -4   7   80.00    1.77   0
   4  -4   6  104.14    1.90   0
   4  -1   3   95.00    1.69   0
   5  -5   4    6.57    1.75   0
   5  -3   4   75.36    1.89   0
   5  -1  -2  151.96    4.45   0
   5  -1  -1   97.63    3.20   0
  -1  -5   6  230.65    4.11   0
  -1  -3   6  158.58    2.35   0
  -1  -2   5  937.75    4.65   0
   1   0   2 1279.97    5.72   0
   3  -6   6   24.45    1.94   0
   3  -2   6   22.47    1.40   0
   3   0   1   73.65    1.65   0
   4  -6   5    7.45    1.98   0
   4  -3   6   60.53    1.68   0
   4  -2   5   30.56    1.37   0
   5  -2   3  171.37    2.33   0
  -1  -1   3 1675.26    8.15   0
   0  -5   7   63.90    2.62   0
   0  -3   7  188.03    2.19   0
   3  -5   7   24.19    1.64   0
   3  -3   7   27.57    1.52   0
   4  -5   6   24.10    1.59   0
   5  -1   0   55.24    2.38   0
   6  -3   1   21.59    2.68   0
   5  -4   5   55.93    1.87   0
   6  -4   2   40.85    2.95   0
   0   0  -1  848.75    7.72   0
   1  -4   8   58.54    1.97   0
   1  -2   7    2.53    1.18   0
   2  -4   8    1.92    1.45   0
   3  -1   5  425.28    2.66   0
   0  -1   5  388.65    2.70   0
   1  -6   7    9.96    2.81   0
   2  -6   7   10.79    2.18   0
   3   0   2  390.38    2.91   0
   4  -1   4   82.50    1.64   0
   5  -5   5    2.57    1.89   0
   5  -3   5   23.42    1.65   0
   5  -2   4   67.07    1.88   0
   5  -1   1   97.02    2.37   0
   6  -3   2   23.47    2.66   0
   1  -5   8    1.03    2.03   0
   1  -3   8   98.69    1.84   0
   2  -5   8   -0.15    1.69   0
   2  -3   8  102.57    1.85   0
   2   0   3  745.64    3.59   0
   4  -4   7   29.95    1.50   0
   4  -2   6   19.58    1.39   0
  -2  -4   5  179.66    5.40   0
   1  -1   6  221.51    1.99   0
   2  -1   6   31.01    1.48   0
   3  -4   8   14.27    1.43   0
   3  -2   7  115.11    1.94   0
   4  -6   6   48.48    3.16   0
   4  -3   7  118.95    1.97   0
   6  -4   3    8.69    2.50   0
  -1  -4   7   40.16    2.51   0
   0  -4   8  201.35    2.91   0
   0  -2   7  114.45    1.85   0
   1   0   3  130.42    1.77   0
   3  -6   7    3.37    2.35   0
   3  -3   8   14.07    1.44   0
   4  -5   7    4.43    1.59   0
   5  -4   6   19.58    1.74   0
   5  -1   2   12.88    1.81   0
   6  -3   3   55.66    2.70   0
   6  -2   0    5.06    3.67   0
   1   0  -3  188.13    2.64   0
   3  -5   8    4.57    1.59   0
   3  -1   6  141.69    1.98   0
   6  -2   1   41.33    3.21   0
  -1  -2   6  142.89    2.12   0
   0  -3   8  168.39    2.22   0
   2  -2   8   61.51    1.72   0
   3   0   3  107.66    1.63   0
   4  -1   5    4.67    1.25   0
   5  -5   6    3.16    2.38   0
   5  -3   6   93.47    1.98   0
   5  -2   5    1.33    1.48   0
  -1  -3   7   61.93    1.96   0
   0  -5   8    2.04    2.66   0
   1  -2   8    0.15    1.14   0
   2  -4   9   53.51    1.77   0
   2   0   4   19.74    1.04   0
   4   0   0   52.44    2.15   0
   5  -1   3   72.59    2.11   0
   6  -4   4    2.00    2.46   0
  -1  -5   7  132.29    4.65   0
  -1  -1   4  473.77    3.69   0
   0   0   1  820.73    7.61   0
   1  -4   9   23.23    1.74   0
   2  -6   8    0.12    3.58   0
   2  -3   9   16.31    1.59   0
   4  -4   8    2.20    1.46   0
   4  -2   7   64.44    1.66   0
   4   0   1    0.70    1.50   0
   6  -3   4   69.77    2.62   0
   6  -2   2    5.46    2.53   0
  -2  -3   5   30.54    2.94   0
   0  -1   6  783.54    3.54   0
   1  -3   9  185.98    2.39   0
   1   0   4    7.21    0.93   0
   3  -4   9   19.42    1.48   0
   3  -2   8    9.23    1.38   0
   4  -3   8    7.15    1.39   0
   4   0  -1  146.16    3.66   0
   1  -5   9   36.09    2.53   0
   1  -1   7  305.06    2.29   0
   2  -5   9   16.67    1.94   0
   3  -3   9  122.84    1.97   0
   3   0   4   52.44    1.32   0
   4  -5   8    4.10    1.86   0
   4   0   2   52.30    1.64   0
   5  -4   7    1.23    1.63   0
   5  -2   6   42.21    1.88   0
   0   0   2   29.41    1.27   0
   2   0  -3 1416.60    8.24   0
   3  -6   8    3.71    5.11   0
   3  -1   7   15.50    1.50   0
   4  -1   6   94.43    1.71   0
   5  -3   7   37.75    1.69   0
   5  -1   4  256.97    2.64   0
   6  -4   5   31.16    3.23   0
   6  -2   3  101.68    2.94   0
   0  -2   8   67.73    1.59   0
   2   0   5   75.70    1.35   0
   3  -5   9   14.87    1.90   0
   0  -4   9   88.14    2.30   0
   2  -2   9   10.43    1.39   0
   4  -2   8  141.52    2.00   0
   4   0   3  119.27    1.82   0
   5  -5   7    2.52    3.42   0
   6  -3   5  101.59    2.59   0
  -1  -4   8   96.20    3.18   0
   0  -3   9  121.66    2.11   0
   1  -2   9   16.50    1.35   0
   1   0   5   49.08    1.18   0
   3   0   5  331.98    2.38   0
   4  -4   9    2.80    1.47   0
   5  -1   5   64.09    2.00   0
   6  -2   4   20.24    2.41   0
  -1  -2   7  755.50    4.07   0
   0  -1   7   84.06    1.43   0
   0   0   3    1.61    0.82   0
   2  -4  10    6.58    1.64   0
   2  -3  10   50.62    1.62   0
   3  -2   9   76.56    1.51   0
   4  -3   9   25.74    1.46   0
   4  -1   7   18.22    1.36   0
   5  -2   7  151.78    2.18   0
  -1  -3   8  131.74    2.42   0
  -1  -1   5  126.44    1.88   0
   0  -5   9   18.73    3.55   0
   1  -4  10   93.55    2.20   0
   1  -1   8  254.84    2.17   0
   2   0   6  795.37    3.34   0
   3  -4  10   13.90    1.50   0
   3  -1   8   10.33    1.37   0
   4   0   4  488.59    3.04   0
   5  -4   8    3.89    1.78   0
   5  -3   8   19.35    1.74   0
   1  -3  10   77.45    1.85   0
   3  -3  10   11.63    1.30   0
   4  -5   9    0.48    2.90   0
   6  -4   6   26.96    3.98   0
   6  -3   6   50.03    2.59   0
   0   0   4  924.81    4.30   0
   2  -5  10    3.72    2.41   0
   3   0   6   89.13    1.55   0
   6  -2   5   23.65    2.28   0
  -2  -2   2  106.05    3.42   0
  -2  -2   4   85.47    3.93   0
  -1  -1  -1  274.78    2.84   0
   0  -2   9  158.49    2.00   0
   1  -5  10    6.48    3.03   0
   1   0  -2  459.33    4.78   0
   1   0   6   77.49    1.23   0
   2  -2  10    2.03    1.28   0
   4  -2   9   45.99    1.51   0
   4   0   5  346.69    2.55   0
   5  -1   6    1.34    1.34   0
   2  -1   9  213.90    2.13   0
   3  -5  10   13.44    3.03   0
   3  -2  10  227.22    2.21   0
   4  -1   8    4.32    1.22   0
   5  -2   8   80.72    1.79   0
   0  -4  10   57.72    2.74   0
   0  -1   8   52.35    1.43   0
   1  -2  10   59.33    1.55   0
   3  -1   9  188.48    2.02   0
   4  -4  10    4.62    1.69   0
   4  -3  10   19.91    1.43   0
  -2  -3   6   28.94    3.29   0
  -1  -2   8   81.80    1.82   0
  -1  -1   6  670.40    3.58   0
   0  -3  10   61.63    1.84   0
   0   0   5   35.93    1.06   0
   1  -1   9  239.18    2.09   0
   2  -4  11   15.62    1.96   0
   2  -3  11   15.11    1.38   0
   3   0   7    2.88    1.19   0
   4   0   6   79.75    1.69   0
   5  -4   9   19.56    2.71   0
   5  -3   9   25.82    1.66   0
   6  -3   7   23.39    2.80   0
   6  -2   6   65.54    2.39   0
   6  -1   2    3.89    3.12   0
   1   0   7  222.36    1.93   0
   5  -1   7    1.40    1.34   0
   5   0   2   45.54    2.10   0
   6  -1   3   25.32    2.75   0
  -1  -3   9   10.90    2.10   0
   1  -4  11   21.63    2.29   0
   1  -3  11   14.24    1.51   0
   3  -4  11   14.07    1.79   0
   3  -3  11   27.56    1.47   0
   4  -2  10   95.26    1.68   0
   5   0   3  133.21    2.33   0
  -1  -4   9   25.62    3.36   0
   4  -1   9   95.09    1.63   0
   5   0   1    0.27    1.97   0
   5   0   4    9.04    1.61   0
   6  -1   4   25.70    2.35   0
   0  -2  10   15.35    1.40   0
   0   0   6  256.96    1.97   0
   2  -2  11  244.42    2.25   0
   2  -1  10   67.76    1.49   0
   3   0   8   24.96    1.29   0
   4   0   7    2.89    1.13   0
   5  -2   9  188.87    2.25   0
   6  -2   7    8.31    2.15   0
  -1  -1   7  444.57    2.86   0
   0  -1   9  231.55    2.05   0
   1  -2  11  152.21    2.13   0
   1  -1  10   98.29    1.68   0
   1   0   8    1.21    1.20   0
   3  -2  11   65.77    1.47   0
   3  -1  10   47.89    1.41   0
   5  -1   8    6.45    1.35   0
   5   0   5  361.15    2.99   0
   6  -1   5   44.34    2.56   0
  -2  -2   5  257.47    4.22   0
   4  -3  11   11.21    1.45   0
  -1  -2   9  114.83    2.04   0
   0   0   7   42.80    1.13   0
   2   1   3  135.27    1.62   0
   2   1   4  489.69    2.67   0
   3   1   3   35.49    1.27   0
   4  -4  11   10.14    3.17   0
   5  -3  10   45.64    2.13   0
   0  -3  11  107.24    2.44   0
   2  -3  12    2.16    1.54   0
   2   0   9   85.79    1.68   0
   2   1   2  287.67    2.36   0
   3   1   4  118.10    1.58   0
   4  -1  10  124.14    1.75   0
   4   0   8   53.92    1.44   0
   5   0   6    5.28    1.62   0
   6  -1   6   17.19    2.13   0
   0  -4  11    1.82    3.14   0
   2  -4  12    2.92    2.53   0
   2  -1  11   65.25    1.52   0
   2   1   5  303.08    2.08   0
   3  -3  12    1.55    1.51   0
   3   0   9    5.66    1.21   0
   3   1   2  116.93    1.73   0
   3   1   5  454.06    2.58   0
   4  -2  11   73.51    1.58   0
   5  -2  10   27.49    1.74   0
   6  -2   8   11.90    2.43   0
  -1  -1   0 5677.50   13.77   0
  -1  -1   8  105.06    1.70   0
   1  -3  12   13.75    1.72   0
   1   0   9   86.64    1.60   0
   2  -2  12    0.93    1.18   0
   3  -1  11  134.96    1.73   0
   5  -1   9   87.92    1.83   0
  -1  -3  10  102.53    2.87   0
   0  -2  11   66.35    1.69   0
   0  -1  10    2.72    1.11   0
   0   0   8  163.25    1.65   0
   1  -4  12    1.33    3.25   0
   1  -1  11  395.98    2.54   0
   1   1   4  760.77    3.17   0
   2   1   6   31.53    1.13   0
   3  -2  12    9.15    1.30   0
   3   1   6  146.08    1.67   0
   5   0   7  155.12    2.19   0
  -2  -2   6  698.62    5.57   0
   1  -2  12    1.85    1.25   0
   1   1   3  655.10    3.44   0
   1   1   5 1169.93    3.69   0
   2   0  10   78.48    1.53   0
   4   0   9    4.38    1.20   0
   6  -1   7    5.80    2.11   0
   2   1   1  396.78    3.29   0
   2   1   7    4.12    1.23   0
   3   0  10   24.12    1.24   0
   3   1   1   57.43    1.46   0
   4  -3  12    7.58    2.44   0
   4   1   3  112.40    1.78   0
   4   1   4   93.94    1.72   0
  -1  -2  10  121.24    2.28   0
   1   1   6  214.68    1.72   0
   2   0  -2 4686.09   13.37   0
   3   0  -2   53.31    2.19   0
   3   1   7   16.61    1.05   0
   4  -1  11   16.75    1.29   0
   4   1   5    5.42    1.08   0
   1   0  10  141.35    1.70   0
   1   1   2  960.54    4.13   0
   2  -1  12   41.06    1.32   0
   4  -2  12   12.02    1.35   0
   4   1   2   88.06    1.77   0
   4   1   6  103.87    1.76   0
   5  -1  10   13.44    1.41   0
   5   0   8   68.58    1.61   0
  -1  -1   9  118.41    1.66   0
  -1   0   4 2869.79    7.32   0
  -1   0   5 1582.00    5.13   0
   0  -3  12    2.17    2.33   0
   0   0   9  349.97    2.21   0
   1   1   7  280.42    2.06   0
   2  -3  13    4.87    1.92   0
   3  -1  12    8.71    1.09   0
   5  -2  11   14.28    1.98   0
   6  -1   8   17.55    2.22   0
  -1   0   6  511.65    2.69   0
   0  -1  11  145.58    1.82   0
   1  -1  12    3.70    1.18   0
   2  -2  13    1.61    1.29   0
   2   0  11  276.33    2.05   0
   3  -3  13    0.48    2.52   0
   3   1   8   10.25    1.05   0
   4   0  10   42.27    1.29   0
   4   1   7   18.67    1.32   0
  -2  -2   7  220.45    3.25   0
   0  -2  12    6.70    1.64   0
   1  -3  13   11.58    2.28   0
   3  -2  13   17.84    1.39   0
   3   0  11   10.23    1.08   0
  -1   0   7  626.25    2.88   0
   1   0  11    6.41    1.07   0
   2   1   9  211.92    1.87   0
   5   0   9   18.86    1.36   0
   6   0   4  170.15    3.61   0
   6   0   5   18.99    2.62   0
  -1   0   3  190.01    2.10   0
   0   0  10  368.13    2.23   0
   1  -2  13    7.50    1.47   0
   3   1   9  190.28    1.74   0
   4  -1  12    3.72    1.21   0
   4   1   8    3.91    1.09   0
  -1  -3  11  106.23    3.34   0
  -1  -1  10   67.46    1.59   0
   0   1   5  357.92    2.04   0
   0   1   6  696.98    2.71   0
   4   0  11   17.38    1.14   0
   5  -1  11    8.23    1.51   0
   6  -1   9   21.04    2.96   0
   6   0   6    9.91    2.30   0
  -1  -2  11   32.39    1.88   0
  -1   0   8   44.95    1.20   0
   0   1   4 1052.21    3.68   0
   1   1   9  232.26    1.94   0
   2  -1  13   20.14    1.20   0
   2   0  12    2.24    1.01   0
   3  -1  13    0.08    1.09   0
   4   1   1   60.72    1.81   0
   5   1   4  254.65    2.73   0
   5   1   5   72.33    1.87   0
   0  -1  12   97.11    1.60   0
   0   1   7   79.66    1.16   0
   2   1  10   67.61    1.32   0
   3   0  12   55.22    1.22   0
   3   1  10   47.81    1.26   0
   4  -2  13    0.99    2.70   0
   4   1   9   97.47    1.52   0
   5   0  10    0.60    1.42   0
   5   1   6    0.98    1.47   0
   6   0   7   14.47    2.33   0
  -2  -2   8  100.79    2.54   0
   1  -1  13    9.90    1.20   0
   1   0  12  163.17    1.80   0
   1   1   1  264.57    2.51   0
  -2  -2   4   84.09    2.86   0
   0   0  11  511.35    2.58   0
   0   1   3  740.70    3.21   0
   0   1   8   49.24    1.08   0
   1   1  10   95.59    1.41   0
   2  -2  14    8.54    1.99   0
   5   1   3   68.42    1.90   0
   5   1   7    0.54    1.18   0
  -1   0   9   99.90    1.37   0
   0  -2  13   37.49    1.99   0
   3   1   0 1642.38    7.74   0
   4  -1  13   11.00    1.70   0
  -2  -1   6   83.21    1.79   0
  -1  -1  11  798.04    3.69   0
   0   1   9  222.34    1.69   0
   2   1  11   65.78    1.25   0
   3   1  11  137.60    1.54   0
   4   0  12   53.55    1.34   0
   4   1  10  125.76    1.55   0
   5  -1  12   10.80    3.44   0
   5   1   8    7.00    1.48   0
   6   0   8    1.12    2.34   0
   1  -2  14    1.22    2.10   0
   2   0  13    6.30    1.03   0
   2   2   5  340.97    1.98   0
   2   2   6   21.08    1.01   0
   2   2   7  150.42    1.53   0
   3   2   5    4.44    0.89   0
   3   2   6   30.81    1.09   0
   5   0  11   -0.50    1.50   0
  -2  -1   5  637.62    4.75   0
  -2  -1   7  177.17    2.16   0
   0  -1  13   78.83    1.73   0
   1   1  11  384.58    2.13   0
   2  -1  14    3.99    1.21   0
   2   2   4  613.49    2.51   0
   3   0  13    0.86    0.97   0
   3   2   4   61.75    1.22   0
   3   2   7  124.04    1.44   0
  -2  -2   9  174.78    3.27   0
  -1  -2  12   17.20    2.19   0
  -1   0  10   83.50    1.36   0
   0  -1  -1 1347.01    4.91   0
   0   0  12    2.08    1.01   0
   0   1  10    2.54    1.00   0
   1   0  13    0.42    0.97   0
   2   2   8   58.06    1.22   0
   3  -1  14   17.23    1.60   0
   3   2   8    9.45    0.98   0
   5   1   9   90.53    1.81   0
  -2  -1   8  126.26    2.00   0
   1  -1  14    1.47    1.29   0
   1   2   5  403.32    1.98   0
   1   2   6   26.09    1.02   0
   2   1  12   39.26    1.06   0
   4   1  11   15.49    1.11   0
   5   1   2   10.25    2.04   0
   0   1   2 1396.09    4.31   0
   2   2   3   22.42    0.75   0
   2   2   9   10.15    0.98   0
   3   1  12    7.79    0.89   0
   3   2   3  294.64    2.00   0
   4   2   5   38.47    1.30   0
   4   2   6   24.46    1.15   0
   4   2   7   70.96    1.50   0
  -1  -1  12    8.91    1.51   0
  -1   0   2  472.80    3.76   0
   1   1  12    4.04    0.89   0
   1   2   4  423.22    1.97   0
   3   2   9   77.47    1.28   0
   4   0  13    0.10    1.34   0
  -1   0  11  149.11    1.77   0
  -1   1   6  678.40    2.57   0
  -1   1   7  435.71    2.11   0
   0   1  11  140.62    1.47   0
   1   2   9   13.61    1.05   0
   2   0  14    2.88    1.06   0
   4   2   4   53.15    1.32   0
   4   2   8  148.44    1.64   0
   5   0  12    0.78    3.16   0
   5   1  10   14.03    1.50   0
  -2  -1   9   97.19    1.81   0
  -1   1   5  136.06    1.25   0
  -1   1   8  102.75    1.21   0
   0   0  13   36.90    1.35   0
   2   2  10    2.09    0.91   0
   3   0  14   19.24    1.27   0
   3   2  10  219.88    1.74   0
   1   0  14   -0.01    1.19   0
   2   1  13   20.26    0.97   0
   4   1  12    3.43    1.06   0
   4   2   9   48.11    1.21   0
  -1   1   9  115.39    1.30   0
   0  -1  14    5.54    1.69   0
   0   2   6  250.02    1.61   0
   0   2   7   98.30    1.33   0
   1   2   3   73.86    0.96   0
   1   2  10   60.47    1.15   0
   3   1  13    0.10    0.90   0
  -1  -1   1 2963.08    9.96   0
  -1   1   4  447.78    2.14   0
   0   1  12   95.39    1.34   0
   0   2   8   53.16    1.19   0
   1   1  13    9.30    0.90   0
   2   2   2   35.86    0.79   0
   2   2  11  244.37    1.70   0
   3   2   2   40.88    1.02   0
   4   2   3   53.32    1.40   0
  -1   0  12  575.95    2.93   0
  -1   1  10   65.07    1.28   0
   0   2   5 1699.26    3.91   0
   0   2   9  141.08    1.40   0
   3   2  11   64.76    1.15   0
   4   2  10   95.21    1.47   0
   5   1  11    9.36    1.68   0
  -2  -1  10  103.40    2.10   0
  -2   0   7  764.63    3.25   0
  -2   0   8   15.97    1.10   0
  -1  -1  13   22.05    1.96   0
   1   2  11  149.44    1.41   0
  -2   0   6   73.05    1.24   0
   0   2   4 1697.31    3.80   0
   2   2  12    0.24    0.83   0
   4   1  13   12.39    1.72   0
   5   2   6   45.74    1.74   0
   5   2   7  173.67    2.26   0
  -2   0   9  213.20    1.99   0
   0   0  14    8.66    1.24   0
   0   2  10   14.10    0.91   0
   2   0  15    4.17    1.97   0
   2   1  14    3.92    0.98   0
   3   2  12    8.81    0.97   0
   4   2  11   74.27    1.48   0
   5   2   5    0.04    1.61   0
   5   2   8   83.44    1.88   0
  -1   1  11  757.68    2.90   0
   0   1  13   81.51    1.34   0
   1   2   2  153.25    1.25   0
   1   2  12    0.69    0.80   0
   3   1  14   16.71    1.34   0
  -2   0   5  115.78    1.48   0
   0   2  11   60.30    1.12   0
   1   0  15    0.31    1.65   0
   1   1  14    1.45    0.99   0
   2   3   6   40.08    0.98   0
   2   3   7   10.73    0.87   0
   2   3   8   95.58    1.24   0
   3   3   7   31.87    1.18   0
   5   2   9  198.49    2.41   0
  -2   0  10   39.68    1.46   0
  -1   0  13   50.54    1.62   0
  -1   1   3 1735.59    4.29   0
   2   3   5  160.13    1.43   0
   2   3   9   14.39    0.93   0
   3   3   6  195.64    1.67   0
   3   3   8   12.89    0.98   0
   4   2   2   50.11    1.43   0
  -2  -1  11   14.22    1.98   0
   0   1   1 1473.83    4.67   0
   0   2   3  168.27    1.24   0
   1   3   6  102.77    1.27   0
   1   3   7   87.26    1.31   0
   1   3   8   87.87    1.30   0
   2   2  13    1.82    0.83   0
   3   3   5  215.62    1.72   0
   3   3   9  113.01    1.39   0
   5   2   4   65.57    2.11   0
  -1   1  12    9.69    1.01   0
  -1   2   7  678.72    2.43   0
  -1   2   8   72.34    1.07   0
   1   2  13    6.65    0.95   0
   1   3   9  161.74    1.45   0
   2   2   1   65.41    1.06   0
   2   3  10   49.62    1.05   0
   3   2  13   17.62    1.08   0
   4   2  12   10.78    1.28   0
   5   2  10   35.10    2.14   0
  -1   2   6  119.37    1.16   0
  -1   2   9  106.30    1.26   0
   0   2  12    5.70    0.86   0
   1   3   5  507.80    2.07   0
   2   3   4  734.17    2.53   0
   3   2   1  675.27    3.61   0
   3   3  10   12.31    0.94   0
  -2   0  11  373.58    2.83   0
  -1   2  10  113.10    1.40   0
   0   1  14    4.96    1.10   0
   1   3  10   75.72    1.16   0
   2   1  15    0.91    1.96   0
   3   3   4  177.08    1.59   0
   4   3   6   74.04    1.53   0
   4   3   7  131.68    1.74   0
   4   3   8    7.29    1.29   0
  -2   1   7  192.62    1.59   0
  -2   1   8  134.52    1.39   0
  -1   2   5  883.06    2.60   0
   1   1  15   16.98    1.72   0
   2   3  11   14.76    0.83   0
  -2   1   9   95.76    1.31   0
  -1   1  13   21.95    1.31   0
   0   3   8  129.87    1.40   0
   1   3   4   39.45    0.83   0
   1   3  11   13.72    0.85   0
   2   2  14    8.18    1.10   0
   3   3  11   23.23    1.03   0
   4   3   5  186.80    1.94   0
   4   3   9   26.01    1.24   0
  -2   0   4  146.08    1.71   0
  -2   1   6   81.10    1.06   0
  -1   0  14    7.92    2.17   0
  -1   2  11   31.29    1.04   0
   0   2  13   34.30    1.08   0
   0   3   9  105.42    1.17   0
   2   3   3   31.23    0.88   0
  -2   1  10  106.29    1.43   0
   0   2   2  749.28    2.65   0
   0   3  10   55.29    1.07   0
   1   2   1 1530.26    4.08   0
   1   2  14    4.00    0.97   0
   2   3  12    1.68    0.85   0
   3   2  14    0.77    2.16   0
   4   3  10   21.41    1.28   0
  -1   2   4  246.70    1.43   0
   1   3  12   13.41    0.86   0
   3   3   3  134.19    1.45   0
  -2   0  12  104.02    2.16   0
  -2   1   5  666.09    2.88   0
  -1   2  12   16.98    1.08   0
   0  -1   0    0.32    0.42   0
   0   3  11  104.35    1.23   0
   1   3   3  750.49    2.41   0
   3   3  12    1.08    0.99   0
   4   3   4  424.31    2.74   0
  -2   1  11   13.50    1.22   0
  -1   1   2  823.32    3.12   0
   0   1  15    0.99    1.99   0
   2   0  -1 2394.67    7.55   0
   4   3  11   10.63    1.70   0
  -1   1  14    2.19    1.56   0
   0   2  14   20.80    1.17   0
   0   3   4  233.74    1.43   0
   2   3  13    3.70    0.97   0
  -1   3   8  111.36    1.26   0
   0   3  12    0.99    0.81   0
   1   3  13    9.55    0.95   0
   2   4   7   38.59    1.17   0
   2   4   8    0.50    0.89   0
  -2   2   8  102.42    1.24   0
  -2   2   9  188.65    1.68   0
  -1   2   3  391.98    1.75   0
  -1   2  13   26.11    1.29   0
  -1   3   7   48.26    1.06   0
  -1   3   9    8.78    0.85   0
   1   2  15   -1.30    2.22   0
   1   4   8   53.52    1.11   0
   2   3   2  605.62    2.72   0
   2   4   6  318.79    1.98   0
   2   4   9   46.64    1.07   0
   3   3  13    8.68    2.04   0
  -2   1  12  134.55    1.95   0
  -2   2   7  233.36    1.58   0
  -1   3   6  137.28    1.33   0
  -1   3  10  101.27    1.27   0
   1   4   7  103.26    1.27   0
   1   4   9   19.47    0.93   0
   2   4  10    6.14    0.86   0
   3   4   7   91.55    1.49   0
   3   4   8   13.83    1.09   0
  -2   1   4  279.07    1.71   0
  -2   2   6  703.98    2.50   0
  -2   2  10   56.11    1.20   0
   0   3   3   77.12    0.93   0
   1   3   2  961.00    2.76   0
   1   4   6   31.67    0.96   0
   1   4  10   87.30    1.17   0
   2   4   5    9.12    0.94   0
   3   3   2   57.96    1.15   0
   3   4   6   95.12    1.50   0
   3   4   9   18.51    1.12   0
   4   3   3   79.26    1.69   0
  -1   3   5   17.22    0.90   0
  -1   3  11  115.63    1.35   0
   0   3  13    1.96    0.91   0
   3   4  10   13.53    1.22   0
  -2   2  11   31.62    1.28   0
   0   4   8  158.69    1.46   0
   1   3  14   10.56    1.33   0
   1   4   5    8.67    0.78   0
   1   4  11   19.52    0.91   0
   2   3  14   22.75    2.08   0
   2   4  11   14.55    0.95   0
   3   4   5  222.90    1.87   0
  -2   2   5  274.84    1.60   0
   0   2   1  608.84    2.47   0
   0   2  15    2.16    2.63   0
   0   4   7   16.60    0.98   0
   0   4   9   73.62    1.16   0
   2   2   0  102.41    1.36   0
  -2   1  13   17.74    2.03   0
  -1   2  14    8.19    1.63   0
  -1   3  12    4.19    0.99   0
   0   4   6   83.97    1.19   0
   0   4  10   52.85    1.03   0
   2   4   4   19.50    0.85   0
   3   4  11   13.66    1.47   0
  -2   2  12   15.66    1.34   0
  -1   3   4  294.19    1.59   0
   1   4   4  119.78    1.19   0
   1   4  12    1.33    0.86   0
   2   4  12    4.31    1.08   0
   4   4   7   32.38    1.77   0
   4   4   8    2.98    1.67   0
  -1   2   2  767.36    2.64   0
   0   3   2  260.50    1.44   0
   0   3  14   14.47    1.37   0
   0   4   5  260.04    1.66   0
   0   4  11    2.33    0.80   0
   3   4   4  190.30    1.81   0
   4   4   9    2.26    2.00   0
  -2   0   3 1508.46    5.94   0
  -2   3   8   30.53    0.98   0
  -2   3   9   41.83    1.18   0
   1   2   0  220.43    1.63   0
   2   3   1   54.60    0.99   0
   4   4   6  114.59    2.02   0
  -2   1   3  349.18    1.95   0
  -2   2   4   91.34    1.00   0
  -2   3   7  104.28    1.22   0
  -1   3  13    2.16    1.09   0
  -1   4   8   85.64    1.23   0
   0   4  12    2.66    0.97   0
   2   4   3   51.00    0.97   0
  -2   3  10   95.43    1.34   0
  -1   3   3  258.93    1.46   0
  -1   4   7   32.56    1.01   0
  -1   4   9   25.39    0.95   0
   0   1   0    1.32    0.43   0
   0   4   4    8.39    0.87   0
   1   3   1  693.85    2.64   0
   1   4   3   63.56    0.98   0
   1   4  13    9.29    1.23   0
   3   2   0  207.64    2.73   0
  -3   0   8   47.29    1.86   0
  -3   0   9   15.80    2.20   0
  -3   1   8   14.14    1.12   0
  -3   1   9   26.44    1.47   0
  -2   2  13    2.54    1.63   0
  -2   3   6   29.96    0.88   0
  -1   1   1 2851.09    5.77   0
  -1   4   6  142.21    1.36   0
  -1   4  10   31.34    0.99   0
   4   4   5   95.29    2.02   0
  -3   1   7  100.78    1.54   0
  -2   3  11   44.23    1.25   0
   3   3   1    6.11    0.99   0
   3   4   3   48.86    1.22   0
   4   3   2   24.77    1.73   0
  -3   0   7   65.43    1.89   0
  -3   1  10   71.09    1.92   0
  -2   3   5   25.44    0.81   0
  -1   4  11    4.26    0.91   0
   0   4  13   17.02    1.32   0
   1   5   7   14.46    1.08   0
   1   5   8    1.61    0.85   0
   1   5   9   28.99    1.10   0
   2   5   7   70.38    1.38   0
   2   5   8   -0.10    1.04   0
  -1   3  14    0.80    2.65   0
   0   4   3  116.59    1.19   0
   2   5   9   12.75    1.11   0
  -3   1   6  335.28    2.21   0
  -3   2   8   23.83    1.21   0
  -3   2   9   68.48    1.50   0
  -2   2   3  154.12    1.20   0
  -2   3  12   35.37    1.32   0
  -1   4  12   59.62    1.33   0
   0   3   1  176.41    1.23   0
   1   4   2   15.74    0.81   0
   1   5   6  194.42    1.57   0
   1   5  10    5.08    0.93   0
   2   4   2    3.98    0.82   0
   2   5   6   37.16    1.12   0
   2   5  10    3.32    1.16   0
  -3   1  11   59.49    2.42   0
  -3   2   7  246.61    1.86   0
  -1   3   2  291.22    1.50   0
   0   5   7   59.79    1.12   0
   0   5   8    1.11    0.83   0
   0   5   9   18.69    0.91   0
   4   4   4    3.89    1.78   0
  -3   2  10   89.91    1.73   0
  -2   3   4  183.66    1.33   0
  -1   2   1  361.22    1.72   0
   0   2   0 2912.99    5.10   0
   0   5   6  114.76    1.28   0
   0   5  10   13.52    0.93   0
   1   5   5  384.87    2.01   0
   1   5  11    1.01    1.07   0
   2   5   5    4.46    0.91   0
   3   5   7   28.70    1.57   0
   3   5   8    5.36    1.40   0
   3   5   9   13.45    2.01   0
  -3   2   6    8.48    0.90   0
  -2   4   7   49.57    1.03   0
  -2   4   8  145.39    1.45   0
  -2   4   9   56.68    1.16   0
   2   5  11    7.14    1.91   0
   3   5   6   85.41    1.74   0
  -3   0   6    0.63    1.32   0
  -3   2  11   79.14    2.05   0
  -2   3  13   13.86    2.01   0
  -2   4  10   12.11    1.02   0
  -1  -1   2  793.09    4.66   0
   0   4   2   40.99    0.87   0
   0   5   5    1.56    0.83   0
   0   5  11    9.91    0.97   0
  -3   1   5  182.73    1.66   0
  -2   4   6   10.42    0.86   0
  -1   4  13   10.56    1.69   0
   1   3   0  247.22    1.55   0
   1   5   4  103.91    1.25   0
   1   5  12   26.02    2.58   0
   2   3   0  102.61    1.30   0
   2   5   4   11.82    0.93   0
   3   4   2    2.99    0.97   0
  -3   2   5   89.70    1.20   0
  -3   3   8   25.89    1.22   0
  -3   3   9   11.05    1.16   0
  -2   1   2  557.71    2.61   0
  -2   3   3   14.53    0.71   0
  -2   4  11   13.31    1.23   0
  -1   5   7  115.85    1.30   0
  -1   5   8    1.56    0.81   0
  -1   5   9   11.24    0.86   0
   3   5   5  142.09    1.94   0
  -3   3   7   79.57    1.24   0
  -2   2   2  109.36    1.04   0
  -2   4   5  175.15    1.41   0
  -1   5   6  218.56    1.58   0
  -1   5  10    5.69    0.87   0
   0  -1   1 1388.78    4.75   0
   0   5   4   71.73    1.08   0
   1   4   1   42.95    0.93   0
  -3   3  10    8.98    1.35   0
  -1   3   1  664.54    2.16   0
   0   5  12    5.56    1.55   0
   1   5   3   46.32    1.11   0
   2   4   1   47.20    1.05   0
  -3   3   6   27.97    0.96   0
  -2   4  12   60.58    1.82   0
  -1   5   5  206.80    1.52   0
  -1   5  11    7.68    1.16   0
   2   5   3   82.11    1.39   0
   4   4   3   50.85    2.53   0
  -3   3  11   14.82    1.68   0
  -2   4   4  101.37    1.21   0
   0   3   0    0.07    0.53   0
   0   4   1    6.19    0.69   0
   3   5   4   24.12    1.42   0
  -3   2   4   88.10    1.15   0
  -3   3   5   70.88    1.15   0
   0   5   3  267.21    1.62   0
  -3   1   4  516.08    2.97   0
  -2   3   2  172.03    1.26   0
  -1   5   4    8.49    0.86   0
  -2   5   7   12.22    0.91   0
  -2   5   8   53.66    1.11   0
  -1   2   0  201.57    1.34   0
   1   2  -1  316.71    2.22   0
   1   5   2  149.01    1.43   0
   1   6   7    6.62    1.10   0
   1   6   8    8.26    1.21   0
  -3   4   7  122.88    1.51   0
  -3   4   8    6.28    0.97   0
  -3   4   9   37.88    1.33   0
  -2   4   3  123.18    1.34   0
  -2   5   9    4.74    0.93   0
   0   6   8    0.09    0.96   0
   1   6   6   18.82    1.10   0
   1   6   9    9.24    1.43   0
  -3   0   5    3.30    1.38   0
  -3   3   4   42.18    0.90   0
  -2   5   6   13.88    0.94   0
  -2   5  10   14.69    1.09   0
  -1   5   3  160.07    1.39   0
   0   5   2   29.74    0.93   0
   0   6   6   42.78    1.16   0
   0   6   7    7.26    0.92   0
   0   6   9    9.30    1.14   0
   2   5   2   87.33    1.39   0
   2   6   7   10.07    1.76   0
   2   6   8    2.09    2.36   0
   3   3   0  293.44    2.87   0
   3   4   1   17.79    1.24   0
   3   5   3   32.00    1.70   0
  -3   4   6  208.99    1.65   0
  -3   4  10    5.39    1.23   0
  -2   2   1  210.23    1.35   0
  -2   5   5   70.50    1.12   0
  -1   4   1   31.86    0.99   0
   1   4   0   59.82    0.95   0
   1   6   5   25.41    1.13   0
   2   0   0 9999.99   12.88   0
   2   2  -1  200.69    2.22   0
   2   6   6   11.70    1.52   0
  -3   2   3   79.97    1.04   0
  -1   3   0  224.23    1.36   0
   0   2  -1  569.43    2.51   0
   0   6   5  214.38    1.64   0
   0   6  10   18.45    1.90   0
  -3   4   5  123.18    1.32   0
  -2   3   1   61.86    0.94   0
  -2   5  11   11.18    1.64   0
  -1   6   7   35.48    1.08   0
  -1   6   8   12.75    1.00   0
   0   4   0  932.66    2.71   0
   1   3  -1  739.59    2.93   0
   2   4   0  126.07    1.46   0
   2   6   5   18.41    1.53   0
  -3   3   3   14.50    0.79   0
  -3   4  11   27.03    2.14   0
  -2   1   1 1952.74    4.65   0
  -2   5   4   57.19    1.08   0
  -1   5   2  140.08    1.36   0
  -1   6   6   40.45    1.06   0
  -1   6   9    0.82    1.03   0
   1   5   1   20.38    1.04   0
   1   6   4   49.90    1.21   0
  -3   1   3   98.87    1.28   0
  -3   4   4   22.19    0.93   0
   0   3  -1  179.47    1.29   0
   0   5   1   33.05    1.07   0
   0   6   4   52.02    1.11   0
  -1   6   5    3.34    0.82   0
  -1   6  10   10.78    2.05   0
   2   3  -1   67.09    1.24   0
   2   6   4   69.72    1.80   0
  -4   2   7   40.87    1.66   0
  -4   2   8    7.62    1.78   0
  -2   5   3   94.43    1.23   0
  -1   4   0   52.83    1.04   0
   1   6   3  159.47    1.63   0
   2   5   1   52.85    1.36   0
   3   5   2    5.83    1.86   0
  -4   2   9   21.79    2.46   0
  -4   3   7   93.14    1.73   0
  -4   3   8   44.11    1.81   0
  -3   2   2   58.19    1.00   0
  -3   5   7   46.97    1.23   0
  -3   5   8   43.87    1.34   0
  -1   6   4   86.93    1.22   0
   0   6   3   18.45    1.00   0
  -4   2   6   99.16    1.68   0
  -3   3   2   28.99    0.87   0
  -3   4   3   76.89    1.14   0
  -3   5   6    4.21    0.96   0
  -3   5   9   16.55    1.35   0
  -1   5   1  206.77    1.58   0
   0   1  -1 1390.55    4.85   0
  -4   3   6  214.01    1.96   0
  -4   3   9    2.47    1.83   0
  -3   5   5  160.93    1.57   0
  -2   2   0  113.57    1.10   0
  -2   6   6   78.33    1.29   0
  -2   6   7    8.21    1.08   0
  -2   6   8   26.99    1.28   0
  -1   2  -1 1458.55    3.66   0
   1   4  -1   39.51    0.95   0
   2   6   3  107.96    2.01   0
  -3   5  10   24.34    2.56   0
  -2   3   0   98.77    1.03   0
  -2   5   2  124.97    1.35   0
  -2   6   9    4.23    1.68   0
  -1   3  -1  636.76    2.24   0
  -1   6   3   30.81    0.99   0
   0   4  -1    7.34    0.74   0
   0   5   0   -0.46    0.95   0
   1   5   0   18.71    1.01   0
   1   6   2   78.45    1.57   0
  -4   2   5   30.56    1.24   0
  -4   3   5   67.99    1.38   0
  -3   5   4  118.21    1.56   0
  -2   6   5   59.05    1.20   0
   0   6   2   65.92    1.25   0
  -4   4   7    3.47    1.51   0
  -4   4   8   43.05    1.86   0
  -3   4   2   29.14    1.00   0
  -1  -1   3 1601.42    6.03   0
   1   0   0  789.52    5.08   0
  -4   4   6    1.14    1.15   0
  -3   1   2  379.52    2.33   0
  -2   6   4    7.67    0.94   0
  -1   4  -1   38.39    1.01   0
  -1   6   2    5.19    1.13   0
   2   4  -1   53.94    1.43   0
   3   4   0   24.18    1.99   0
  -4   1   7   41.84    3.25   0
  -4   3   4   92.12    1.45   0
  -4   4   5  221.54    2.11   0
  -4   4   9    8.10    2.24   0
  -3   3   1   44.30    1.03   0
  -3   5   3    2.00    0.95   0
  -2   5   1   23.68    1.09   0
  -1   5   0   18.73    1.02   0
   2   5   0  242.15    2.32   0
   2   6   2   42.46    2.02   0
  -4   2   4    9.54    1.12   0
  -3   2   1 1293.85    3.51   0
  -2   6   3   44.45    1.14   0
   0   3  -2  270.60    1.68   0
   0   6   1   34.69    1.16   0
   0   7   6    4.87    2.13   0
   0   7   7    7.43    4.14   0
   1   3  -2  314.75    2.05   0
  -4   1   6   74.46    2.63   0
  -3   4   1   22.20    1.21   0
   0   7   5    5.46    1.64   0
   1   6   1  108.92    1.67   0
   3   5   1   11.46    2.68   0
  -4   3   3    3.32    1.14   0
  -4   4   4   18.27    1.19   0
  -3   6   7   37.89    1.81   0
  -2   1   0 4875.38    7.75   0
  -2   3  -1   49.49    1.06   0
  -1   7   6    1.01    1.98   0
  -1   7   7   24.87    3.85   0
   0   2  -2  704.91    3.07   0
   0   5  -1   33.76    1.11   0
  -3   5   2   41.03    1.20   0
  -3   6   6   39.18    1.45   0
  -3   6   8   14.45    2.62   0
  -2   6   2   22.35    1.13   0
  -1   1  -1  275.23    1.99   0
  -1   6   1   57.70    1.30   0
  -1   7   5    4.60    1.43   0
   0   4  -2   43.85    1.03   0
   0   7   4    3.07    1.49   0
   1   2  -2  776.62    3.79   0
   1   5  -1  228.85    2.00   0
  -4   2   3    8.13    1.11   0
  -4   5   7    5.80    1.90   0
  -3   6   5    6.78    1.18   0
  -2   2  -1   66.76    1.02   0
  -2   5   0  230.56    1.85   0
  -1   3  -2  894.20    2.87   0
  -1   5  -1   19.77    1.19   0
   1   4  -2  226.57    1.94   0
   1   7   4    3.73    2.94   0
  -4   1   5  270.05    3.38   0
  -4   4   3    3.43    1.11   0
  -4   5   6   63.25    1.75   0
  -4   5   8   42.82    2.91   0
  -3   3   0  322.92    1.97   0
  -3   6   4   24.25    1.25   0
  -1   7   4   17.66    1.46   0
   0   6   0   82.58    1.70   0
  -4   5   5   26.25    1.49   0
  -1   2  -2  154.59    1.39   0
  -1   4  -2   14.72    1.02   0
   0   7   3    3.86    1.50   0
   1   6   0    0.76    1.49   0
   2   6   1   80.07    2.60   0
  -4   3   2   14.23    1.11   0
  -4   5   4   53.16    1.67   0
  -3   2   0  239.41    1.76   0
  -3   4   0   25.76    1.23   0
  -3   5   1  110.00    1.55   0
  -2   6   1   63.19    1.38   0
  -1   6   0    1.33    1.09   0
  -1   7   3   30.84    1.63   0
   1   7   3    4.60    2.87   0
  -4   4   2   83.07    1.52   0
  -3   1   1  681.65    3.65   0
  -3   6   3    3.03    1.12   0
  -2   7   5   74.54    2.13   0
  -2   7   6    1.06    2.60   0
   2   5  -1   28.18    1.87   0
  -4   1   4  246.93    3.14   0
  -4   2   2    9.80    1.17   0
  -2   5  -1   52.74    1.36   0
   0   5  -2   36.18    1.40   0
   0   7   2   12.02    1.80   0
   2   3  -2  192.43    2.42   0
  -4   5   3   14.39    1.31   0
  -3   6   2   55.51    1.50   0
  -2   3  -2  567.84    2.58   0
  -2   7   4   16.63    1.55   0
  -1   7   2    2.26    1.50   0
  -4   3   1  110.93    1.68   0
  -3   3  -1    6.60    1.04   0
  -3   5   0    6.78    1.17   0
  -2   6   0   27.37    1.42   0
  -1   5  -2  161.69    1.75   0
   0   3  -3   87.48    1.23   0
   0   6  -1   38.59    1.59   0
   1   5  -2  167.40    2.12   0
   1   7   2    2.87    3.17   0
  -4   4   1  140.54    1.74   0
  -3   4  -1   17.96    1.28   0
  -2   7   3   37.41    1.59   0
  -1   6  -1  113.30    1.81   0
   0   4  -3  141.75    1.67   0
  -4   5   2    6.29    1.24   0
  -2   2  -2   34.57    0.95   0
  -1   3  -3  733.35    2.79   0
  -7  -1   1   54.54    3.63   0
  -7   0   1    1.35    2.37   0
  -7   2   4    1.33    1.99   0
  -6   2   1   76.51    2.16   0
  -6   3   5   70.73    2.26   0
  -5  -1  -2   11.34    2.39   0
  -5   0  -2   46.75    2.18   0
  -5   3   2   14.10    1.82   0
  -4   1  -2   80.54    1.88   0
  -3   2  -1  673.10    3.54   0
  -3   3   1   46.47    1.77   0
  -6  -1  -1   13.47    2.85   0
  -6   0  -1   29.86    2.15   0
  -6   3   4   43.55    2.03   0
  -6   3   8  102.31    3.42   0
  -4   3   1   95.93    2.24   0
  -1   1  -1  286.73    2.78   0
  -2   1  -2  288.90    2.48   0
  -1   3   3  294.14    3.12   0
  -7   1   1   53.13    2.42   0
  -7   2   3   48.04    2.19   0
  -6   3   3   27.51    1.84   0
  -2   2  -1   63.52    1.50   0
  -2   3   1   69.45    1.66   0
  -6   1  -1   14.58    1.96   0
  -5   1  -2   10.98    1.67   0
  -5   2  -1   40.40    2.02   0
  -5   3   1   30.34    1.89   0
  -4   4   5  223.35    3.49   0
  -4   4   6    0.70    2.81   0
  -3   4   5  140.50    3.17   0
  -3   4   6  228.82    3.90   0
  -1   2   0  222.42    2.33   0
  -7   0   0   46.97    3.15   0
  -6   2   0    5.65    1.76   0
  -4   0  -3  115.66    2.28   0
  -4   3   0   12.06    2.08   0
  -4   4   4   18.85    2.40   0
  -4   4   7    2.83    3.10   0
  -3   0  -3  109.46    1.93   0
  -3   3   0  301.32    2.75   0
  -3   4   7  129.56    4.15   0
  -7   2   2   61.80    2.24   0
  -6   3   2   38.11    1.93   0
  -3   4   4   24.97    2.10   0
  -8   1   4    4.94    4.88   0
  -7  -1   0   10.44    4.50   0
  -5   4   5   90.70    3.14   0
  -5   4   6   70.71    3.35   0
  -4  -1  -3  100.29    2.78   0
  -4   2  -2   46.95    2.10   0
  -4   4   3    2.97    2.22   0
  -4   4   8   38.24    4.54   0
  -3  -1  -3   35.26    2.01   0
  -3   2  -2   33.79    1.71   0
  -1   3   2  313.13    3.06   0
  -7   1   0   10.22    2.33   0
  -6   0  -2    1.85    2.63   0
  -5   3   0   23.41    1.94   0
  -5   4   4   78.77    2.53   0
  -5   4   7  119.55    4.02   0
  -4   1  -3   99.84    2.03   0
  -3   1  -3   34.71    1.73   0
  -3   4   3   81.18    2.27   0
  -3   4   8    3.72    4.82   0
  -8   1   3   18.50    5.27   0
  -7   2   1  127.83    2.74   0
  -7   3   5   84.37    3.14   0
  -7   3   6   24.58    3.97   0
  -6   3   1    9.40    1.80   0
  -5   0  -3  130.52    2.81   0
  -2   3   0  102.97    1.93   0
   0   2   2  717.76    6.50   0
  -7   3   4    8.67    2.37   0
  -6   1  -2    5.57    2.46   0
  -6   2  -1   40.24    2.17   0
  -5  -2  -2   49.45    5.49   0
  -5   2  -2   55.65    2.05   0
  -5   4   3    3.52    2.05   0
  -5   4   8   15.95    6.37   0
  -4   3  -1   40.17    2.38   0
  -4   4   2   77.36    2.32   0
  -3   3  -1    4.86    2.11   0
  -3   4   2   31.19    2.21   0
  -2   4   5  205.42    3.67   0
  -2   4   6   10.91    3.40   0
  -6  -1  -2    6.11    3.76   0
  -5   1  -3   73.95    2.52   0
  -2   0  -3  769.82    4.63   0
  -2   2  -2   33.76    1.40   0
  -2   4   4  117.43    2.95   0
  -8   1   2   38.83    5.55   0
  -7   0  -1   23.94    3.63   0
  -7   3   3    0.19    2.24   0
  -5  -1  -3   67.01    3.59   0
  -5   3  -1   53.87    2.15   0
  -5   4   2   25.85    2.15   0
  -2   4   3  157.23    2.93   0
  -1   0  -2 1331.25    7.64   0
  -7   1  -1    1.39    2.97   0
  -7   2   0   79.15    2.66   0
  -6   3   0   41.10    2.10   0
  -6   4   5   25.31    3.13   0
  -6   4   6   21.03    4.16   0
  -4   4   1  134.44    2.58   0
  -2   4   7   49.07    5.30   0
  -1   2  -1 1392.91    6.01   0
  -1   3   1  742.21    4.27   0
  -7   3   2   23.20    2.30   0
  -6   4   4   38.31    2.74   0
  -4   2  -3   43.87    2.11   0
  -3   4   1   12.77    1.90   0
  -2   1  -3  137.09    2.05   0
  -8   2   3   49.35    6.71   0
  -6   2  -2    4.73    2.10   0
  -6   4   3    6.89    2.36   0
  -5   4   1   28.84    2.09   0
  -4   3  -2   22.94    2.39   0
  -3   2  -3  240.65    2.53   0
  -2   3  -1   50.54    1.80   0
  -2   4   2  319.82    3.51   0
  -1   1  -2  889.66    5.36   0
  -5   2  -3  171.92    2.78   0
  -4   0  -4  535.38    4.36   0
  -4   4   0   11.59    2.05   0
  -8   1   1   18.97    6.15   0
  -7   3   1   53.56    2.72   0
  -6   0  -3  125.83    3.89   0
  -6   1  -3   26.27    2.94   0
  -6   3  -1   23.26    2.11   0
  -6   4   2   25.00    2.39   0
  -5   3  -2   19.31    2.16   0
  -4   1  -4   84.85    2.25   0
  -3   4   0   26.35    2.35   0
   0  -1   1 1258.61    7.26   0
  -7   2  -1   28.36    2.68   0
  -5   4   0   76.91    2.51   0
  -3   0  -4   54.11    2.11   0
  -3   1  -4  117.68    2.18   0
  -2   4   1   55.88    2.47   0
  -6   4   1   31.27    2.73   0
  -5   0  -4    7.25    3.23   0
  -5   1  -4  249.87    3.70   0
  -2   2  -3   20.03    1.67   0
  -1   3   0  249.64    2.75   0
   0   1   0    0.31    1.13   0
   0   2   1  603.74    5.35   0
  -7   0  -2   -0.82    4.87   0
  -7   1  -2    2.72    3.21   0
  -7   3   0    0.21    2.87   0
  -4   4  -1   25.65    2.30   0
  -2  -1  -3  135.66    3.65   0
  -8   2   1   15.63    8.54   0
  -6   2  -3   93.51    2.94   0
  -4   2  -4   45.65    2.19   0
  -4   3  -3   74.41    2.72   0
  -2   3  -2  552.79    3.86   0
  -6   3  -2   22.81    2.40   0
  -5   4  -1   45.24    2.47   0
  -4   5   4   55.56    4.46   0
  -3   2  -4   51.72    2.23   0
  -3   4  -1   16.35    2.16   0
  -2   4   0  128.19    2.82   0
  -1   2  -2  151.12    2.33   0
  -7   2  -2    1.73    3.54   0
  -7   4   3    9.79    5.64   0
  -6  -1  -3   22.46    6.78   0
  -6   4   0   20.84    2.44   0
  -5   2  -4   70.98    2.70   0
  -5   3  -3   15.80    2.39   0
  -4  -1  -4   83.61    3.98   0
  -4   5   3   13.57    3.87   0
  -4   5   5   25.85    5.03   0
  -5   5   4   17.52    4.72   0
  -4   5   2    6.12    3.33   0
  -2   1  -4  525.17    3.85   0
  -1   3  -1  704.73    4.57   0
  -7   3  -1    0.47    2.75   0
  -7   4   2   17.28    4.77   0
  -6   1  -4   26.23    3.76   0
  -5   5   3   11.09    3.67   0
  -5   5   5   17.10    6.54   0
  -4   4  -2   13.29    2.42   0
  -3   5   3    1.06    3.83   0
  -3   5   4  122.21    4.98   0
  -1   4   3   54.34    3.48   0
  -1   4   4  159.10    4.49   0
  -6   4  -1   18.82    2.71   0
  -5   4  -2   10.07    2.40   0
  -5   5   2   35.28    3.39   0
  -4   1  -5    5.28    2.28   0
  -4   5   1   20.42    3.30   0
  -3   4  -2    3.41    2.43   0
  -3   5   2   46.16    3.73   0
  -3   5   5  157.90    6.28   0
  -2   0  -4   18.99    1.87   0
  -2   4  -1   46.96    2.79   0
  -7   1  -3    2.94    5.01   0
  -7   4   1    4.88    4.18   0
  -6   0  -4  179.71    5.56   0
  -6   3  -3   53.05    2.86   0
  -5  -1  -4  223.28    6.86   0
  -4   3  -4  406.79    4.11   0
  -3  -1  -4  122.16    3.97   0
  -2   2  -4  572.84    4.07   0
  -2   3  -3   25.39    2.67   0
  -1   1  -3  670.60    4.58   0
  -1   4   2  222.49    3.79   0
  -1   4   5  100.82    6.04   0
  -6   2  -4   20.90    2.93   0
  -5   1  -5   73.17    3.61   0
  -5   3  -4   80.82    2.89   0
  -5   5   1   84.29    3.58   0
  -4   0  -5  367.02    4.69   0
  -4   2  -5   36.31    2.64   0
  -3   1  -5  495.56    4.12   0
  -3   5   1  115.00    3.93   0
   0   2   0 2699.20   10.94   0
  -7   2  -3    7.90    4.27   0
  -7   3  -2    3.30    3.76   0
  -4   4  -3   59.95    2.88   0
  -4   5   0   74.05    3.21   0
  -1   4   1   42.64    2.80   0
  -7   4   0    2.57    4.14   0
  -6   4  -2   40.40    2.96   0
  -6   5   3    9.51    7.45   0
  -5   0  -5  352.71    5.96   0
  -5   2  -5    1.42    2.78   0
  -5   5   0   17.86    3.41   0
  -3   0  -5  403.57    4.50   0
  -3   2  -5    2.72    2.31   0
  -1   2  -3   68.74    2.11   0
  -1   3  -2  895.34    5.02   0
  -6   5   2    4.94    5.41   0
  -5   4  -3   33.13    2.75   0
  -3   4  -3   44.67    2.96   0
  -3   5   0    6.13    2.82   0
  -2   4  -2    4.37    2.25   0
  -1   0  -3  124.92    2.96   0
   0   3   3   86.70    4.36   0
  -6   5   1    3.06    4.81   0
  -4   5  -1   53.75    2.99   0
  -2   5   3  115.72    5.33   0
  -1   4   0   63.93    2.90   0
   0   3   2  288.80    4.94   0
  -6   3  -4   72.43    3.39   0
  -5   5  -1    4.07    3.16   0
  -4   3  -5  179.70    3.41   0
  -2   5   2  149.31    4.69   0
  -2   5   4   63.07    6.31   0
   0   1  -1 1293.73    8.72   0
  -7   4  -1   43.92    5.22   0
  -6   1  -5   44.43    4.58   0
  -5   3  -5   26.64    2.79   0
  -4   4  -4    3.77    2.60   0
  -3   3  -5  180.05    3.53   0
  -3   5  -1   14.20    2.82   0
  -2   1  -5  326.81    3.47   0
  -2   5   1   27.20    3.50   0
  -7   1  -4   36.17    8.47   0
  -7   3  -3    1.16    4.27   0
  -6   2  -5   25.57    3.54   0
  -6   4  -3    8.19    3.10   0
  -6   5   0    2.29    4.18   0
  -4   1  -6  103.26    3.64   0
  -2   2  -5  325.04    3.53   0
   0   2  -1  593.72    4.86   0
   0   3   1  187.07    3.56   0
  -7   2  -4   38.51    5.96   0
  -5   4  -4  169.14    3.35   0
  -4   2  -6   24.09    2.81   0
  -4   5  -2   70.40    3.04   0
  -3   4  -4  165.46    3.44   0
  -2   4  -3   46.39    2.71   0
  -2   5   0  253.62    4.51   0
  -1   3  -3  687.63    4.58   0
  -1   4  -1   42.61    2.39   0
  -5   1  -6    1.68    3.86   0
  -5   2  -6   43.77    3.73   0
  -5   5  -2   44.13    3.12   0
  -3   1  -6  168.24    3.23   0
  -3   2  -6   29.60    2.51   0
  -3   5  -2    6.07    3.07   0
  -1   1  -4  781.93    5.05   0
  -1   2  -4  407.02    3.68   0
  -7   4  -2    4.20    6.47   0
  -6   0  -5   16.49    7.59   0
  -6   5  -1   17.56    4.32   0
   0   3   0    0.24    2.05   0
  -6   3  -5   96.76    3.91   0
  -4   3  -6   64.55    3.03   0
  -2   0  -5   80.16    2.78   0
  -2   5  -1   52.46    3.11   0
  -6   4  -4    2.80    3.34   0
  -4   0  -6   88.61    4.04   0
  -4   4  -5   94.77    3.16   0
  -4   5  -3    3.49    2.70   0
  -2   4  -4   16.19    2.77   0
  -1   4  -2   15.09    2.27   0
  -7   3  -4   34.84    6.73   0
  -6   5  -2   11.69    4.95   0
  -5   3  -6   91.53    3.44   0
  -5   4  -5   56.99    3.05   0
  -5   5  -3    0.03    3.12   0
  -4  -1  -5    4.90    5.87   0
  -3   3  -6  171.86    3.58   0
  -3   4  -5  188.50    3.60   0
  -3   5  -3   32.34    3.00   0
   0   2  -2  694.45    5.01   0
  -5   0  -6    4.92    5.79   0
  -3   0  -6  113.88    3.86   0
  -2   2  -6   20.09    2.49   0
  -2   5  -2   93.37    3.32   0
  -1   3  -4   38.06    2.20   0
   0   3  -1  183.00    3.07   0
  -7   4  -3   64.40   12.56   0
  -6   1  -6   17.57    6.67   0
  -6   2  -6   69.89    4.68   0
  -4   2  -7   70.61    3.73   0
  -4   6   1   66.75    6.89   0
  -4   6   2   23.26    9.20   0
  -2   1  -6   35.32    2.24   0
   0   1  -2 1248.27    7.54   0
  -4   1  -7   21.09    3.64   0
  -4   5  -4   31.35    2.80   0
  -1   2  -5  405.26    3.96   0
  -1   4  -3   59.81    2.73   0
  -5   2  -7  169.21    5.17   0
  -5   5  -4    8.05    3.08   0
  -4   4  -6  109.26    3.50   0
  -4   6   0   42.21    5.35   0
  -3   2  -7  132.85    3.42   0
  -3   5  -4   25.63    2.97   0
  -2  -1  -4  521.89    8.18   0
  -2   3  -6   34.96    3.53   0
  -2   4  -5    7.97    3.06   0
  -1   0  -4    2.22    2.06   0
  -6   3  -6   53.65    4.57   0
  -6   4  -5   28.66    4.29   0
  -6   5  -3    4.57    5.39   0
  -5   6   0   40.91   12.61   0
  -4   3  -7  125.59    3.70   0
  -3  -1  -5  494.86    8.53   0
  -3   1  -7   19.42    3.17   0
  -3   6   1    6.88    6.46   0
  -3   6   2   45.86    8.74   0
  -2   5  -3   76.77    3.40   0
  -1   1  -5 1186.08    6.39   0
  -1   5   1  230.25    5.39   0
  -1   5   2  151.87    6.03   0
   0   0   2   25.42    2.20   0
   0   3  -2  266.19    3.53   0
  -5   1  -7    0.67    5.18   0
  -5   4  -6   21.41    3.37   0
  -4   6  -1    0.01    4.71   0
  -3   3  -7   29.10    3.01   0
  -3   4  -6   82.37    3.32   0
  -3   6   0    0.58    5.73   0
  -1   5   0   18.47    4.01   0
   0   2  -3  164.41    2.96   0
  -5   3  -7   36.73    3.93   0
  -5   6  -1   18.76   10.24   0
  -4   5  -5    7.12    3.42   0
  -3   6  -1    5.21    5.19   0
  -1   4  -4  114.73    3.34   0
  -1   5  -1   20.45    3.80   0
  -4   6  -2   17.76    5.25   0
  -2   5  -4   11.36    3.69   0
  -1   5   3  179.77    9.04   0
   0   4   0 1033.33    8.04   0
   0   4   1   12.63    3.83   0
  -6   5  -4   24.77   10.65   0
  -5   5  -5    4.32    3.76   0
  -3   5  -5  148.30    3.82   0
  -2   0  -6 1038.35    7.75   0
  -2   2  -7  163.57    3.43   0
  -2   4  -6  305.09    4.63   0
   0   1  -3  690.41    5.68   0
   0   3  -3   81.31    2.79   0
  -6   2  -7    8.04    8.51   0
  -5   6  -2    1.22   10.86   0
  -4   2  -8  158.94    5.04   0
  -4   4  -7   32.08    3.47   0
  -3   6  -2  163.66    5.39   0
  -2   3  -7   12.49    3.29   0
  -1   2  -6   30.55    2.85   0
  -1   5  -2  163.83    4.34   0
   0   4  -1    7.10    3.10   0
   0   4   2   47.63    4.91   0
  -6   4  -6   25.12    6.83   0
  -4   0  -7    3.16    5.85   0
  -4   6  -3   19.15    5.35   0
  -3   4  -7   86.86    3.72   0
  -2   1  -7    5.27    2.76   0
  -1   4  -5    8.06    3.30   0
   0   2  -4 1626.53    7.62   0
  -5   4  -7   -0.15    4.20   0
  -4   3  -8    6.49    3.76   0
  -4   5  -6   30.46    4.09   0
  -3   2  -8   12.37    3.48   0
  -2   6   0   31.37    6.92   0
  -2   6   1   66.20    8.90   0
  -1   1  -6  243.75    4.08   0
  -1   5  -3   51.88    4.16   0
   0   4  -2   50.71    3.61   0
  -6   3  -7   30.22    7.58   0
  -5   2  -8   92.79    6.44   0
  -4   1  -8    5.96    5.26   0
  -3   0  -7    3.70    4.04   0
  -3   3  -8   14.63    3.54   0
  -3   5  -6   91.73    3.78   0
  -3   6  -3   38.93    4.87   0
  -2   5  -5    0.84    3.41   0
  -2   6  -1   90.25    6.53   0
   0   3  -4  270.20    3.94   0
  -5   3  -8   24.20    5.64   0
  -5   6  -3   30.34   12.77   0
  -3   1  -8   14.78    4.20   0
  -1   0  -5   54.52    3.02   0
  -5   0  -7  152.23   12.39   0
  -5   5  -6    5.96    5.10   0
  -4   6  -4   15.49    5.50   0
  -2   4  -7   41.05    3.78   0
  -2   6  -2   49.38    5.43   0
   0   1  -4 1073.38    6.95   0
   0   4  -3  141.87    3.77   0
  -5   1  -8    9.52    8.47   0
  -3   6  -4   12.23    4.83   0
  -2   2  -8   73.17    3.75   0
  -1   2  -7    3.47    3.13   0
  -1   4  -6   34.76    3.96   0
  -1   5  -4  117.38    4.40   0
  -4   4  -8    1.18    4.19   0
  -3   4  -8   14.60    3.55   0
  -2   3  -8  110.94    4.05   0
  -2   5  -6   42.29    3.77   0
  -2   6  -3  124.58    6.08   0
  -1  -1  -1  295.73    8.98   0
  -1   3  -7   91.88    4.80   0
   0   2  -5 1743.67    8.19   0
   0   3  -5   77.07    3.78   0
  -4   5  -7    5.57    4.27   0
  -3   5  -7   26.81    3.88   0
  -1  -1   0 4511.49   24.49   0
   0   0  -1  771.82   13.39   0
   0   2   4 1496.04   15.26   0
   0   4  -4    9.59    3.38   0
  -5   4  -8    5.82    6.90   0
  -4   2  -9   61.17    6.05   0
  -4   6  -5   11.09    6.37   0
  -3   2  -9   99.45    5.20   0
  -2   1  -8    8.41    3.36   0
  -1   5  -5  407.13    5.70   0
  -4   3  -9   30.41    4.97   0
  -3   3  -9  137.70    4.81   0
  -3   6  -5   84.38    5.23   0
  -2   0  -7    1.71    3.55   0
  -2   4  -8   -0.32    3.69   0
  -2   6  -4   74.81    5.25   0
  -1   1  -7  345.61    4.62   0
  -5   5  -7    2.68    8.98   0
  -1   4  -7  118.11    4.35   0
   0   1  -5  390.94    4.62   0
  -2   5  -7   75.82    3.94   0
   0   0  -2   32.12    2.89   0
   0   1   3  685.69    9.26   0
   0   2  -6  264.04    4.41   0
   0   4  -5  292.38    4.72   0
   0   5  -2   36.40    4.73   0
   0   5  -1   38.70    5.04   0
   0   5   0    2.53    5.62   0
  -5   2  -9  226.72   10.26   0
  -5   3  -9   32.76    8.59   0
  -4   1  -9  127.07    8.26   0
  -4   4  -9    1.27    5.12   0
  -3   1  -9  260.94    6.58   0
  -3   4  -9   23.65    4.02   0
  -2  -1  -5  353.82    8.53   0
  -2   2  -9   12.09    3.84   0
  -2   3  -9   19.37    3.86   0
  -2   6  -5   19.22    5.18   0
  -1   0  -6   94.86    3.75   0
  -1   2  -8    0.77    3.24   0
  -1   3  -8  104.39    4.45   0
  -1   5  -6  215.62    4.99   0
  -1   6  -2   92.06    6.83   0
  -1   6  -1  120.98    7.68   0
  -1   6   0    0.37    9.00   0
  -4   0  -8   62.37    9.67   0
  -4   5  -8    3.42    5.13   0
  -4   6  -6   47.41    8.93   0
  -3   0  -8   34.73    5.90   0
  -3   5  -8    6.43    4.04   0
  -3   6  -6   31.54    5.12   0
   0   5  -3  312.81    5.73   0
  -3  -1  -6  166.02   10.80   0
  -1   6  -3  173.99    6.86   0
   0   4  -6   93.70    4.04   0
   0   5   1   35.10    6.86   0
  -2   4  -9   55.09    3.93   0
  -1   4  -8   61.71    3.97   0
   0   0  -3    0.96    2.23   0
   0   1  -6  735.32    5.81   0
   0   5  -4   83.57    4.38   0
   1   3  -2  327.72    4.66   0
   1   3  -1  751.73    7.08   0
  -3   2 -10  270.86    6.42   0
  -3   3 -10   18.62    4.48   0
  -2   1  -9  274.44    5.68   0
  -2   5  -8    1.08    3.52   0
  -2   6  -6   13.09    4.45   0
  -1   1  -8  306.30    4.67   0
  -1   5  -7   15.12    3.67   0
  -1   6  -4   53.28    5.90   0
   0   2  -7  108.67    4.21   0
   1   2  -2  801.88    6.54   0
   1   2  -1  354.20    5.01   0
   1   3  -3  294.01    4.30   0
  -4   2 -10  116.38    7.62   0
  -4   3 -10   26.64    5.77   0
  -1   3  -9  176.84    4.43   0
   0   5  -5    2.20    4.25   0
   1   2  -3  406.89    4.69   0
   1   3   0  252.16    5.16   0
  -3   6  -7    1.85    5.58   0
  -2   0  -8   15.91    4.10   0
  -1   2  -9   17.01    3.55   0
   0   4  -7   18.71    3.69   0
   1   3  -4  316.92    4.47   0
  -3   4 -10   17.02    4.34   0
  -3   5  -9   12.51    4.44   0
  -2   2 -10    1.64    3.90   0
  -2   3 -10   56.20    4.04   0
  -1   0  -7  268.60    4.76   0
  -1   6  -5   25.31    4.83   0
   0   0  -4  965.96    7.60   0
   1   2  -4  240.08    3.80   0
   1   2   0  210.22    4.67   0
   1   4  -2  223.16    4.90   0
  -4   4 -10    4.93    6.68   0
  -4   5  -9   -1.17    9.02   0
  -2   6  -7   10.80    4.98   0
  -1   4  -9   22.47    3.55   0
   0   3  -8  146.13    4.44   0
   1   3  -5   17.76    2.98   0
   1   4  -3   54.78    3.41   0
   1   4  -1   40.63    3.70   0
  -2   4 -10    7.68    3.72   0
  -2   5  -9   12.35    3.86   0
  -1   5  -8    2.15    3.37   0
   0   1  -7   84.07    3.18   0
   0   2  -8   56.07    3.78   0
   0   5  -6  123.45    4.28   0
   1   2  -5  832.73    5.99   0
   1   4  -4  156.96    4.02   0
  -3   1 -10   61.10    6.45   0
  -1   6  -6   22.06    4.66   0
   0   4  -8  171.09    4.26   0
  -3   6  -8    8.60    9.23   0
  -1   1  -9  277.87    4.69   0
  -1   3 -10   81.07    3.91   0
   0   0  -5   38.79    2.62   0
   1   3  -6  138.96    4.17   0
   1   3   1  700.59    9.13   0
   1   4  -5  114.32    4.00   0
   1   4   0   61.92    4.48   0
  -4   1 -10  142.80   10.65   0
  -3   0  -9    5.22    7.66   0
  -3   3 -11   33.22    5.32   0
  -2   1 -10   82.98    5.24   0
  -1   2 -10   62.48    3.88   0
   0   5  -7   67.45    3.97   0
  -3   2 -11   80.81    6.57   0
  -2   3 -11   19.88    4.72   0
  -2   6  -8    0.53    5.31   0
  -1   5  -9   35.81    3.70   0
   0   3  -9  112.45    4.09   0
   0   6  -3   19.07    6.60   0
   0   6  -2   67.49    7.99   0
   1   1  -3 1568.92    8.54   0
   1   1  -2  788.17    6.78   0
   1   2  -6  111.56    3.33   0
  -4   3 -11   12.71   12.58   0
  -3   5 -10   14.32    6.36   0
  -2  -1  -6   39.45    6.23   0
  -1   4 -10   94.48    3.56   0
  -1   6  -7    8.94    4.72   0
   0   1  -8   54.32    3.26   0
   0   2  -9  150.32    4.08   0
   0   6  -4   59.56    6.40   0
   1   1  -4  426.71    4.69   0
   1   4  -6  159.98    4.20   0
  -3   4 -11   15.48    5.85   0
  -2   0  -9  118.46    6.12   0
  -2   2 -11  297.73    6.02   0
  -2   5 -10    2.70    4.19   0
  -1   0  -8   -0.03    3.56   0
   0   4  -9   85.17    3.99   0
   0   6  -1   34.99    9.95   0
   1   3  -7   48.66    4.30   0
   1   5  -3  207.71    5.97   0
  -2   4 -11   21.95    4.38   0
   0   0  -6  285.96    4.25   0
   0   5  -8    0.95    3.68   0
   0   6  -5  253.74    6.51   0
   1   1  -5  133.65    3.30   0
   1   5  -4   11.56    4.75   0
   1   5  -2  167.34    5.81   0
  -1   1 -10  127.16    5.05   0
  -1   3 -11   17.28    4.46   0
   1   1  -1 2457.24   13.84   0
   1   4  -7   37.89    3.61   0
   1   5  -5  251.13    5.76   0
  -1   6  -8   12.09    5.16   0
   0   3 -10   61.28    3.95   0
   0   6  -6   54.69    6.03   0
   1   1  -6  682.43    5.60   0
   1   2   1 1515.14   15.15   0
   1   3  -8  124.06    4.40   0
   1   5  -1  246.37    7.71   0
  -2   6  -9   16.62    8.70   0
  -1   2 -11  183.90    4.93   0
  -1   4 -11   27.62    4.03   0
  -1   5 -10    5.47    4.01   0
   0   1  -9  257.31    4.48   0
   0   2 -10   15.08    3.62   0
   1   5  -6  265.42    5.93   0
  -3   1 -11  164.32    8.95   0
   0   0  -7   47.85    3.27   0
   0   4 -10   61.88    3.83   0
   0   5  -9   21.65    3.74   0
   1   4  -8   96.63    3.95   0
  -3   3 -12    0.08    8.00   0
  -2   1 -11   82.21    5.81   0
  -2   3 -12    1.04    4.67   0
   0   6  -7   10.17    5.17   0
  -2   5 -11    5.83    6.11   0
  -1   0  -9  106.56    3.94   0
   1   1  -7  405.54    4.47   0
   1   3  -9   10.34    3.04   0
   1   5  -7  131.34    3.95   0
  -2   4 -12    5.42    4.21   0
  -1   6  -9   11.96    5.15   0
   0   3 -11   85.47    3.03   0
   2   3  -4  148.05    2.88   0
;
_shelx_hkl_checksum              63615
loop_
_space_group_symop_operation_xyz
'x, y, z'
'-x, y+1/2, -z'
loop_
_atom_site_label
_atom_site_type_symbol
_atom_site_fract_x
_atom_site_fract_y
_atom_site_fract_z
_atom_site_U_iso_or_equiv
_atom_site_adp_type
_atom_site_occupancy
_atom_site_site_symmetry_order
_atom_site_calc_flag
_atom_site_refinement_flags_posn
_atom_site_refinement_flags_adp
O1 O 0.1184(2) 0.6235(3) 0.26178(14) 0.0554(5) Uani 1 1 d . .
N1 N -0.1735(3) 0.1651(4) 0.18811(17) 0.0606(6) Uani 1 1 d . .
C1 C 0.1788(3) 0.2641(3) 0.22946(16) 0.0387(5) Uani 1 1 d . .
C2 C 0.1602(3) 0.4591(4) 0.29492(17) 0.0380(5) Uani 1 1 d . .
C3 C 0.2005(3) 0.4009(3) 0.39866(16) 0.0382(5) Uani 1 1 d . .
C4 C 0.1817(3) 0.5165(4) 0.48485(18) 0.0457(6) Uani 1 1 d . .
H4 H 0.1376 0.6491 0.4808 0.055 Uiso 1 1 calc R U
C5 C 0.2296(3) 0.4306(4) 0.57524(17) 0.0498(7) Uani 1 1 d . .
H5 H 0.2173 0.5062 0.6331 0.060 Uiso 1 1 calc R U
C6 C 0.2970(3) 0.2305(4) 0.58286(16) 0.0456(6) Uani 1 1 d . .
C7 C 0.3152(3) 0.1175(4) 0.49647(17) 0.0420(5) Uani 1 1 d . .
H7 H 0.3607 -0.0146 0.5004 0.050 Uiso 1 1 calc R U
C8 C 0.2653(3) 0.2022(3) 0.40413(15) 0.0358(5) Uani 1 1 d . .
C9 C 0.2752(3) 0.1085(4) 0.30253(17) 0.0450(6) Uani 1 1 d . .
H9B H 0.2084 -0.0199 0.2996 0.054 Uiso 1 1 calc R U
H9A H 0.4057 0.0858 0.2862 0.054 Uiso 1 1 calc R U
C10 C 0.3495(4) 0.1425(6) 0.68368(19) 0.0662(9) Uani 1 1 d . .
H10A H 0.2648 0.1932 0.7318 0.099 Uiso 1 1 calc R U
H10B H 0.4770 0.1805 0.7032 0.099 Uiso 1 1 calc R U
H10C H 0.3403 -0.0025 0.6806 0.099 Uiso 1 1 calc R U
C11 C 0.2827(4) 0.3113(4) 0.13353(18) 0.0465(6) Uani 1 1 d . .
H11A H 0.2355 0.4388 0.1064 0.056 Uiso 1 1 calc R U
H11B H 0.4163 0.3290 0.1511 0.056 Uiso 1 1 calc R U
C12 C 0.2621(3) 0.1516(4) 0.05303(16) 0.0472(6) Uani 1 1 d . .
C13 C 0.1661(5) 0.1950(6) -0.0320(2) 0.0753(9) Uani 1 1 d . .
H13A H 0.1537 0.0982 -0.0823 0.090 Uiso 1 1 calc R U
H13B H 0.1113 0.3221 -0.0412 0.090 Uiso 1 1 calc R U
C14 C 0.3515(5) -0.0471(6) 0.0713(2) 0.0768(9) Uani 1 1 d . .
H14A H 0.4836 -0.0287 0.0889 0.115 Uiso 1 1 calc R U
H14B H 0.3378 -0.1282 0.0120 0.115 Uiso 1 1 calc R U
H14C H 0.2915 -0.1139 0.1251 0.115 Uiso 1 1 calc R U
C15 C -0.0178(3) 0.2043(4) 0.20447(15) 0.0410(5) Uani 1 1 d . .
loop_
_atom_site_aniso_label
_atom_site_aniso_U_11
_atom_site_aniso_U_22
_atom_site_aniso_U_33
_atom_site_aniso_U_23
_atom_site_aniso_U_13
_atom_site_aniso_U_12
O1 0.0698(11) 0.0373(10) 0.0585(10) 0.0006(9) -0.0044(8) 0.0040(9)
N1 0.0503(13) 0.0738(18) 0.0575(13) 0.0010(11) 0.0011(9) -0.0162(11)
C1 0.0435(13) 0.0352(12) 0.0373(11) -0.0029(9) 0.0002(9) -0.0040(9)
C2 0.0341(11) 0.0331(12) 0.0468(12) -0.0017(10) 0.0003(8) -0.0021(9)
C3 0.0307(11) 0.0412(14) 0.0428(12) -0.0058(10) 0.0023(8) -0.0018(9)
C4 0.0388(13) 0.0458(14) 0.0527(15) -0.0140(11) 0.0047(9) 0.0023(10)
C5 0.0409(12) 0.0710(19) 0.0379(12) -0.0171(12) 0.0068(9) -0.0009(12)
C6 0.0293(11) 0.0695(18) 0.0382(12) -0.0025(12) 0.0036(8) -0.0069(11)
C7 0.0344(11) 0.0463(13) 0.0453(13) 0.0025(10) 0.0018(9) 0.0008(10)
C8 0.0313(10) 0.0373(12) 0.0388(11) -0.0030(9) 0.0024(8) -0.0018(9)
C9 0.0528(14) 0.0388(12) 0.0430(13) -0.0047(11) -0.0014(9) 0.0050(11)
C10 0.0543(14) 0.101(3) 0.0435(14) 0.0059(16) 0.0009(10) -0.0019(16)
C11 0.0473(13) 0.0479(14) 0.0447(13) 0.0007(11) 0.0072(10) -0.0089(10)
C12 0.0447(13) 0.0603(17) 0.0376(12) -0.0024(11) 0.0123(9) -0.0090(11)
C13 0.093(2) 0.087(2) 0.0458(15) -0.0023(16) 0.0013(14) -0.0112(19)
C14 0.089(2) 0.078(2) 0.0635(17) -0.0269(17) 0.0040(15) 0.0201(18)
C15 0.0517(14) 0.0407(12) 0.0311(11) 0.0016(9) 0.0054(9) -0.0067(10)
loop_
_atom_type_symbol
_atom_type_description
_atom_type_scat_dispersion_real
_atom_type_scat_dispersion_imag
_atom_type_scat_source
C C 0.0181 0.0091 'International Tables Vol C Tables 4.2.6.8 and 6.1.1.4'
H H 0.0000 0.0000 'International Tables Vol C Tables 4.2.6.8 and 6.1.1.4'
N N 0.0311 0.0180 'International Tables Vol C Tables 4.2.6.8 and 6.1.1.4'
O O 0.0492 0.0322 'International Tables Vol C Tables 4.2.6.8 and 6.1.1.4'
loop_
_exptl_crystal_face_index_h
_exptl_crystal_face_index_k
_exptl_crystal_face_index_l
_exptl_crystal_face_perp_dist
1 0 0 0.1820
-1 0 0 0.1510
0 1 0 0.2500
0 -1 0 0.3380
0 0 1 0.0340
0 0 -1 0.0740
loop_
_geom_angle_atom_site_label_1
_geom_angle_atom_site_label_2
_geom_angle_atom_site_label_3
_geom_angle
C15 C1 C11 110.31(18)
C15 C1 C9 110.40(19)
C11 C1 C9 116.5(2)
C15 C1 C2 104.19(18)
C11 C1 C2 110.88(18)
C9 C1 C2 103.66(17)
O1 C2 C3 128.5(2)
O1 C2 C1 124.0(2)
C3 C2 C1 107.44(19)
C8 C3 C4 121.1(2)
C8 C3 C2 110.4(2)
C4 C3 C2 128.5(2)
C5 C4 C3 118.5(2)
C5 C4 H4 120.7
C3 C4 H4 120.7
C4 C5 C6 121.6(2)
C4 C5 H5 119.2
C6 C5 H5 119.2
C7 C6 C5 119.2(2)
C7 C6 C10 120.9(3)
C5 C6 C10 119.8(2)
C6 C7 C8 119.8(2)
C6 C7 H7 120.1
C8 C7 H7 120.1
C7 C8 C3 119.8(2)
C7 C8 C9 128.5(2)
C3 C8 C9 111.74(19)
C8 C9 C1 105.15(18)
C8 C9 H9B 110.7
C1 C9 H9B 110.7
C8 C9 H9A 110.7
C1 C9 H9A 110.7
H9B C9 H9A 108.8
C6 C10 H10A 109.5
C6 C10 H10B 109.5
H10A C10 H10B 109.5
C6 C10 H10C 109.5
H10A C10 H10C 109.5
H10B C10 H10C 109.5
C12 C11 C1 114.86(19)
C12 C11 H11A 108.6
C1 C11 H11A 108.6
C12 C11 H11B 108.6
C1 C11 H11B 108.6
H11A C11 H11B 107.5
C13 C12 C14 122.2(3)
C13 C12 C11 119.3(3)
C14 C12 C11 118.5(2)
C12 C13 H13A 120.0
C12 C13 H13B 120.0
H13A C13 H13B 120.0
C12 C14 H14A 109.5
C12 C14 H14B 109.5
H14A C14 H14B 109.5
C12 C14 H14C 109.5
H14A C14 H14C 109.5
H14B C14 H14C 109.5
N1 C15 C1 176.6(3)
loop_
_geom_bond_atom_site_label_1
_geom_bond_atom_site_label_2
_geom_bond_distance
O1 C2 1.205(3)
N1 C15 1.142(3)
C1 C15 1.469(3)
C1 C11 1.542(3)
C1 C9 1.555(3)
C1 C2 1.566(3)
C2 C3 1.457(3)
C3 C8 1.390(3)
C3 C4 1.396(3)
C4 C5 1.366(4)
C4 H4 0.9300
C5 C6 1.407(4)
C5 H5 0.9300
C6 C7 1.388(3)
C6 C10 1.501(4)
C7 C8 1.388(3)
C7 H7 0.9300
C8 C9 1.500(3)
C9 H9B 0.9700
C9 H9A 0.9700
C10 H10A 0.9600
C10 H10B 0.9600
C10 H10C 0.9600
C11 C12 1.510(3)
C11 H11A 0.9700
C11 H11B 0.9700
C12 C13 1.330(4)
C12 C14 1.472(4)
C13 H13A 0.9300
C13 H13B 0.9300
C14 H14A 0.9600
C14 H14B 0.9600
C14 H14C 0.9600
loop_
_geom_torsion_atom_site_label_1
_geom_torsion_atom_site_label_2
_geom_torsion_atom_site_label_3
_geom_torsion_atom_site_label_4
_geom_torsion
C15 C1 C2 O1 -76.1(3)
C11 C1 C2 O1 42.5(3)
C9 C1 C2 O1 168.3(2)
C15 C1 C2 C3 103.38(19)
C11 C1 C2 C3 -137.95(19)
C9 C1 C2 C3 -12.2(2)
O1 C2 C3 C8 -172.8(2)
C1 C2 C3 C8 7.8(2)
O1 C2 C3 C4 7.1(4)
C1 C2 C3 C4 -172.4(2)
C8 C3 C4 C5 0.4(3)
C2 C3 C4 C5 -179.5(2)
C3 C4 C5 C6 0.2(3)
C4 C5 C6 C7 -0.1(3)
C4 C5 C6 C10 179.5(2)
C5 C6 C7 C8 -0.6(3)
C10 C6 C7 C8 179.8(2)
C6 C7 C8 C3 1.1(3)
C6 C7 C8 C9 179.4(2)
C4 C3 C8 C7 -1.0(3)
C2 C3 C8 C7 178.87(19)
C4 C3 C8 C9 -179.6(2)
C2 C3 C8 C9 0.3(2)
C7 C8 C9 C1 173.4(2)
C3 C8 C9 C1 -8.2(2)
C15 C1 C9 C8 -99.1(2)
C11 C1 C9 C8 134.07(19)
C2 C1 C9 C8 12.0(2)
C15 C1 C11 C12 -49.3(3)
C9 C1 C11 C12 77.6(3)
C2 C1 C11 C12 -164.17(19)
C1 C11 C12 C13 112.9(3)
C1 C11 C12 C14 -67.8(3)
