#------------------------------------------------------------------------------
#$Date: 2019-11-24 17:51:31 +0200 (Sun, 24 Nov 2019) $
#$Revision: 238912 $
#$URL: file:///home/coder/svn-repositories/cod/cif/1/55/55/1555577.cif $
#------------------------------------------------------------------------------
#
# This file is available in the Crystallography Open Database (COD),
# http://www.crystallography.net/
#
# All data on this site have been placed in the public domain by the
# contributors.
#
data_1555577
loop_
_publ_author_name
'Li, Chao'
'Jiang, Kun'
'Ouyang, Qin'
'Liu, Tian-Yu'
'Chen, Ying-Chun'
_publ_section_title
;
 [3 + 1]- and [3 + 2]-Cycloadditions of Azaoxyallyl Cations and Sulfur
 Ylides.
;
_journal_issue                   11
_journal_name_full               'Organic letters'
_journal_page_first              2738
_journal_page_last               2741
_journal_paper_doi               10.1021/acs.orglett.6b01194
_journal_volume                  18
_journal_year                    2016
_chemical_formula_sum            'C18 H17 N O3'
_chemical_formula_weight         295.32
_space_group_crystal_system      triclinic
_space_group_IT_number           2
_space_group_name_Hall           '-P 1'
_space_group_name_H-M_alt        'P -1'
_atom_sites_solution_hydrogens   geom
_audit_creation_method           SHELXL-2013
_cell_angle_alpha                109.029(10)
_cell_angle_beta                 92.163(9)
_cell_angle_gamma                110.061(10)
_cell_formula_units_Z            2
_cell_length_a                   9.2442(10)
_cell_length_b                   9.4365(10)
_cell_length_c                   10.1285(11)
_cell_measurement_reflns_used    1341
_cell_measurement_temperature    289(2)
_cell_measurement_theta_max      25.4790
_cell_measurement_theta_min      4.1300
_cell_volume                     773.37(17)
_computing_cell_refinement       'CrysAlisPro (Agilent Technologies)'
_computing_data_collection       'CrysAlisPro (Agilent Technologies)'
_computing_data_reduction        'CrysAlisPro (Agilent Technologies)'
_computing_molecular_graphics    'Ortep-3 (L. J. Farrugia, 2001)'
_computing_publication_material  SHELXL-97
_computing_structure_refinement  'SHELXL-97 (Sheldrick, 1997)'
_computing_structure_solution    'SHELXS-97 (Sheldrick, 1997)'
_diffrn_ambient_temperature      289(2)
_diffrn_detector_area_resol_mean 15.9149
_diffrn_measured_fraction_theta_full 0.997
_diffrn_measured_fraction_theta_max 0.997
_diffrn_measurement_device_type  'Gemini S Ultra, Agilent Technologies'
_diffrn_measurement_method       '\w scans'
_diffrn_radiation_source         'Enhance (Mo) X-ray Source'
_diffrn_radiation_type           MoK\a
_diffrn_radiation_wavelength     0.71073
_diffrn_reflns_av_R_equivalents  0.0242
_diffrn_reflns_av_unetI/netI     0.0383
_diffrn_reflns_Laue_measured_fraction_full 0.997
_diffrn_reflns_Laue_measured_fraction_max 0.997
_diffrn_reflns_limit_h_max       11
_diffrn_reflns_limit_h_min       -11
_diffrn_reflns_limit_k_max       11
_diffrn_reflns_limit_k_min       -11
_diffrn_reflns_limit_l_max       12
_diffrn_reflns_limit_l_min       -12
_diffrn_reflns_number            6062
_diffrn_reflns_point_group_measured_fraction_full 0.997
_diffrn_reflns_point_group_measured_fraction_max 0.997
_diffrn_reflns_theta_full        25.242
_diffrn_reflns_theta_max         26.370
_diffrn_reflns_theta_min         3.472
_exptl_absorpt_coefficient_mu    0.087
_exptl_absorpt_correction_T_max  1.00000
_exptl_absorpt_correction_T_min  0.98981
_exptl_absorpt_correction_type   multi-scan
_exptl_absorpt_process_details
;
CrysAlisPro, Agilent Technologies,
Version 1.171.37.35 (release 13-08-2014 CrysAlis171 .NET)
(compiled Aug 13 2014,18:06:01)
Empirical absorption correction using spherical harmonics,
 implemented in SCALE3 ABSPACK scaling algorithm.
;
_exptl_crystal_colour            colorless
_exptl_crystal_density_diffrn    1.268
_exptl_crystal_description       block
_exptl_crystal_F_000             312
_exptl_crystal_size_max          0.320
_exptl_crystal_size_mid          0.300
_exptl_crystal_size_min          0.240
_refine_diff_density_max         0.357
_refine_diff_density_min         -0.438
_refine_diff_density_rms         0.144
_refine_ls_extinction_method     none
_refine_ls_goodness_of_fit_ref   1.070
_refine_ls_hydrogen_treatment    constr
_refine_ls_matrix_type           full
_refine_ls_number_parameters     200
_refine_ls_number_reflns         3155
_refine_ls_number_restraints     0
_refine_ls_restrained_S_all      1.070
_refine_ls_R_factor_all          0.0861
_refine_ls_R_factor_gt           0.0520
_refine_ls_shift/su_max          0.001
_refine_ls_shift/su_mean         0.000
_refine_ls_structure_factor_coef Fsqd
_refine_ls_weighting_details
'w=1/[\s^2^(Fo^2^)+(0.0627P)^2^+0.7810P] where P=(Fo^2^+2Fc^2^)/3'
_refine_ls_weighting_scheme      calc
_refine_ls_wR_factor_gt          0.1272
_refine_ls_wR_factor_ref         0.1962
_reflns_Friedel_coverage         0.000
_reflns_number_gt                2231
_reflns_number_total             3155
_reflns_threshold_expression     'I > 2\s(I)'
_cod_data_source_file            ol6b01194_si_002.cif
_cod_data_source_block           3a
_cod_original_cell_volume        773.37(16)
_cod_database_code               1555577
_shelx_space_group_comment
;
The symmetry employed for this shelxl refinement is uniquely defined
by the following loop, which should always be used as a source of
symmetry information in preference to the above space-group names.
They are only intended as comments.
;
_shelx_estimated_absorpt_t_min   0.973
_shelx_estimated_absorpt_t_max   0.980
_shelxl_version_number           2013-4
_shelx_res_file
;
TITL lc-4-084 in P-1
CELL  0.71073   9.2442   9.4365  10.1285  109.029   92.163  110.061
ZERR     2.00   0.0010   0.0010   0.0011    0.010    0.009    0.010
LATT   1
SFAC  C    H    N    O
UNIT  36   34   2    6
MERG   2
shel 53 0.80
FMAP   2
PLAN   25
SIZE     0.24   0.30   0.32
ACTA
BOND   $H
CONF
L.S.   4
WGHT    0.062700    0.781000
FVAR      12.03357
O3    4    0.132815   -1.065735    0.204721    11.00000    0.06731    0.04694 =
         0.04822    0.01560    0.02010    0.03215
O2    4    0.217697   -0.704743    0.168685    11.00000    0.08858    0.05677 =
         0.04202    0.01441    0.01599    0.01922
O1    4   -0.202024   -1.101551    0.248926    11.00000    0.05404    0.06701 =
         0.10330    0.00606    0.01778   -0.00168
N1    3    0.061781   -0.955145    0.255312    11.00000    0.04610    0.03919 =
         0.05839    0.00836    0.01429    0.01658
C1    1    0.135226   -0.788877    0.358617    11.00000    0.03934    0.03978 =
         0.04488    0.01260    0.00826    0.01732
AFIX  13
H1    2    0.196716   -0.782503    0.442810    11.00000   -1.20000
AFIX   0
C4    1    0.224270   -0.665151    0.296506    11.00000    0.04495    0.04602 =
         0.04366    0.01525    0.01220    0.02041
C6    1    0.324909   -0.446592    0.539918    11.00000    0.05468    0.04522 =
         0.04513    0.01863    0.00956    0.01791
AFIX  43
H6    2    0.270254   -0.519562    0.580874    11.00000   -1.20000
AFIX   0
C5    1    0.315448   -0.496190    0.393890    11.00000    0.04010    0.04186 =
         0.04544    0.01726    0.01336    0.01870
C8    1    0.498502   -0.180822    0.565509    11.00000    0.05204    0.04339 =
         0.07351    0.01313   -0.00017    0.01527
AFIX  43
H8    2    0.560595   -0.075383    0.623256    11.00000   -1.20000
AFIX   0
C11   1   -0.074176   -0.774841    0.527782    11.00000    0.06193    0.07688 =
         0.05734    0.02436    0.02524    0.03498
AFIX 137
H11A  2   -0.026771   -0.826721    0.573154    11.00000   -1.50000
H11B  2   -0.185418   -0.819146    0.522560    11.00000   -1.50000
H11C  2   -0.034727   -0.660774    0.581539    11.00000   -1.50000
AFIX   0
C14   1    0.127288   -1.371429   -0.068824    11.00000    0.05672    0.05657 =
         0.05082    0.01825    0.00762    0.02003
AFIX  43
H14   2    0.020450   -1.399337   -0.092550    11.00000   -1.20000
AFIX   0
C7    1    0.415385   -0.289009    0.624507    11.00000    0.06656    0.05137 =
         0.04656    0.01074    0.00006    0.02150
AFIX  43
H7    2    0.420043   -0.255918    0.722221    11.00000   -1.20000
AFIX   0
C2    1   -0.035656   -0.803084    0.379454    11.00000    0.04273    0.05425 =
         0.04781    0.01875    0.01188    0.02454
AFIX  13
H2    2   -0.072401   -0.742155    0.333404    11.00000   -1.20000
AFIX   0
C13   1    0.221251   -1.212456    0.010245    11.00000    0.06718    0.04696 =
         0.03783    0.01695    0.01691    0.02842
C17   1    0.443760   -1.290907   -0.001271    11.00000    0.06073    0.10494 =
         0.06829    0.04689    0.02242    0.04325
AFIX  43
H17   2    0.550554   -1.264476    0.020824    11.00000   -1.20000
AFIX   0
C10   1    0.398012   -0.384563    0.335477    11.00000    0.05651    0.05224 =
         0.05389    0.02266    0.02322    0.02499
AFIX  43
H10   2    0.391099   -0.415674    0.237639    11.00000   -1.20000
AFIX   0
C9    1    0.489816   -0.228618    0.420737    11.00000    0.05356    0.04809 =
         0.08288    0.03077    0.02368    0.01701
AFIX  43
H9    2    0.546031   -0.155445    0.380602    11.00000   -1.20000
AFIX   0
C16   1    0.345946   -1.448537   -0.079784    11.00000    0.10437    0.08591 =
         0.05363    0.03170    0.03284    0.06710
AFIX  43
H16   2    0.387827   -1.528005   -0.110336    11.00000   -1.20000
AFIX   0
C12   1    0.150723   -1.086602    0.058786    11.00000    0.11692    0.06957 =
         0.04671    0.02126    0.02570    0.06051
AFIX  23
H12A  2    0.218629   -0.985508    0.052383    11.00000   -1.20000
H12B  2    0.050082   -1.122052    0.000647    11.00000   -1.20000
AFIX   0
C18   1    0.381147   -1.173211    0.043950    11.00000    0.06736    0.05625 =
         0.04789    0.01816    0.00721    0.01156
AFIX  43
H18   2    0.446089   -1.067110    0.097223    11.00000   -1.20000
AFIX   0
C15   1    0.189912   -1.489051   -0.112924    11.00000    0.09801    0.04468 =
         0.04998    0.00996    0.00946    0.02993
AFIX  43
H15   2    0.125439   -1.595658   -0.165147    11.00000   -1.20000
AFIX   0
C3    1   -0.085662   -0.982464    0.283259    11.00000    0.04472    0.05416 =
         0.05499    0.01507    0.01083    0.01483
HKLF    4

REM  lc-4-084 in P-1
REM R1 =  0.0520 for    2231 Fo > 4sig(Fo)  and  0.0861 for all    3155 data
REM    200 parameters refined using      0 restraints

END

WGHT      0.1202      0.0247

REM Highest difference peak  0.357,  deepest hole -0.438,  1-sigma level  0.144
Q1    1   0.1133 -1.7163 -0.1491  11.00000  0.05    0.36
Q2    1  -0.1977 -1.2552  0.0937  11.00000  0.05    0.35
Q3    1   0.0760 -0.5945  0.6460  11.00000  0.05    0.35
Q4    1   0.0793 -1.6403 -0.2555  11.00000  0.05    0.35
Q5    1   0.7441 -1.1988  0.0584  11.00000  0.05    0.34
Q6    1   0.1747 -1.6802 -0.2692  11.00000  0.05    0.34
Q7    1   0.3315 -0.8797  0.0491  11.00000  0.05    0.33
Q8    1   0.6906 -1.1824  0.0062  11.00000  0.05    0.33
Q9    1   0.1107 -1.6359 -0.1215  11.00000  0.05    0.32
Q10   1   0.0271 -0.6813  0.6473  11.00000  0.05    0.31
Q11   1   0.1963 -0.7747  0.0140  11.00000  0.05    0.31
Q12   1  -0.1243 -1.2603  0.0551  11.00000  0.05    0.31
Q13   1   0.1928 -1.6093 -0.1857  11.00000  0.05    0.29
Q14   1   0.0229 -0.5257  0.5678  11.00000  0.05    0.28
Q15   1  -0.2551 -1.1809  0.1932  11.00000  0.05    0.27
Q16   1   0.3561 -0.8979  0.1388  11.00000  0.05    0.27
Q17   1   0.0852 -0.4987  0.5011  11.00000  0.05    0.27
Q18   1   0.3093 -0.8099  0.1500  11.00000  0.05    0.26
Q19   1   0.1952 -0.8524  0.0212  11.00000  0.05    0.26
Q20   1   0.1406 -0.5542  0.5844  11.00000  0.05    0.25
Q21   1   0.1884 -0.7633  0.1122  11.00000  0.05    0.24
Q22   1   0.5463 -0.0275  0.6804  11.00000  0.05    0.23
Q23   1   0.0509 -1.5476 -0.1793  11.00000  0.05    0.23
Q24   1  -0.0965 -0.5522  0.5727  11.00000  0.05    0.21
Q25   1   0.6204 -0.0807  0.6957  11.00000  0.05    0.21
;
_shelx_res_checksum              45418
_shelx_hkl_file
;
   0   0   2 50787.8 932.889   7
   0   0  -2 51178.0 927.300   6
   0   0  -3 118114. 1967.43   6
   0   0   3 116349. 1973.08   7
   0   0   4 2268.96 201.128   7
   0   0  -4 2001.73 189.326   6
   0   0   5 23455.2 765.443   7
   0   0  -5 22982.8 757.797   6
   0   0   5 24133.9 742.461   6
   0   0   6 5973.90 402.194   7
   0   0  -6 5742.74 398.813   6
   0   0  -7 1048.86 206.005   6
   0   0   7 701.810 174.807   7
   0   0  -8 135.000 120.323   6
   0   0   8 7.26498 116.455   7
   0   0  -9 2475.16 340.494   6
   0   0   9 1916.71 312.976   7
   0   0  10 151.137 168.101   7
   0   0  11 2379.24 385.942   7
   0  -1  12 117.040 176.997   7
   0   1 -11 544.348 197.465   6
   0  -1  11 969.999 254.974   7
   0  -1  10 12734.7 808.592   7
   0   1 -10 11925.2 752.343   6
   0   1  -9 1402.92 245.313   6
   0  -1   9 1137.79 251.146   7
   0   1  -8 906.477 190.931   6
   0  -1   8 893.582 211.127   7
   0  -1   7 5057.05 396.038   7
   0   1  -7 4606.52 364.473   6
   0  -1   6 4819.73 358.526   7
   0   1  -6 4422.39 332.268   6
   0   1  -5 14173.7 531.640   6
   0   1  -5 12454.3 260.361   4
   0  -1   5 14326.0 559.336   7
   0   1  -4 198715. 3163.13   6
   0   1  -4 198619. 2841.34   2
   0   1  -4 199105. 2839.44   4
   0  -1   4 202251. 3231.71   7
   0  -1   3 23422.2 613.600   7
   0   1  -3 23627.4 452.853   2
   0   1  -3 24168.9 454.346   4
   0   1  -3 23639.0 577.943   6
   0  -1   2 365461. 2630.37   7
   0   1  -2 103093. 2170.23   4
   0   1   1-0.02774 229.558   4
   0   1   2 40778.6 702.699   2
   0   1   2 43077.6 884.783   7
   0   1   2 42419.4 705.765   4
   0   1   3 1551.55 160.296   7
   0   1   3 1755.17 86.3108   2
   0   1   3 1777.68 87.6640   4
   0   1   4 126386. 1826.35   4
   0   1   4 132388. 2327.26   7
   0   1   5 106545. 2121.04   7
   0   1   6 1339.58 227.664   7
   0   1   7 1650.97 253.138   7
   0   1   8 481.782 193.977   7
   0   1   9 125.552 152.673   7
   0   1  10 2974.40 436.866   7
   0   1  11 403.837 216.884   7
   0   2 -13 108.834 220.923   6
   0  -2  12 76.6061 226.295   7
   0   2 -12 582.287 240.186   6
   0  -2  11 1621.98 341.892   7
   0   2 -11 2178.07 349.676   6
   0   2 -10 3588.83 401.341   6
   0  -2  10 3087.27 407.548   7
   0  -2   9 3300.68 386.004   7
   0   2  -9 3778.23 390.264   6
   0  -2   8 2075.06 291.691   7
   0   2  -8 2015.64 261.474   6
   0   2  -7 30212.0 608.001   4
   0  -2   7 31529.3 1040.48   7
   0   2  -7 32740.1 1004.18   6
   0   2  -6 131795. 2034.20   2
   0   2  -6 130389. 2035.17   4
   0   2  -6 130953. 2422.22   6
   0  -2   6 130878. 2520.97   7
   0  -2   5 309063. 4895.39   7
   0   2  -5 310852. 4527.01   4
   0   2  -5 314303. 4528.82   2
   0   2  -5 312912. 4806.35   6
   0  -2   4 778.072 130.567   7
   0   2  -4 869.379 95.3109   2
   0   2  -4 899.552 98.5618   4
   0   2  -3 152094. 2338.92   4
   0  -2   3 151095. 2475.00   7
   0  -2   3 147153. 2350.02   4
   0   2  -2 971310. 13448.3   4
   0  -2   1 6833.54 198.042   5
   0   2  -1 7081.30 201.350   5
   0   2  -1 7024.78 273.507   4
   0   2   0 35284.6 728.489   4
   0   2   0 33717.6 588.247   5
   0   2   0 32662.8 726.272   3
   0   2   1 251691. 3800.80   3
   0   2   1 251261. 3713.82   4
   0  -2  -1 250522. 3734.87   4
   0   2   2 2771.12 162.418   4
   0   2   2 2758.43 163.552   2
   0   2   3 9246.00 310.365   4
   0   2   3 9532.60 312.638   2
   0   2   3 9703.07 445.660   7
   0   2   4 14044.2 382.427   2
   0   2   4 14279.4 600.034   7
   0   2   4 14131.8 383.704   4
   0   2   5-78.1798 108.429   7
   0   2   5-4.53270 32.8381   4
   0   2   6 17485.1 775.045   7
   0   2   7 1129.42 227.264   7
   0   2   8-62.1843 144.433   7
   0   2   9 67.5997 157.656   7
   0   2  10 377.308 208.240   7
   0   3 -13 776.824 267.911   6
   0  -3  12 340.448 229.615   7
   0   3 -12 398.130 186.891   6
   0  -3  11-143.358 202.116   7
   0   3 -11 385.511 181.557   6
   0  -3  10 142.275 163.588   7
   0   3 -10 304.374 164.656   6
   0  -3   9 1228.69 267.896   7
   0   3  -9 1090.73 109.053   4
   0   3  -9 1152.74 230.484   6
   0   3  -8 2718.12 306.846   6
   0   3  -8 3066.93 193.708   4
   0  -3   8 2694.59 343.523   7
   0   3  -7 717.288 106.806   4
   0  -3   7 582.671 170.969   7
   0   3  -7 587.204 95.2003   2
   0  -3   6 11563.7 576.967   7
   0   3  -6 10636.9 408.615   4
   0   3  -6 11330.4 416.477   2
   0   3  -5 25417.2 654.956   4
   0   3  -5 26111.0 664.460   2
   0  -3   5 24376.0 804.905   7
   0   3  -4 59283.2 1201.59   2
   0  -3   4 60805.0 1267.98   5
   0   3  -4 57749.3 1194.04   4
   0  -3   4 58965.1 1343.70   7
   0   3  -3 56912.7 1177.36   4
   0  -3   3 57007.0 1131.86   5
   0  -3   3 59368.3 1208.94   4
   0  -3   2 241513. 3634.72   5
   0   3  -2 246978. 3654.09   5
   0   3  -2 253454. 3845.85   4
   0   3  -1 16336.0 369.593   5
   0   3  -1 15910.0 522.301   4
   0  -3   1 16304.9 377.120   5
   0   3   0 25435.9 683.101   4
   0   3   0 24707.5 513.521   5
   0   3   0 25153.9 698.786   3
   0   3   1 220231. 3453.28   4
   0   3   1 218919. 3559.33   3
   0  -3  -1 224787. 3494.51   4
   0   3   2 195579. 3098.67   2
   0   3   2 194992. 3092.59   4
   0   3   3 10440.5 400.022   4
   0   3   3 10607.7 398.464   2
   0   3   4 2721.22 191.070   2
   0   3   4 2485.79 184.063   4
   0   3   4 2942.68 296.532   7
   0   3   5 43862.8 927.546   2
   0   3   5 44373.8 934.565   4
   0  -3  -5 42442.5 1322.20   3
   0   3   5 46383.9 1336.63   7
   0   3   6 33671.3 744.608   4
   0   3   6 35274.7 1207.78   7
   0  -3  -6 33859.2 1216.35   3
   0   3   7 485.668 168.995   7
   0  -3  -7 383.351 167.306   3
   0   3   8 1991.46 317.700   7
   0  -3  -8 1789.67 327.458   3
   0  -3  -9 1540.25 328.087   3
   0   3   9 1532.59 313.314   7
   0   3  10-20.9745 181.129   7
   0  -3 -10-282.047 265.584   3
   0   4 -13 1775.90 356.479   6
   0   4 -12 127.359 172.620   6
   0  -4  12 146.930 163.391   7
   0  -4  11 3031.00 430.877   7
   0   4 -11 2481.87 353.552   6
   0   4 -10 3285.18 384.120   6
   0  -4  10 2938.31 398.259   7
   0  -4   9 1056.24 251.229   7
   0   4  -9 946.930 137.597   4
   0   4  -9 686.270 164.431   6
   0   4  -8 78053.5 1600.23   2
   0   4  -8 81676.4 1912.56   6
   0   4  -8 83280.1 1624.18   4
   0  -4   8 83447.2 2082.04   7
   0   4  -7 23895.8 733.300   2
   0   4  -7 23291.3 728.156   4
   0  -4   7 24831.5 967.863   7
   0   4  -6 2016.33 207.237   4
   0   4  -6 2086.78 209.334   2
   0  -4   6 2361.41 279.188   7
   0   4  -5 6124.79 348.090   2
   0   4  -5 6092.04 347.171   4
   0  -4   4-17.7423 59.8918   5
   0   4  -4-23.0580 82.1860   4
   0   4  -4 28.5336 66.9324   2
   0  -4   3 37589.2 835.900   5
   0   4  -3 37924.4 977.442   4
   0   4  -2 11324.5 482.233   4
   0  -4   2 11059.8 343.592   5
   0   4  -2 10468.8 344.463   5
   0  -4   1 16667.5 417.572   5
   0   4  -1 16752.0 595.749   3
   0   4  -1 16177.2 399.447   5
   0   4  -1 16799.2 599.714   4
   0   4   0 56232.3 1262.73   4
   0   4   0 57192.8 1302.47   3
   0   4   0 54290.9 990.070   5
   0   4   1 23564.7 721.715   2
   0   4   1 22161.7 578.085   5
   0   4   1 21757.9 708.754   4
   0   4   2 7058.37 372.693   4
   0   4   2 6680.31 359.940   2
   0   4   3 4790.17 305.407   2
   0   4   3 4721.00 305.249   4
   0  -4  -4 13443.4 706.779   3
   0   4   4 13780.7 528.995   4
   0   4   4 13469.8 682.887   7
   0   4   4 13316.6 519.471   2
   0  -4  -5 5965.67 502.400   3
   0   4   5 5448.99 319.537   4
   0   4   5 5888.82 480.846   7
   0   4   6 1737.01 290.512   7
   0  -4  -6 1109.11 259.812   3
   0  -4  -7 440.465 194.033   3
   0   4   7 475.315 214.012   7
   0   4   8-135.006 205.727   7
   0  -4  -8 8.15159 180.913   3
   0  -4  -9-46.5423 188.975   3
   0   4   9-16.5887 182.828   7
   0   5 -13 92.0535 206.487   6
   0   5 -12 474.014 213.819   6
   0  -5  12 234.478 198.919   7
   0  -5  11 304.949 206.762   7
   0   5 -11 114.002 151.669   6
   0   5 -10 4966.21 462.914   6
   0   5 -10 4864.74 337.075   4
   0  -5  10 5503.50 564.388   7
   0  -5   9 12044.6 767.616   7
   0   5  -9 12296.4 681.544   6
   0   5  -9 12702.0 561.286   4
   0  -5   8 568.453 184.263   7
   0   5  -8 1096.77 181.104   4
   0  -5   7 1878.51 288.943   7
   0   5  -7 1960.27 231.506   4
   0   5  -6 838.905 150.555   4
   0   5  -5 6276.98 399.642   4
   0   5  -4 20457.9 751.052   4
   0  -5   4 21861.4 656.496   5
   0  -5   3 18715.4 547.234   5
   0   5  -3 19615.8 730.647   4
   0  -5   2 17553.3 488.078   5
   0   5  -2 18594.4 710.440   4
   0   5  -2 18211.3 489.841   5
   0   5  -1 12405.8 573.798   4
   0   5  -1 12883.4 366.556   5
   0   5   0 43.3910 40.6301   5
   0   5   0 67.2416 88.9283   4
   0   5   1 21548.5 765.697   4
   0   5   1 21900.8 600.573   5
   0   5   2 17908.2 596.759   5
   0  -5  -2 17746.9 786.639   3
   0   5   2 19378.7 715.073   4
   0   5   3 9686.65 497.331   4
   0  -5  -3 9012.07 589.379   3
   0   5   4 348.015 158.559   7
   0   5   4 592.332 140.374   4
   0  -5  -4 569.419 177.242   3
   0   5   5 320.285 105.163   4
   0  -5  -5 8.62312 143.433   3
   0   5   5 272.924 171.614   7
   0  -5  -6 468.831 197.141   3
   0   5   6 996.796 269.384   7
   0   5   7 598.852 233.723   7
   0  -5  -7 424.186 201.739   3
   0   5   8 145.931 228.172   7
   0  -5  -8-162.664 162.584   3
   0   6 -13 926.341 284.604   6
   0  -6  12 845.858 302.554   7
   0   6 -12 387.214 201.055   6
   0  -6  11 900.979 281.176   7
   0   6 -11 1158.23 256.323   6
   0   6 -10 234.876 151.020   6
   0  -6  10 153.854 186.914   7
   0   6 -10 137.994 127.378   4
   0   6  -9 1209.20 208.631   4
   0   6  -8 3748.67 348.183   4
   0   6  -7 1554.44 231.789   4
   0   6  -6 227.741 126.844   4
   0   6  -5 171.417 135.888   4
   0   6  -4 633.504 170.599   4
   0  -6   4 618.569 110.256   5
   0  -6   3 43.4474 58.9423   5
   0   6  -3-59.1533 118.817   4
   0   6  -2 1788.77 149.223   5
   0  -6   2 1645.13 140.638   5
   0   6  -2 1891.25 255.533   4
   0   6  -1 426.611 133.682   4
   0   6  -1 477.312 81.2393   5
   0   6   0 0.61949 49.2961   5
   0   6   0-24.5765 108.665   4
   0   6   1 150.789 72.4209   5
   0   6   1 200.708 126.216   4
   0   6   2 6364.46 349.384   5
   0   6   2 6713.17 454.583   4
   0  -6  -3 8086.06 602.965   3
   0   6   3 7361.73 475.885   4
   0   6   3 8171.70 443.819   5
   0   6   4 9808.38 540.888   4
   0  -6  -4 10209.4 715.747   3
   0  -6  -5 2942.88 419.714   3
   0   6   5 2813.85 382.168   7
   0   6   6 552.212 248.430   7
   0  -6  -6 276.944 158.835   3
   0  -6  -7 7213.24 708.015   3
   0   6   7 8088.21 716.879   7
   0   7 -12 3.88284 168.730   6
   0   7 -11 100.467 141.978   6
   0   7 -10 3043.06 353.729   4
   0   7  -9 237.396 153.291   4
   0   7  -8 440.591 168.835   4
   0   7  -7 1469.39 242.680   4
   0   7  -6 713.048 192.830   4
   0   7  -5 128.329 134.092   4
   0   7  -4 417.578 177.276   4
   0  -7   4 330.386 101.518   5
   0  -7   3 2685.89 204.483   5
   0   7  -3 2640.50 333.529   4
   0   7  -2 9008.21 337.431   5
   0   7  -2 9533.85 592.334   4
   0   7  -1 32641.2 1136.49   4
   0   7  -1 30323.8 685.169   5
   0   7   0 19411.7 873.009   4
   0   7   0 19910.1 532.672   5
   0   7   1 13307.1 463.023   5
   0   7   1 13078.6 702.732   4
   0   7   2 2158.79 291.593   4
   0   7   3 362.484 150.223   4
   0  -7  -4 241.633 176.256   3
   0   7   4 62.5387 98.3732   4
   0  -7  -5 1430.13 303.271   3
   0   7   5 1171.29 292.875   7
   0  -7  -6 2522.26 438.355   3
   0   7   6 4164.21 527.650   7
   0   8 -12 433.198 215.053   6
   0   8 -11 1427.39 280.887   4
   0   8 -10-100.127 148.475   4
   0   8  -9 79.2399 135.504   4
   0   8  -8 3771.40 427.213   4
   0   8  -7 25.6886 136.543   4
   0   8  -6 309.029 153.077   4
   0   8  -5-35.6294 113.017   4
   0   8  -4 14494.6 802.666   4
   0   8  -3 112.176 150.910   4
   0   8  -2-207.617 171.873   4
   0   8  -1 1312.98 258.418   4
   0   8   0 4482.50 436.812   4
   0   8   1 748.271 210.141   4
   0   8   2 48.4506 123.180   4
   0   8   3 879.052 204.345   4
   0   8   4 23.5897 167.332   7
   0   8   5 2918.95 463.793   7
   0   9 -11 704.138 229.791   4
   0   9 -10-127.499 169.042   4
   0   9  -9-6.91918 165.160   4
   0   9  -8 46.6779 149.505   4
   0   9  -7 2102.85 350.735   4
   0   9  -6-127.040 158.585   4
   0   9  -5 690.832 212.942   4
   0   9  -4 10156.2 709.440   4
   0   9  -3 643.886 224.255   4
   0   9  -2 7708.21 619.703   4
   0   9  -1 641.823 248.892   4
   0   9   0 406.250 163.243   4
   0   9   1 1209.62 277.276   4
   0   9   2 662.916 223.366   4
   0   9   3 884.098 226.972   4
   0  10 -11 362.110 238.774   4
   0  10 -10 339.954 245.442   4
   0  10  -9 343.881 220.988   4
   0  10  -8 1402.73 335.270   4
   0  10  -7 710.843 260.829   4
   0  10  -6 2038.97 388.997   4
   0  10  -5 963.354 293.709   4
   0  10  -4 47.5313 166.867   4
   0  10  -3 161.187 180.337   4
   0  10  -2-72.3441 175.403   4
   0  10  -1 378.001 218.525   4
   0  10   0 1774.06 336.840   4
   0  10   1 914.799 278.597   4
   0  10   2 230.684 171.885   4
   0  11  -6 1621.66 343.963   4
   0  11  -5 933.180 311.837   4
   0  11  -4-296.527 238.421   4
   0  11  -3 248.601 213.344   4
  -1  11   0 648.848 258.801   4
  -1  11  -1 3295.16 476.339   4
  -1  11  -2 1958.78 374.915   4
  -1  11  -3 128.883 190.802   4
  -1  11  -4 448.713 198.518   4
  -1  11  -5 1049.67 286.608   4
  -1  11  -6-500.085 277.744   4
  -1  11  -7 990.560 301.405   4
  -1  11  -8 925.362 283.633   4
  -1  11  -9-49.1027 213.574   4
  -1  10   2 146.928 189.145   4
  -1  10   1 560.805 217.406   4
  -1  10   0 1878.20 343.473   4
  -1  10  -1 1117.31 255.506   4
  -1  10  -2 45.9401 181.107   4
  -1  10  -3 1462.75 314.709   4
  -1  10  -4 3923.15 481.959   4
  -1  10  -5 490.565 214.006   4
  -1  10  -6 958.032 258.092   4
  -1  10  -7 7703.15 658.072   4
  -1  10  -8 89.3199 173.431   4
  -1  10  -9 1608.22 317.088   4
  -1  10 -10-200.344 192.593   4
  -1  10 -11 118.196 206.739   4
  -1   9   3 4360.11 446.760   4
  -1   9   2 508.096 191.332   4
  -1   9   1 4358.45 457.562   4
  -1   9   0-123.237 149.582   4
  -1   9  -1 1445.13 281.824   4
  -1   9  -2 1783.31 315.722   4
  -1   9  -3 4880.84 487.607   4
  -1   9  -4 1088.45 275.650   4
  -1   9  -5 9776.06 677.961   4
  -1   9  -6 2835.01 368.901   4
  -1   9  -7-159.226 181.535   4
  -1   9  -8 212.551 165.050   4
  -1   9  -9 440.852 218.222   4
  -1   9 -10-218.746 211.590   4
  -1   9 -11 525.531 184.746   4
   1  -8  -5 1959.08 398.116   3
  -1   8   5 2799.21 435.964   7
  -1   8   4 372.732 162.127   4
  -1   8   4 472.888 236.490   7
  -1   8   3 300.211 152.333   4
  -1   8   2 30.2075 128.696   4
  -1   8   1 142.884 132.606   4
  -1   8   0 186.027 141.360   4
  -1   8  -1 24264.3 1017.02   4
  -1   8  -2 81899.2 2086.50   4
  -1   8  -3 36536.8 1281.79   4
  -1   8  -4 8270.60 583.669   4
   1  -8   4 7785.40 336.438   5
  -1   8  -5 1541.80 270.468   4
   1  -8   5 1408.73 168.280   5
  -1   8  -6 633.601 187.217   4
  -1   8  -7 5885.07 501.596   4
  -1   8  -8 323.089 172.179   4
  -1   8  -9 227.202 176.813   4
  -1   8 -10 59.4034 133.590   4
  -1   8 -11-115.511 218.972   6
  -1   8 -12 294.474 178.685   6
  -1   7   6 557.939 277.113   7
   1  -7  -6-3.35789 218.909   3
   1  -7  -5 2275.55 386.199   3
  -1   7   5 1676.22 332.978   7
  -1   7   4 1795.45 314.374   7
  -1   7   4 1390.37 226.160   4
   1  -7  -4 1280.13 300.364   3
   1  -7  -3 1629.75 307.775   3
  -1   7   3 2119.98 281.360   4
  -1   7   2 749.300 191.683   4
  -1   7   1 12302.7 652.279   4
  -1   7   1 11571.1 320.791   5
  -1   7   0 18884.3 825.475   4
  -1   7  -1 3839.14 374.545   4
  -1   7  -2 22089.1 899.241   4
  -1   7  -3 2386.83 304.513   4
   1  -7   3 1905.58 139.302   5
   1  -7   4 551.388 99.0730   5
  -1   7  -4 388.861 138.829   4
   1  -7   5 128.710 90.4033   5
  -1   7  -5 85.2648 122.226   4
  -1   7  -6 6699.37 482.624   4
  -1   7  -7 4021.88 378.539   4
  -1   7  -8 1540.42 252.979   4
  -1   7  -9 688.684 178.196   4
  -1   7 -10 1511.54 248.783   4
  -1   7 -11 210.769 189.160   6
  -1   7 -12 605.352 251.246   6
   1  -6  -7 1030.89 291.339   3
  -1   6   7 776.864 251.801   7
  -1   6   6 3479.81 436.433   7
   1  -6  -6 2324.26 372.228   3
   1  -6  -5 2660.92 383.119   3
  -1   6   5 2932.20 289.460   4
  -1   6   5 3307.82 417.001   7
  -1   6   4 16057.7 687.894   4
  -1   6   4 17173.2 880.685   7
   1  -6  -4 15533.4 857.073   3
  -1   6   3 98.2666 118.112   4
   1  -6  -3 9.15252 126.065   3
   1  -6  -2 1337.44 227.760   3
  -1   6   2 1406.68 140.440   5
  -1   6   2 1502.44 226.999   4
  -1   6   1 40907.7 792.521   5
  -1   6   1 42670.7 1206.01   4
  -1   6   0 8786.04 510.994   4
  -1   6  -1-29.5881 101.272   4
   1  -6   2 353.701 49.9769   5
  -1   6  -2 192.624 124.526   4
   1  -6   3 19564.2 507.875   5
  -1   6  -3 21373.2 808.002   4
  -1   6  -4 77.6830 97.2517   4
   1  -6   4-48.1843 62.6154   5
   1  -6   5 16266.5 601.673   5
  -1   6  -5 15675.2 694.310   4
  -1   6  -6 406.641 142.163   4
  -1   6  -7 1995.81 254.543   4
  -1   6  -8-126.657 131.877   4
  -1   6  -9 1763.34 234.587   4
   1  -6  10 703.257 254.235   7
  -1   6 -10 596.344 160.914   4
  -1   6 -10 491.195 178.547   6
   1  -6  11 60.5256 179.513   7
  -1   6 -11 55.6378 143.112   6
   1  -6  12 4.34190 198.966   7
  -1   6 -12-75.9792 177.440   6
  -1   5   8 223.777 171.118   7
   1  -5  -8 192.253 187.134   3
  -1   5   7 131.095 193.267   7
   1  -5  -7-17.2765 200.498   3
  -1   5   6 1600.05 317.246   7
   1  -5  -6 1433.74 307.038   3
  -1   5   5 666.433 132.744   4
  -1   5   5 805.586 204.127   7
   1  -5  -4 317.470 145.917   3
  -1   5   4 347.222 115.115   4
  -1   5   4 273.962 144.026   7
   1  -5  -3 23113.3 928.259   3
  -1   5   3 23377.4 769.837   4
  -1   5   2 926.720 154.212   4
   1  -5  -2 698.555 153.394   3
   1  -5  -1 3272.86 302.775   3
  -1   5   1 3127.04 272.676   4
  -1   5   1 3530.45 171.456   5
  -1   5   0 10578.7 504.130   4
  -1   5  -1 191.158 92.3043   4
  -1   5  -1 209.997 77.4982   3
   1  -5   2 225.799 44.7498   5
  -1   5  -2 275.908 101.123   4
   1  -5   3 12324.5 389.506   5
  -1   5  -3 11872.5 536.448   4
  -1   5  -4 57162.7 1354.41   4
   1  -5   4 55514.5 1184.74   5
   1  -5   5 2901.36 253.764   5
  -1   5  -5 3084.93 271.867   4
  -1   5  -6 455.531 123.370   4
   1  -5   7 6421.23 491.086   7
  -1   5  -7 5697.62 372.905   4
  -1   5  -8 73640.3 1610.04   4
   1  -5   8 76724.7 2017.75   7
  -1   5  -9 17626.9 659.069   4
  -1   5  -9 19660.9 888.954   6
   1  -5   9 17927.8 926.074   7
   1  -5  10 2049.14 349.875   7
  -1   5 -10 2230.05 228.996   4
  -1   5 -10 2643.54 358.495   6
   1  -5  11 278.957 216.624   7
  -1   5 -11 32.4272 167.303   6
  -1   5 -12 4.29246 213.146   6
   1  -5  12-116.739 178.019   7
  -1   5 -13 230.094 221.785   6
  -1   4   9 812.741 299.037   7
   1  -4  -9 356.593 245.402   3
   1  -4  -8 309.606 182.419   3
  -1   4   8 463.816 209.611   7
   1  -4  -7 1963.54 338.596   3
  -1   4   7 1937.69 313.791   7
  -1   4   6 54776.4 1156.74   4
  -1   4   6 53088.3 1627.51   7
   1  -4  -6 54752.3 1674.90   3
   1  -4  -5 25137.7 1026.11   3
  -1   4   5 26891.7 746.919   4
  -1   4   5 28361.6 1058.88   7
  -1   4   4 1307.54 157.907   4
   1  -4  -4 958.097 196.440   3
  -1   4   4 838.277 190.654   7
  -1   4   3 1184.22 145.691   2
  -1   4   3 1006.10 136.831   4
   1  -4  -3 888.649 142.170   4
  -1   4   2 20024.0 632.312   4
   1  -4  -2 18277.1 645.796   4
  -1   4   2 19921.0 629.837   2
   1  -4  -1 4202.23 287.143   4
  -1   4   1 4304.88 277.074   2
  -1   4   1 3888.48 269.409   4
  -1   4   0 70101.6 1441.31   2
  -1   4   0 72721.7 1457.62   3
  -1   4   0 69340.4 1440.55   4
  -1   4  -1 24484.3 695.498   3
  -1   4  -1 25334.6 734.415   2
  -1   4  -1 25384.4 743.458   4
  -1   4  -2 26.9093 55.3247   2
  -1   4  -2-16.8037 67.0142   4
   1  -4   3 17082.4 487.928   5
  -1   4  -3 16821.0 583.443   4
  -1   4  -3 17294.1 587.375   2
  -1   4  -4 57952.8 1261.27   4
  -1   4  -4 59325.7 1271.91   2
   1  -4   4 57928.5 1300.18   4
  -1   4  -5 8563.52 399.560   2
  -1   4  -5 8027.00 387.756   4
   1  -4   5 8072.74 405.528   4
   1  -4   5 7787.03 456.271   7
  -1   4  -6 43285.7 1032.51   4
   1  -4   6 42218.7 1068.43   4
  -1   4  -6 44211.4 1038.05   2
   1  -4   6 45503.2 1264.08   7
  -1   4  -7 17605.9 737.522   6
   1  -4   7 17366.8 618.947   4
   1  -4   7 19220.0 812.878   7
  -1   4  -7 17575.7 590.083   4
  -1   4  -8 306.001 99.7792   4
   1  -4   8 262.695 161.862   7
  -1   4  -8 183.596 143.419   6
  -1   4  -9 802.308 121.474   4
   1  -4   9 552.388 170.904   7
  -1   4  -9 563.667 156.948   6
  -1   4 -10 256.005 162.241   6
   1  -4  10 285.250 210.414   7
   1  -4  11 198.861 145.370   7
  -1   4 -11 78.7307 132.223   6
   1  -4  12 368.771 212.762   7
  -1   4 -12 34.9349 159.191   6
  -1   4 -13 409.481 250.680   6
  -1   3  10-260.134 254.557   7
  -1   3   9 3261.75 445.812   7
  -1   3   8-31.9358 184.728   7
  -1   3   7 17522.0 872.996   7
  -1   3   6 16131.5 784.505   7
  -1   3   5 1883.24 149.402   4
  -1   3   5 1901.78 263.289   7
  -1   3   4 8654.12 488.208   7
  -1   3   4 7711.50 322.654   4
   1  -3  -4 8097.53 348.862   4
  -1   3   3 81.8584 56.9916   4
   1  -3  -3 65.6976 47.8964   4
  -1   3   3 79.6662 99.1684   7
  -1   3   2 17352.1 511.642   4
   1  -3  -2 17288.9 533.068   4
  -1   3   2 17423.4 510.547   2
  -1   3   1 31820.8 754.089   4
  -1   3   1 31839.5 757.019   2
   1  -3  -1 32363.0 774.833   4
  -1   3   0 1403.82 136.758   2
  -1   3   0 1265.32 132.160   3
  -1   3   0 1161.37 132.578   4
  -1   3  -1 89180.2 1613.63   2
  -1   3  -1 92711.3 1622.46   4
  -1   3  -2 115411. 1986.57   4
  -1   3  -2 120187. 1998.46   2
  -1   3  -3 6096.76 289.538   2
   1  -3   3 6389.09 302.089   4
  -1   3  -3 6147.82 289.237   4
  -1   3  -4 242567. 3679.04   2
  -1   3  -4 237736. 3669.64   4
   1  -3   4 243910. 3867.14   7
   1  -3   4 240991. 3705.53   4
   1  -3   5 3947.85 237.331   4
   1  -3   5 3310.33 277.782   7
  -1   3  -5 3713.60 221.002   4
  -1   3  -6 15697.3 641.204   6
   1  -3   6 17191.3 693.912   7
  -1   3  -6 15343.0 484.893   4
   1  -3   6 15919.0 507.043   4
  -1   3  -7 15112.8 466.793   4
   1  -3   7 13656.7 674.827   7
  -1   3  -7 14819.4 665.663   6
  -1   3  -8 2674.99 312.247   6
   1  -3   8 2921.96 341.626   7
   1  -3   9 2965.55 362.841   7
  -1   3  -9 2873.50 348.743   6
  -1   3  -9 2449.60 129.947   1
  -1   3 -10 261.730 166.868   6
   1  -3  10-189.926 158.889   7
  -1   3 -11 372.773 218.069   6
   1  -3  11 923.748 281.159   7
   1  -3  12 360.252 218.390   7
  -1   3 -12-30.6872 157.190   6
  -1   2  11 87.4835 187.273   7
  -1   2  10 63.6485 169.493   7
  -1   2   9 430.114 210.100   7
  -1   2   8 149.200 150.721   7
  -1   2   7 130.750 153.992   7
  -1   2   6 2904.70 315.427   7
  -1   2   6 2615.69 120.801   1
  -1   2   5 99.2765 107.049   7
  -1   2   4 3406.56 265.352   6
  -1   2   4 4087.45 308.292   7
  -1   2   4 4343.91 191.748   4
   1  -2  -4 3990.83 196.478   4
  -1   2   3 358.862 66.4328   4
  -1   2   3 284.719 81.1313   6
  -1   2   3 73.1885 73.2603   7
   1  -2  -3 165.675 53.3955   4
   1  -2  -2 47635.1 899.982   4
  -1   2   2 47781.6 887.215   4
   1  -2  -2 46754.6 898.191   2
  -1   2   1 11522.8 339.617   4
  -1   2   1 11234.7 284.436   5
  -1   2   0 87159.2 1439.56   3
  -1   2   0 91419.4 1476.41   4
  -1   2   0 89644.9 1473.86   2
  -1   2  -1 21479.4 505.168   2
  -1   2  -1 20717.0 500.792   4
  -1   2  -2 9628.70 310.126   2
   1  -2   2 9860.51 343.515   7
  -1   2  -2 9879.75 315.559   4
   1  -2   3 108494. 1739.37   2
  -1   2  -3 108835. 1731.94   4
   1  -2   3 105451. 1849.93   7
   1  -2   3 107236. 1736.64   4
  -1   2  -4 44353.4 1006.44   6
  -1   2  -4 42506.3 829.503   4
   1  -2   4 43013.8 839.368   4
   1  -2   4 42672.3 996.588   7
   1  -2   4 43813.0 842.009   2
  -1   2  -5 322.577 59.1132   4
  -1   2  -5 290.844 122.475   6
   1  -2   5 232.731 86.5074   7
  -1   2  -5 219.257 83.0094   7
   1  -2   5 321.346 63.9621   4
  -1   2  -6 122059. 2364.75   6
   1  -2   6 124467. 2384.07   7
   1  -2   6 122675. 1929.17   4
  -1   2  -7 4364.42 366.240   6
  -1   2  -7 4089.96 155.848   1
   1  -2   7 4413.21 369.549   7
   1  -2   8 7653.19 521.722   7
  -1   2  -8 7851.39 535.291   6
   1  -2   9 15343.0 805.942   7
  -1   2  -9 15221.7 796.261   6
  -1   2 -10 3473.72 414.797   6
   1  -2  10 2434.08 369.892   7
  -1   2 -11 227.809 166.093   6
   1  -2  11 256.044 204.370   7
  -1   2 -12 2661.42 420.721   6
   1  -2  12 2542.18 410.443   7
  -1   1  11 811.596 279.802   7
  -1   1  10 77.0014 178.073   7
  -1   1   9 1485.37 296.746   7
  -1   1   8 10815.8 670.693   7
  -1   1   7 5061.04 425.647   7
  -1   1   6 1085.11 195.753   7
  -1   1   5 45263.1 1116.49   6
  -1   1   5 45859.2 1194.01   7
  -1   1   4 6716.24 368.608   7
  -1   1   4 6914.80 338.158   6
   1  -1  -4 6008.20 182.769   4
  -1   1   4 6506.55 190.372   1
   1  -1  -4 6519.63 189.314   2
  -1   1   3 43003.9 918.211   6
   1  -1  -3 43807.9 737.454   2
  -1   1   3 44091.7 988.090   7
   1  -1  -3 43694.1 740.349   4
   1  -1  -2 109426. 1655.15   4
  -1   1   2 110009. 1764.05   6
  -1   1   2 111261. 1833.21   7
  -1   1   1-0.03063 403.350   4
  -1   1   1-0.03999 465.890   7
   1  -1   3 156896. 2459.97   7
  -1   1  -3 154641. 2501.21   6
   1  -1   3 154436. 2265.36   4
   1  -1   4 42350.0 718.147   4
  -1   1  -4 41055.3 712.734   1
  -1   1  -4 42565.6 1005.04   6
   1  -1   4 41243.9 966.302   7
  -1   1  -4 42425.2 977.225   7
   1  -1   4 42329.7 717.732   2
   1  -1   5 69364.5 1443.19   7
  -1   1  -5 69842.3 1478.13   6
   1  -1   5 65166.6 1004.11   4
  -1   1  -6 2695.81 270.320   6
   1  -1   6 2609.18 259.545   7
   1  -1   7 1159.78 205.337   7
  -1   1  -7 898.431 185.388   6
  -1   1  -8 16446.9 802.140   6
   1  -1   8 16714.3 792.053   7
   1  -1   9 2232.94 328.120   7
  -1   1  -9 2306.68 346.738   6
  -1   1 -10-66.2051 179.727   6
   1  -1  10-118.303 181.885   7
  -1   1 -11 172.010 165.142   6
   1  -1  11 182.021 187.206   7
   1  -1  12 167.764 206.157   7
  -1   0  12 281.828 210.135   7
  -1   0  11 1141.34 302.108   7
  -1   0  10 96.4143 165.260   7
  -1   0   9 2316.69 323.904   7
   1   0  -9 2158.22 303.117   6
  -1   0   8 11240.1 658.157   7
   1   0  -8 11208.7 624.362   6
  -1   0   7 8763.47 540.632   7
   1   0  -7 8780.70 507.986   6
  -1   0   6 23760.9 843.309   7
   1   0  -6 24317.5 803.273   6
  -1   0   5 54357.7 1276.44   7
  -1   0   5 51437.0 1152.36   6
   1   0  -5 53385.7 1200.17   6
  -1   0   4 5916.02 322.256   7
  -1   0   4 6334.07 290.740   6
   1   0  -4 6510.63 304.062   6
   1   0  -3 54490.4 1020.13   6
  -1   0   3 54103.2 999.942   6
   1   0  -3 55379.5 887.779   1
  -1   0   3 55596.6 1106.64   7
  -1   0   2 353288. 5117.33   7
   1   0  -2 361036. 5151.80   5
   1   0  -2 363382. 4994.01   1
  -1   0   2 346035. 4995.50   6
   1   0  -2 363809. 5008.72   6
  -1   0  -1 187.359 140.159   6
   1   0   2 133214. 2078.09   7
  -1   0  -2 134322. 2156.68   6
   1   0   2 133373. 1962.43   1
   1   0   3 11680.4 402.616   7
   1   0   3 10918.8 262.018   1
  -1   0  -3 11049.6 429.860   6
   1   0   4 45381.5 1062.48   7
  -1   0  -4 47205.7 1092.38   7
  -1   0  -4 46726.5 1131.82   6
  -1   0  -5 34.4701 99.0362   6
   1   0   5 115.715 86.5656   7
   1   0   6 25398.9 876.971   7
  -1   0  -6 25634.4 922.680   6
   1   0   7 41649.7 1251.17   7
  -1   0  -7 40741.5 1305.86   6
   1   0   8 1976.57 282.407   7
  -1   0  -8 1550.51 257.006   6
   1   0   9 1194.40 243.126   7
  -1   0  -9 1416.25 262.877   6
   1   0  10-195.168 204.758   7
   1   0  11-100.488 183.076   7
  -1  -1  12-540.904 267.174   7
   1   1 -12 86.3672 182.016   6
  -1  -1  11 293.859 188.259   7
   1   1 -11-3.52318 154.386   6
  -1  -1  10 116.281 172.146   7
   1   1 -10-61.3450 159.047   6
   1   1  -9 867.226 202.217   6
  -1  -1   9 1356.51 271.014   7
  -1  -1   8 369.030 187.943   7
   1   1  -8 93.7382 94.6987   6
   1   1  -7 5878.18 389.719   6
  -1  -1   7 7301.90 480.969   7
  -1  -1   6 5090.51 365.187   7
   1   1  -6 4717.44 311.441   6
   1   1  -6 4425.52 175.182   4
   1   1  -6 4755.94 177.219   1
   1   1  -5 14468.0 510.493   6
   1   1  -5 14801.8 382.539   4
  -1  -1   5 14312.5 581.802   7
   1   1  -4 274068. 4076.14   6
  -1  -1   4 269818. 4242.15   7
  -1  -1   3 555520. 7943.64   7
  -1  -1   2 407989. 5977.21   7
   1   1  -2 428601. 5988.51   5
   1   1  -1 4154.28 324.354   5
   1   1   0 311.564 798.542   5
   1   1   1 8470.98 311.740   3
   1   1   2 7256.85 305.429   7
   1   1   3 6716.16 332.045   7
   1   1   4 1482.23 110.414   4
   1   1   4 1661.59 189.999   7
   1   1   5 650.213 144.083   7
   1   1   5 621.924 63.1994   1
   1   1   5 648.899 66.8363   4
   1   1   6 13795.8 656.408   7
   1   1   7 7123.38 501.997   7
   1   1   8 6663.54 544.327   7
   1   1   9 91.7740 135.451   7
   1   1  10-100.442 172.107   7
   1   1  11 745.569 243.610   7
   1   2 -13 1848.54 366.697   6
  -1  -2  12 1605.09 347.962   7
   1   2 -12 1434.40 295.274   6
   1   2 -11 118.826 139.783   6
  -1  -2  11 71.4250 153.802   7
  -1  -2  10 1337.42 292.310   7
   1   2 -10 1262.73 250.441   6
   1   2  -9 317.373 152.286   6
  -1  -2   9 280.812 168.091   7
   1   2  -8 275.357 60.4014   1
   1   2  -8 270.403 135.864   6
   1   2  -8 426.313 65.8749   4
  -1  -2   8 232.060 150.758   7
   1   2  -8 351.541 66.6489   2
   1   2  -7 487.089 130.257   6
  -1  -2   7 643.813 168.953   7
   1   2  -7 532.711 81.6800   2
   1   2  -7 550.188 91.7648   4
   1   2  -6 39749.5 870.115   4
  -1  -2   6 39866.6 1144.44   7
   1   2  -6 42849.1 1053.16   6
   1   2  -5 13216.7 437.198   4
  -1  -2   5 12629.2 551.062   7
   1   2  -4 53696.2 1090.39   4
  -1  -2   4 55321.0 1246.63   7
   1   2  -3 2441.32 201.475   5
  -1  -2   3 2501.31 206.356   7
   1   2  -2 161256. 2525.24   5
   1   2  -1 10822.9 337.942   5
  -1  -2   1 11498.2 353.115   5
   1   2   0 41874.4 845.989   5
  -1  -2   0 42853.2 859.947   5
   1   2   0 43635.5 934.651   3
   1   2   1 272671. 4180.98   3
   1   2   2 20347.2 567.648   4
   1   2   3 3247.12 257.223   7
   1   2   3 3011.24 197.982   4
   1   2   4 22914.1 605.463   4
   1   2   4 25078.0 828.409   7
   1   2   5 14859.8 440.501   2
  -1  -2  -5 15353.2 704.939   3
   1   2   5 15154.4 441.959   4
   1   2   5 15678.9 689.596   7
   1   2   6 10183.8 319.721   2
  -1  -2  -6 11685.0 654.326   3
   1   2   6 11005.8 329.674   4
   1   2   6 11046.1 607.979   7
  -1  -2  -7 40346.6 1362.30   3
   1   2   7 38366.7 1300.85   7
   1   2   8 4554.03 458.345   7
  -1  -2  -8 4118.00 447.054   3
  -1  -2  -9 1306.93 304.145   3
   1   2   9 1399.02 310.609   7
  -1  -2 -10 1163.67 304.168   3
   1   2  10 1102.02 272.901   7
   1   3 -13 151.986 171.095   6
   1   3 -12-121.447 178.417   6
  -1  -3  12 360.056 235.476   7
  -1  -3  11 197.096 168.796   7
   1   3 -11 554.735 208.159   6
  -1  -3  10 1470.16 284.968   7
   1   3 -10 1661.60 264.182   6
   1   3  -9 4326.67 243.904   4
  -1  -3   9 4755.25 466.629   7
   1   3  -9 4546.74 393.904   6
   1   3  -8 79770.5 1827.12   6
   1   3  -8 78938.0 1521.49   2
   1   3  -8 80782.4 1537.58   4
  -1  -3   8 82448.8 2044.29   7
  -1  -3   7 2842.31 327.138   7
   1   3  -7 2891.43 221.433   2
   1   3  -7 3320.70 285.170   6
   1   3  -7 2836.48 223.439   4
   1   3  -6 155733. 2660.40   4
  -1  -3   6 160673. 2996.07   7
  -1  -3   5 21504.1 772.881   7
   1   3  -5 19580.9 636.347   4
  -1  -3   4-36.9143 91.8592   7
   1   3  -4 89.3569 77.5985   5
   1   3  -4-48.0316 78.4772   4
  -1  -3   4-27.5152 73.8807   5
  -1  -3   3 238120. 3653.90   5
   1   3  -3 234355. 3666.08   5
   1   3  -3 232432. 3754.04   4
   1   3  -2 13217.2 504.294   4
   1   3  -2 13523.2 435.125   5
  -1  -3   2 13801.0 435.693   5
   1   3  -1 58341.3 1106.66   5
   1   3  -1 59658.1 1281.52   4
  -1  -3   1 59903.7 1132.90   5
   1   3   0 92257.6 1788.46   3
   1   3   0 94469.2 1773.79   4
   1   3   0 91511.5 1607.10   5
   1   3   1 1508.33 147.623   5
   1   3   1 1933.53 192.745   4
   1   3   1 1888.26 209.590   3
   1   3   2 11005.7 459.139   4
   1   3   3 85.2475 64.3319   4
   1   3   4 1121.46 145.278   4
   1   3   4 1294.98 201.897   7
  -1  -3  -4 1192.87 211.634   3
  -1  -3  -5 679.835 184.933   3
   1   3   5 716.049 119.636   4
   1   3   5 783.674 208.055   7
   1   3   5 747.800 122.965   2
  -1  -3  -6 4283.28 434.151   3
   1   3   6 4515.13 429.219   7
   1   3   6 4957.41 263.078   4
  -1  -3  -7 208.774 167.259   3
   1   3   7 29.1493 130.424   7
  -1  -3  -8 10108.5 754.722   3
   1   3   8 10016.9 705.929   7
  -1  -3  -9 294.800 207.519   3
   1   3   9 404.038 178.728   7
   1   3  10 206.707 173.634   7
   1   4 -13 70.0115 189.498   6
  -1  -4  12 936.759 295.902   7
   1   4 -12 787.555 231.908   6
   1   4 -11 1791.48 306.068   6
  -1  -4  11 2346.79 410.620   7
   1   4 -10 2385.83 213.146   4
  -1  -4  10 2105.61 357.100   7
   1   4  -9 2599.48 318.187   6
   1   4  -9 2318.59 226.531   4
  -1  -4   9 3287.96 402.877   7
  -1  -4   8 2923.64 377.714   7
   1   4  -8 3552.30 340.001   6
   1   4  -8 3438.72 289.412   4
  -1  -4   7 9308.33 587.163   7
   1   4  -7 9280.66 464.028   4
  -1  -4   6 4621.97 398.942   7
   1   4  -6 4274.56 317.586   4
   1   4  -5 17006.4 659.192   4
   1   4  -4 45959.2 1128.65   5
   1   4  -4 46826.7 1185.15   4
  -1  -4   4 46449.7 1104.03   5
   1   4  -3 2377.89 203.109   5
   1   4  -3 2648.09 254.998   4
  -1  -4   3 2679.12 204.431   5
  -1  -4   2 11634.8 422.923   5
   1   4  -2 11844.4 542.147   4
   1   4  -2 11668.0 419.707   5
   1   4  -1 22941.3 768.164   4
  -1  -4   1 21659.8 604.874   5
   1   4  -1 21393.7 585.089   5
   1   4   0 42328.0 948.985   5
   1   4   0 44836.0 1143.25   4
   1   4   1 4468.50 322.439   4
   1   4   1 3874.81 256.971   5
   1   4   2 15232.8 581.503   5
   1   4   2 15951.5 625.122   4
  -1  -4  -3 7744.37 515.654   3
   1   4   3 7791.29 426.540   4
   1   4   4 1363.37 215.197   7
  -1  -4  -4 1460.80 249.182   3
   1   4   4 1475.63 185.380   4
   1   4   5 8301.01 576.905   7
  -1  -4  -5 9421.87 635.441   3
   1   4   5 8565.80 432.050   4
   1   4   6 6335.53 533.566   7
  -1  -4  -6 6415.14 551.386   3
  -1  -4  -7 1123.44 261.957   3
   1   4   7 1633.04 318.482   7
  -1  -4  -8-22.9826 173.441   3
   1   4   8 94.3291 149.391   7
  -1  -4  -9 1038.75 336.600   3
   1   4   9 632.714 287.336   7
   1   5 -13 3593.21 470.209   6
   1   5 -12 426.585 210.675   6
  -1  -5  12-322.898 286.465   7
  -1  -5  11 2867.42 434.184   7
   1   5 -11 3159.80 385.457   6
   1   5 -10 24547.5 842.114   4
   1   5 -10 22980.8 983.118   6
  -1  -5  10 23861.9 1178.28   7
   1   5  -9 4517.04 351.468   4
  -1  -5   9 3888.75 462.402   7
  -1  -5   8 7278.25 594.477   7
   1   5  -8 7335.08 459.392   4
   1   5  -7 11516.3 583.854   4
   1   5  -6 2850.34 294.967   4
   1   5  -5 1123.93 196.971   4
   1   5  -4 2326.38 231.391   5
  -1  -5   4 2904.75 248.378   5
   1   5  -4 2346.77 268.786   4
  -1  -5   3 128.461 69.2668   5
   1   5  -3 125.802 106.734   4
   1   5  -3 77.1543 75.5765   5
   1   5  -2 11882.6 443.404   5
   1   5  -2 12059.1 596.923   4
  -1  -5   2 11836.0 457.063   5
   1   5  -1 2805.20 205.002   5
   1   5  -1 2694.48 285.989   4
   1   5   0 18509.0 588.710   5
   1   5   0 20060.4 778.112   4
   1   5   1 4643.85 293.245   5
   1   5   1 4583.86 364.963   4
   1   5   2 8355.77 492.911   4
   1   5   2 8673.70 447.150   5
   1   5   3 5419.93 389.124   4
  -1  -5  -3 5140.31 461.179   3
   1   5   3 5228.47 381.250   5
   1   5   4 246.477 125.677   4
  -1  -5  -4 347.856 174.864   3
   1   5   4 723.480 201.842   7
   1   5   5 60.7616 94.4133   4
   1   5   5 230.123 151.405   7
  -1  -5  -5 285.104 170.362   3
   1   5   6 1522.34 283.810   7
  -1  -5  -6 1868.94 336.740   3
  -1  -5  -7 2027.45 364.567   3
   1   5   7 2012.04 356.817   7
   1   5   8 2208.84 406.704   7
  -1  -5  -8 1933.25 411.687   3
   1   6 -13-299.359 212.715   6
   1   6 -12 676.060 227.421   6
  -1  -6  12 484.565 278.682   7
  -1  -6  11 377.811 216.251   7
   1   6 -11 25.4038 131.046   6
   1   6 -10 484.565 192.416   6
   1   6 -10 224.954 151.095   4
   1   6  -9 174.354 124.343   4
   1   6  -8 1330.73 231.346   4
   1   6  -7 72.9367 107.328   4
   1   6  -6 7913.31 520.702   4
   1   6  -5 1704.81 249.398   4
   1   6  -4 14233.2 564.578   5
   1   6  -4 14834.8 717.032   4
  -1  -6   3 2076.80 204.822   5
   1   6  -3 1939.58 204.762   5
   1   6  -3 1947.46 262.862   4
  -1  -6   2 54591.3 1221.51   5
   1   6  -2 55313.9 1189.17   5
   1   6  -2 55412.7 1527.30   4
   1   6  -1 34437.8 863.589   5
   1   6  -1 37484.8 1198.18   4
   1   6   0 710.786 119.248   5
   1   6   0 400.666 145.534   4
   1   6   1 4156.43 292.731   5
   1   6   1 3613.95 358.459   4
   1   6   2 3929.02 357.921   4
   1   6   2 3630.25 297.496   5
   1   6   3-9.38533 103.672   5
   1   6   3 42.9271 130.952   4
   1   6   4 1205.44 215.542   4
   1   6   4 1053.88 192.869   5
  -1  -6  -4 887.597 255.181   3
   1   6   5 709.019 227.088   7
  -1  -6  -5 401.416 193.998   3
   1   6   6 91.8649 151.052   7
  -1  -6  -6 128.044 199.599   3
   1   6   7 2160.75 411.137   7
   1   7 -13 446.118 249.473   6
   1   7 -12 86.0922 150.318   6
   1   7 -11 1183.58 284.617   6
   1   7 -10 19.1604 122.798   4
   1   7  -9 1432.51 251.340   4
   1   7  -8 2004.54 301.617   4
   1   7  -7 696.116 194.557   4
   1   7  -6 4024.57 414.622   4
   1   7  -5 424.958 172.152   4
   1   7  -4 2180.26 235.352   5
   1   7  -4 2154.20 302.355   4
   1   7  -3 13974.9 757.835   4
   1   7  -3 14847.2 559.233   5
  -1  -7   3 13039.1 546.179   5
   1   7  -2 15600.6 555.474   5
   1   7  -2 16922.4 833.225   4
   1   7  -1 1029.49 143.302   5
   1   7  -1 1601.63 268.313   4
   1   7   0 4279.21 284.431   5
   1   7   0 4932.37 446.680   4
   1   7   1 36.0280 120.365   4
   1   7   1-61.8657 67.6148   5
   1   7   2 5389.57 471.089   4
   1   7   3 388.223 170.536   4
   1   7   4-53.0533 118.921   4
   1   7   5 77.0164 199.165   7
   1   7   6 263.431 256.110   7
   1   8 -12 925.687 283.484   6
   1   8 -11-190.099 208.087   4
   1   8 -10 418.409 178.618   4
   1   8  -9 450.707 199.529   4
   1   8  -8 981.342 240.876   4
   1   8  -7 1342.33 272.834   4
   1   8  -6 3576.66 424.916   4
   1   8  -5 1302.23 278.427   4
   1   8  -4 1600.78 306.705   4
   1   8  -4 1113.66 170.366   5
   1   8  -3 270.111 159.286   4
   1   8  -2 654.574 223.131   4
   1   8  -1 2498.72 347.196   4
   1   8   0 271.331 175.869   4
   1   8   1 173.961 137.306   4
   1   8   2 373.617 190.488   4
   1   8   3 1275.40 249.927   4
   1   8   4-148.434 213.017   7
   1   9 -11 87.2498 176.230   4
   1   9 -10-0.93065 189.435   4
   1   9  -9 474.291 209.428   4
   1   9  -8 746.398 221.552   4
   1   9  -7 86.2593 167.034   4
   1   9  -6-62.4302 171.540   4
   1   9  -5 32.1977 143.164   4
   1   9  -4-29.9888 159.261   4
   1   9  -3 1423.06 288.080   4
   1   9  -2 198.249 214.587   4
   1   9  -1 780.029 251.378   4
   1   9   0 850.869 218.884   4
   1   9   1 1092.57 271.509   4
   1   9   2 25.9537 134.541   4
   1  10 -11-85.8902 250.283   4
   1  10 -10 66.4963 182.985   4
   1  10  -9 247.571 233.803   4
   1  10  -8 934.483 280.833   4
   1  10  -7 777.928 274.035   4
   1  10  -6 615.473 268.838   4
   1  10  -5-7.37532 175.324   4
   1  10  -4 1356.33 330.546   4
   1  10  -3 358.583 210.324   4
   1  10  -2-22.5176 164.041   4
   1  10  -1 271.161 221.295   4
   1  10   0 1428.36 323.856   4
   1  10   1 572.339 268.120   4
   1  10   2 1351.84 334.953   4
  -2  11   2-472.939 261.851   4
  -2  11   1 608.438 244.425   4
  -2  11   0 815.901 272.593   4
  -2  11  -1 207.479 185.372   4
  -2  11  -2 2339.30 386.318   4
  -2  11  -3 270.072 193.028   4
  -2  11  -4 84.4787 174.194   4
  -2  11  -5 4146.87 507.332   4
  -2  11  -6 1886.67 366.078   4
  -2  11  -7 172.515 191.580   4
  -2  11  -8 870.197 279.310   4
  -2  11  -9 647.267 252.895   4
  -2  11 -10 20.3025 195.937   4
  -2  10   2 400.529 185.304   4
  -2  10   1 1499.82 306.018   4
  -2  10   0 49.1496 208.250   4
  -2  10  -1 84.5799 146.518   4
  -2  10  -2 1160.38 248.129   4
  -2  10  -3 2741.54 395.814   4
  -2  10  -4 107.140 201.456   4
  -2  10  -5 46.1668 154.314   4
  -2  10  -6 1787.58 344.963   4
  -2  10  -7 3491.82 451.997   4
  -2  10  -8 1929.78 320.288   4
  -2  10  -9 220.461 165.815   4
  -2  10 -10-62.2895 177.257   4
  -2  10 -11 296.611 200.782   4
  -2   9   4 367.450 256.079   7
  -2   9   3 3095.43 381.797   4
  -2   9   2 153.621 171.975   4
  -2   9   1 25.3854 125.488   4
  -2   9   0 1878.69 300.146   4
  -2   9  -1 642.490 221.175   4
  -2   9  -2 1996.76 321.096   4
  -2   9  -3 49664.9 1597.11   4
  -2   9  -4 10080.0 679.495   4
  -2   9  -5 156.672 138.462   4
  -2   9  -6 726.191 219.264   4
  -2   9  -7 1746.28 302.617   4
  -2   9  -8 366.464 187.588   4
  -2   9  -9 1613.52 304.779   4
  -2   9 -10 301.805 192.354   4
   2  -8  -5 849.809 310.491   3
  -2   8   5 636.424 254.706   7
  -2   8   4 769.382 209.923   4
  -2   8   4 649.462 219.599   7
   2  -8  -4 288.763 186.518   3
   2  -8  -3 516.690 202.495   3
  -2   8   3 659.545 188.943   4
  -2   8   2 2972.84 352.974   4
  -2   8   1 4864.70 437.650   4
  -2   8   0 802.217 205.826   4
  -2   8  -1 53883.0 1570.01   4
  -2   8  -2-15.0722 135.760   4
  -2   8  -3 363.434 172.590   4
   2  -8   4 2873.54 173.695   5
  -2   8  -4 2930.72 342.663   4
   2  -8   5 1863.29 181.581   5
  -2   8  -5 1783.07 294.580   4
  -2   8  -6 402.901 191.264   4
  -2   8  -7 365.588 157.341   4
  -2   8  -8 7371.17 545.125   4
  -2   8  -9 1571.32 287.870   4
  -2   8 -10 1047.83 235.372   4
  -2   8 -11-156.321 186.309   6
  -2   7   7-230.198 248.410   7
   2  -7  -7-16.7008 181.816   3
  -2   7   6 1888.83 357.806   7
   2  -7  -6 1979.74 372.126   3
   2  -7  -5 1106.53 280.741   3
  -2   7   5 1287.20 284.736   7
  -2   7   4 2578.74 360.100   7
  -2   7   4 2944.33 321.384   4
   2  -7  -3 12663.0 759.206   3
  -2   7   3 13725.0 684.006   4
  -2   7   2 15411.5 729.460   4
   2  -7  -2 14672.9 785.290   3
  -2   7   1 6167.30 453.123   4
  -2   7   0 4736.30 404.136   4
  -2   7  -1 18298.2 795.984   4
  -2   7  -2 1719.84 231.348   4
  -2   7  -3 650.151 185.461   4
   2  -7   3 657.505 67.1747   5
  -2   7  -4 18.6451 136.844   4
   2  -7   4 79.8365 63.7167   5
   2  -7   5 1697.71 190.370   5
  -2   7  -5 1616.94 234.246   4
  -2   7  -6 195.502 136.255   4
  -2   7  -7 331.032 146.924   4
  -2   7  -8 381.677 130.092   4
  -2   7  -9 59.1053 110.035   4
  -2   7 -10 2144.77 286.699   4
  -2   7 -10 1337.24 283.626   6
  -2   7 -11 149.498 172.819   6
  -2   7 -12 577.792 246.796   6
   2  -6  -8 238.113 269.290   3
  -2   6   8 242.783 230.016   7
  -2   6   7 241.835 163.736   7
   2  -6  -7 26.9347 187.710   3
  -2   6   6 405.019 183.041   7
   2  -6  -6 598.103 207.452   3
  -2   6   5 2000.81 238.343   4
   2  -6  -5 2632.36 370.752   3
  -2   6   5 2224.78 345.013   7
   2  -6  -4 260.300 140.299   3
  -2   6   4 425.213 165.067   7
  -2   6   4 630.856 160.394   4
  -2   6   3 345.016 138.023   4
   2  -6  -3 195.819 139.461   3
   2  -6  -2 18739.3 818.847   3
  -2   6   2 18616.2 480.923   5
  -2   6   2 19627.4 757.951   4
   2  -6  -1 30060.8 1000.94   3
  -2   6   1 29474.9 956.716   4
  -2   6   0 24678.1 869.875   4
  -2   6  -1 19179.5 742.665   4
  -2   6  -2 5435.72 347.454   3
  -2   6  -2 5517.26 394.028   4
   2  -6   3 26193.1 588.529   5
  -2   6  -3 26796.7 900.662   4
   2  -6   4 194.282 81.6683   5
  -2   6  -4 111.472 110.322   4
   2  -6   5 6442.89 364.428   5
  -2   6  -5 5956.96 415.456   4
  -2   6  -6 4473.24 358.027   4
  -2   6  -7 142.341 114.289   4
  -2   6  -8 793.740 181.471   4
  -2   6  -9 2710.81 285.839   4
   2  -6   9 2585.06 379.488   7
  -2   6  -9 2865.27 359.388   6
   2  -6  10 14670.4 900.148   7
  -2   6 -10 14227.0 641.206   4
  -2   6 -10 13779.3 825.462   6
   2  -6  11 256.126 223.034   7
  -2   6 -11 138.615 169.398   6
   2  -6  12 475.282 225.866   7
  -2   6 -12 835.047 290.536   6
  -2   5   9 268.636 253.639   7
   2  -5  -8 1524.65 323.106   3
  -2   5   8 1186.40 298.477   7
  -2   5   7 616.440 225.725   7
   2  -5  -7 682.637 248.371   3
   2  -5  -6 20608.3 1010.12   3
  -2   5   6 19676.1 972.504   7
   2  -5  -5 2163.41 327.089   3
  -2   5   5 1595.08 204.653   4
  -2   5   5 1677.58 281.112   7
  -2   5   4 45130.6 1385.99   7
   2  -5  -4 43171.7 1366.26   3
  -2   5   4 44969.3 1138.93   4
  -2   5   4 41159.3 1081.46   5
   2  -5  -3 3003.74 313.797   3
  -2   5   3 3097.68 223.940   5
  -2   5   3 3162.33 268.455   4
   2  -5  -2 5566.82 396.902   3
  -2   5   2 5770.78 249.634   5
  -2   5   2 6275.79 379.096   4
   2  -5  -1 90979.6 1873.60   3
  -2   5   1 95062.2 1838.56   4
  -2   5   0 87534.4 1716.17   3
  -2   5   0 81911.1 1737.54   4
  -2   5  -1 546.178 111.449   3
  -2   5  -1 495.845 118.951   4
  -2   5  -2 9.16465 64.4259   3
  -2   5  -2 67.2694 90.5696   4
   2  -5   2 10.6837 29.0586   5
  -2   5  -3 86168.9 1782.76   4
  -2   5  -4 2425.20 243.441   4
   2  -5   4 2367.68 246.339   2
  -2   5  -5 4659.93 331.967   4
  -2   5  -6 5555.69 361.768   4
   2  -5   7 3022.10 341.099   7
  -2   5  -7 3161.86 277.287   4
  -2   5  -8 2519.92 317.155   6
  -2   5  -8 2766.97 257.826   4
   2  -5   8 2866.91 355.820   7
   2  -5   9 12444.8 751.232   7
  -2   5  -9 12584.1 730.308   6
  -2   5  -9 11409.4 518.771   4
   2  -5  10 2438.09 371.907   7
  -2   5 -10 2660.13 366.046   6
   2  -5  11 313.440 184.391   7
  -2   5 -11 170.939 152.191   6
   2  -5  12-276.684 196.199   7
  -2   5 -12-270.891 205.641   6
   2  -4  -9 470.470 226.942   3
  -2   4   9 559.018 227.328   7
  -2   4   8 4113.85 480.288   7
  -2   4   7 20712.3 998.660   7
  -2   4   6 486.241 170.909   7
   2  -4  -5 9206.96 432.236   4
  -2   4   5 9829.45 604.451   7
  -2   4   5 9158.17 411.990   4
  -2   4   4 9474.55 452.210   5
   2  -4  -4 8749.89 525.174   3
  -2   4   4 9825.41 427.601   4
  -2   4   4 10240.5 578.233   7
   2  -4  -4 9883.65 445.348   4
   2  -4  -3 9706.99 440.768   4
  -2   4   3 10016.1 528.503   7
   2  -4  -3 10256.5 519.689   3
  -2   4   3 9924.35 430.718   4
  -2   4   3 9917.27 403.713   5
   2  -4  -2 26604.8 770.658   4
  -2   4   2 26704.3 621.418   5
   2  -4  -2 25579.7 765.352   2
   2  -4  -2 26477.8 842.732   3
  -2   4   2 26533.9 764.426   4
   2  -4  -1 10069.1 439.670   3
   2  -4  -1 8270.73 411.073   2
   2  -4  -1 9269.68 421.857   4
  -2   4   1 8940.29 247.248   5
  -2   4   1 8981.40 414.341   4
  -2   4   0 8750.19 368.801   3
  -2   4   0 8381.40 393.922   4
   2  -4   0 8385.34 367.786   3
  -2   4  -1 89186.9 1716.34   4
  -2   4  -1 90423.0 1596.25   3
  -2   4  -2 28709.0 792.129   4
  -2   4  -3 159.172 79.2547   7
   2  -4   3 31.1311 69.7723   4
  -2   4  -3 89.2303 75.3297   4
   2  -4   3 94.8556 75.9119   2
   2  -4   4 22328.4 698.543   4
   2  -4   4 22683.9 700.417   2
  -2   4  -4 23037.4 696.336   4
  -2   4  -4 22806.3 735.593   7
   2  -4   5 5053.11 311.297   4
   2  -4   5 5035.50 311.850   2
   2  -4   5 5121.10 357.993   7
  -2   4  -5 4890.42 307.664   4
  -2   4  -6 3515.64 257.279   4
   2  -4   6 3581.38 263.301   4
   2  -4   6 3266.91 312.258   7
   2  -4   7 447.288 146.901   7
  -2   4  -7 361.171 97.6675   4
   2  -4   7 582.213 115.506   4
  -2   4  -7 315.709 115.974   6
   2  -4   8 10637.4 460.854   4
   2  -4   8 11236.1 655.401   7
  -2   4  -8 11897.8 661.772   6
   2  -4   9 1367.65 266.756   7
  -2   4  -9 1417.16 260.585   6
   2  -4  10 1032.95 253.734   7
  -2   4 -10 1635.65 284.513   6
   2  -4  11 840.557 248.140   7
  -2   4 -11 1144.27 266.645   6
   2  -4  12 199.977 197.166   7
  -2   4 -12 119.628 165.146   6
  -2   3  10 139.939 188.162   7
  -2   3   9 4189.94 487.242   7
  -2   3   8 14224.7 826.959   7
  -2   3   7 63.9701 161.644   7
  -2   3   6 703.624 183.105   7
   2  -3  -6 633.981 99.6106   4
  -2   3   5 35457.5 1126.65   7
   2  -3  -5 34581.5 827.364   4
  -2   3   4 17920.1 634.446   5
   2  -3  -4 18471.4 553.063   2
  -2   3   4 17898.8 723.048   7
  -2   3   4 18145.9 678.044   6
   2  -3  -4 18309.5 553.339   4
  -2   3   4 18387.4 546.665   4
  -2   3   3 23566.6 665.744   5
   2  -3  -3 24285.0 656.656   4
   2  -3  -3 23329.7 644.492   2
  -2   3   3 24679.4 794.972   7
  -2   3   3 23640.9 644.093   4
  -2   3   2 1356.53 138.954   4
   2  -3  -2 1246.40 135.834   4
  -2   3   2 1197.51 124.938   5
   2  -3  -2 1190.32 136.204   2
   2  -3  -1 15138.9 502.475   2
  -2   3   1 15982.2 377.532   5
   2  -3  -1 16493.3 507.441   4
   2  -3  -1 14995.3 487.657   3
  -2   3   1 16633.0 516.746   4
   2  -3   0 772.443 57.3629   5
  -2   3   0 662.354 53.6174   5
   2  -3   0 685.487 91.7324   3
  -2   3   0 653.167 102.618   4
  -2   3  -1 2242.04 182.059   4
  -2   3  -1 2177.20 129.049   3
   2  -3   1 2322.58 119.077   5
  -2   3  -2 6366.61 305.444   4
  -2   3  -3 757.116 118.130   4
  -2   3  -3 663.662 109.499   7
   2  -3   3 731.673 114.474   2
   2  -3   3 711.311 102.929   4
   2  -3   4 40521.1 912.797   4
   2  -3   4 39294.1 903.184   2
  -2   3  -4 40579.8 972.127   7
   2  -3   4 41375.1 992.784   7
  -2   3  -4 39893.5 914.281   4
  -2   3  -5 3773.41 293.036   6
   2  -3   5 3252.83 218.149   2
  -2   3  -5 3672.71 274.694   7
   2  -3   5 3380.20 222.497   4
   2  -3   5 3332.19 272.512   7
  -2   3  -5 3274.79 223.162   4
   2  -3   6 24247.4 665.677   4
   2  -3   6 26020.6 679.459   2
  -2   3  -6 25520.4 872.202   6
   2  -3   6 26343.6 867.551   7
   2  -3   7 10503.0 576.704   7
   2  -3   7 10090.3 390.986   4
  -2   3  -7 10804.5 590.319   6
   2  -3   8 6780.92 498.577   7
  -2   3  -8 6573.78 500.840   6
  -2   3  -8 6770.14 282.654   1
   2  -3   9 4000.75 409.338   7
  -2   3  -9 2934.77 369.504   6
   2  -3  10 628.646 211.178   7
  -2   3 -10 985.170 258.301   6
   2  -3  11 1494.09 323.551   7
  -2   3 -11 1878.93 362.030   6
  -2   3 -12 428.075 221.254   6
   2  -3  12 983.332 278.224   7
  -2   2  11 564.251 253.125   7
  -2   2  10 195.080 167.450   7
  -2   2   9 3525.16 422.626   7
  -2   2   8 1410.67 258.484   7
  -2   2   7 6487.08 496.069   7
  -2   2   6 9241.72 554.350   7
  -2   2   6 8966.76 294.906   1
   2  -2  -6 8222.47 288.199   4
   2  -2  -5 305.973 65.8118   2
   2  -2  -5 245.550 56.0410   4
  -2   2   5 434.246 110.159   6
  -2   2   5 412.958 149.190   7
  -2   2   5 361.035 74.3369   1
  -2   2   4 29357.0 834.740   5
  -2   2   4 30093.1 886.935   7
  -2   2   4 28711.4 797.777   6
   2  -2  -4 28936.3 659.545   4
   2  -2  -4 29101.0 658.116   2
  -2   2   3 2422.38 215.934   7
  -2   2   3 2829.40 211.556   5
  -2   2   3 2494.34 190.857   6
   2  -2  -3 2777.39 171.069   4
  -2   2   2 836.664 125.294   7
   2  -2  -2 884.552 100.329   4
  -2   2   2 1055.17 110.475   5
  -2   2   1 9609.93 340.037   4
   2  -2  -1 9676.73 293.157   5
  -2   2   1 9776.09 290.868   5
  -2   2   0 427378. 5967.75   4
  -2   2   0 418551. 5819.78   5
   2  -2   2 515483. 7149.09   7
  -2   2  -2 500955. 7124.88   7
  -2   2  -2 504568. 7206.30   4
   2  -2   3 346.161 79.6355   7
  -2   2  -3 383.240 92.3578   6
   2  -2   3 444.723 77.9166   4
  -2   2  -3 381.498 71.9114   7
  -2   2  -4 37550.6 888.023   7
   2  -2   4 37389.3 892.518   7
   2  -2   4 37918.0 799.486   4
  -2   2  -4 38692.6 967.496   6
  -2   2  -5 60781.6 1329.61   7
   2  -2   5 59787.8 1326.08   7
   2  -2   5 60121.7 1113.36   2
  -2   2  -5 61177.9 1402.80   6
   2  -2   5 59151.5 1112.51   4
   2  -2   6 3817.92 196.986   4
   2  -2   6 3959.56 314.119   7
  -2   2  -6 3959.90 199.296   1
  -2   2  -6 3842.97 331.892   6
   2  -2   6 3429.50 190.065   2
  -2   2  -7 1235.80 103.560   1
   2  -2   7 867.838 189.615   7
  -2   2  -7 820.872 177.867   6
   2  -2   7 928.930 94.1604   4
   2  -2   8 2791.94 325.728   7
  -2   2  -8 3016.22 346.260   6
  -2   2  -9 12.7414 136.877   6
   2  -2   9-270.141 193.878   7
   2  -2  10 3484.66 422.974   7
  -2   2 -10 4269.92 487.539   6
   2  -2  11 160.907 153.018   7
  -2   2 -11 535.984 219.102   6
   2  -2  12 1814.18 356.847   7
  -2   2 -12 2366.81 430.618   6
  -2   1  11 282.142 201.171   7
  -2   1  10 453.661 252.078   7
  -2   1   9 5102.28 503.583   7
  -2   1   8-127.556 155.223   7
  -2   1   7 19947.3 853.448   7
   2  -1  -6 421.462 57.9539   4
  -2   1   6 310.580 118.485   7
   2  -1  -6 475.859 58.0889   2
  -2   1   5 11041.8 527.696   7
  -2   1   5 9809.68 423.229   6
   2  -1  -5 10778.5 317.333   4
  -2   1   4 89401.2 1745.83   5
  -2   1   4 89228.8 1744.70   7
   2  -1  -4 86422.2 1456.74   4
  -2   1   4 88302.9 1472.34   1
  -2   1   4 87880.9 1570.50   6
  -2   1   3 36233.4 863.223   7
  -2   1   3 36438.0 737.330   1
  -2   1   3 36014.6 861.733   5
  -2   1   3 34940.0 732.261   6
  -2   1   2 585.035 82.0563   1
   2  -1  -2 465.055 91.3580   5
  -2   1   2 508.902 57.2232   6
  -2   1   2 510.081 92.0448   7
   2  -1  -1 405.016 60.2163   7
   2  -1  -1 214.658 65.1149   5
  -2   1   1 381.763 60.6722   7
  -2   1   1 350.571 71.7317   1
   2  -1   0 466174. 6484.62   5
  -2   1   0 451413. 6511.19   1
  -2   1  -1 237773. 3531.90   1
  -2   1  -1 239795. 3473.45   6
   2  -1   2 104529. 1628.37   7
  -2   1  -2 104085. 1630.52   7
  -2   1  -2 104027. 1702.93   1
  -2   1  -2 106880. 1771.87   6
  -2   1  -3 13893.8 395.569   1
   2  -1   3 13775.6 420.186   7
  -2   1  -3 14001.5 424.853   7
  -2   1  -3 13937.8 494.679   6
   2  -1   4 4455.96 266.128   7
  -2   1  -4 4186.97 255.625   7
  -2   1  -4 4265.54 296.020   6
  -2   1  -4 4112.20 198.579   1
   2  -1   4 4068.67 196.820   4
   2  -1   5 9724.74 447.049   7
  -2   1  -5 9165.27 479.477   6
   2  -1   5 8956.38 289.454   4
   2  -1   6 812.359 78.4915   2
   2  -1   6 826.722 79.6373   4
   2  -1   6 897.345 164.265   7
  -2   1  -6 968.380 192.705   6
   2  -1   7-4.28584 18.4466   4
   2  -1   7 80.5280 126.159   7
  -2   1  -7 146.703 114.963   6
   2  -1   8 2281.96 292.364   7
  -2   1  -8 2763.18 354.017   6
   2  -1   9 380.328 179.944   7
  -2   1  -9 620.261 207.836   6
   2  -1  10 510.742 189.411   7
  -2   1 -10 684.741 228.199   6
   2  -1  11 876.130 254.728   7
  -2   1 -11 1517.48 328.182   6
   2  -1  12-201.838 214.032   7
  -2   0  12 2.75325 203.207   7
  -2   0  11 129.906 169.071   7
  -2   0  10 4894.49 521.941   7
   2   0  -9 689.733 172.167   6
  -2   0   9 947.590 233.354   7
  -2   0   8 1854.20 286.332   7
   2   0  -8 1681.25 235.458   6
  -2   0   7 5228.59 417.981   7
   2   0  -7 4641.90 346.869   6
   2   0  -7 4618.91 170.665   4
   2   0  -6 1112.07 161.265   6
  -2   0   6 1333.53 198.560   7
  -2   0   5 17427.3 659.214   7
   2   0  -5 17577.6 560.918   6
  -2   0   4 78727.7 1557.98   7
   2   0  -4 76042.2 1339.58   1
   2   0  -4 78588.1 1377.82   6
   2   0  -3 36171.1 883.952   5
   2   0  -3 36346.2 760.926   1
  -2   0   3 36273.7 839.114   7
   2   0  -3 36461.3 684.574   6
   2   0  -2 48357.5 741.189   6
   2   0  -2 47419.1 981.332   5
  -2   0   2 47358.3 919.610   7
   2   0  -1 102065. 1673.35   5
  -2   0   1 101849. 1541.84   7
   2   0  -1 98035.4 1531.66   7
   2   0   0 40.2408 30.2977   6
   2   0   0 171.478 60.9939   5
  -2   0  -1 245635. 3649.13   6
   2   0   1 242891. 3577.48   3
   2   0   2 21799.4 512.480   7
  -2   0  -2 20861.7 603.932   6
  -2   0  -2 21703.7 550.471   3
   2   0   2 20285.1 521.108   1
   2   0   3 20938.4 580.014   7
  -2   0  -3 21515.3 608.092   3
   2   0   3 20809.8 518.225   1
  -2   0  -3 20724.8 669.421   6
   2   0   4 28272.9 625.211   1
   2   0   4 28481.1 779.210   7
  -2   0  -4 28168.2 881.943   6
  -2   0  -4 27801.3 791.589   7
   2   0   5 928.333 162.574   7
  -2   0  -5 940.660 186.244   6
   2   0   6 8270.19 470.969   7
   2   0   6 7290.80 246.136   4
   2   0   7 4405.67 380.388   7
  -2   0  -7 4441.76 430.424   6
  -2   0  -8 7674.09 595.114   6
   2   0   8 7173.23 525.789   7
   2   0   9 620.350 211.054   7
   2   0  10 350.134 192.673   7
   2   0  11-101.700 161.082   7
  -2  -1  12 194.885 216.381   7
   2   1 -11 277.978 160.887   6
  -2  -1  11 168.962 146.070   7
  -2  -1  10 8814.87 666.566   7
   2   1 -10 9212.36 610.799   6
   2   1  -9-41.2133 120.425   6
  -2  -1   9 117.134 147.667   7
  -2  -1   8 7686.70 543.809   7
   2   1  -8 6602.49 438.096   6
   2   1  -8 6691.33 245.416   4
   2   1  -7 7001.61 404.879   6
  -2  -1   7 6630.60 467.165   7
   2   1  -7 6804.14 285.713   4
   2   1  -7 7133.59 280.587   1
   2   1  -6 17153.0 498.598   1
  -2  -1   6 18188.1 726.270   7
   2   1  -6 17049.6 591.122   6
  -2  -1   5 7776.79 424.996   7
   2   1  -5 8159.50 342.554   6
   2   1  -4 754.047 92.3107   6
  -2  -1   4 672.297 119.889   7
   2   1  -4 708.131 150.463   5
  -2  -1   3 79003.4 1492.60   7
   2   1  -3 79060.5 1539.32   5
   2   1  -2 21426.7 589.096   5
  -2  -1   2 20885.3 555.543   7
   2   1  -2 20995.7 545.423   7
   2   1  -1 342.080 77.9557   5
   2   1  -1 408.648 70.1921   7
   2   1   0 5098.79 258.781   5
   2   1   1 55590.1 1119.77   3
   2   1   1 56698.9 1179.36   5
  -2  -1  -2 23844.3 680.364   3
   2   1   3 37872.3 929.531   7
  -2  -1  -3 37111.6 967.092   3
   2   1   4 1125.61 163.493   7
   2   1   4 960.703 109.907   1
   2   1   5 6190.98 400.027   7
   2   1   5 5203.31 252.065   1
  -2  -1  -5 5262.81 387.312   3
   2   1   6 51821.6 1403.47   7
   2   1   6 50897.6 982.545   4
   2   1   6 49691.1 961.567   1
   2   1   7 15226.3 746.139   7
  -2  -1  -7 14794.0 755.345   3
  -2  -1  -8 7.79662 148.897   3
   2   1   8-99.7779 140.577   7
   2   1   9 670.387 206.344   7
  -2  -1  -9 409.466 193.059   3
  -2  -1 -10-246.753 252.057   3
   2   1  10 109.159 163.866   7
  -2  -1 -11 62.1342 199.337   3
   2   1  11 99.3070 181.392   7
   2   2 -13 147.165 165.971   6
   2   2 -12 216.169 159.845   6
  -2  -2  12 299.522 242.029   7
   2   2 -11 284.102 165.062   6
  -2  -2  11 122.172 161.196   7
  -2  -2  10 521.600 208.810   7
   2   2 -10 407.600 134.605   6
   2   2  -9 1271.58 128.843   4
  -2  -2   9 1013.44 250.262   7
   2   2  -9 1456.09 230.528   6
   2   2  -8 5232.55 377.846   6
   2   2  -8 4967.23 277.677   4
   2   2  -8 5426.79 282.741   1
  -2  -2   8 5151.61 457.832   7
  -2  -2   7 6831.78 482.896   7
   2   2  -7 6908.63 342.683   4
   2   2  -7 7346.18 409.011   6
  -2  -2   6 82129.4 1845.40   7
   2   2  -6 79548.5 1589.30   6
   2   2  -5 50025.2 1275.99   5
  -2  -2   5 49959.0 1269.33   7
   2   2  -4 17634.0 636.792   5
  -2  -2   4 17567.1 636.214   7
   2   2  -3 33832.4 883.173   5
  -2  -2   3 35178.3 903.530   7
   2   2  -2 16761.2 536.782   7
   2   2  -2 15676.3 517.384   5
   2   2  -1 142727. 2350.00   5
  -2  -2   1 139985. 2362.68   5
   2   2   0 2574.53 207.467   3
  -2  -2   0 2691.15 206.377   5
   2   2   0 2559.80 203.561   5
   2   2   1 1600.33 173.382   3
   2   2   1 1950.97 187.884   5
   2   2   2 143480. 2558.01   3
   2   2   3 5458.08 339.512   7
  -2  -2  -4 8233.77 499.632   3
   2   2   4 8335.61 465.316   7
   2   2   5 24247.9 896.123   7
   2   2   5 24635.1 694.194   4
  -2  -2  -5 25930.0 974.648   3
   2   2   6 17457.7 784.474   7
   2   2   6 16624.5 523.781   4
  -2  -2  -6 16043.4 808.188   3
  -2  -2  -7 244.081 163.915   3
   2   2   7-18.6751 122.513   7
  -2  -2  -8 492.122 197.517   3
   2   2   8 662.420 216.576   7
  -2  -2  -9 195.924 169.393   3
   2   2   9 236.152 154.364   7
  -2  -2 -10-152.388 262.285   3
   2   2  10 163.984 146.683   7
   2   3 -13-182.938 180.347   6
  -2  -3  12 1110.25 290.299   7
   2   3 -12 1216.90 270.534   6
  -2  -3  11-22.0425 155.061   7
   2   3 -11 11.0871 128.306   6
   2   3 -10 1538.49 254.132   6
  -2  -3  10 1304.06 283.133   7
   2   3  -9 192.379 87.0034   4
  -2  -3   9 55.1404 140.163   7
   2   3  -9 138.048 119.908   6
   2   3  -8 30470.5 874.058   4
  -2  -3   8 30192.8 1146.78   7
   2   3  -8 29853.5 959.198   6
   2   3  -7 15628.2 608.338   4
   2   3  -7 16177.9 626.752   6
  -2  -3   7 15942.1 767.340   7
   2   3  -6 2717.94 253.832   4
  -2  -3   6 3358.86 324.381   7
  -2  -3   5 38936.6 1148.42   7
   2   3  -5 39087.6 1114.00   5
   2   3  -4 45854.3 1150.62   5
   2   3  -3 61.4900 82.9294   5
  -2  -3   3 1.06426 60.2508   5
   2   3  -3-23.1435 76.0643   7
   2   3  -2 14852.7 520.395   5
  -2  -3   2 14523.6 526.292   5
   2   3  -1 226196. 3576.21   5
  -2  -3   1 227805. 3614.59   5
   2   3   0 6186.42 372.008   3
   2   3   0 5889.39 321.542   5
   2   3   1 113.976 79.3430   5
   2   3   2 3219.94 275.242   5
  -2  -3  -3 30633.7 1023.75   3
   2   3   3 29868.2 889.322   4
   2   3   4 3188.36 262.727   4
  -2  -3  -4 2891.57 327.696   3
   2   3   4 2703.46 297.902   7
   2   3   5 476.989 151.584   7
  -2  -3  -5 455.786 177.956   3
   2   3   5 709.033 143.439   4
   2   3   6 2092.34 202.565   4
  -2  -3  -6 1846.39 300.675   3
   2   3   6 2212.70 306.550   7
   2   3   7 67.1073 150.656   7
  -2  -3  -7 214.611 191.015   3
  -2  -3  -8 34.1548 162.338   3
   2   3   8 127.638 153.148   7
   2   3   9 108.248 160.012   7
  -2  -3  -9-125.785 209.486   3
   2   4 -13 805.915 304.407   6
  -2  -4  12 601.397 229.530   7
   2   4 -12 1319.52 282.696   6
  -2  -4  11 4016.05 519.111   7
   2   4 -11 3801.84 417.257   6
   2   4 -10 1807.71 220.448   4
  -2  -4  10 1663.87 333.355   7
   2   4 -10 1303.70 245.446   6
   2   4  -9 3516.99 347.149   6
   2   4  -9 3090.32 285.748   4
  -2  -4   9 2767.59 387.268   7
   2   4  -8 63167.5 1514.66   4
  -2  -4   8 62334.2 1816.40   7
  -2  -4   7 6737.34 522.767   7
   2   4  -7 6703.75 428.099   4
  -2  -4   6 2894.81 325.524   7
   2   4  -6 3221.67 300.997   4
   2   4  -5 7614.68 456.719   4
   2   4  -5 7427.30 459.594   5
   2   4  -4 34926.3 991.140   5
   2   4  -4 36218.0 1068.21   4
   2   4  -3 56.3827 86.0750   5
  -2  -4   3 65.7068 90.2659   5
   2   4  -3 138.574 100.137   4
   2   4  -2 3265.20 247.644   5
   2   4  -2 2909.58 283.793   4
  -2  -4   2 3242.69 251.429   5
   2   4  -1 3942.46 266.881   5
   2   4  -1 3866.24 327.911   4
  -2  -4   1 4289.47 291.514   5
   2   4   0 12566.1 512.359   5
   2   4   0 12735.7 603.362   4
   2   4   1 8983.34 504.237   4
   2   4   1 8814.90 450.724   5
   2   4   2 249.712 103.913   5
   2   4   2 211.146 129.160   4
   2   4   3 1935.61 237.721   4
  -2  -4  -3 1616.50 263.500   3
   2   4   3 1921.60 243.402   5
   2   4   4 371.005 156.953   7
   2   4   4 460.325 130.394   4
  -2  -4  -4 487.614 201.571   3
   2   4   5 4778.80 447.334   7
  -2  -4  -5 5181.48 491.938   3
   2   4   5 5348.91 371.312   4
   2   4   6 2170.85 317.228   7
  -2  -4  -6 1485.58 296.923   3
   2   4   7 1310.26 273.774   7
  -2  -4  -7 1639.18 335.625   3
  -2  -4  -8-2.95552 218.770   3
   2   4   8 515.467 220.918   7
   2   4   9 1283.91 286.119   7
   2   5 -13 264.866 195.336   6
  -2  -5  12 471.094 222.353   7
   2   5 -12 454.385 180.697   6
   2   5 -11 359.131 166.882   6
  -2  -5  11 484.451 241.383   7
   2   5 -10 785.584 175.589   4
   2   5 -10 825.710 198.311   6
   2   5  -9 199.156 114.738   4
  -2  -5   9-106.280 199.464   7
   2   5  -8 2843.96 317.770   4
   2   5  -7 5126.69 417.126   4
   2   5  -6 2023.54 274.212   4
   2   5  -5 221.909 106.150   5
   2   5  -5 84.0800 98.4480   4
   2   5  -4 16.8365 117.439   5
   2   5  -4-60.7602 109.593   4
   2   5  -3 44397.6 1134.43   5
   2   5  -3 44258.1 1313.60   4
   2   5  -2 35131.2 951.392   5
  -2  -5   2 33978.7 964.500   5
   2   5  -1 4484.30 299.748   5
   2   5  -1 3869.93 366.076   4
   2   5   0 35280.2 1136.85   4
   2   5   0 34378.0 968.068   5
   2   5   1 1624.74 206.015   5
   2   5   1 2010.06 259.330   4
   2   5   2 3108.19 298.793   5
   2   5   2 3198.54 329.733   4
   2   5   3 790.341 186.881   5
   2   5   3 939.497 188.181   4
   2   5   4 732.015 172.462   4
   2   5   4 1023.17 239.313   7
   2   5   4 895.968 191.973   5
  -2  -5  -4 1131.50 283.743   3
   2   5   5-39.0889 129.499   7
   2   5   5 113.291 80.7015   4
  -2  -5  -5-36.5536 137.288   3
   2   5   6 84.9193 146.661   7
  -2  -5  -6 46.6410 176.183   3
   2   5   7 2863.95 421.098   7
  -2  -5  -7 2184.68 423.350   3
   2   5   8 525.195 252.634   7
   2   6 -13 2241.84 370.663   6
   2   6 -12 63.6268 153.832   6
  -2  -6  12 321.731 285.433   7
   2   6 -11 408.653 174.960   6
   2   6 -10-44.4652 109.093   4
   2   6  -9-184.960 130.473   4
   2   6  -8 35.9673 123.115   4
   2   6  -7 396.520 168.237   4
   2   6  -6 3520.89 344.279   5
   2   6  -6 4477.94 418.360   4
   2   6  -5-63.9730 143.275   5
   2   6  -5-107.277 125.502   4
   2   6  -4 4572.89 427.341   4
   2   6  -4 5235.48 378.239   5
   2   6  -3 16708.3 654.545   5
   2   6  -3 16612.7 808.652   4
   2   6  -2 4187.54 307.496   5
   2   6  -2 3712.59 373.448   4
   2   6  -1 501.274 105.198   5
   2   6  -1-12.0731 141.495   4
   2   6   0 3637.52 294.593   5
   2   6   0 3656.96 373.709   4
   2   6   1 284.463 115.267   5
   2   6   1 365.127 140.545   4
   2   6   2 656.883 152.880   5
   2   6   2 732.445 197.879   4
   2   6   3-163.272 123.820   4
   2   6   3 27.1246 98.8732   5
   2   6   4 2453.30 307.248   4
   2   6   4 2925.59 333.699   5
   2   6   4 2340.47 354.559   7
   2   6   5 1354.01 308.035   7
  -2  -6  -6 212.549 169.375   3
   2   6   6-421.584 248.861   7
   2   7 -13 434.518 204.852   6
   2   7 -12-75.1321 169.672   6
   2   7 -10 3540.69 424.720   4
   2   7  -9 1797.45 308.744   4
   2   7  -8 4439.31 455.859   4
   2   7  -7 626.578 202.576   4
   2   7  -6 1235.62 262.683   4
   2   7  -5 27.8732 124.438   4
   2   7  -5 62.3018 100.234   5
   2   7  -4 1019.53 226.686   4
   2   7  -4 1187.58 197.257   5
   2   7  -3 33516.3 1272.14   4
   2   7  -3 33149.6 1001.84   5
   2   7  -2 13599.3 586.105   5
   2   7  -2 14686.2 819.509   4
   2   7  -1 128.167 131.191   4
   2   7  -1-33.6377 69.6889   5
   2   7   0 134.404 149.989   4
   2   7   0 60.5135 77.1625   5
   2   7   1 407.540 133.015   4
   2   7   1 298.746 108.587   5
   2   7   2-145.942 142.029   4
   2   7   3 413.526 164.728   4
   2   7   4-173.704 198.328   7
   2   7   5-245.668 146.987   7
   2   8 -12 112.649 173.910   6
   2   8 -11 448.728 192.593   4
   2   8 -10 31.3501 162.858   4
   2   8  -9-7.63070 148.907   4
   2   8  -8 510.054 242.651   4
   2   8  -7-100.837 155.316   4
   2   8  -6 1144.28 297.769   4
   2   8  -5 311.446 147.222   5
   2   8  -5 185.964 184.588   4
   2   8  -4 103.111 131.985   4
   2   8  -4 229.856 118.486   5
   2   8  -3 193.637 147.076   4
   2   8  -2 3086.26 412.388   4
   2   8  -1 5208.12 517.541   4
   2   8   0 756.380 221.344   4
   2   8   1 1031.93 244.185   4
   2   8   2 40.7883 154.618   4
   2   8   3-36.0135 165.840   4
   2   9 -11 532.374 250.564   4
   2   9 -10-159.198 219.675   4
   2   9  -9 19.4615 192.212   4
   2   9  -8 52.9082 200.141   4
   2   9  -7 225.022 180.309   4
   2   9  -6 925.541 303.325   4
   2   9  -5 251.648 216.175   4
   2   9  -4 438.473 208.185   4
   2   9  -3-164.426 188.571   4
   2   9  -2 126.920 188.355   4
   2   9  -1-91.5856 163.468   4
   2   9   0-66.0710 150.680   4
   2   9   1 117.885 146.057   4
   2   9   2 341.407 204.457   4
   2  10  -8 21.2567 189.985   4
   2  10  -7-485.073 315.342   4
   2  10  -6 1867.74 394.292   4
   2  10  -5 2210.49 418.559   4
   2  10  -4 373.283 203.218   4
   2  10  -3-196.135 209.095   4
   2  10  -2 2220.20 401.688   4
   2  10  -1 2755.20 429.133   4
  -3  11   2 608.782 215.489   4
  -3  11   1 288.548 233.421   4
  -3  11   0-123.170 199.942   4
  -3  11  -1 229.199 145.278   4
  -3  11  -2-104.908 194.190   4
  -3  11  -3 896.806 272.934   4
  -3  11  -4 202.049 192.393   4
  -3  11  -5 46.5372 183.537   4
  -3  11  -6 11.9657 170.013   4
  -3  11  -7 506.493 239.381   4
  -3  11  -8 94.8328 193.445   4
  -3  11  -9 850.269 306.440   4
  -3  11 -10 294.010 208.926   4
  -3  10   3-527.217 206.968   4
  -3  10   2-180.012 173.096   4
  -3  10   1 349.940 155.216   4
  -3  10   0 265.064 162.513   4
  -3  10  -1 419.110 158.664   4
  -3  10  -2 686.412 235.047   4
  -3  10  -3 6318.60 573.379   4
  -3  10  -4 6139.42 576.296   4
  -3  10  -5 11781.4 779.922   4
  -3  10  -6-22.4599 152.450   4
  -3  10  -7 3846.55 463.191   4
  -3  10  -8 1708.97 340.698   4
  -3  10  -9-105.765 182.154   4
  -3  10 -10 254.628 217.958   4
   3  -9  -4 356.108 197.840   3
  -3   9   4 488.871 251.340   7
  -3   9   3 775.797 208.649   4
  -3   9   2 433.403 170.360   4
  -3   9   1-188.866 175.359   4
  -3   9   0 657.406 199.911   4
  -3   9  -1 2519.54 351.825   4
  -3   9  -2 371.039 196.396   4
  -3   9  -3 31917.3 1240.56   4
  -3   9  -4 167.983 170.395   4
  -3   9  -5 639.216 202.173   4
  -3   9  -6 2295.79 351.178   4
  -3   9  -7 44.7102 132.390   4
  -3   9  -8 243.376 156.322   4
  -3   9  -9-116.905 174.419   4
  -3   9 -10 933.774 242.460   4
  -3   8   6 59.8529 197.946   7
   3  -8  -6 326.014 203.893   3
  -3   8   5-73.9340 196.459   7
   3  -8  -5 142.282 183.230   3
  -3   8   4 487.814 239.162   7
  -3   8   4 364.796 154.404   4
   3  -8  -4 287.098 176.094   3
  -3   8   3-40.7258 141.042   4
   3  -8  -3 202.759 158.643   3
  -3   8   2 3363.83 373.692   4
  -3   8   1 2367.13 312.096   4
  -3   8   0 557.204 190.130   4
  -3   8  -1 4458.35 421.709   4
  -3   8  -2 4247.29 413.609   4
  -3   8  -3 16776.5 813.354   4
   3  -8   4 3954.02 197.295   5
  -3   8  -4 4068.96 407.418   4
  -3   8  -5 777.407 196.339   4
   3  -8   5 444.781 102.935   5
  -3   8  -6-72.5520 135.959   4
  -3   8  -7 1208.20 239.169   4
  -3   8  -8 2382.72 323.136   4
  -3   8  -9 80.3533 136.438   4
  -3   8 -10 328.564 168.435   6
  -3   8 -10 77.9368 141.607   4
  -3   8 -11 743.781 247.081   6
   3  -7  -7 1229.62 303.492   3
  -3   7   7 1092.76 311.769   7
  -3   7   6 1134.85 312.958   7
   3  -7  -6 1228.85 300.417   3
  -3   7   5 87.4232 95.0697   4
  -3   7   5 19.3032 154.141   7
   3  -7  -5-74.9910 172.461   3
  -3   7   4 2084.41 262.914   4
  -3   7   4 2077.83 337.661   7
   3  -7  -4 2472.95 337.711   3
  -3   7   3 546.757 171.275   4
   3  -7  -3 415.736 156.292   3
  -3   7   2 469.156 164.255   4
   3  -7  -2 367.935 143.241   3
  -3   7   1 1937.98 270.948   4
   3  -7  -1 1405.04 233.185   3
  -3   7   0 20129.0 839.618   4
  -3   7  -1 13697.5 683.737   4
  -3   7  -2 785.493 179.783   4
   3  -7   3 4043.50 169.373   5
  -3   7  -3 4968.40 405.828   4
   3  -7   3 4299.97 182.032   5
  -3   7  -4-140.536 147.629   4
   3  -7   4 57.0965 60.3498   5
   3  -7   5 15873.4 591.001   5
  -3   7  -5 17000.7 772.076   4
  -3   7  -6 1553.96 245.657   4
  -3   7  -7 5289.69 426.503   4
  -3   7  -8 13439.8 693.210   4
  -3   7  -9 10653.0 613.752   4
  -3   7 -10 7526.68 520.783   4
  -3   7 -10 7622.06 641.834   6
  -3   7 -11-57.2871 143.364   6
   3  -6  -8-106.959 176.242   3
  -3   6   8-379.336 255.786   7
  -3   6   7-40.4725 170.505   7
   3  -6  -7 432.962 235.532   3
   3  -6  -6 104.131 149.431   3
  -3   6   6-38.0849 166.172   7
   3  -6  -5 20430.7 996.791   3
  -3   6   5 21990.7 1028.29   7
  -3   6   5 21894.0 817.023   4
  -3   6   4 6869.63 449.423   4
  -3   6   4 6522.08 532.289   7
   3  -6  -4 7754.09 570.658   3
  -3   6   3 27303.9 931.408   4
   3  -6  -3 28473.3 1056.89   3
  -3   6   2 163.523 107.229   4
   3  -6  -2 99.2928 101.627   2
   3  -6  -2 219.142 110.087   3
  -3   6   2 300.201 55.3613   5
  -3   6   1 4530.74 355.115   4
   3  -6  -1 3608.20 329.282   2
   3  -6  -1 3788.66 328.841   3
  -3   6   0 14637.2 662.526   4
   3  -6   0 14093.9 655.116   2
  -3   6  -1 60497.9 1345.16   3
  -3   6  -1 59812.4 1501.58   4
   3  -6   2 4219.22 147.237   5
   3  -6   2 4462.20 149.657   5
  -3   6  -2 5436.21 316.862   3
  -3   6  -2 4735.54 373.992   4
  -3   6  -3 2311.00 203.253   3
  -3   6  -3 2344.86 271.181   4
  -3   6  -4 5162.82 390.529   4
   3  -6   4 4727.94 385.800   2
   3  -6   5 34450.8 1083.63   2
  -3   6  -5 35225.3 1082.72   4
  -3   6  -6 577.715 154.185   4
  -3   6  -7 1192.24 202.246   4
  -3   6  -8 19727.6 791.010   4
  -3   6  -9 5800.58 519.884   6
  -3   6  -9 5203.52 389.594   4
   3  -6   9 5262.79 518.004   7
   3  -6  10 65.8889 180.796   7
  -3   6 -10 23.6937 150.123   6
   3  -6  11 2290.15 400.662   7
  -3   6 -11 2442.10 410.327   6
   3  -6  12 58.3005 183.652   7
  -3   6 -12 286.832 189.823   6
   3  -5  -9 526.186 227.699   3
  -3   5   9 369.928 269.086   7
   3  -5  -8 193.545 156.862   3
  -3   5   8 382.768 217.519   7
   3  -5  -7 513.189 197.317   3
  -3   5   7 185.284 209.733   7
  -3   5   6 209.591 153.720   7
   3  -5  -6-127.496 176.050   3
  -3   5   5 62169.0 1752.60   7
   3  -5  -5 59368.2 1710.86   3
  -3   5   4 1274.59 175.308   5
   3  -5  -4 853.230 208.531   3
  -3   5   4 998.987 163.494   4
  -3   5   4 1345.81 243.449   7
  -3   5   3 699.007 149.967   4
   3  -5  -3 521.496 129.871   3
  -3   5   3 654.632 179.763   7
  -3   5   3 499.999 98.5291   5
  -3   5   2 45745.6 912.336   5
   3  -5  -2 46035.6 1223.95   3
  -3   5   2 47041.3 1203.24   4
  -3   5   1 8004.05 435.164   4
   3  -5  -1 7760.01 420.298   3
  -3   5   1 7450.67 234.572   5
  -3   5   0 23576.4 786.384   4
   3  -5   0 22808.5 696.388   3
  -3   5  -1 122585. 2062.90   3
  -3   5  -1 121577. 2293.82   4
   3  -5   1 117801. 1745.80   5
   3  -5   2 57.5849 38.8623   5
  -3   5  -2 143.619 90.2184   4
  -3   5  -2 108.305 63.1990   3
  -3   5  -3 12546.6 551.156   4
  -3   5  -3 12581.2 545.067   7
  -3   5  -4 8961.17 465.077   4
   3  -5   4 8511.32 458.340   2
   3  -5   5 26867.3 869.372   2
  -3   5  -5 26774.1 863.181   4
  -3   5  -6 152.099 118.220   4
   3  -5   6 11.6725 93.9315   2
   3  -5   7 362.876 118.315   2
  -3   5  -7 271.815 152.373   4
  -3   5  -7 202.523 141.647   6
   3  -5   8 185.459 126.879   7
  -3   5  -8 140.491 142.751   6
   3  -5   9 5048.14 481.754   7
  -3   5  -9 4819.37 474.801   6
   3  -5  10 162.543 170.127   7
  -3   5 -10 74.2412 142.278   6
   3  -5  11-22.8449 149.212   7
  -3   5 -11-101.667 191.424   6
  -3   5 -12 57.9058 214.354   6
   3  -5  12-330.218 244.262   7
  -3   4   9 2097.90 388.543   7
  -3   4   8 316.302 197.135   7
  -3   4   7 3423.20 407.099   7
  -3   4   6 55556.0 1611.23   7
   3  -4  -6 51327.9 1212.52   4
   3  -4  -5 5543.72 332.093   4
  -3   4   5 5833.82 461.554   7
   3  -4  -4 539.725 116.046   4
  -3   4   4 414.720 151.555   7
  -3   4   4 681.606 134.410   5
  -3   4   3 9351.59 393.633   5
  -3   4   3 9298.06 506.199   7
  -3   4   3 9702.74 445.082   4
   3  -4  -3 8282.64 415.395   4
  -3   4   2 3316.89 198.585   5
   3  -4  -2 3347.81 257.304   4
  -3   4   2 3240.49 260.669   4
  -3   4   1 113076. 1803.79   5
   3  -4  -1 112961. 1800.67   5
   3  -4  -1 118246. 2120.08   4
   3  -4  -1 111572. 2023.66   3
  -3   4   1 113001. 2102.53   4
   3  -4   0 27623.5 548.232   5
   3  -4   0 26437.5 672.134   3
  -3   4   0 27370.0 796.814   4
  -3   4   0 26212.5 559.153   5
  -3   4  -1 3255.70 256.623   4
   3  -4   1 3080.87 163.755   5
  -3   4  -2 412.942 113.316   4
  -3   4  -2 274.111 50.0719   3
  -3   4  -3 28673.4 785.711   7
   3  -4   3 28563.6 825.917   2
   3  -4   3 30502.8 842.933   4
  -3   4  -3 29286.9 841.782   4
  -3   4  -4 6267.93 347.160   7
   3  -4   4 6274.45 353.945   2
   3  -4   4 6293.72 355.640   4
  -3   4  -4 6327.62 357.244   4
   3  -4   5 9826.97 451.530   2
   3  -4   5 9652.14 483.386   7
  -3   4  -5 9940.22 463.967   4
   3  -4   5 9733.33 445.693   4
   3  -4   6 4359.27 299.797   2
   3  -4   6 3739.44 322.847   7
  -3   4  -6 4453.73 362.089   6
   3  -4   6 4407.76 304.536   4
   3  -4   7 8084.93 509.542   7
   3  -4   7 8145.42 411.107   2
   3  -4   7 7751.28 400.950   4
  -3   4  -7 8368.24 536.829   6
   3  -4   8 94.8072 125.288   7
  -3   4  -8-104.571 149.828   6
  -3   4  -9 3542.63 252.143   1
   3  -4   9 2862.05 371.633   7
  -3   4  -9 3057.79 379.908   6
   3  -4  10-3.59965 131.841   7
  -3   4 -10 62.3230 177.691   6
  -3   4 -11 2198.60 364.287   6
   3  -4  11 2359.52 383.538   7
   3  -4  12 137.687 152.633   7
  -3   4 -12 758.330 303.229   6
  -3   3  10 1086.18 306.053   7
  -3   3   9 957.744 268.861   7
  -3   3   8 6628.30 564.744   7
  -3   3   7-92.9464 143.974   7
   3  -3  -6 368.731 81.1791   4
  -3   3   6 510.459 106.695   1
   3  -3  -6 434.468 90.7509   2
  -3   3   6 642.989 158.096   7
  -3   3   5 16917.6 738.027   7
   3  -3  -5 15940.3 542.751   2
   3  -3  -5 16847.5 545.335   4
   3  -3  -4 2281.39 197.003   2
  -3   3   4 2689.41 260.180   5
  -3   3   4 2550.79 232.796   6
   3  -3  -4 2346.50 193.856   4
  -3   3   3 8913.86 391.984   5
  -3   3   3 9511.39 458.414   7
   3  -3  -3 8171.51 374.704   4
  -3   3   2 28928.1 706.585   5
   3  -3  -2 29342.3 712.177   5
   3  -3  -2 29086.1 775.511   4
  -3   3   2 28491.2 795.803   7
  -3   3   1 380341. 5678.87   5
   3  -3  -1 390586. 5678.97   5
   3  -3  -1 397923. 5885.24   4
   3  -3   0 18995.5 479.141   5
   3  -3   0 18955.3 457.556   3
  -3   3   0 19172.2 602.923   4
  -3   3   0 19497.8 496.049   5
  -3   3  -1 16723.1 555.654   4
   3  -3   1 16043.8 462.399   5
  -3   3  -2 63480.3 1171.94   7
  -3   3  -2 62901.4 1303.63   4
  -3   3  -3 23351.1 612.488   7
   3  -3   3 24970.4 703.188   4
  -3   3  -4 91.1667 57.7882   7
   3  -3   4 243.299 82.2402   4
   3  -3   4 95.2341 69.5239   7
  -3   3  -4 90.5242 80.8779   6
  -3   3  -5 9433.28 490.244   6
  -3   3  -5 9092.75 424.021   7
   3  -3   5 9117.59 436.986   7
   3  -3   5 9002.56 392.461   4
   3  -3   6 720.223 122.418   2
   3  -3   6 697.287 114.351   4
   3  -3   6 784.769 166.754   7
  -3   3  -6 759.473 169.042   6
   3  -3   7 37277.8 1140.77   7
   3  -3   7 37534.7 902.103   2
  -3   3  -7 38436.4 910.803   1
  -3   3  -7 39034.0 1243.54   6
   3  -3   7 36229.2 897.684   4
   3  -3   8 3822.29 240.065   2
   3  -3   8 3920.70 374.274   7
  -3   3  -8 3999.70 240.591   1
  -3   3  -8 3868.73 396.704   6
   3  -3   9 1378.15 264.932   7
  -3   3  -9 1484.51 280.981   6
   3  -3  10 6251.95 544.139   7
  -3   3 -10 6853.94 613.395   6
   3  -3  11-69.7475 153.765   7
  -3   3 -11 133.184 217.843   6
  -3   3 -12-133.071 202.675   6
   3  -3  12 148.849 179.660   7
  -3   2  11 1852.00 368.427   7
  -3   2  10 176.208 184.425   7
  -3   2   9 619.014 238.357   7
  -3   2   8-508.327 193.377   7
  -3   2   7 6339.36 490.759   7
   3  -2  -7 6344.72 270.409   2
   3  -2  -7 6371.45 273.679   4
   3  -2  -6 2536.87 177.506   2
  -3   2   6 3032.01 323.875   7
   3  -2  -6 2217.08 169.590   4
  -3   2   6 2781.29 198.589   1
   3  -2  -5 856.527 118.597   4
  -3   2   5 1173.34 202.196   7
  -3   2   5 935.059 120.800   1
  -3   2   5 984.132 140.448   6
  -3   2   4 32918.6 915.278   5
  -3   2   4 31958.1 930.332   7
  -3   2   4 33172.7 800.427   1
  -3   2   4 31874.0 782.247   6
   3  -2  -4 32858.7 795.076   4
  -3   2   3 83222.7 1598.55   5
   3  -2  -3 86631.6 1625.89   5
  -3   2   3 82863.3 1543.16   1
  -3   2   3 84451.4 1628.64   7
  -3   2   3 79502.7 1442.48   6
   3  -2  -3 83426.8 1541.07   4
  -3   2   2 9729.49 380.099   5
   3  -2  -2 10030.2 388.527   5
  -3   2   2 9742.92 379.206   7
   3  -2  -2 9604.15 382.016   4
  -3   2   1 59995.2 1162.97   5
  -3   2   1 59758.5 1103.91   7
   3  -2  -1 61860.2 1153.40   5
   3  -2   0 239248. 3607.47   5
  -3   2   0 239282. 3623.41   5
  -3   2  -1 44104.7 745.753   7
   3  -2   1 42620.3 938.279   5
  -3   2  -2 28794.7 562.443   7
  -3   2  -2 28116.0 696.905   6
  -3   2  -2 27455.9 472.683   3
   3  -2   2 28477.8 731.036   4
  -3   2  -3 23878.2 665.126   1
  -3   2  -3 25297.7 589.785   7
   3  -2   3 24920.9 601.345   7
  -3   2  -3 25012.8 717.958   6
   3  -2   3 24420.1 670.295   4
  -3   2  -4 1072.07 132.515   1
   3  -2   4 1052.64 130.019   7
  -3   2  -4 999.895 123.393   7
  -3   2  -4 1009.59 159.420   6
   3  -2   4 1078.22 130.907   4
  -3   2  -5 8321.43 399.342   7
   3  -2   5 8369.48 410.318   7
  -3   2  -5 7873.19 343.381   1
  -3   2  -5 7192.03 445.220   6
   3  -2   5 7733.10 342.042   4
   3  -2   6 5049.95 352.448   7
  -3   2  -6 5282.36 276.429   1
  -3   2  -6 5332.41 402.896   6
   3  -2   6 5323.07 273.155   4
   3  -2   7 8898.83 344.067   2
   3  -2   7 8715.54 512.761   7
  -3   2  -7 9301.16 588.552   6
   3  -2   7 8263.01 333.913   4
   3  -2   8 88.7347 108.383   7
  -3   2  -8-139.072 154.485   6
   3  -2   9 537.280 208.008   7
  -3   2  -9 580.620 237.214   6
   3  -2  10-2.46573 147.742   7
  -3   2 -10 102.107 152.458   6
  -3   2 -11 1325.60 315.347   6
   3  -2  11 1137.53 292.253   7
   3  -2  12 585.558 252.963   7
  -3   1  11 522.337 240.545   7
  -3   1  10 481.740 226.829   7
  -3   1   9 2510.23 349.901   7
  -3   1   8 9882.60 644.185   7
   3  -1  -8 8947.14 278.195   2
  -3   1   7 19809.2 850.958   7
   3  -1  -7 19298.5 515.042   4
  -3   1   6 6130.66 432.655   7
  -3   1   6 6090.15 330.781   6
   3  -1  -6 5814.43 275.049   4
  -3   1   5 4352.88 325.473   7
  -3   1   5 3906.65 228.520   6
   3  -1  -4 871.917 137.572   7
  -3   1   4 905.032 151.691   5
   3  -1  -4 730.451 137.807   5
  -3   1   4 605.044 130.222   7
  -3   1   4 727.108 85.8872   6
  -3   1   4 718.780 107.938   1
  -3   1   3 33.3174 69.3058   7
  -3   1   3 41.1468 63.1881   5
   3  -1  -3-29.7172 84.9797   5
   3  -1  -3-1.40887 52.7344   7
  -3   1   3 33.3834 24.6449   6
  -3   1   3-34.9313 58.8178   1
   3  -1  -2 12912.4 455.188   5
   3  -1  -2 12592.4 397.944   7
  -3   1   2 12497.6 393.871   7
  -3   1   2 12846.9 444.757   1
   3  -1  -1 191121. 2808.18   7
  -3   1   1 193664. 2799.37   7
  -3   1   1 192985. 3038.45   1
   3  -1  -1 192658. 3017.64   5
   3  -1   0 986240. 13872.6   5
  -3   1   0 999999. 13893.3   1
  -3   1  -1 98.7840 64.6055   1
   3  -1   1 111.717 87.1680   5
   3  -1   1 111.436 32.4296   3
   3  -1   1 63.7161 45.9323   6
  -3   1  -1 207.543 61.5380   6
  -3   1  -2 25041.7 516.559   7
   3  -1   2 25010.6 510.261   7
  -3   1  -2 25143.7 549.902   3
   3  -1   2 26467.7 671.751   6
  -3   1  -2 24036.9 666.326   1
  -3   1  -2 24948.6 675.359   6
  -3   1  -3 45.1607 40.4344   7
  -3   1  -3-27.9623 61.3342   3
  -3   1  -3-6.92886 75.8360   6
   3  -1   3-10.2596 43.3597   7
  -3   1  -3-56.0896 58.1829   1
  -3   1  -4 520.603 105.779   7
   3  -1   4 468.257 99.5162   7
  -3   1  -4 378.131 111.386   6
   3  -1   5 13644.7 534.156   7
  -3   1  -5 13714.8 635.479   6
   3  -1   5 12229.5 429.922   4
   3  -1   6 841.354 171.733   7
   3  -1   6 893.530 116.282   4
  -3   1  -6 759.020 176.073   6
  -3   1  -7 784.897 214.025   6
   3  -1   7 385.025 144.738   7
   3  -1   8 3390.56 362.959   7
  -3   1  -8 3454.56 404.630   6
   3  -1   9 2075.56 314.830   7
  -3   1  -9 2471.63 390.538   6
   3  -1  10 836.948 237.386   7
  -3   1 -10 429.845 218.699   6
   3  -1  11 369.888 205.764   7
  -3   1 -12 911.779 296.128   3
   3  -1  12 1120.13 310.718   7
  -3   0  11 939.169 262.282   7
  -3   0  10 1402.77 330.832   7
  -3   0   9 404.231 191.783   7
   3   0  -8 7221.04 446.908   6
   3   0  -8 6997.78 285.329   4
  -3   0   8 7465.86 542.313   7
  -3   0   7 827.616 194.193   7
   3   0  -7 571.098 125.519   6
  -3   0   6 800.875 179.361   7
   3   0  -6 802.514 131.790   6
   3   0  -5 3771.61 236.229   1
  -3   0   5 4065.05 307.075   7
   3   0  -5 3512.32 312.116   5
   3   0  -5 3477.85 214.569   6
   3   0  -4 26883.5 840.461   5
   3   0  -4 27027.4 774.347   7
  -3   0   4 27916.6 792.328   7
   3   0  -4 27291.9 713.869   1
   3   0  -4 26355.2 581.870   6
  -3   0   3 2760.28 201.076   7
   3   0  -3 2156.66 212.177   5
   3   0  -3 2644.70 203.187   1
   3   0  -3 2497.49 105.670   6
   3   0  -3 2432.28 185.143   7
   3   0  -2 14327.9 506.362   5
   3   0  -2 14615.7 421.719   7
  -3   0   2 14930.7 433.689   7
   3   0  -1 40165.4 924.135   5
  -3   0   1 39477.8 741.417   7
   3   0  -1 38262.7 721.106   7
   3   0  -1 39305.3 671.946   6
   3   0   0 158618. 2605.75   5
   3   0   0 157128. 2381.08   6
   3   0   0 153701. 2266.25   7
   3   0   1 44849.4 912.922   3
   3   0   1 44891.4 947.615   6
  -3   0  -1 45821.0 975.887   6
   3   0   1 45697.3 1073.32   5
  -3   0  -2 4925.39 255.571   3
   3   0   2 4619.27 213.435   7
   3   0   2 4739.37 278.422   6
  -3   0  -2 4662.90 294.150   6
   3   0   2 4585.44 262.978   1
   3   0   3 19290.4 556.960   7
  -3   0  -3 19833.0 613.317   3
  -3   0  -3 18396.2 674.510   6
   3   0   3 18665.1 570.650   1
   3   0   4 61.4367 60.2457   7
   3   0   4 60.1214 53.1425   1
  -3   0  -4-63.7028 79.9239   6
   3   0   5 21734.7 736.158   7
  -3   0  -5 20167.8 844.326   6
  -3   0  -6 631.056 157.444   3
  -3   0  -6 292.123 140.994   6
   3   0   6 277.539 123.181   7
  -3   0  -7 1243.80 232.689   3
   3   0   7 797.892 193.401   7
  -3   0  -7 1018.40 244.886   6
   3   0   8 12023.7 684.795   7
  -3   0  -8 11081.2 672.631   3
  -3   0  -9 3666.10 425.450   3
   3   0   9 3431.53 403.501   7
  -3   0 -10 2821.22 406.962   3
   3   0  10 2246.17 364.161   7
  -3   0 -11 118.667 181.955   3
   3   0  11 119.804 162.322   7
  -3  -1  12 1042.02 327.213   7
  -3  -1  11-254.022 217.819   7
   3   1 -11 125.212 112.669   6
  -3  -1  10 334.342 192.392   7
   3   1 -10 364.111 159.499   6
   3   1  -9 4272.12 239.704   4
   3   1  -9 4331.88 362.449   6
  -3  -1   9 3645.76 415.919   7
   3   1  -8-49.7075 57.4682   1
  -3  -1   8 69.2295 131.936   7
   3   1  -8-14.2276 82.8789   6
   3   1  -7 1952.79 187.277   1
  -3  -1   7 2078.45 282.857   7
   3   1  -7 2063.16 211.463   6
  -3  -1   6 53352.4 1384.91   7
   3   1  -6 52827.6 1170.58   1
   3   1  -6 52238.8 1130.81   6
   3   1  -5 9049.86 505.388   5
   3   1  -5 9416.98 422.290   1
  -3  -1   5 9570.10 483.507   7
   3   1  -5 9488.94 346.090   6
   3   1  -4 17463.5 666.984   5
   3   1  -4 17838.4 611.339   7
  -3  -1   4 18460.1 635.342   7
   3   1  -3 1652.79 159.502   7
   3   1  -3 1434.30 180.056   5
  -3  -1   3 1794.59 175.011   7
   3   1  -2 3739.39 218.633   7
   3   1  -2 3580.40 255.953   5
   3   1  -1 85902.4 1494.98   7
   3   1  -1 87074.4 1665.33   5
   3   1   0 39722.7 986.535   5
   3   1   1 3637.33 272.716   5
   3   1   1 3032.91 224.008   3
   3   1   1 3222.98 233.837   6
   3   1   2 14288.4 528.097   3
   3   1   2 14301.7 594.278   5
   3   1   3 13172.8 503.250   7
   3   1   4 343.354 99.6465   7
   3   1   4 234.053 83.3602   1
   3   1   5 25298.8 849.037   7
   3   1   5 22899.0 686.009   1
  -3  -1  -5 23772.9 892.949   3
  -3  -1  -6 1313.72 247.272   3
   3   1   6 1182.99 211.436   7
   3   1   7 2602.96 325.923   7
  -3  -1  -7 2278.31 309.105   3
  -3  -1  -8 175.495 163.183   3
   3   1   8 344.707 179.412   7
  -3  -1  -9 2700.81 401.401   3
   3   1   9 2465.09 354.623   7
  -3  -1 -10-42.3641 181.629   3
   3   1  10 72.4364 160.008   7
   3   1  11 41.0088 174.574   7
  -3  -2  12 103.052 184.727   7
   3   2 -12-111.356 149.907   6
  -3  -2  11 24.5874 188.821   7
   3   2 -11 78.7048 117.665   6
  -3  -2  10 260.747 174.506   7
   3   2 -10 43.7319 112.130   6
  -3  -2   9 1112.68 247.809   7
   3   2  -9 1172.14 198.042   6
   3   2  -9 810.583 136.843   4
  -3  -2   8 1125.06 231.174   7
   3   2  -8 1128.74 169.415   4
   3   2  -8 754.944 137.257   1
   3   2  -8 1236.09 189.735   6
  -3  -2   7 200.565 145.524   7
   3   2  -7 17.4446 73.3393   6
   3   2  -6 4642.64 394.197   5
  -3  -2   6 4933.96 397.082   7
   3   2  -6 4783.89 279.759   6
   3   2  -5 4300.57 356.311   5
  -3  -2   5 4163.28 344.676   7
   3   2  -4 734.400 132.764   7
  -3  -2   4 1000.67 168.483   7
   3   2  -4 799.582 165.965   5
   3   2  -3 96492.0 1883.16   5
   3   2  -3 93057.4 1800.83   7
   3   2  -2 83689.0 1676.31   5
   3   2  -2 83330.4 1607.83   7
   3   2  -1 52137.2 1205.54   5
  -3  -2   1 51924.3 1225.21   5
  -3  -2   0 12623.2 535.656   5
   3   2   0 11661.4 505.871   5
   3   2   1 235426. 3847.38   3
   3   2   1 231341. 3860.40   5
   3   2   2 477.538 126.698   5
  -3  -2  -3 4172.43 338.930   3
   3   2   3 4575.80 319.393   7
   3   2   4 1582.06 206.297   7
  -3  -2  -4 1535.55 224.057   3
  -3  -2  -5 6562.05 490.103   3
   3   2   5 5980.40 368.236   1
   3   2   6 8474.59 427.048   4
   3   2   6 8616.36 554.872   7
  -3  -2  -6 8496.65 598.572   3
  -3  -2  -7 3858.19 435.463   3
   3   2   7 2792.94 340.087   7
  -3  -2  -8 421.380 189.159   3
   3   2   8 547.922 204.261   7
  -3  -2  -9 128.314 185.467   3
   3   2   9 222.597 175.676   7
  -3  -2 -10-175.879 225.202   3
   3   2  10 322.093 179.870   7
  -3  -3  12-280.327 306.250   7
   3   3 -12 335.025 173.080   6
  -3  -3  11 1144.54 297.273   7
   3   3 -11 1563.13 259.298   6
  -3  -3  10-138.289 219.859   7
   3   3 -10 145.096 110.078   6
  -3  -3   9 18514.8 958.585   7
   3   3  -9 19592.6 732.093   4
   3   3  -9 19227.9 773.271   6
   3   3  -8 10595.8 542.462   4
   3   3  -8 11163.6 537.835   6
  -3  -3   8 10021.9 659.803   7
  -3  -3   7 762.456 228.435   7
   3   3  -6 2296.39 296.757   5
  -3  -3   6 2410.54 285.732   7
   3   3  -5-134.047 124.386   5
  -3  -3   5 27.4856 117.517   7
   3   3  -4 4002.47 329.581   5
   3   3  -3 1831.88 217.266   5
   3   3  -3 1681.90 201.302   7
   3   3  -2 2410.70 228.003   5
   3   3  -1 7123.01 399.951   5
   3   3   0 3161.02 270.738   5
   3   3   1 85.9451 71.6875   5
   3   3   2 6654.92 444.673   5
   3   3   3 10050.2 574.245   5
  -3  -3  -4 8133.10 572.269   3
   3   3   4 8498.61 487.726   4
   3   3   4 9158.71 542.712   7
   3   3   5 3020.77 291.023   4
  -3  -3  -5 3562.74 399.697   3
   3   3   5 3631.07 364.423   7
   3   3   6 878.296 214.148   7
  -3  -3  -6 1142.85 272.827   3
   3   3   7 145.430 156.513   7
  -3  -3  -7 264.169 163.237   3
  -3  -3  -8 905.325 253.727   3
   3   3   8 983.870 238.528   7
   3   3   9 1304.64 285.681   7
  -3  -3  -9 1218.50 339.603   3
  -3  -4  12 682.847 303.406   7
   3   4 -12 564.602 191.359   6
   3   4 -11 569.613 197.182   6
  -3  -4  11 663.819 228.662   7
  -3  -4  10 3869.45 488.206   7
   3   4 -10 4597.27 372.620   4
   3   4 -10 4294.70 388.691   6
   3   4  -9 1540.00 250.856   4
   3   4  -9 1434.64 223.321   6
  -3  -4   9 1441.64 298.493   7
   3   4  -8 5285.39 422.195   4
  -3  -4   8 4379.30 463.201   7
  -3  -4   7 604.363 221.108   7
   3   4  -7 567.632 169.416   4
   3   4  -6 1275.15 234.887   5
   3   4  -6 1509.64 234.064   4
   3   4  -5 16347.1 729.663   5
   3   4  -4 816.385 186.577   5
   3   4  -3-0.98984 107.486   5
   3   4  -2 775.187 146.101   5
   3   4  -1 467.620 114.258   5
   3   4   0 19579.4 743.675   5
   3   4   1 572.489 142.055   5
   3   4   2 10952.6 604.517   4
   3   4   2 12318.6 626.279   5
   3   4   3 262.165 115.007   5
   3   4   3 334.373 102.492   4
   3   4   4 293.857 150.265   5
   3   4   4 407.091 151.004   7
   3   4   4 397.635 154.359   4
   3   4   5 129.814 140.652   7
  -3  -4  -5 263.393 143.148   3
   3   4   5 50.7279 121.386   5
   3   4   5 77.0460 99.1317   4
   3   4   6 149.024 153.395   7
  -3  -4  -6-237.657 215.670   3
  -3  -4  -7 73.2553 161.197   3
   3   4   7 475.049 224.005   7
   3   4   8 276.632 164.466   7
  -3  -4  -8 94.8234 205.240   3
  -3  -5  12 758.616 288.009   7
   3   5 -12 950.275 245.788   6
  -3  -5  11 484.347 256.289   7
   3   5 -11-86.9671 152.883   6
   3   5 -10-118.074 118.244   4
  -3  -5  10-139.677 204.217   7
   3   5 -10 51.0749 101.382   6
   3   5  -9 517.709 171.980   4
   3   5  -8 651.732 192.028   4
   3   5  -7 2996.70 350.180   4
   3   5  -7 3228.76 370.480   5
   3   5  -6 3458.34 376.263   5
   3   5  -6 3490.15 367.662   4
   3   5  -5 946.571 203.062   5
   3   5  -5 998.092 229.898   4
   3   5  -4-9.44834 114.435   5
   3   5  -4-86.5432 117.709   4
   3   5  -3 26.2928 110.278   5
   3   5  -3 204.021 144.488   4
   3   5  -2 14528.8 637.377   5
   3   5  -2 15680.2 766.993   4
   3   5  -1 24971.7 852.555   5
   3   5  -1 24899.5 1004.52   4
   3   5   0-21.8123 73.1132   5
   3   5   0 240.743 158.460   4
   3   5   1 701.523 158.128   5
   3   5   1 771.013 206.459   4
   3   5   2 326.298 124.362   5
   3   5   2 285.463 137.520   4
   3   5   3 11116.2 661.365   4
   3   5   3 10675.4 637.987   5
   3   5   4 828.803 188.214   4
   3   5   4 791.213 174.748   5
   3   5   5 101.014 141.484   5
   3   5   5-73.7189 174.889   7
   3   5   6 658.093 250.846   7
   3   5   6-12.4980 105.450   5
   3   5   7 1823.09 334.767   5
   3   5   7 1555.50 343.588   7
  -3  -5  -7 1054.86 295.660   3
   3   6 -11 2353.69 329.847   6
   3   6 -10 1834.00 299.928   4
   3   6  -9 523.140 177.833   4
   3   6  -8-90.9854 152.292   4
   3   6  -7 8853.08 617.597   5
   3   6  -7 8205.58 598.306   4
   3   6  -6-193.303 146.433   5
   3   6  -6 58.4198 156.056   4
   3   6  -5 1148.52 222.898   5
   3   6  -5 1068.86 243.837   4
   3   6  -4 4717.18 394.755   5
   3   6  -4 5127.33 482.890   4
   3   6  -3 432.469 137.375   5
   3   6  -3 430.003 170.663   4
   3   6  -2 5658.64 412.406   5
   3   6  -2 5201.35 478.315   4
   3   6  -1 7689.38 467.941   5
   3   6  -1 8331.20 603.844   4
   3   6   0 96.5034 81.4768   5
   3   6   0 369.975 191.330   4
   3   6   1 1868.39 243.746   5
   3   6   1 1556.34 271.932   4
   3   6   2 1408.81 231.880   5
   3   6   2 1288.57 251.176   4
   3   6   3 95.1476 133.296   4
   3   6   3-57.8104 97.3414   5
   3   6   4 106.203 112.978   4
   3   6   4 244.227 133.136   5
   3   6   4 219.692 136.420   7
   3   6   5 1357.30 302.164   7
   3   6   6 851.407 273.505   7
   3   7 -10-116.453 182.342   4
   3   7  -9 65.7254 170.056   4
   3   7  -8 3490.00 424.736   4
   3   7  -7 18.3398 148.757   4
   3   7  -6 21.9517 122.567   5
   3   7  -6-262.655 181.836   4
   3   7  -5 64.9613 133.957   4
   3   7  -5-110.330 116.711   5
   3   7  -4 1919.85 265.563   5
   3   7  -4 1855.37 321.632   4
   3   7  -3-8.49365 103.591   5
   3   7  -3 86.0152 128.252   4
   3   7  -2 1480.13 228.660   5
   3   7  -2 1531.66 300.511   4
   3   7  -1 2096.39 257.885   5
   3   7  -1 2267.54 352.094   4
   3   7   0 1446.67 216.997   5
   3   7   0 1314.41 264.201   4
   3   7   1 6033.08 541.297   4
   3   7   2 57.1214 149.108   4
   3   7   3 29.7107 135.156   4
   3   7   4 602.180 249.634   7
   3   7   5 305.830 193.254   7
   3   8 -11-50.9769 186.294   4
   3   8 -10 469.952 224.173   4
   3   8  -9 546.216 242.438   4
   3   8  -8 535.145 236.190   4
   3   8  -7 243.911 189.688   4
   3   8  -6 2218.07 383.960   4
   3   8  -6 2009.47 301.108   5
   3   8  -5-126.619 187.963   4
   3   8  -5 496.671 195.063   5
   3   8  -4 181.127 137.191   4
   3   8  -3 436.293 193.461   4
   3   8  -2 444.361 196.240   4
   3   8  -1 171.096 165.281   4
   3   8   0 329.826 177.620   4
   3   8   1-264.453 176.640   4
   3   8   2 334.055 208.224   4
   3   9 -10 688.602 254.024   4
   3   9  -9 1671.36 361.661   4
   3   9  -8 1050.51 309.512   4
   3   9  -7 59.2046 197.663   4
   3   9  -6 109.855 172.039   4
   3   9  -5 2559.93 429.092   4
   3   9  -4 1747.19 359.362   4
   3   9  -3 252.742 194.995   4
   3   9  -2-121.470 160.198   4
   3   9  -1 539.996 261.319   4
   3   9   0 213.311 167.974   4
   3   9   1 396.542 217.216   4
   3   9   2 354.715 163.713   4
  -4  11   2-157.569 217.063   4
  -4  11   1 192.279 208.663   4
  -4  11   0 1038.14 295.410   4
  -4  11  -1 278.884 179.255   4
  -4  11  -2-149.699 185.466   4
  -4  11  -3 332.455 189.941   4
  -4  11  -4 349.009 259.775   4
  -4  11  -5 356.738 219.991   4
  -4  11  -6 22.0498 186.970   4
  -4  11  -7-219.027 170.713   4
  -4  11  -8-34.5865 216.687   4
  -4  11  -9 1691.47 352.699   4
  -4  11 -10 65.0521 196.531   4
  -4  10   3 91.7726 139.746   4
  -4  10   2 18.1927 175.749   4
  -4  10   1 3631.24 432.873   4
  -4  10   0 834.600 224.315   4
  -4  10  -1 246.931 172.275   4
  -4  10  -2 1537.48 299.394   4
  -4  10  -3 12437.7 814.734   4
  -4  10  -4 3550.00 451.888   4
  -4  10  -5 1552.60 329.298   4
  -4  10  -6 164.417 168.671   4
  -4  10  -7 145.010 162.450   4
  -4  10  -8 382.558 194.733   4
  -4  10  -9 155.227 183.327   4
  -4  10 -10-149.589 194.472   4
   4  -9  -5 316.481 193.340   3
   4  -9  -4 228.279 198.355   3
  -4   9   4 542.093 224.741   7
  -4   9   4 299.069 163.460   4
  -4   9   3-1.89758 146.221   4
   4  -9  -3-79.7024 178.353   3
  -4   9   2 65.4060 143.264   4
  -4   9   1-179.140 128.364   4
  -4   9   0 1505.82 280.535   4
  -4   9  -1 497.219 171.046   4
  -4   9  -2 14704.1 824.964   4
  -4   9  -3 206.758 168.881   4
  -4   9  -4 301.265 175.738   4
  -4   9  -5-65.4956 155.992   4
  -4   9  -6 315.323 164.775   4
  -4   9  -7 2539.06 357.492   4
  -4   9  -8 53.3747 165.181   4
  -4   9  -9 663.199 229.769   4
  -4   9 -10-250.047 194.549   4
  -4   8   6 627.062 251.554   7
   4  -8  -6 678.709 241.630   3
  -4   8   5 181.490 213.074   7
   4  -8  -5 97.3341 163.984   3
  -4   8   4 301.661 139.817   4
   4  -8  -4 365.497 159.375   3
  -4   8   4 114.522 179.139   7
   4  -8  -3 118.944 139.422   3
  -4   8   3 594.904 163.265   4
  -4   8   2 150.475 151.680   4
   4  -8  -2 60.1062 122.504   3
  -4   8   1 398.476 155.435   4
  -4   8   0 2845.39 350.746   4
   4  -8   1 3925.65 401.463   2
  -4   8  -1 4006.28 404.216   4
   4  -8   2 2483.02 329.460   2
  -4   8  -2 2750.71 350.249   4
  -4   8  -3 2783.15 338.136   4
   4  -8   3 2490.67 326.772   2
   4  -8   4 1348.77 257.550   2
  -4   8  -4 1708.02 275.769   4
   4  -8   4 1762.76 153.753   5
   4  -8   4 1980.75 161.501   5
  -4   8  -5 168.522 147.614   4
   4  -8   5 304.603 92.0638   5
  -4   8  -6 46.8909 123.343   4
  -4   8  -7 1542.00 278.962   4
  -4   8  -8 776.036 222.188   4
  -4   8  -9 719.998 220.016   4
  -4   8 -10 1641.47 330.184   6
  -4   8 -10 1441.04 261.916   4
  -4   8 -11 1548.98 350.763   6
   4  -7  -7 818.381 279.700   3
  -4   7   7 1337.59 344.195   7
  -4   7   6 1817.34 362.297   7
   4  -7  -6 1857.41 344.318   3
   4  -7  -5 400.837 186.034   3
  -4   7   5 738.573 236.808   7
  -4   7   4 6705.57 571.307   7
  -4   7   4 6156.31 470.568   4
   4  -7  -4 6149.81 537.637   3
   4  -7  -3 5656.97 479.726   3
  -4   7   3 5985.94 468.748   4
   4  -7  -2 9669.48 595.811   2
   4  -7  -2 10059.8 597.637   3
  -4   7   2 10070.7 618.774   4
   4  -7  -1-29.7209 109.739   3
   4  -7  -1-178.777 143.527   2
  -4   7   1 156.781 125.172   4
  -4   7   0-131.091 109.441   4
   4  -7   0 32.6408 126.993   2
  -4   7  -1 21126.7 881.374   4
   4  -7   1 20820.7 877.028   2
  -4   7  -2 1756.61 191.389   3
  -4   7  -2 2160.45 288.164   4
   4  -7   2 1937.87 275.458   2
  -4   7  -3 3044.51 343.765   4
   4  -7   3 3169.18 340.682   2
  -4   7  -3 2923.95 236.232   3
   4  -7   3 3046.74 187.004   5
  -4   7  -4 2624.26 314.175   4
   4  -7   4 2125.06 293.759   2
  -4   7  -4 2103.38 202.776   3
   4  -7   5 10214.8 607.576   2
  -4   7  -5 9962.97 597.184   4
   4  -7   6 1541.14 258.646   2
  -4   7  -6 1783.28 271.051   4
   4  -7   7 5503.06 452.420   2
  -4   7  -7 5838.89 463.153   4
  -4   7  -8 1750.74 258.494   4
  -4   7  -9 323.998 180.245   6
  -4   7 -10 505.908 219.057   6
  -4   7 -11 82.9846 171.786   6
   4  -6  -8 855.532 272.252   3
  -4   6   8 333.852 234.993   7
   4  -6  -7 192.661 171.509   3
  -4   6   7 21.7928 172.430   7
   4  -6  -6 12.3938 146.287   3
  -4   6   6 48.8807 184.796   7
   4  -6  -5 388.301 181.493   3
  -4   6   5 1185.26 287.891   7
   4  -6  -4 2888.43 347.485   3
  -4   6   4 3069.94 362.988   7
   4  -6  -4 3249.08 334.175   2
   4  -6  -3 4193.93 379.612   3
  -4   6   3 3557.76 363.529   7
   4  -6  -3 4434.01 373.767   2
  -4   6   3 4194.46 364.539   4
   4  -6  -2 1180.46 195.384   3
  -4   6   2 997.579 111.128   5
  -4   6   2 1339.88 225.874   4
   4  -6  -2 916.070 178.527   2
  -4   6   1-19.9802 27.5649   5
  -4   6   1 173.192 133.397   4
   4  -6  -1 115.484 124.738   2
   4  -6  -1 197.262 101.348   3
   4  -6   0 32356.4 1054.77   2
   4  -6   0 31962.6 905.728   3
  -4   6   0 32257.1 1047.44   4
   4  -6   1 3237.73 142.615   5
  -4   6  -1 3126.30 317.775   4
   4  -6   1 3082.25 305.495   2
  -4   6  -2 28956.0 726.249   3
  -4   6  -2 27936.3 970.893   4
   4  -6   2 28049.9 643.353   5
   4  -6   3 60425.8 1550.12   2
  -4   6  -3 63041.1 1208.48   3
  -4   6  -3 63126.5 1570.08   4
   4  -6   3 60715.7 1259.33   5
   4  -6   4 2557.73 285.156   2
  -4   6  -4 2979.90 306.702   4
  -4   6  -5 293.911 145.608   4
   4  -6   5 67.2178 122.202   2
  -4   6  -6 2190.44 270.496   4
   4  -6   6 1921.18 262.035   2
  -4   6  -7 111.224 105.512   4
   4  -6   7-7.85593 98.6705   2
   4  -6   8 10369.2 577.224   2
  -4   6  -8 10001.3 658.440   6
  -4   6  -9 711.862 227.532   6
   4  -6  10 231.742 155.359   7
  -4   6 -10 377.894 156.941   6
   4  -6  11 385.239 218.786   7
  -4   6 -11 881.595 284.214   6
   4  -6  12 133.499 192.739   7
  -4   5   9-77.6895 191.541   7
  -4   5   8 1798.14 348.646   7
  -4   5   7 9522.28 693.475   7
  -4   5   6 16037.6 854.042   7
  -4   5   5 17812.7 840.212   7
   4  -5  -5 188.102 313.355   2
  -4   5   4 2367.45 230.606   5
  -4   5   4 1960.85 284.624   7
   4  -5  -4 2356.71 252.676   2
  -4   5   3 1730.70 238.990   7
   4  -5  -3 1384.78 212.220   3
  -4   5   3 1614.38 175.922   5
   4  -5  -3 1540.38 208.614   2
   4  -5  -2 8.50365 89.5116   2
  -4   5   2 20.2201 93.8147   4
   4  -5  -2 24.2779 83.1947   3
  -4   5   2 6.98672 46.0962   5
   4  -5  -1 3115.36 289.750   2
   4  -5  -1 3233.83 188.079   5
  -4   5   1 2964.72 276.143   4
   4  -5  -1 3070.51 246.289   3
  -4   5   1 2937.41 182.682   5
  -4   5   0 89.8807 76.9179   4
   4  -5   0 55.7090 43.8083   5
   4  -5   0 96.1183 63.3150   3
   4  -5   1 18436.0 498.800   5
  -4   5  -1 19231.9 732.286   4
   4  -5   2 51.6032 65.1110   5
  -4   5  -2 87.5893 97.2181   4
   4  -5   3 492.649 138.811   2
  -4   5  -3 539.764 137.825   4
  -4   5  -3 606.736 130.965   7
  -4   5  -3 530.263 68.6098   3
   4  -5   4 78.1550 94.2695   2
  -4   5  -4-125.804 107.008   4
  -4   5  -4 87.9422 76.5871   7
   4  -5   5 11197.3 549.987   2
  -4   5  -5 12122.5 572.035   4
  -4   5  -6 268.765 141.448   6
   4  -5   6 100.563 84.4795   2
   4  -5   7 2384.21 302.951   7
   4  -5   7 2488.35 263.208   2
  -4   5  -7 2501.46 318.439   6
  -4   5  -8 969.658 230.501   6
   4  -5   8 1068.82 225.426   7
   4  -5   8 1193.99 192.464   2
  -4   5  -9 583.070 135.795   1
   4  -5   9 494.126 168.455   7
  -4   5  -9 493.996 148.416   6
   4  -5  10 1455.66 310.487   7
  -4   5 -10 2014.30 352.423   6
   4  -5  11 319.819 200.715   7
  -4   5 -11 665.157 275.274   6
   4  -5  12 68.6362 183.040   7
  -4   4   9 813.655 270.894   7
  -4   4   8-60.3654 181.673   7
  -4   4   7 18508.8 925.075   7
  -4   4   6 4976.14 335.319   1
  -4   4   6 4511.81 437.841   7
  -4   4   5 975.286 202.223   7
  -4   4   4 446.824 122.552   5
  -4   4   4 399.176 147.760   7
  -4   4   3 26722.4 762.543   5
  -4   4   3 25540.3 868.300   7
  -4   4   2 4704.22 270.720   5
   4  -4  -2 4457.59 262.243   5
  -4   4   2 4552.96 318.305   7
   4  -4  -1 3526.16 215.454   5
  -4   4   1 3370.03 214.435   5
   4  -4   0 66320.3 1233.88   5
   4  -4   0 66118.7 1204.09   3
  -4   4   0 64361.7 1264.30   5
   4  -4   1 15554.5 494.632   5
   4  -4   2 150018. 2543.01   5
  -4   4  -3 13377.1 469.368   7
  -4   4  -4 2743.61 216.894   7
  -4   4  -5 6229.94 351.250   7
   4  -4   5 6504.68 384.293   7
  -4   4  -5 6317.20 424.470   6
   4  -4   6 1262.08 178.410   2
   4  -4   6 1590.65 210.337   7
  -4   4  -6 1262.64 219.214   6
  -4   4  -7 46.1083 97.9317   1
   4  -4   7 84.0586 110.050   7
  -4   4  -7-100.120 115.835   6
   4  -4   7-62.1669 91.4875   2
  -4   4  -8-2.39753 77.5941   1
   4  -4   8 235.837 166.746   7
   4  -4   8 28.3579 69.5836   2
  -4   4  -8-58.9462 127.889   6
  -4   4  -9 1166.50 171.297   1
   4  -4   9 1187.22 255.735   7
  -4   4  -9 1353.44 290.287   6
   4  -4  10 1179.16 279.997   7
  -4   4 -10 1270.43 304.695   6
   4  -4  11-122.134 174.906   7
  -4   4 -11-74.3923 171.813   6
   4  -4  12-54.3533 167.806   7
  -4   3  10 4731.39 560.079   7
  -4   3   9 227.991 205.631   7
  -4   3   8 1038.59 272.410   7
   4  -3  -7 5452.58 311.288   2
  -4   3   7 5249.04 471.967   7
  -4   3   7 5497.81 327.522   1
   4  -3  -6 1403.23 165.483   2
   4  -3  -6 1280.73 161.234   4
  -4   3   6 1598.09 264.021   7
  -4   3   6 1734.59 193.382   1
  -4   3   5 11.6674 87.0190   1
   4  -3  -5 31.8808 62.5385   4
  -4   3   5-34.6533 96.4831   7
  -4   3   5 6.66986 61.6225   6
   4  -3  -4 1168.17 160.382   4
  -4   3   4 1290.86 191.555   7
  -4   3   4 1369.83 151.866   6
  -4   3   4 1513.87 194.298   1
  -4   3   3 2031.50 198.332   5
   4  -3  -3 1812.86 196.500   4
  -4   3   3 2372.06 230.313   7
   4  -3  -3 2102.33 204.060   5
  -4   3   2 3705.19 246.975   5
   4  -3  -2 3517.97 244.065   5
  -4   3   2 3832.07 257.293   7
   4  -3  -2 3486.29 264.192   4
  -4   3   1 25025.5 689.558   5
   4  -3  -1 24772.1 669.715   5
  -4   3   1 25004.4 650.101   7
   4  -3   0 6198.49 305.365   5
  -4   3   0 5650.04 304.513   5
   4  -3   1 92624.7 1730.68   5
  -4   3  -2 23429.7 531.988   7
   4  -3   2 24010.6 732.759   5
  -4   3  -3 22958.9 557.484   7
  -4   3  -3 23524.7 716.922   6
  -4   3  -3 21750.0 407.812   3
   4  -3   3 23486.2 735.740   4
  -4   3  -4 3435.44 219.187   7
   4  -3   4 3078.79 220.466   7
  -4   3  -4 3100.61 274.157   6
   4  -3   4 3130.03 254.007   4
  -4   3  -5 41145.3 1070.75   1
  -4   3  -5 44396.0 1045.98   7
   4  -3   5 43182.1 1062.01   7
  -4   3  -5 43614.8 1213.89   6
   4  -3   5 43166.1 1083.16   4
  -4   3  -6 5503.98 339.553   1
   4  -3   6 5867.00 381.535   7
  -4   3  -6 6800.12 473.524   6
   4  -3   6 5625.35 339.526   4
  -4   3  -7 1629.18 183.945   1
   4  -3   7 1260.22 161.670   2
   4  -3   7 1267.66 159.385   4
   4  -3   7 1333.64 220.099   7
  -4   3  -7 1711.06 273.112   6
   4  -3   8 395.210 144.049   7
  -4   3  -8 305.133 152.402   6
   4  -3   8 311.294 81.4229   2
   4  -3   9 5450.59 481.117   7
  -4   3  -9 6443.74 564.295   6
   4  -3  10-282.082 193.806   7
  -4   3 -10 151.831 156.492   6
   4  -3  11 401.086 230.079   7
  -4   3 -11 84.3223 214.698   6
   4  -3  12-142.675 184.302   7
  -4   2  11 389.275 200.700   7
  -4   2  10-306.465 228.417   7
  -4   2   9-25.1558 180.545   7
  -4   2   8 5327.47 493.172   7
   4  -2  -8 5718.62 288.211   2
  -4   2   7 12924.4 702.661   7
   4  -2  -7 12970.9 488.265   4
   4  -2  -6 1875.77 186.779   4
  -4   2   6 1978.08 185.942   6
  -4   2   6 2116.05 273.253   7
  -4   2   5 101066. 1798.24   6
  -4   2   5 106993. 1967.43   1
   4  -2  -5 102271. 1934.75   4
  -4   2   5 102081. 2130.53   7
  -4   2   4 408.432 121.460   7
   4  -2  -4 203.467 116.950   5
   4  -2  -4 162.482 83.2511   4
  -4   2   4 233.476 58.1005   6
  -4   2   4 159.210 83.8077   1
  -4   2   3 53353.7 1232.23   5
   4  -2  -3 53169.4 1229.39   5
  -4   2   3 52251.8 1198.52   1
  -4   2   3 52281.0 924.993   6
  -4   2   3 52381.7 1168.50   7
  -4   2   2 7560.84 375.119   5
   4  -2  -2 7460.92 369.681   5
  -4   2   2 7460.36 317.721   7
  -4   2   2 6652.80 365.863   1
   4  -2  -1 52156.2 1123.70   5
  -4   2   1 49972.1 1171.53   1
  -4   2   1 50211.9 933.646   7
  -4   2   1 50352.0 1138.42   5
   4  -2   0 101635. 1883.37   5
  -4   2   0 100878. 1523.23   7
  -4   2   0 104045. 1936.81   1
  -4   2   0 104365. 1638.84   6
  -4   2   0 102984. 1915.68   5
   4  -2   1 8558.44 206.222   3
  -4   2  -1 9312.42 342.126   6
  -4   2  -1 9660.97 437.426   1
   4  -2   1 9394.88 427.658   5
  -4   2  -2 24023.6 727.471   1
  -4   2  -2 22867.7 448.411   7
  -4   2  -2 23801.5 671.685   6
   4  -2   2 24382.3 775.010   5
  -4   2  -3 28037.6 619.821   7
   4  -2   3 27413.3 625.909   7
  -4   2  -3 28125.4 804.745   1
  -4   2  -3 29352.4 611.410   3
  -4   2  -3 27912.5 819.836   6
  -4   2  -4-34.1517 82.4621   1
  -4   2  -4-26.0604 52.2203   3
   4  -2   4 86.8208 84.3710   4
  -4   2  -4 18.2107 58.9262   7
   4  -2   4 70.4423 63.8380   7
  -4   2  -4 49.4669 140.141   6
   4  -2   5 10477.3 451.585   7
  -4   2  -5 10034.4 444.712   7
  -4   2  -5 9616.17 545.013   6
  -4   2  -5 10737.2 468.937   1
  -4   2  -5 10249.8 430.543   3
   4  -2   5 9327.65 437.341   4
   4  -2   6 1719.39 178.865   4
   4  -2   6 1956.96 227.092   7
  -4   2  -6 1580.18 250.300   6
   4  -2   7 754.795 161.959   7
  -4   2  -7 739.180 203.615   6
   4  -2   8 3856.60 378.387   7
  -4   2  -8 3388.50 415.634   6
   4  -2   9 514.564 183.153   7
  -4   2  -9 799.587 233.126   6
  -4   2 -10 4497.59 528.802   6
   4  -2  10 3912.36 449.648   7
   4  -2  11-87.7474 193.786   7
  -4   2 -11 150.102 148.591   3
  -4   2 -11 311.591 254.429   6
   4  -2  12 265.652 140.493   7
  -4   2 -12 455.464 233.358   3
  -4   1  11 1787.32 363.501   7
  -4   1  10-323.479 245.463   7
  -4   1   9 11675.7 757.939   7
  -4   1   8 214.124 151.980   7
  -4   1   7 608.061 186.125   7
   4  -1  -7 831.437 133.995   4
  -4   1   6 6724.72 459.221   7
   4  -1  -5 17572.6 738.928   5
  -4   1   5 18392.1 698.705   7
   4  -1  -4 362.959 107.260   7
  -4   1   4 256.656 95.6300   7
   4  -1  -4 273.546 105.072   5
  -4   1   3 10258.7 476.576   5
   4  -1  -3 9821.83 470.362   5
  -4   1   3 10207.9 409.228   7
   4  -1  -3 9748.74 400.036   7
   4  -1  -2 22483.6 708.467   5
   4  -1  -2 23667.8 581.060   7
  -4   1   2 22832.1 577.026   7
  -4   1   2 23500.1 741.768   1
   4  -1  -1 10038.9 437.564   5
   4  -1  -1 9431.14 272.801   7
  -4   1   1 10045.5 279.891   7
  -4   1   1 10031.0 451.939   1
   4  -1   0 9463.94 434.367   5
  -4   1   0 8855.99 300.145   6
  -4   1   0 8737.30 420.298   1
   4  -1   1 20607.4 498.693   3
   4  -1   1 20669.6 557.331   6
  -4   1  -1 20293.2 581.155   6
  -4   1  -1 20935.3 680.463   1
   4  -1   1 20646.1 703.761   5
   4  -1   2 81652.6 1606.25   1
   4  -1   2 77438.8 1241.39   7
   4  -1   2 77880.3 1523.04   6
  -4   1  -2 79135.4 1567.78   6
  -4   1  -2 81816.3 1630.89   1
   4  -1   2 78679.8 1709.09   5
   4  -1   3 71631.4 1266.86   7
  -4   1  -3 70527.2 1342.81   3
  -4   1  -3 69336.2 1545.18   6
  -4   1  -4 1123.80 141.993   3
   4  -1   4 1060.50 133.091   7
  -4   1  -4 1098.67 187.747   6
   4  -1   5 1543.12 178.481   7
  -4   1  -5 1306.99 222.157   6
  -4   1  -6-101.713 103.603   3
   4  -1   6 153.709 104.890   7
   4  -1   6 34.3722 71.0585   4
  -4   1  -6 168.205 138.786   6
  -4   1  -7 635.389 172.485   3
   4  -1   7 291.309 122.655   7
  -4   1  -7 467.003 192.729   6
   4  -1   8 9040.99 579.551   7
  -4   1  -8 9606.12 701.255   6
  -4   1  -8 9958.45 614.032   3
  -4   1  -9-222.396 202.856   3
   4  -1   9 220.472 183.035   7
  -4   1  -9 81.3260 158.162   6
  -4   1 -10 109.813 196.454   3
   4  -1  10-464.915 251.948   7
  -4   1 -11 707.695 236.832   3
   4  -1  11 1004.72 273.535   7
  -4   0  11 531.483 229.839   7
  -4   0  10 2621.39 385.162   7
  -4   0   9 2858.60 382.072   7
  -4   0   8 1120.09 241.470   7
  -4   0   7 4256.92 388.773   7
   4   0  -7 4336.46 288.060   6
  -4   0   6-34.4861 106.382   7
   4   0  -6-18.5407 127.437   5
   4   0  -6 64.3678 86.0661   1
   4   0  -6 70.3779 57.5816   6
   4   0  -5 24863.9 896.973   5
  -4   0   5 25190.3 825.390   7
   4   0  -5 25067.3 566.441   6
   4   0  -4 2857.82 234.889   7
   4   0  -4 2648.12 276.925   5
  -4   0   4 2477.02 228.571   7
   4   0  -4 2154.70 204.112   1
   4   0  -4 2657.60 118.947   6
   4   0  -3 28943.8 868.787   5
   4   0  -3 27803.6 725.692   7
  -4   0   3 27188.3 737.070   7
   4   0  -3 27593.1 814.834   1
   4   0  -2 19.6893 75.1062   5
   4   0  -2 69.3276 46.2208   7
  -4   0   2 42.2539 47.9072   7
   4   0  -1 27494.0 814.674   5
   4   0  -1 27072.6 570.883   7
   4   0  -1 26729.8 557.892   6
   4   0   0 16294.3 616.319   5
   4   0   0 15856.8 372.907   7
   4   0   0 16420.8 467.561   6
   4   0   1 17934.8 636.842   1
   4   0   1 18208.5 551.294   3
   4   0   1 17932.3 562.159   6
   4   0   1 17634.9 672.458   5
   4   0   2 1115.91 172.819   5
   4   0   2 1259.76 146.421   3
   4   0   2 1004.88 108.680   7
   4   0   2 971.511 142.184   6
   4   0   2 1080.54 152.849   1
   4   0   3 89.6064 70.9729   7
   4   0   3 33.9868 62.6522   1
  -4   0  -3 11.9847 68.4813   3
  -4   0  -3 129.692 88.4277   6
   4   0   4 2576.39 233.053   1
   4   0   4 2822.18 230.774   7
  -4   0  -4 2355.53 279.043   6
  -4   0  -5 592.249 144.525   3
  -4   0  -5 342.815 135.330   6
  -4   0  -6-46.3317 133.969   3
   4   0   6 144.161 107.518   7
   4   0   7 55610.5 1513.42   7
  -4   0  -7 54380.2 1573.98   3
  -4   0  -8 1158.09 265.351   3
   4   0   8 1763.85 279.257   7
  -4   0  -9 189.771 177.913   3
   4   0   9-270.624 159.006   7
  -4   0 -10 394.666 221.144   3
   4   0  10 6.04594 166.292   7
  -4   0 -11 59.7428 225.263   3
   4   0  11-180.842 174.522   7
  -4  -1  12-90.5062 202.678   7
  -4  -1  11 289.519 165.664   7
  -4  -1  10 2028.59 359.043   7
   4   1 -10 1796.81 246.192   6
   4   1  -9-31.0363 90.8306   6
  -4  -1   9 196.615 157.062   7
  -4  -1   8 1904.98 298.465   7
   4   1  -8 1749.42 208.526   6
  -4  -1   7 8772.09 559.785   7
   4   1  -7 9926.77 421.306   6
   4   1  -6 18259.8 819.531   5
  -4  -1   6 17502.0 748.341   7
   4   1  -6 18652.0 540.761   6
   4   1  -5 941.155 209.557   5
  -4  -1   5 587.362 140.139   7
   4   1  -5 846.280 91.9395   6
   4   1  -4 25822.4 882.345   5
   4   1  -4 24622.9 757.142   7
  -4  -1   4 24961.5 793.716   7
   4   1  -3 117767. 2259.93   5
   4   1  -3 116261. 2057.60   7
  -4  -1   3 113295. 2090.46   7
   4   1  -2 7884.55 430.944   5
   4   1  -2 8406.97 349.196   7
   4   1  -1 4990.18 341.680   5
   4   1  -1 4949.36 252.939   7
   4   1   0 7335.24 419.946   5
   4   1   0 7181.89 346.822   6
   4   1   1 72430.6 1522.04   3
   4   1   1 74213.6 1532.39   6
   4   1   1 71925.0 1660.37   5
   4   1   2 2951.08 297.041   5
   4   1   2 3116.05 262.421   3
   4   1   3 4849.89 301.907   7
   4   1   3 4810.23 402.989   5
   4   1   4 85.6547 104.406   7
  -4  -1  -4-35.5462 93.3548   3
   4   1   5 15878.6 670.732   7
  -4  -1  -5 15408.2 729.649   3
   4   1   6 901.861 182.190   7
  -4  -1  -6 750.421 217.508   3
   4   1   7 6139.83 483.586   7
  -4  -1  -7 6035.38 515.012   3
  -4  -1  -8-34.8641 154.858   3
   4   1   8-138.097 159.547   7
  -4  -1  -9-99.3404 170.117   3
   4   1   9 101.564 163.575   7
  -4  -1 -10 317.912 198.942   3
   4   1  10 423.890 207.338   7
  -4  -2  12 974.747 343.659   7
  -4  -2  11 323.204 215.837   7
  -4  -2  10 1565.59 330.701   7
   4   2 -10 1548.79 242.259   6
  -4  -2   9-136.925 202.383   7
   4   2  -9-74.1400 94.6384   6
  -4  -2   8 24407.6 1045.14   7
   4   2  -8 24335.0 785.138   6
   4   2  -7 30811.9 1148.52   5
  -4  -2   7 29937.7 1098.84   7
   4   2  -7 28252.3 785.565   6
   4   2  -6 30943.9 1102.68   5
  -4  -2   6 29808.2 1041.62   7
   4   2  -5 805.989 196.564   5
  -4  -2   5 516.870 157.298   7
   4   2  -4 11970.2 588.995   5
   4   2  -3 73411.7 1655.52   5
   4   2  -3 70963.3 1507.03   7
   4   2  -2 5920.37 384.309   5
   4   2  -2 5430.41 315.717   7
   4   2  -1 234.065 102.090   5
   4   2   0 22705.7 825.669   5
   4   2   1 11831.4 590.572   5
   4   2   2 10739.5 588.732   5
   4   2   3 73.7369 97.0580   5
   4   2   3-149.573 110.997   7
   4   2   4 487.012 145.899   7
  -4  -2  -4 44.6218 114.805   3
   4   2   4 563.875 193.651   5
   4   2   5 2293.43 289.157   7
  -4  -2  -5 2350.15 319.816   3
   4   2   6 3401.62 349.271   7
  -4  -2  -6 2822.69 374.676   3
   4   2   7 485.778 151.245   7
  -4  -2  -7 276.473 172.733   3
   4   2   8 920.870 251.013   7
  -4  -2  -8 513.918 220.820   3
   4   2   9 0.93672 148.301   7
  -4  -2  -9 7.88958 194.455   3
   4   2  10 487.612 238.854   7
  -4  -3  12 601.043 212.499   7
  -4  -3  11 379.921 232.488   7
  -4  -3  10 2766.32 408.502   7
   4   3 -10 3342.61 326.407   6
   4   3 -10 3456.29 333.576   4
  -4  -3   9 1136.74 265.331   7
   4   3  -9 996.083 180.667   6
   4   3  -9 971.670 202.539   4
  -4  -3   8 1583.47 286.662   7
   4   3  -8 1691.27 217.196   6
   4   3  -7 3001.15 371.870   5
  -4  -3   7 2428.45 340.957   7
   4   3  -6 22611.7 939.971   5
  -4  -3   6 23806.8 958.772   7
   4   3  -5 200.360 154.699   5
   4   3  -4 1822.10 249.145   5
   4   3  -3 5324.93 392.640   5
   4   3  -2 4545.08 353.589   5
   4   3  -1 2402.36 260.580   5
   4   3   0 317.636 126.326   5
   4   3   1 4596.69 379.502   5
   4   3   2 5530.66 431.513   5
   4   3   3 144.255 110.990   5
   4   3   4 1965.08 303.841   5
   4   3   4 1710.75 241.912   7
   4   3   5-72.8135 164.675   5
   4   3   5-144.278 160.107   7
   4   3   5-72.4058 90.4968   4
   4   3   6 1452.18 255.289   7
  -4  -3  -6 1478.86 291.660   3
   4   3   7-114.236 123.961   7
  -4  -3  -7 9.41443 168.003   3
   4   3   8 391.548 182.904   7
  -4  -3  -8 391.492 222.948   3
   4   3   9 225.115 186.963   7
  -4  -4  12 732.518 285.514   7
  -4  -4  11 552.229 245.383   7
  -4  -4  10 159.684 159.035   7
   4   4 -10 45.8400 95.6079   6
   4   4 -10 201.426 145.533   4
  -4  -4   9 1011.67 275.024   7
   4   4  -9 847.364 169.454   6
   4   4  -9 608.354 182.680   4
  -4  -4   8 13694.4 827.472   7
   4   4  -8 12295.2 691.556   4
   4   4  -7 3429.08 383.058   5
   4   4  -6 3223.97 368.411   5
   4   4  -5 1358.72 253.287   5
   4   4  -4 1635.33 255.648   5
   4   4  -3 1029.70 207.922   5
   4   4  -2 368.740 144.405   5
   4   4  -1 22520.3 867.203   5
   4   4   0 49.7574 101.670   5
   4   4   1 3355.69 339.499   5
   4   4   2 93.4986 107.263   5
   4   4   3 295.606 141.592   5
   4   4   3 92.1141 120.121   4
   4   4   4-54.0536 142.530   5
   4   4   4-11.5330 119.640   7
   4   4   4 50.0797 110.111   4
   4   4   5 1077.08 254.606   5
   4   4   5 736.917 188.187   7
   4   4   5 945.507 204.228   4
   4   4   6-237.179 173.203   5
   4   4   6 51.7488 164.537   7
   4   4   7 281.390 203.554   5
   4   4   7 744.696 255.784   7
   4   4   8 740.697 262.215   5
   4   4   8 548.360 231.039   7
  -4  -5  11 416.197 212.661   7
   4   5 -10-77.4900 108.967   6
   4   5 -10-87.2344 162.285   4
   4   5  -9 270.584 167.472   4
   4   5  -8 3250.78 389.774   4
   4   5  -7 4884.13 476.149   5
   4   5  -7 3952.42 422.511   4
   4   5  -6 90.7736 148.572   5
   4   5  -6-4.92284 126.636   4
   4   5  -5 900.700 220.910   5
   4   5  -4 4821.80 411.733   5
   4   5  -3 17163.0 767.857   5
   4   5  -2 71279.5 1756.07   5
   4   5  -1 25082.9 939.852   5
   4   5   0 1220.32 221.705   5
   4   5   1 1228.96 221.040   5
   4   5   1 753.504 190.557   4
   4   5   2 849.768 211.009   5
   4   5   2 864.230 213.703   4
   4   5   3-50.7822 139.263   5
   4   5   3 79.2824 112.343   4
   4   5   4 642.680 195.884   7
   4   5   4 432.587 182.400   5
   4   5   4 178.039 131.669   4
   4   5   5 1132.09 263.939   5
   4   5   5 1031.04 252.968   7
   4   5   6-142.721 185.389   5
   4   5   6-13.9495 170.799   7
   4   5   7 70.9024 160.907   7
   4   6 -10 2451.63 370.317   4
   4   6  -9 16.3609 142.558   4
   4   6  -8 1580.16 299.053   4
   4   6  -7 1167.79 258.046   5
   4   6  -7 1343.25 301.918   4
   4   6  -6 3086.89 376.691   5
   4   6  -6 2617.05 374.950   4
   4   6  -5 464.559 183.187   5
   4   6  -5 397.869 195.725   4
   4   6  -4 6588.09 494.816   5
   4   6  -4 7424.04 595.268   4
   4   6  -3 4547.18 410.863   5
   4   6  -3 5235.09 513.206   4
   4   6  -2 162.237 141.715   5
   4   6  -2 141.470 131.391   4
   4   6  -1 3005.11 334.554   5
   4   6  -1 3148.24 398.809   4
   4   6   0-12.4377 93.8577   5
   4   6   0-29.0608 164.301   4
   4   6   1 358.097 154.923   5
   4   6   1 310.118 153.647   4
   4   6   2 353.625 159.985   5
   4   6   2 249.910 170.002   4
   4   6   3 331.050 142.658   5
   4   6   3 236.778 127.035   4
   4   6   4 30.6011 145.020   7
   4   6   5 308.857 189.952   7
   4   7 -10 661.969 232.461   4
   4   7  -9 754.346 244.061   4
   4   7  -8-199.354 210.627   4
   4   7  -7 2877.28 393.705   5
   4   7  -7 2502.50 398.333   4
   4   7  -6 7754.04 590.302   5
   4   7  -6 9142.11 709.759   4
   4   7  -5 36.3351 158.402   5
   4   7  -5 49.5408 182.631   4
   4   7  -4 2016.60 293.356   5
   4   7  -4 2278.38 370.333   4
   4   7  -3 217.204 168.526   5
   4   7  -3 91.8661 158.052   4
   4   7  -2 413.152 152.027   5
   4   7  -2 72.0763 134.642   4
   4   7  -1-132.512 109.685   5
   4   7  -1 98.3430 133.726   4
   4   7   0 38.2409 101.257   5
   4   7   0-215.496 205.489   4
   4   7   1 75.5281 142.776   4
   4   7   2-47.5846 142.352   4
   4   7   3 679.734 218.981   4
   4   7   4-115.881 226.405   7
   4   8 -11-408.150 277.527   4
   4   8 -10 29.1522 215.350   4
   4   8  -9-9.37248 178.709   4
   4   8  -8 464.245 230.450   4
   4   8  -7-2.52163 187.298   4
   4   8  -7 115.778 181.733   5
   4   8  -6 998.712 235.713   5
   4   8  -6 780.058 252.455   4
   4   8  -5 918.368 247.158   5
   4   8  -5 1040.65 301.708   4
   4   8  -4 692.192 282.005   4
   4   8  -3 2130.54 388.970   4
   4   8  -2 196.921 181.636   4
   4   8  -1 2987.42 444.418   4
   4   8   0 1648.78 330.760   4
   4   8   1 362.123 212.792   4
   4   8   2-281.416 228.987   4
   4   9  -5 815.479 293.031   4
   4   9  -4 421.565 210.894   4
  -5  11   2 7.16964 171.384   4
  -5  11   1 118.698 191.227   4
  -5  11   0 2434.33 409.483   4
  -5  11  -1 588.160 227.343   4
  -5  11  -2-227.502 203.243   4
  -5  11  -3 90.7544 182.184   4
  -5  11  -4 1813.98 351.639   4
  -5  11  -5-22.0316 163.742   4
  -5  11  -6 376.264 199.391   4
  -5  11  -7 817.440 279.289   4
  -5  11  -8 616.369 250.264   4
  -5  11  -9 193.421 201.496   4
  -5  11 -10 16.9961 186.930   4
  -5  10   3 3111.50 474.467   7
  -5  10   3 2164.06 349.494   4
  -5  10   2 1008.27 261.073   4
  -5  10   1 435.054 203.319   4
  -5  10   0 157.321 163.457   4
  -5  10  -1 999.130 266.421   4
  -5  10  -2 6297.48 589.894   4
  -5  10  -3 2901.23 406.988   4
  -5  10  -4 1875.37 343.155   4
  -5  10  -5 1639.17 328.700   4
  -5  10  -6 304.281 214.684   4
  -5  10  -7 731.799 236.931   4
  -5  10  -8 203.519 178.738   4
  -5  10  -9 660.419 245.459   4
  -5  10 -10 368.808 196.766   4
  -5   9   5 1958.40 370.822   7
   5  -9  -5 979.016 262.455   3
  -5   9   4-199.032 240.430   7
   5  -9  -4 141.285 181.005   3
  -5   9   3 1165.98 283.639   7
  -5   9   3 1092.34 223.188   4
   5  -9  -3 917.327 240.135   3
  -5   9   2 45.5364 143.904   4
  -5   9   1 980.962 256.853   4
   5  -9   0 149.577 170.024   2
  -5   9   0 204.941 156.540   4
  -5   9  -1 1382.86 275.058   4
   5  -9   1 1885.78 327.689   2
  -5   9  -2-193.202 197.608   4
   5  -9   2 257.953 140.227   2
   5  -9   3 2097.11 333.096   2
  -5   9  -3 1931.02 335.579   4
   5  -9   4 930.982 229.509   2
  -5   9  -4 1244.14 263.850   4
  -5   9  -5 1252.81 278.386   4
   5  -9   5 1142.57 257.597   2
  -5   9  -6 768.991 223.420   4
  -5   9  -7-538.373 206.578   4
  -5   9  -8 2957.00 399.813   4
  -5   9  -9 638.608 218.489   4
  -5   9 -10 3520.28 499.678   6
   5  -8  -6 419.479 222.444   3
  -5   8   6 855.156 279.876   7
   5  -8  -5 305.674 204.911   3
  -5   8   5-33.9349 171.359   7
  -5   8   4 393.830 212.521   7
   5  -8  -4 202.275 146.434   3
  -5   8   3 90.7875 132.248   4
  -5   8   3 444.413 212.229   7
   5  -8  -3 203.564 118.893   3
   5  -8  -2 1143.25 254.835   2
  -5   8   2 1690.22 277.922   4
   5  -8  -2 1052.58 209.764   3
  -5   8   1 183.355 176.714   4
   5  -8  -1 0.24435 122.026   2
  -5   8   0 163.431 167.145   4
   5  -8   0-87.6594 158.344   2
   5  -8   1 6084.87 507.482   2
  -5   8  -1 6053.76 506.644   4
  -5   8  -2 269.311 155.481   4
   5  -8   2 374.035 162.234   2
   5  -8   3 4817.33 225.980   5
  -5   8  -3 4456.97 441.419   4
   5  -8   3 4484.04 432.630   2
   5  -8   4 197.830 77.5074   5
  -5   8  -4 391.822 174.314   4
   5  -8   4 119.290 136.025   2
  -5   8  -5 99.9786 145.638   4
   5  -8   5 160.078 166.280   2
  -5   8  -6 90.8982 141.521   4
   5  -8   6 288.772 175.380   2
  -5   8  -7-17.5669 124.170   4
   5  -8   7-112.428 152.380   2
  -5   8  -8 791.816 225.872   4
  -5   8  -9 9322.06 724.289   6
  -5   8 -10 2594.40 414.588   6
   5  -7  -7-25.6233 200.280   3
  -5   7   7 186.995 191.999   7
   5  -7  -6 196.810 197.392   3
  -5   7   6 140.944 164.646   7
   5  -7  -5 2839.61 382.811   3
  -5   7   5 3432.68 432.582   7
   5  -7  -4 3883.93 414.473   3
   5  -7  -4 3397.52 364.319   2
  -5   7   4 3820.80 433.614   7
   5  -7  -3-47.9588 122.404   3
  -5   7   3 110.656 141.776   7
   5  -7  -3 93.7355 128.660   2
  -5   7   2 1192.85 214.164   4
   5  -7  -2 1087.01 218.946   2
   5  -7  -2 1189.32 215.299   3
  -5   7   1 2104.19 277.243   4
   5  -7  -1 1598.05 256.594   2
   5  -7  -1 1333.57 202.845   3
   5  -7   0 11986.2 672.522   2
  -5   7   0 13087.8 702.345   4
   5  -7   1 3871.05 175.821   5
  -5   7  -1 3707.27 375.852   4
   5  -7   1 3818.04 382.880   2
   5  -7   2 549.124 87.2166   5
  -5   7  -2 216.302 133.945   4
   5  -7   2 531.026 175.723   2
   5  -7   3 21508.4 913.460   2
  -5   7  -3 22418.1 934.410   4
   5  -7   3 22386.3 660.157   5
   5  -7   4 6424.10 489.567   2
  -5   7  -4 6310.68 283.198   3
  -5   7  -4 6059.41 483.434   4
   5  -7   4 6159.66 371.269   5
  -5   7  -5 86.2104 153.314   4
   5  -7   5 21.9085 137.129   2
  -5   7  -5-33.1378 63.2881   3
   5  -7   6 4513.23 417.089   2
  -5   7  -6 4623.34 421.164   4
   5  -7   7 2567.47 318.852   2
   5  -7   8 257.255 173.567   2
  -5   7  -8 168.750 142.382   6
  -5   7  -9 754.928 240.388   6
  -5   7 -10-106.276 182.776   6
  -5   7 -11-259.880 218.764   6
   5  -6  -8-162.511 184.860   3
  -5   6   8-153.167 195.954   7
   5  -6  -7 271.451 190.961   3
  -5   6   7 213.173 182.692   7
  -5   6   6 122.137 150.581   7
   5  -6  -6 453.180 155.232   2
   5  -6  -5 3907.26 413.598   3
   5  -6  -5 3877.18 361.589   2
  -5   6   5 3763.53 420.080   7
   5  -6  -4 17042.7 773.942   2
  -5   6   4 17845.4 857.373   7
   5  -6  -4 17774.9 834.072   3
   5  -6  -3 3333.61 341.587   3
  -5   6   3 3622.24 371.983   7
   5  -6  -3 3580.20 342.511   2
   5  -6  -2 118.885 85.3830   3
  -5   6   2-38.6602 61.5027   5
   5  -6  -2-55.1828 112.736   2
   5  -6  -1 38151.4 847.036   5
   5  -6  -1 37728.5 1184.88   2
   5  -6  -1 39247.7 1052.99   3
  -5   6   1 37186.3 1185.94   4
  -5   6   1 37169.0 860.309   5
   5  -6   0 846.733 178.711   2
   5  -6   0 963.388 115.565   5
   5  -6   0 1054.51 147.025   3
   5  -6   1 377.148 145.318   2
   5  -6   1 250.305 70.6305   5
   5  -6   2 13676.2 667.327   2
  -5   6  -2 13229.2 666.164   4
   5  -6   2 13945.6 495.833   5
   5  -6   3-51.3978 130.005   2
   5  -6   3-55.4081 87.4503   5
  -5   6  -3 268.666 146.335   4
   5  -6   4 117.240 139.414   2
  -5   6  -4 197.778 43.1764   3
  -5   6  -4 249.724 148.122   4
   5  -6   5 2737.06 308.061   2
   5  -6   6 1027.89 199.863   2
  -5   6  -7 690.038 198.254   6
   5  -6   7 588.451 138.279   2
   5  -6   8 481.784 155.108   2
  -5   6  -8 940.935 251.309   6
   5  -6   9 946.623 195.922   2
  -5   6  -9 935.107 263.525   6
   5  -6  10-9.24612 139.838   7
  -5   6 -10 53.5497 158.047   6
   5  -6  11-116.139 166.036   7
  -5   6 -11-36.6220 170.182   6
  -5   5   9 317.860 207.376   7
  -5   5   8-265.773 169.109   7
  -5   5   7 2539.80 364.349   7
  -5   5   6 1644.20 227.920   1
  -5   5   6 1754.57 303.049   7
   5  -5  -6 1638.39 226.785   2
  -5   5   5 22310.9 956.951   7
   5  -5  -5 21675.1 824.272   2
   5  -5  -4 2083.06 252.340   2
  -5   5   4 2015.18 275.935   7
  -5   5   3 2530.85 230.235   5
   5  -5  -3 2513.61 264.033   2
  -5   5   3 2684.29 297.062   7
  -5   5   2 1126.03 145.176   5
  -5   5   2 1224.41 189.084   7
   5  -5  -2 1352.18 170.270   5
   5  -5  -1 60.4141 69.8372   3
  -5   5   1 284.932 93.5760   5
   5  -5  -1 165.764 73.4849   5
   5  -5   0 3859.50 245.407   5
   5  -5   0 4027.38 236.306   3
   5  -5   1 11609.5 454.319   5
   5  -5   2 2127.94 201.729   5
   5  -5   3 2957.38 265.584   5
  -5   5  -3 3412.17 252.664   7
  -5   5  -4 26.0867 69.0731   7
  -5   5  -5 125.609 119.005   6
   5  -5   6 187.577 102.967   2
  -5   5  -6 312.253 169.302   6
   5  -5   7 4380.04 360.361   2
  -5   5  -7 4706.19 440.420   6
  -5   5  -8 217.948 137.015   1
   5  -5   8-38.2309 103.383   7
  -5   5  -8 5.48288 128.581   6
   5  -5   8 94.9074 83.3935   2
  -5   5  -9 529.049 149.203   1
   5  -5   9 626.585 204.374   7
  -5   5  -9 408.428 207.970   6
   5  -5  10 303.266 178.898   7
  -5   5 -10-43.2452 177.459   6
  -5   5 -11 790.713 293.949   6
  -5   4   9 513.932 229.952   7
  -5   4   8-165.513 192.052   7
  -5   4   7 5011.61 481.320   7
   5  -4  -6 236.242 106.808   2
  -5   4   6 297.884 167.102   7
  -5   4   6 186.796 91.2612   1
  -5   4   5 18706.2 711.761   1
  -5   4   5 17760.3 779.057   7
  -5   4   4 424.022 153.403   1
  -5   4   4 676.082 127.190   6
  -5   4   4 733.425 175.952   7
  -5   4   3 13904.2 573.365   5
   5  -4  -3 14400.2 582.519   5
  -5   4   3 14160.9 607.634   7
  -5   4   2 265.709 79.9886   5
  -5   4   2 212.797 92.5552   7
   5  -4  -2 287.568 103.397   5
  -5   4   1 1651.01 184.997   5
   5  -4  -1 1779.42 182.708   5
  -5   4   0 1223.32 162.528   5
   5  -4   0 1385.99 114.882   3
   5  -4   0 1582.73 173.609   5
   5  -4   1 59019.2 1309.31   5
  -5   4  -2 25455.6 622.374   7
   5  -4   2 26001.8 810.107   5
   5  -4   3 83.2442 95.6562   5
  -5   4  -3 68.3361 55.7125   7
  -5   4  -4 1202.96 141.550   7
  -5   4  -4 1362.22 194.592   6
  -5   4  -5 29.6112 48.8923   3
  -5   4  -5-45.7684 95.7749   1
  -5   4  -5 50.1714 77.1830   7
  -5   4  -5 32.1029 119.893   6
   5  -4   6 5390.04 377.890   7
  -5   4  -6 6807.85 481.192   6
  -5   4  -6 6028.66 409.690   1
  -5   4  -7 206.491 111.319   1
   5  -4   7 41.4091 115.995   7
  -5   4  -7 36.9866 113.924   6
   5  -4   8 1179.61 175.656   2
  -5   4  -8 1063.33 170.388   1
   5  -4   8 825.292 197.656   7
  -5   4  -8 1105.14 235.585   6
   5  -4   9 464.747 198.435   7
  -5   4  -9 161.400 190.814   6
   5  -4  10 133.350 138.112   7
  -5   4 -10-9.70510 202.423   6
  -5   4 -11 461.505 211.462   6
  -5   3  10 1893.17 371.951   7
  -5   3   9 577.152 198.139   7
  -5   3   8-82.8251 179.145   7
  -5   3   7 5433.00 473.361   7
  -5   3   6 45.8952 127.993   7
  -5   3   6 92.0268 101.030   1
  -5   3   5 8705.29 517.386   7
  -5   3   5 9138.92 482.502   1
  -5   3   5 8211.81 357.588   6
  -5   3   4 48.9735 91.1619   7
  -5   3   4 138.054 104.476   1
   5  -3  -4 151.212 133.662   5
  -5   3   4 113.453 54.0432   6
   5  -3  -3 5371.86 361.308   5
  -5   3   3 5035.25 332.133   7
  -5   3   3 4983.50 354.597   1
  -5   3   2 4942.62 335.653   5
   5  -3  -2 5711.99 344.906   5
  -5   3   2 5423.88 302.437   7
  -5   3   2 5458.48 368.627   1
   5  -3  -1 2558.40 237.767   5
  -5   3   1 2395.55 251.332   1
  -5   3   1 2042.49 210.055   5
  -5   3   1 1960.62 156.093   7
   5  -3   0 217455. 3560.67   5
  -5   3   0 215009. 3174.71   7
  -5   3   0 219398. 3680.65   1
  -5   3   0 214890. 3596.61   5
  -5   3  -1 230198. 3834.01   1
  -5   3  -1 225350. 3241.17   7
  -5   3  -1 225324. 3519.21   6
   5  -3   1 227691. 3748.44   5
  -5   3  -2 58031.7 949.987   7
  -5   3  -2 60444.1 1430.08   1
  -5   3  -2 60088.5 1280.22   6
   5  -3   2 61112.2 1426.08   5
   5  -3   3 72.7733 94.1817   5
  -5   3  -3 215.127 113.733   1
  -5   3  -3 161.631 51.7878   7
  -5   3  -3 43.8813 76.8859   6
  -5   3  -4 6149.93 279.318   7
   5  -3   4 5448.20 281.906   7
  -5   3  -4 5978.95 392.784   1
  -5   3  -4 6055.41 231.995   3
  -5   3  -4 6502.34 417.173   6
  -5   3  -5 6158.04 407.227   1
  -5   3  -5 6696.80 342.585   7
   5  -3   5 6491.79 350.683   7
  -5   3  -5 6585.34 452.775   6
  -5   3  -5 6804.76 307.427   3
  -5   3  -6 79.6648 65.8652   3
  -5   3  -6 118.494 83.3971   1
   5  -3   6 136.053 93.3933   7
  -5   3  -6 304.169 157.948   6
   5  -3   7 536.431 154.816   7
  -5   3  -7 509.106 192.896   6
  -5   3  -7 656.704 153.401   1
  -5   3  -8 1090.43 187.084   3
   5  -3   8 904.322 188.730   7
  -5   3  -8 1146.36 247.734   6
  -5   3  -9 86.7891 116.716   3
   5  -3   9 159.285 122.272   7
  -5   3  -9 426.983 213.918   6
  -5   3 -10 818.404 235.886   3
   5  -3  10 893.986 227.967   7
  -5   3 -10 985.891 273.789   6
  -5   2  10 1679.48 331.026   7
  -5   2   9 11438.9 765.332   7
  -5   2   8 381.424 180.293   7
  -5   2   7 14911.8 767.706   7
  -5   2   6 2931.15 318.982   7
  -5   2   5 273.152 144.012   7
   5  -2  -5 174.133 131.926   5
  -5   2   5 155.457 52.0861   6
   5  -2  -4 17291.0 709.624   5
  -5   2   4 18168.9 658.213   7
  -5   2   4 16472.8 354.388   6
  -5   2   4 16810.3 672.922   1
   5  -2  -3 12590.8 567.447   5
  -5   2   3 12179.6 479.675   7
  -5   2   3 12866.8 569.684   1
  -5   2   2 589.255 136.319   1
  -5   2   2 962.062 116.013   7
   5  -2  -2 842.203 159.048   5
   5  -2  -1 22567.7 742.847   5
  -5   2   1 22290.0 500.497   7
  -5   2   1 23296.8 786.346   1
  -5   2   1 21788.1 464.245   6
  -5   2   1 23712.6 784.813   5
   5  -2   0 44882.8 1156.03   5
  -5   2   0 44274.9 1169.84   1
  -5   2   0 43585.4 884.464   6
  -5   2   0 46386.2 1187.37   5
  -5   2  -1 6384.09 394.720   1
   5  -2   1 6747.14 224.428   3
  -5   2  -1 6615.01 316.191   6
   5  -2   1 7366.75 425.686   5
  -5   2  -2 3361.07 289.606   1
  -5   2  -2 3175.42 246.530   6
   5  -2   2 3931.41 324.873   5
   5  -2   3 12048.9 341.006   7
  -5   2  -3 12151.8 543.537   6
  -5   2  -3 11612.8 553.616   1
   5  -2   3 12606.4 634.280   5
  -5   2  -4 2230.07 245.094   1
   5  -2   4 1981.18 160.819   7
  -5   2  -4 2043.18 170.205   3
  -5   2  -4 1558.95 220.760   6
   5  -2   5 715.911 126.128   7
  -5   2  -5 579.402 162.303   6
  -5   2  -5 761.243 127.520   3
   5  -2   6 2124.84 231.273   7
  -5   2  -6 2367.88 312.940   6
  -5   2  -7 635.851 147.330   3
   5  -2   7 810.316 168.218   7
  -5   2  -7 807.607 221.770   6
  -5   2  -8 857.386 196.704   3
   5  -2   8 561.972 162.089   7
  -5   2  -8 655.996 230.220   6
  -5   2  -9 208.550 155.692   3
   5  -2   9 224.288 153.102   7
  -5   2  -9 323.987 194.996   6
  -5   2 -10 16.5034 155.418   3
   5  -2  10-248.970 208.307   7
  -5   2 -10 88.0203 195.917   6
  -5   1  11 3390.65 498.746   7
  -5   1  10 904.652 251.894   7
  -5   1   9-109.259 168.127   7
  -5   1   8 4656.38 458.426   7
  -5   1   7 7422.19 527.686   7
   5  -1  -6 14916.4 747.063   5
  -5   1   6 14290.8 683.028   7
   5  -1  -5 105.397 161.506   5
  -5   1   5 206.572 115.449   7
   5  -1  -4 17817.7 735.637   5
   5  -1  -4 17752.8 638.494   7
  -5   1   4 18018.5 651.952   7
   5  -1  -3 43661.3 1177.47   5
   5  -1  -3 42915.4 990.129   7
  -5   1   3 42921.6 992.965   7
   5  -1  -2 5904.45 377.859   5
   5  -1  -2 5002.70 242.974   7
  -5   1   2 5303.75 252.940   7
   5  -1  -1-39.7223 88.2476   5
   5  -1  -1 25.6585 28.7712   7
  -5   1   1 87.5210 37.4305   7
   5  -1   0 10942.5 530.817   5
  -5   1   0 10144.0 373.338   6
   5  -1   1 47727.3 980.330   3
   5  -1   1 48143.8 1042.33   6
  -5   1  -1 47924.4 1088.10   6
   5  -1   1 49144.8 1284.15   5
   5  -1   2 7029.96 201.516   7
  -5   1  -2 7434.37 402.781   6
   5  -1   2 7070.12 312.638   3
   5  -1   2 7489.91 471.748   5
   5  -1   3 658.693 157.806   5
   5  -1   3 649.979 87.2242   7
  -5   1  -3 645.290 139.061   6
   5  -1   4 14.7736 56.3693   7
  -5   1  -4-12.1568 69.1245   3
  -5   1  -4-49.1099 106.419   6
   5  -1   5 3131.26 257.198   7
  -5   1  -5 3122.71 339.554   6
   5  -1   6 4243.56 328.917   7
  -5   1  -6 3828.38 406.772   6
  -5   1  -6 3446.11 317.189   3
   5  -1   7-102.337 122.923   7
  -5   1  -7 5.97250 129.371   6
  -5   1  -8 3944.44 398.445   3
   5  -1   8 3673.32 378.086   7
  -5   1  -8 4341.00 506.875   6
  -5   1  -9 3185.63 384.891   3
   5  -1   9 2862.11 369.712   7
  -5   1 -10 2002.65 334.896   3
  -5   0  11 221.834 178.690   7
  -5   0  10 526.973 235.431   7
  -5   0   9-60.6122 192.786   7
  -5   0   8 1399.98 268.651   7
  -5   0   7 1017.22 210.539   7
   5   0  -7 1711.71 301.404   5
  -5   0   6 4391.50 370.245   7
   5   0  -6 4019.96 388.629   5
   5   0  -5 8449.72 542.467   5
  -5   0   5 8077.50 453.646   7
   5   0  -4 117.567 133.120   5
   5   0  -4 162.760 79.4092   7
  -5   0   4 106.227 97.3082   7
   5   0  -3 9936.94 529.288   5
   5   0  -3 10551.0 416.387   7
  -5   0   3 10078.1 427.527   7
   5   0  -2 300.232 69.4300   7
   5   0  -2 219.615 115.316   5
   5   0  -2 294.410 41.6244   6
   5   0  -1 34253.0 1046.06   5
   5   0  -1 35979.6 720.695   7
   5   0  -1 36149.0 748.659   6
   5   0   0 2012.33 238.063   5
   5   0   0 2535.81 135.385   7
   5   0   0 2471.96 186.823   6
   5   0   1 46376.1 1071.91   3
   5   0   1 46007.5 1082.19   6
   5   0   1 45396.6 1283.18   5
   5   0   2 32216.8 709.343   7
   5   0   2 33100.2 889.068   3
   5   0   2 33361.1 1096.61   5
   5   0   3 9712.93 377.979   7
   5   0   3 9107.22 574.752   5
   5   0   4 32.2872 72.4031   7
   5   0   4 72.9209 122.379   5
   5   0   5 5073.41 346.612   7
  -5   0  -5 4435.68 371.310   3
   5   0   6 28068.0 939.743   7
  -5   0  -6 28209.3 1023.82   3
   5   0   7 588.737 156.664   7
  -5   0  -7 409.890 174.236   3
   5   0   8 936.544 203.964   7
  -5   0  -8 1080.10 249.714   3
   5   0   9-25.8813 139.181   7
  -5   0  -9 172.062 167.093   3
  -5   0 -10-231.980 200.407   3
  -5  -1  11 1802.07 357.582   7
  -5  -1  10 360.834 161.752   7
  -5  -1   9 2618.00 370.108   7
  -5  -1   8 34923.4 1274.05   7
   5   1  -8 33521.5 881.814   6
  -5  -1   7 5786.19 465.988   7
   5   1  -7 5930.84 511.135   5
   5   1  -7 5841.45 289.772   6
   5   1  -6 1471.12 270.577   5
  -5  -1   6 1400.55 230.362   7
   5   1  -6 1236.68 112.969   6
   5   1  -5 1328.41 256.109   5
  -5  -1   5 1466.84 213.116   7
   5   1  -5 1424.52 102.505   6
   5   1  -4 25047.5 924.249   5
   5   1  -4 24705.0 774.950   7
  -5  -1   4 24081.4 805.868   7
   5   1  -3 1444.05 219.117   5
   5   1  -3 1879.97 185.671   7
   5   1  -2 12610.5 607.853   5
   5   1  -2 11271.6 433.335   7
   5   1  -2 12658.0 412.044   6
   5   1  -1 30282.4 990.558   5
   5   1  -1 28356.2 720.789   7
   5   1  -1 30952.0 777.016   6
   5   1   0 100.621 127.130   5
   5   1   0 9.87979 66.9138   6
   5   1   1 2248.04 275.060   5
   5   1   2 41534.8 969.718   7
   5   1   2 43125.2 1317.94   5
   5   1   3 8887.55 418.706   7
   5   1   3 9005.98 592.629   5
   5   1   4 2549.39 334.705   5
   5   1   4 2429.58 244.346   7
   5   1   5 23671.5 844.638   7
   5   1   6 297.854 129.859   7
  -5  -1  -6 218.127 160.408   3
   5   1   7 254.415 148.564   7
  -5  -1  -7 506.030 177.485   3
   5   1   8 976.658 216.059   7
  -5  -1  -8 686.770 220.023   3
  -5  -1  -9-166.625 203.481   3
  -5  -1 -10 135.395 203.748   3
  -5  -2  11 510.527 262.402   7
  -5  -2  10 934.630 270.866   7
  -5  -2   9 4572.82 483.095   7
   5   2  -8 15112.0 865.404   5
  -5  -2   8 16316.6 853.330   7
   5   2  -8 15861.1 567.523   6
   5   2  -7 1746.09 297.475   5
  -5  -2   7 1903.45 282.322   7
   5   2  -7 1815.22 171.442   6
   5   2  -6-137.117 167.379   5
  -5  -2   6 85.0449 144.089   7
   5   2  -5 32769.6 1143.04   5
  -5  -2   5 31993.2 1066.04   7
   5   2  -4 1284.64 228.119   5
   5   2  -3 3196.49 324.846   5
   5   2  -3 2810.72 243.546   7
   5   2  -2 480.182 154.181   5
   5   2  -2 627.486 130.265   7
   5   2  -1 20713.8 827.186   5
   5   2  -1 20005.5 666.244   7
   5   2   0 3489.57 338.970   5
   5   2   1 186.428 114.674   5
   5   2   2 8572.36 572.635   5
   5   2   3 8617.03 472.200   7
   5   2   3 8336.86 588.824   5
   5   2   4 4858.69 481.476   5
   5   2   4 5238.15 389.438   7
   5   2   5 709.368 219.967   5
   5   2   5 628.923 174.910   7
   5   2   6 758.392 190.437   7
   5   2   6 666.614 232.977   5
   5   2   7 25.5969 105.779   7
  -5  -2  -7 78.1500 173.477   3
  -5  -2  -8 769.623 262.128   3
  -5  -2  -9-120.052 191.253   3
  -5  -3  11-99.3508 196.323   7
  -5  -3  10 261.603 216.371   7
   5   3 -10-35.9192 125.687   4
  -5  -3   9 738.300 234.608   7
   5   3  -8-28.3809 152.032   5
  -5  -3   8 142.094 168.924   7
   5   3  -8-62.0991 90.5423   6
   5   3  -7 1348.53 262.209   5
  -5  -3   7 1218.47 245.602   7
   5   3  -6 18711.3 898.240   5
   5   3  -5 3941.49 399.359   5
   5   3  -4 4727.70 419.683   5
   5   3  -3 1209.43 222.779   5
   5   3  -2 94.0352 100.782   5
   5   3  -1 22947.6 917.696   5
   5   3   0 15445.3 755.118   5
   5   3   1 3857.66 388.306   5
   5   3   2 148.497 127.287   5
   5   3   3 1825.99 295.295   5
   5   3   3 2005.01 250.736   7
   5   3   4 6136.67 466.443   7
   5   3   4 6667.53 565.991   5
   5   3   5 481.914 226.804   5
   5   3   5 990.195 223.772   7
   5   3   6 131.477 175.882   5
   5   3   6 196.955 171.195   7
   5   3   7 1132.28 291.270   5
  -5  -4  11 99.5838 182.151   7
  -5  -4  10-161.237 188.148   7
   5   4 -10-2.97456 152.870   4
  -5  -4   9 2245.44 394.271   7
   5   4  -9 1950.60 309.068   4
   5   4  -8 623.181 226.552   5
   5   4  -7 10676.8 721.213   5
   5   4  -6 799.156 243.526   5
   5   4  -5 359.356 159.077   5
   5   4  -4 4645.71 416.362   5
   5   4  -3 107.597 133.489   5
   5   4  -2 29305.7 1081.52   5
   5   4  -1 12102.0 671.570   5
   5   4   0 21132.9 939.351   5
   5   4   1 4583.76 442.221   5
   5   4   2 4580.12 457.935   5
   5   4   3 2401.87 341.061   5
   5   4   4 45.7012 122.750   5
   5   4   4-351.462 169.693   7
   5   4   4-102.999 123.938   4
   5   4   5 554.993 194.818   5
   5   4   5 282.739 136.375   7
   5   4   6 439.162 228.793   5
   5   4   6 37.3278 129.288   7
   5   4   7 785.630 269.683   5
   5   5 -10 2676.62 384.579   4
   5   5  -9 232.035 159.528   4
   5   5  -8 264.175 157.263   5
   5   5  -8-127.759 158.663   4
   5   5  -7 313.576 207.361   5
   5   5  -6 10890.9 709.531   5
   5   5  -5 4186.57 427.003   5
   5   5  -4 6108.34 504.603   5
   5   5  -3 23004.0 968.510   5
   5   5  -2 7262.02 538.103   5
   5   5  -1-74.9557 124.603   5
   5   5   0 4757.61 447.687   5
   5   5   1 1222.73 271.591   5
   5   5   2 638.010 203.521   5
   5   5   2 1265.66 270.125   4
   5   5   3 163.806 124.437   5
   5   5   3 3.99074 138.672   4
   5   5   4 34.2638 117.856   5
   5   5   4-191.357 142.680   7
   5   5   5 139.589 149.155   5
   5   5   5-136.452 133.790   7
   5   5   6-322.236 184.526   5
   5   6 -10 373.416 232.139   4
   5   6  -9 859.275 291.381   4
   5   6  -8 1688.85 330.347   5
   5   6  -8 1963.15 356.456   4
   5   6  -7-25.0270 154.124   5
   5   6  -7-8.94734 174.854   4
   5   6  -6 144.968 167.639   5
   5   6  -6 523.803 168.711   4
   5   6  -5 134.857 159.780   5
   5   6  -5 810.349 254.169   4
   5   6  -4 5232.09 481.290   5
   5   6  -4 5742.22 568.047   4
   5   6  -3 2203.29 311.791   5
   5   6  -3 1932.59 332.705   4
   5   6  -2 4064.84 414.515   5
   5   6  -2 4448.35 500.080   4
   5   6  -1 1186.29 256.761   5
   5   6  -1 774.100 239.452   4
   5   6   0 91.0993 137.414   5
   5   6   0 76.4758 131.228   4
   5   6   1 125.036 138.669   5
   5   6   1 403.368 211.690   4
   5   6   2 148.755 141.292   5
   5   6   2 156.915 146.038   4
   5   6   3-21.4757 161.226   5
   5   6   3 215.978 134.624   4
   5   6   4 371.817 212.336   7
   5   7 -10-139.684 222.745   4
   5   7  -9 673.064 262.531   4
   5   7  -8 327.690 156.138   5
   5   7  -8-146.375 257.439   4
   5   7  -7 1278.48 320.776   5
   5   7  -7 1119.14 297.317   4
   5   7  -6 1327.13 302.083   5
   5   7  -6 1000.36 293.461   4
   5   7  -5 33.7968 139.004   5
   5   7  -5 314.643 237.855   4
   5   7  -4 2521.58 343.367   5
   5   7  -4 2916.20 432.570   4
   5   7  -3 188.094 125.984   5
   5   7  -3 379.804 215.371   4
   5   7  -2 199.118 134.537   5
   5   7  -2 420.605 215.418   4
   5   7  -1 19.0161 113.997   5
   5   7  -1-126.438 161.822   4
   5   7   0-275.263 196.407   4
   5   7   1 855.293 265.874   4
   5   7   2 308.185 181.662   4
   5   8  -8 1313.12 306.669   5
   5   8  -8 1594.11 372.781   4
   5   8  -7-159.835 175.245   5
   5   8  -7 70.4003 189.432   4
   5   8  -6 2652.67 456.556   4
   5   8  -5 3550.99 510.131   4
   5   8  -4 269.863 189.090   4
   5   8  -3 462.957 247.302   4
   5   8  -2 357.685 203.767   4
   5   8  -1-353.645 249.972   4
  -6  11   2 611.942 254.287   4
  -6  11   1 628.874 252.732   4
  -6  11   0 372.249 209.798   4
  -6  11  -1 427.169 237.245   4
  -6  11  -2 1774.44 340.267   4
  -6  11  -3 3209.64 471.269   4
  -6  11  -4 4483.23 540.315   4
  -6  11  -5 814.251 267.356   4
  -6  11  -6-8.74501 196.128   4
  -6  11  -7 523.051 250.788   4
  -6  11  -8 1189.44 307.925   4
  -6  11  -9-338.965 241.639   4
   6 -10  -4 159.190 173.227   3
  -6  10   3 260.693 198.343   7
  -6  10   2 486.157 193.267   4
  -6  10   1 800.690 257.522   4
  -6  10   0 460.155 220.136   4
   6 -10   1 356.789 172.537   2
  -6  10  -1 238.855 206.936   4
   6 -10   2 2177.77 362.019   2
  -6  10  -2 2750.71 419.963   4
  -6  10  -3 1896.92 353.547   4
   6 -10   3 2161.37 365.595   2
   6 -10   4-64.7399 129.876   2
  -6  10  -4 3.87198 221.100   4
   6 -10   5 1120.78 280.459   2
  -6  10  -5 1384.44 307.896   4
   6 -10   6 19.2920 156.422   2
  -6  10  -6-6.49758 187.139   4
  -6  10  -7 183.756 187.184   4
  -6  10  -8 272.640 200.516   4
  -6   9   5 26.3330 216.362   7
   6  -9  -5 474.100 227.895   3
  -6   9   4 1887.09 341.893   7
   6  -9  -4 2300.35 373.948   3
  -6   9   3 660.380 249.033   7
   6  -9  -3 546.416 205.820   3
   6  -9  -2 181.170 157.411   2
   6  -9  -2 35.6055 108.493   3
   6  -9  -1 688.477 237.387   2
  -6   9   1 637.012 215.998   4
  -6   9   0 472.657 178.431   4
   6  -9   0 714.622 211.312   2
  -6   9  -1 987.150 235.216   4
   6  -9   1 957.699 254.623   2
  -6   9  -2 2720.05 384.472   4
   6  -9   2 2071.77 331.720   2
   6  -9   3 7753.02 628.299   2
  -6   9  -3 8419.04 653.673   4
  -6   9  -4 761.431 239.038   4
   6  -9   4 269.506 187.457   2
  -6   9  -5 204.174 187.694   4
   6  -9   5-136.866 188.482   2
  -6   9  -6 128.666 130.097   4
   6  -9   6 242.490 154.305   2
   6  -9   7 486.422 185.205   2
   6  -9   8 176.356 154.707   2
  -6   9  -9 19.0675 168.658   6
   6  -8  -6 1523.13 333.559   3
  -6   8   6 1005.28 294.445   7
   6  -8  -5 746.742 220.360   3
  -6   8   5 513.877 218.248   7
   6  -8  -4-29.9522 132.912   3
  -6   8   4 122.282 164.007   7
  -6   8   3 285.150 167.549   7
   6  -8  -3 140.675 174.977   2
   6  -8  -3 216.456 147.359   3
   6  -8  -2 1.03090 137.727   2
   6  -8  -2 42.9652 97.0195   3
   6  -8  -1 2969.33 308.882   3
   6  -8  -1 3571.54 406.527   2
  -6   8   0-30.1845 155.551   4
   6  -8   0 18.6811 125.023   2
  -6   8  -1-34.6796 121.777   4
   6  -8   1 271.401 168.434   2
   6  -8   2-48.4235 63.5209   5
  -6   8  -2 54.7868 122.246   4
   6  -8   2 12.3150 132.027   2
   6  -8   3 522.081 110.313   5
  -6   8  -3 471.316 190.090   4
   6  -8   3 339.408 196.532   2
   6  -8   4 719.017 143.356   5
  -6   8  -4 583.490 220.343   4
   6  -8   4 526.985 200.486   2
   6  -8   5 7088.92 582.897   2
   6  -8   5 8217.26 487.923   5
   6  -8   6 238.622 157.510   2
   6  -8   7 1092.60 250.474   2
   6  -8   8 21154.4 1012.35   2
  -6   8  -8 20601.0 1062.59   6
   6  -8   9 456.765 187.591   2
  -6   8  -9 555.463 250.222   6
  -6   8 -10 3125.93 474.288   6
   6  -7  -7 182.411 203.148   3
  -6   7   7 482.023 221.721   7
   6  -7  -6 5480.37 560.147   3
   6  -7  -6 4938.89 447.104   2
  -6   7   6 4871.77 528.281   7
   6  -7  -5 12126.1 701.517   2
  -6   7   5 11638.9 759.812   7
   6  -7  -5 10668.9 722.335   3
   6  -7  -4 3176.73 372.098   3
  -6   7   4 2342.21 340.611   7
   6  -7  -4 2395.08 323.137   2
  -6   7   3 7321.40 560.825   7
   6  -7  -3 7233.58 539.801   2
   6  -7  -3 7667.02 533.872   3
   6  -7  -2 3505.68 334.681   3
  -6   7   2 3495.50 368.519   7
   6  -7  -2 4516.69 423.322   2
   6  -7  -1 5029.99 274.036   5
   6  -7  -1 4909.40 360.022   3
   6  -7  -1 4414.03 418.939   2
   6  -7   0 3046.03 354.150   2
   6  -7   0 3388.55 223.956   5
   6  -7   1 14161.9 484.905   5
   6  -7   1 13875.1 746.317   2
   6  -7   2 96.0516 127.741   2
   6  -7   2 27.7832 64.0824   5
   6  -7   3 152.330 141.059   2
   6  -7   3 385.177 118.171   5
   6  -7   4 19144.0 876.404   2
   6  -7   4 17145.4 706.998   5
   6  -7   5 335.427 136.365   5
   6  -7   5 202.996 136.644   2
   6  -7   6-8.96975 129.907   2
  -6   7  -7 3170.17 387.626   6
   6  -7   7 3352.43 377.236   2
   6  -7   8 478.362 184.976   2
  -6   7  -8 931.399 254.394   6
   6  -7   9 1003.98 218.226   2
  -6   7  -9 709.833 255.383   6
  -6   7 -10 394.495 208.826   6
  -6   6   8 62.8380 187.048   7
  -6   6   7-354.467 223.873   7
  -6   6   6 6205.95 554.280   7
   6  -6  -6 5679.57 451.974   2
  -6   6   6 5957.59 462.125   1
  -6   6   5 6577.31 491.382   1
  -6   6   5 6843.87 550.409   7
   6  -6  -5 5753.49 456.689   2
   6  -6  -4 13.9219 116.374   2
   6  -6  -4 180.669 121.965   3
  -6   6   4 119.719 139.414   7
  -6   6   3 19763.8 843.519   7
   6  -6  -3 19103.6 839.745   2
   6  -6  -3 18906.1 789.151   3
   6  -6  -2 6468.24 366.543   5
  -6   6   2 6320.99 446.595   7
   6  -6  -2 6739.10 482.058   2
   6  -6  -2 5606.29 385.583   3
   6  -6  -1 2068.21 211.399   3
  -6   6   1 1500.94 177.511   5
   6  -6  -1 1734.75 190.283   5
   6  -6   0 6549.54 348.671   5
   6  -6   0 6680.84 326.939   3
   6  -6   1 5144.70 316.191   5
   6  -6   2 11372.6 511.376   5
   6  -6   3 185.116 111.264   5
  -6   6  -3 267.901 100.366   7
   6  -6   4 1646.77 224.759   5
  -6   6  -4 1533.28 187.794   7
   6  -6   5 19567.6 852.011   2
   6  -6   6 3558.10 368.582   2
  -6   6  -6 3625.24 380.925   6
  -6   6  -7 2154.69 330.964   6
   6  -6   7 2229.12 295.622   2
  -6   6  -8 91.6952 151.032   6
   6  -6   8 439.770 150.787   2
  -6   6  -8 202.202 146.958   1
  -6   6  -9 1750.95 284.142   1
  -6   6  -9 2132.31 380.227   6
  -6   6 -10 58.5265 157.210   6
  -6   5   9-554.473 288.515   7
  -6   5   8 94.5603 171.744   7
  -6   5   7 462.049 198.125   7
   6  -5  -7 387.839 137.658   2
   6  -5  -6 1521.19 234.412   2
  -6   5   6 1694.95 285.708   7
  -6   5   6 1614.32 246.984   1
  -6   5   5 29519.0 1048.72   1
  -6   5   5 29009.3 1101.91   7
   6  -5  -5 30161.0 1032.17   2
  -6   5   4 88.6669 143.634   7
  -6   5   4 23.2321 108.410   1
   6  -5  -3 7598.13 438.018   5
  -6   5   3 7108.27 456.343   7
  -6   5   2 168.226 113.432   7
   6  -5  -2-214.625 123.578   5
  -6   5   1 924.463 161.145   5
   6  -5  -1 826.243 134.959   3
   6  -5  -1 1046.34 167.493   5
  -6   5   1 602.378 135.835   7
   6  -5   0 492.350 81.1100   3
   6  -5   0 323.419 117.376   5
   6  -5   1 20269.8 711.044   5
   6  -5   2 1428.65 199.566   5
  -6   5  -2 1459.94 154.007   7
   6  -5   3 105.522 114.988   5
  -6   5  -3 89.5757 70.3681   7
   6  -5   4 673.989 167.205   5
  -6   5  -4 814.344 118.018   7
  -6   5  -4 809.269 168.715   6
  -6   5  -5 1287.87 229.447   1
  -6   5  -5 824.834 130.968   7
  -6   5  -5 1374.02 211.991   6
  -6   5  -6 1570.83 246.314   1
  -6   5  -6 1348.12 106.729   3
  -6   5  -6 1657.78 264.944   6
   6  -5   7 997.480 193.391   2
  -6   5  -7 661.768 174.577   1
  -6   5  -7 769.336 222.765   6
   6  -5   8 115.556 103.448   2
   6  -5   8 69.6797 99.2996   7
  -6   5  -8 332.755 132.411   1
  -6   5  -8 324.142 184.494   6
  -6   5  -9 799.769 271.362   6
  -6   5 -10 2342.94 413.947   6
  -6   4   9 844.245 247.677   7
  -6   4   8 31.3312 175.433   7
   6  -4  -7 80.2279 85.6919   2
  -6   4   7-40.0654 138.176   7
  -6   4   6-174.787 125.578   1
  -6   4   6 15.4891 134.497   7
  -6   4   5 30616.9 1077.97   7
  -6   4   5 30923.6 1049.66   1
   6  -4  -4 8964.04 520.097   5
  -6   4   4 8326.46 498.071   7
  -6   4   4 8148.31 515.581   1
  -6   4   3 676.621 182.121   1
  -6   4   3 518.701 146.073   7
   6  -4  -3 488.660 143.252   5
  -6   4   2 636.000 169.340   1
   6  -4  -2 941.246 168.991   5
  -6   4   2 720.118 139.879   7
   6  -4  -1 30216.3 895.679   5
  -6   4   1 28584.5 749.307   7
  -6   4   1 27746.6 982.622   1
   6  -4   0 101520. 2017.14   5
  -6   4   0 98621.7 1702.40   7
  -6   4   0 101902. 2187.24   1
   6  -4   1 8625.48 477.494   5
  -6   4  -1 8345.57 516.965   1
  -6   4  -2 2966.04 145.236   7
  -6   4  -2 3280.06 264.483   6
  -6   4  -2 3380.99 328.142   1
   6  -4   2 3424.73 312.426   5
  -6   4  -3 14296.3 380.869   7
  -6   4  -3 14067.4 669.374   1
  -6   4  -3 13126.9 584.233   6
   6  -4   3 14417.7 681.975   5
   6  -4   4 88.4774 111.807   5
  -6   4  -4 22.2768 99.3072   1
  -6   4  -4 36.3197 45.1536   7
  -6   4  -4 165.188 105.851   6
  -6   4  -5 796.530 182.969   1
  -6   4  -5 534.841 104.392   7
  -6   4  -5 685.886 170.726   6
   6  -4   6 1879.22 215.510   7
  -6   4  -6 2247.86 171.895   3
  -6   4  -6 2195.56 298.613   6
  -6   4  -6 1864.92 251.154   1
   6  -4   7 3405.23 318.297   7
  -6   4  -7 3968.02 363.679   1
  -6   4  -7 3856.34 268.179   3
  -6   4  -7 3409.36 402.601   6
  -6   4  -8 127.450 87.9256   1
  -6   4  -8 143.480 150.054   6
  -6   4  -9 786.704 230.138   6
  -6   4 -10 390.969 170.930   6
  -6   3  10 2821.54 422.000   7
  -6   3   9 291.533 188.225   7
  -6   3   8 2007.13 325.371   7
  -6   3   7 14445.2 784.967   7
  -6   3   6 19.9912 123.688   7
  -6   3   6 456.943 158.796   1
  -6   3   5 1942.88 252.446   1
  -6   3   5 1901.49 256.539   7
   6  -3  -5 1654.55 265.737   5
   6  -3  -4 27205.3 956.747   5
  -6   3   4 28786.9 894.770   7
  -6   3   4 29987.4 996.935   1
  -6   3   4 25727.9 518.342   6
  -6   3   3 9624.02 444.716   7
  -6   3   3 9565.10 535.364   1
  -6   3   3 8425.94 225.343   6
   6  -3  -2 2199.88 245.358   5
  -6   3   2 2277.23 186.301   7
  -6   3   2 2177.19 268.207   1
   6  -3  -1 74028.1 1630.03   5
  -6   3   1 70769.1 1256.52   7
  -6   3   1 71602.4 1705.02   1
  -6   3   1 70501.2 1220.87   6
   6  -3   0 10731.9 533.895   5
  -6   3   0 9302.83 240.971   7
  -6   3   0 10288.9 561.892   1
  -6   3   0 10187.0 366.457   6
   6  -3   1 4942.00 374.573   5
  -6   3  -1 5974.28 417.978   1
   6  -3   1 4538.45 140.378   3
  -6   3  -1 5518.05 300.085   6
   6  -3   2 10.8378 82.4162   5
  -6   3  -2 36.1844 111.836   1
  -6   3  -2 226.124 91.9708   6
   6  -3   3 75.5884 100.543   5
  -6   3  -3 3.29895 83.6320   6
  -6   3  -3-42.1427 122.303   1
   6  -3   4 1023.89 224.826   5
  -6   3  -4 1744.80 254.804   1
  -6   3  -4 1459.48 222.133   6
  -6   3  -5 1123.73 202.674   1
  -6   3  -5 1237.55 150.131   7
   6  -3   5 1147.95 137.111   7
  -6   3  -5 1365.67 217.448   6
  -6   3  -6 125.817 105.614   1
   6  -3   6 53.8272 70.0422   7
  -6   3  -6 32.3912 113.620   6
  -6   3  -6 7.24101 62.2120   3
   6  -3   7 1315.02 207.971   7
  -6   3  -7 1196.57 257.587   6
  -6   3  -8 66.5726 100.579   3
  -6   3  -8 54.5949 178.177   6
  -6   3  -9 167.565 172.825   6
  -6   3 -10-61.3899 173.403   6
  -6   2  10 171.668 217.732   7
  -6   2   9 3592.89 439.049   7
  -6   2   8 1918.08 318.442   7
  -6   2   7 12855.7 713.236   7
  -6   2   6 41.9153 131.649   7
   6  -2  -6-95.1480 134.628   5
   6  -2  -5 351.338 172.314   5
  -6   2   5 340.014 150.062   7
   6  -2  -4 8700.56 543.141   5
  -6   2   4 8874.44 451.214   7
   6  -2  -3 17027.6 730.074   5
  -6   2   3 17579.8 589.450   7
  -6   2   3 17210.6 749.301   1
   6  -2  -2 15297.3 669.255   5
  -6   2   2 14709.4 461.747   7
  -6   2   2 14978.8 696.568   1
   6  -2  -1 858.242 161.140   5
  -6   2   1 870.633 179.174   1
  -6   2   1 840.044 86.5994   6
   6  -2   0 2975.57 299.121   5
  -6   2   0 3477.99 324.153   1
  -6   2   0 3241.32 205.494   6
  -6   2  -1 1406.79 220.855   1
  -6   2  -1 1391.61 158.489   6
   6  -2   1 1069.09 104.573   3
   6  -2   2 3357.49 339.237   5
  -6   2  -2 3719.43 288.893   6
  -6   2  -2 3627.47 341.601   1
   6  -2   3 1636.28 250.209   5
  -6   2  -3 2142.83 250.759   6
   6  -2   4 462.216 154.140   5
   6  -2   4 335.566 66.1601   7
  -6   2  -4 562.422 161.415   6
   6  -2   5 311.916 87.0799   7
  -6   2  -5 61.6188 109.787   6
   6  -2   6 81.4117 84.4117   7
  -6   2  -6 23.8922 112.021   6
   6  -2   7 352.157 119.575   7
  -6   2  -7 435.675 141.620   3
  -6   2  -7 95.2166 137.924   6
  -6   2  -8 2959.98 419.368   6
  -6   2  -8 2740.22 320.655   3
  -6   2  -9 17.2507 174.543   6
  -6   1  11 878.932 296.171   7
  -6   1  10-153.629 199.192   7
  -6   1   9 248.952 150.316   7
  -6   1   8-110.197 155.054   7
  -6   1   7 4444.26 412.295   7
   6  -1  -7 4472.55 452.052   5
   6  -1  -6 209.529 181.715   5
  -6   1   6 19.3640 123.270   7
   6  -1  -5 301.129 179.681   5
  -6   1   5 305.896 120.947   7
   6  -1  -4 5939.08 454.154   5
   6  -1  -4 6133.54 361.742   7
  -6   1   4 6430.98 372.034   7
   6  -1  -3 6213.89 447.148   5
   6  -1  -3 6446.82 326.720   7
  -6   1   3 6625.77 340.126   7
   6  -1  -2 9794.56 543.812   5
   6  -1  -2 9476.45 342.575   7
  -6   1   2 9716.93 359.654   7
   6  -1  -1 989.060 172.285   5
   6  -1  -1 904.981 77.5626   7
   6  -1   0 2303.06 273.404   5
   6  -1   1 11801.4 448.214   3
   6  -1   1 12518.8 482.603   6
   6  -1   1 12601.5 648.132   5
  -6   1  -2 7313.63 437.960   6
   6  -1   2 7367.64 353.694   3
   6  -1   2 8168.07 537.717   5
   6  -1   3 2968.38 344.220   5
   6  -1   3 3345.19 172.668   7
  -6   1  -3 3628.01 341.512   6
   6  -1   4 248.753 142.174   5
   6  -1   4 171.300 72.0551   7
  -6   1  -4 197.108 143.532   6
   6  -1   5 828.077 135.107   7
  -6   1  -5 923.292 226.466   6
   6  -1   5 1243.30 259.839   5
   6  -1   6 18.6038 98.6010   7
  -6   1  -6 20.5289 108.949   3
  -6   1  -6 251.682 179.699   6
  -6   1  -7 4742.87 415.666   3
  -6   1  -8 6909.34 534.908   3
  -6   1  -9 100.687 164.768   3
  -6   0  11 1910.53 385.542   7
  -6   0  10 264.084 215.185   7
  -6   0   9-7.42181 157.826   7
  -6   0   8-125.486 148.866   7
  -6   0   7 6301.94 489.601   7
   6   0  -7 5534.76 501.451   5
   6   0  -6 38271.2 1344.73   5
  -6   0   6 40183.9 1222.30   7
   6   0  -5 12452.9 695.269   5
  -6   0   5 12817.3 602.763   7
   6   0  -4 1008.83 224.471   5
   6   0  -4 1066.33 161.315   7
  -6   0   4 1230.52 172.914   7
   6   0  -3 12928.7 665.937   5
   6   0  -3 11996.8 460.726   7
  -6   0   3 12640.1 501.971   7
   6   0  -2 31156.3 1053.87   5
   6   0  -2 30447.6 724.215   7
   6   0  -2 31376.8 610.401   6
   6   0  -1 6927.69 475.582   5
   6   0  -1 6358.29 249.901   7
   6   0  -1 7220.16 298.396   6
   6   0   0 44.3954 34.8465   7
   6   0   0 25.6574 55.7971   6
   6   0   1 10.1035 39.6488   7
   6   0   1 58.3247 33.2877   7
   6   0   1-27.1018 77.0053   3
   6   0   2 1764.92 274.895   5
   6   0   2 1464.10 120.894   7
   6   0   3 2894.13 350.204   5
   6   0   3 3411.59 214.576   7
   6   0   4 11022.2 457.296   7
   6   0   4 11054.1 724.764   5
   6   0   5-82.6977 160.685   5
   6   0   5 87.5145 87.0468   7
   6   0   6 251.853 125.682   7
   6   0   6-337.391 238.785   5
  -6   0  -7 3884.44 407.685   3
  -6   0  -8 2285.63 340.406   3
  -6   0  -9 215.763 192.316   3
  -6  -1  11 187.893 173.094   7
  -6  -1  10 383.380 205.173   7
  -6  -1   9 7223.77 605.785   7
   6   1  -8 240.998 210.767   5
  -6  -1   8-280.190 191.703   7
   6   1  -7 6438.77 562.416   5
  -6  -1   7 7130.41 526.513   7
   6   1  -6 2025.78 337.887   5
  -6  -1   6 1945.49 281.136   7
  -6  -1   5 5817.73 409.895   7
   6   1  -5 5129.18 473.264   5
   6   1  -4 5638.02 455.661   5
   6   1  -4 4598.96 173.228   6
   6   1  -3 38518.2 1231.67   5
   6   1  -3 36617.0 949.153   7
   6   1  -3 37773.5 769.439   6
   6   1  -2 4411.24 399.238   5
   6   1  -2 5064.55 287.652   7
   6   1  -2 4936.79 260.435   6
   6   1  -1 22143.3 903.064   5
   6   1  -1 20304.9 599.323   7
   6   1  -1 22516.5 671.519   6
   6   1   0 5723.99 455.005   5
   6   1   0 5050.16 276.145   7
   6   1   1 2918.04 344.090   5
   6   1   2 2857.64 348.894   5
   6   1   2 2761.28 219.038   7
   6   1   3 105.709 141.077   5
   6   1   3 35.3351 80.2951   7
   6   1   4 3058.89 400.311   5
   6   1   4 2709.49 254.000   7
   6   1   5 747.260 224.988   5
   6   1   5 689.489 150.446   7
   6   1   6 5022.75 565.269   5
   6   1   7 1357.85 312.289   5
   6   1   8 1173.62 340.413   5
  -6  -1  -9-75.4955 187.188   3
  -6  -2  11 825.283 249.847   7
  -6  -2  10 106.093 177.041   7
  -6  -2   9 37.6814 161.203   7
   6   2  -8 422.197 192.096   5
  -6  -2   8 29.9643 153.669   7
   6   2  -7 2803.93 378.007   5
  -6  -2   7 2895.59 360.756   7
   6   2  -6 8002.07 601.498   5
  -6  -2   6 7316.09 525.200   7
   6   2  -6 7245.23 284.045   6
   6   2  -5 1314.80 255.436   5
   6   2  -4 2931.66 346.046   5
   6   2  -3 2521.01 314.682   5
   6   2  -2 3602.01 371.148   5
   6   2  -2 3617.30 278.718   7
   6   2  -2 3669.27 272.570   6
   6   2  -1 263.506 135.638   5
   6   2  -1-45.2358 82.5034   7
   6   2   0 3689.78 390.907   5
   6   2   1 6618.80 527.446   5
   6   2   2 39281.6 1388.88   5
   6   2   3-22.7715 134.201   5
   6   2   3-46.1428 119.218   7
   6   2   4 1232.44 291.207   5
   6   2   4 774.862 165.330   7
   6   2   5 1010.93 277.123   5
   6   2   6 911.136 294.575   5
   6   2   7 101.625 211.367   5
  -6  -3  11 1764.81 367.971   7
  -6  -3  10 862.035 297.848   7
  -6  -3   9 344.523 228.299   7
   6   3  -8 590.031 253.324   5
  -6  -3   8 417.542 174.294   7
   6   3  -7 789.928 253.019   5
   6   3  -6 3383.85 413.651   5
   6   3  -5 7097.33 559.727   5
   6   3  -4 344.959 167.970   5
   6   3  -3 262.898 140.078   5
   6   3  -2 62.9633 114.602   5
   6   3  -1 21961.9 964.437   5
   6   3   0 47312.8 1523.77   5
   6   3   1 155.622 165.875   5
   6   3   2 7916.92 618.385   5
   6   3   3 5157.85 517.486   5
   6   3   3 5754.63 425.204   7
   6   3   4 210.289 148.707   5
   6   3   5 340.417 155.091   5
   6   3   6 1150.09 309.492   5
  -6  -4  11 2280.60 432.643   7
   6   4 -10 1000.52 251.205   4
   6   4  -9 749.323 233.532   5
   6   4  -8 812.972 283.520   5
   6   4  -7 36.5813 175.531   5
   6   4  -6 1317.81 307.254   5
   6   4  -5 924.949 249.542   5
   6   4  -4 15429.3 837.222   5
   6   4  -3 12435.9 735.203   5
   6   4  -2 12716.8 742.163   5
   6   4  -1 18452.9 912.553   5
   6   4   0 15383.4 851.102   5
   6   4   1 786.350 232.172   5
   6   4   2 201.238 162.174   5
   6   4   3 694.698 229.905   5
   6   4   4 359.953 211.948   5
   6   4   5 179.483 197.034   5
   6   4   6-261.001 233.812   5
   6   5 -10 196.897 164.183   4
   6   5  -9-197.728 197.408   5
   6   5  -9 173.289 195.385   4
   6   5  -8 1382.95 340.639   5
   6   5  -7 847.163 284.707   5
   6   5  -6 98.0553 161.173   5
   6   5  -5 2454.39 384.421   5
   6   5  -4 592.993 225.936   5
   6   5  -3 183.299 182.940   5
   6   5  -2 5223.54 497.245   5
   6   5  -1 559.564 208.175   5
   6   5   0 585.827 182.387   5
   6   5   1-198.324 154.843   5
   6   5   2-137.432 134.320   5
   6   5   2 250.134 189.289   4
   6   5   3-121.669 192.948   5
   6   5   3 219.819 176.646   4
   6   5   4 741.189 253.545   5
   6   5   5 577.004 267.751   5
   6   6 -10-323.481 222.432   4
   6   6  -9-37.9089 231.377   5
   6   6  -9-48.8860 210.227   4
   6   6  -8 1242.84 337.144   5
   6   6  -8 1401.70 321.442   4
   6   6  -7 621.969 255.772   5
   6   6  -7 534.893 267.334   4
   6   6  -6 6788.06 606.715   5
   6   6  -6 7592.54 689.530   4
   6   6  -5 747.837 275.645   5
   6   6  -4 613.401 220.244   5
   6   6  -3 76.7544 151.835   5
   6   6  -2 891.928 230.762   5
   6   6  -1 131.219 178.654   5
   6   6  -1 85.6850 164.138   4
   6   6   0 691.226 221.656   5
   6   6   0 1149.93 279.790   4
   6   6   1 1486.84 298.997   5
   6   6   1 732.844 272.289   4
   6   6   2 480.581 174.477   5
   6   6   2 196.442 156.709   4
   6   6   3 86.1075 145.633   4
   6   7  -9-251.530 200.821   5
   6   7  -8 355.200 232.522   5
   6   7  -8 169.815 184.744   4
   6   7  -7 645.058 238.623   5
   6   7  -7 464.261 229.073   4
   6   7  -6 1388.11 322.401   5
   6   7  -6 1572.38 384.193   4
   6   7  -5 492.966 249.465   5
   6   7  -5 686.993 263.476   4
   6   7  -4 939.550 241.918   5
   6   7  -4 473.455 194.914   4
   6   7  -3 1956.42 342.574   5
   6   7  -3 1822.86 372.250   4
   6   7  -2-181.646 152.661   5
   6   7  -2 171.523 225.935   4
   6   7  -1 1068.49 321.874   4
   6   7   0 401.233 207.526   4
   7 -11   1 2293.73 406.502   2
  -7  11  -1 1369.54 305.007   4
   7 -11   2 1189.87 309.530   2
  -7  11  -2 1029.68 282.051   4
   7 -11   3 1215.30 323.705   2
  -7  11  -3 906.125 284.609   4
   7 -11   4 639.120 278.127   2
  -7  11  -4 115.352 181.486   4
   7 -11   5 241.534 194.438   2
  -7  11  -5 224.776 182.576   4
  -7  10   3-191.051 209.684   7
  -7  10   2-368.288 242.887   7
   7 -10  -2-309.378 250.406   2
   7 -10  -1 571.946 243.697   2
   7 -10   0 99.4688 171.416   2
   7 -10   1 13.5025 173.172   2
   7 -10   2-207.503 189.449   2
   7 -10   3 2493.01 388.069   2
   7 -10   4 982.103 277.336   2
   7 -10   5 1255.42 303.108   2
   7 -10   6 16.7529 169.485   2
   7 -10   7 199.370 178.667   2
   7 -10   8 131.658 158.226   2
  -7   9   5 682.964 245.098   7
  -7   9   4 119.719 204.641   7
   7  -9  -4 386.532 228.314   2
  -7   9   3 250.056 198.926   7
   7  -9  -3 182.469 176.099   2
  -7   9   2 352.438 206.871   7
   7  -9  -2 320.215 210.004   2
   7  -9  -1 241.768 178.734   2
   7  -9   0 1555.91 316.447   2
   7  -9   1 111.673 151.241   2
   7  -9   2-19.7125 174.335   2
   7  -9   3 2595.77 377.811   2
   7  -9   4 4224.70 478.966   2
   7  -9   5 606.373 207.466   2
   7  -9   6 38.9223 136.707   2
   7  -9   7-88.0412 135.099   2
   7  -9   8 464.400 215.062   2
  -7   9  -8 365.111 185.693   6
   7  -9   9 54.3582 184.432   2
  -7   9  -9 799.454 281.924   6
   7  -8  -6 182.883 183.518   3
  -7   8   6-133.903 204.705   7
   7  -8  -5 105.381 162.177   3
  -7   8   5-337.282 248.169   7
   7  -8  -5 162.860 150.441   2
   7  -8  -4 5280.46 490.857   3
  -7   8   4 4810.91 513.794   7
   7  -8  -4 4417.74 481.660   2
  -7   8   3 3061.60 384.228   7
   7  -8  -3 2585.21 369.969   2
   7  -8  -3 2284.29 307.092   3
  -7   8   2 1483.27 269.040   7
   7  -8  -2 1431.55 286.446   2
   7  -8  -2 1199.32 218.551   3
   7  -8  -1 903.251 252.467   2
   7  -8   0 4740.44 471.647   2
   7  -8   1 5429.24 515.630   2
   7  -8   2 5167.21 315.485   5
   7  -8   2 5859.70 531.322   2
   7  -8   3-17.8753 81.6502   5
   7  -8   3-63.1708 140.170   2
   7  -8   4 681.047 150.223   5
   7  -8   4 1103.80 280.099   2
   7  -8   5 3757.71 363.994   5
   7  -8   5 4030.05 441.785   2
   7  -8   6 3216.50 368.541   5
   7  -8   6 3434.61 408.304   2
  -7   8  -7-98.8833 172.390   6
   7  -8   7 182.334 180.935   2
   7  -8   7 163.683 159.187   5
   7  -8   8 1036.52 256.861   2
  -7   8  -8 1342.29 310.434   6
  -7   8  -9 2206.22 354.171   1
   7  -8   9 2478.09 358.218   2
  -7   8  -9 1846.89 366.599   6
   7  -7  -7 1661.03 338.223   3
  -7   7   7 1800.51 371.196   7
   7  -7  -6 480.727 186.515   3
  -7   7   6 605.723 212.815   7
   7  -7  -6 804.245 226.593   2
   7  -7  -5 101.033 133.818   3
  -7   7   5 463.885 193.622   7
   7  -7  -5 217.285 160.580   2
  -7   7   5 166.941 168.068   1
   7  -7  -4 4626.61 434.032   3
  -7   7   4 3793.97 421.986   7
   7  -7  -4 3924.99 423.032   2
   7  -7  -3 1754.43 303.651   2
   7  -7  -3 1401.00 242.914   3
  -7   7   3 2001.25 301.413   7
   7  -7  -2 380.196 135.450   3
   7  -7  -2 446.339 201.206   2
  -7   7   2 54.6337 125.410   7
   7  -7  -2 118.854 91.8385   5
   7  -7  -1 9034.31 444.093   5
  -7   7   1 9611.07 562.920   7
   7  -7  -1 9786.89 652.351   2
   7  -7  -1 9746.86 481.190   3
   7  -7   0 4873.66 317.781   5
   7  -7   0 4557.45 439.205   2
   7  -7   1 10004.7 471.279   5
   7  -7   1 10226.5 659.961   2
   7  -7   2 4209.58 324.147   5
   7  -7   3 3178.78 385.118   2
   7  -7   3 3390.64 313.749   5
   7  -7   4 5680.19 500.791   2
   7  -7   4 5633.48 432.116   5
   7  -7   5 391.780 151.950   2
   7  -7   5 424.728 156.739   5
   7  -7   6 1603.22 270.863   2
   7  -7   6 1777.59 299.017   5
  -7   7  -6 1604.13 287.491   6
   7  -7   7 6515.54 531.952   2
  -7   7  -7 5980.44 543.304   6
  -7   7  -8 995.141 265.044   6
   7  -7   8 1329.39 262.645   2
  -7   7  -8 1782.84 301.275   1
  -7   7  -9 174.006 162.795   1
  -7   7  -9 507.777 252.638   6
  -7   6   8 80.4744 186.880   7
  -7   6   7 519.163 248.685   7
  -7   6   6-120.291 174.957   7
  -7   6   6-176.397 162.298   1
   7  -6  -6 74.4055 134.550   2
   7  -6  -5 80.0749 149.225   2
  -7   6   5 170.043 152.703   1
  -7   6   5-87.0369 131.911   7
  -7   6   4 81.2102 140.830   1
   7  -6  -4-130.926 147.953   2
  -7   6   4-115.675 164.391   7
   7  -6  -3 16358.3 693.266   5
  -7   6   3 16075.5 828.607   1
  -7   6   3 16601.9 767.757   7
   7  -6  -2-53.7323 95.5998   3
  -7   6   2-79.7831 114.020   7
   7  -6  -2-52.0857 91.5594   5
   7  -6  -1 3023.49 274.840   5
  -7   6   1 3110.62 293.062   7
   7  -6  -1 3304.44 252.151   3
  -7   6   0 132.445 111.195   7
   7  -6   0 105.995 89.3222   5
   7  -6   0 53.1517 51.8838   3
   7  -6   1 277.397 112.842   5
   7  -6   2 14371.7 642.671   5
  -7   6  -2 12420.0 501.068   7
  -7   6  -3 6980.13 348.246   7
   7  -6   3 7590.58 490.973   5
  -7   6  -4 9555.75 569.190   6
   7  -6   4 9984.55 596.261   5
   7  -6   5 895.706 216.479   5
  -7   6  -5 733.174 195.539   1
  -7   6  -5 951.759 209.248   6
  -7   6  -6 323.276 158.127   6
   7  -6   6 123.450 132.019   5
  -7   6  -6 161.763 137.556   1
   7  -6   7 1369.28 234.957   2
  -7   6  -7 1666.56 284.750   1
  -7   6  -7 1569.26 296.192   6
   7  -6   8-67.5823 108.519   2
  -7   6  -8-105.165 163.109   1
  -7   6  -8 99.7442 156.020   6
  -7   6  -9 794.782 263.758   6
  -7   5   9 872.112 283.960   7
  -7   5   8 162.324 184.890   7
   7  -5  -7 337.763 147.861   2
  -7   5   7 273.282 193.443   7
  -7   5   6 207.478 153.609   1
  -7   5   6-371.338 185.808   7
  -7   5   5 2310.66 314.351   7
  -7   5   5 1996.56 281.817   1
  -7   5   4-63.2052 121.080   1
  -7   5   4 3.13261 110.224   7
   7  -5  -4 195.726 142.957   5
   7  -5  -3 13712.0 654.294   5
  -7   5   3 14817.5 650.344   7
  -7   5   3 13923.2 740.304   1
  -7   5   2 423.606 166.639   1
   7  -5  -2 718.299 175.717   5
  -7   5   2 578.772 149.368   7
   7  -5  -1 522.805 145.077   5
  -7   5   1 481.219 120.999   7
  -7   5   1 361.474 161.748   1
   7  -5   0 11150.8 553.170   5
  -7   5   0 11729.7 685.105   1
   7  -5   0 10301.1 335.641   3
   7  -5   1 572.299 161.586   5
  -7   5  -1 488.797 90.1778   7
  -7   5  -1 154.141 146.200   1
   7  -5   2 130572. 2590.44   5
  -7   5  -2 130504. 2754.25   1
  -7   5  -2 124004. 2005.92   7
  -7   5  -2 127419. 2412.10   6
  -7   5  -3 5497.88 232.370   7
  -7   5  -3 5926.33 480.978   1
  -7   5  -3 5632.45 398.788   6
   7  -5   3 6104.83 463.754   5
  -7   5  -4 2865.14 339.098   1
   7  -5   4 4034.07 402.023   5
  -7   5  -4 3245.70 192.879   7
  -7   5  -4 3280.98 323.577   6
  -7   5  -5 13041.7 727.218   1
  -7   5  -5 12193.6 680.106   6
   7  -5   5 12394.2 738.854   5
  -7   5  -6 1935.78 275.994   1
  -7   5  -6 2009.74 320.080   6
   7  -5   6 2052.10 336.339   5
  -7   5  -7 152.069 123.967   6
  -7   5  -7-12.7892 130.169   1
   7  -5   8 530.375 179.675   2
  -7   5  -8 412.688 162.409   1
  -7   5  -8 246.607 196.556   6
  -7   5  -9 285.141 200.774   6
  -7   4   9 210.880 209.110   7
  -7   4   8 4493.96 477.987   7
  -7   4   7-71.1799 133.430   7
  -7   4   6 65.4995 136.870   7
  -7   4   6-121.086 143.140   1
  -7   4   5 1775.58 252.914   7
   7  -4  -5 1558.83 271.282   5
  -7   4   5 1923.01 278.405   1
  -7   4   4 3318.63 370.132   1
  -7   4   4 2684.29 278.620   7
   7  -4  -4 3192.81 335.227   5
   7  -4  -3 6939.91 471.187   5
  -7   4   3 7055.35 412.266   7
  -7   4   3 7299.33 518.518   1
   7  -4  -2 19476.8 778.955   5
  -7   4   2 19253.7 631.144   7
  -7   4   2 19796.6 874.080   1
   7  -4  -1 4013.36 349.871   5
  -7   4   1 3618.40 216.062   7
  -7   4   1 3506.61 362.518   1
  -7   4   1 3254.86 196.071   6
   7  -4   0 214.481 126.189   5
  -7   4   0 267.808 154.212   1
  -7   4   0 256.657 55.9009   7
  -7   4   0 257.090 90.4245   6
   7  -4   1 74286.4 1774.67   5
  -7   4  -1 73248.9 1858.31   1
  -7   4  -1 71222.7 1491.63   6
   7  -4   2 12.8825 103.343   5
  -7   4  -2-46.3085 133.094   1
  -7   4  -2 158.929 111.490   6
  -7   4  -3 10223.8 610.652   1
  -7   4  -3 8916.11 508.620   6
   7  -4   3 9211.68 587.793   5
  -7   4  -4 5379.33 449.539   1
  -7   4  -4 5191.89 414.512   6
   7  -4   4 5311.49 467.772   5
   7  -4   5 2580.42 355.845   5
  -7   4  -5 2403.58 310.141   1
  -7   4  -5 2463.98 318.215   6
  -7   4  -6 880.244 221.650   6
  -7   4  -6 975.963 205.686   1
   7  -4   6 1192.02 259.710   5
  -7   4  -7 2450.33 314.182   1
  -7   4  -7 2424.79 366.041   6
  -7   4  -8-259.946 177.892   6
  -7   4  -9 51.7567 161.672   6
  -7   3  10 221.261 229.636   7
  -7   3   9 4995.29 533.688   7
  -7   3   8 859.655 244.499   7
  -7   3   7 758.693 198.722   7
  -7   3   6 994.785 239.628   7
   7  -3  -6 863.195 201.919   5
   7  -3  -5 18745.9 878.771   5
  -7   3   5 19924.6 800.403   7
   7  -3  -4 2228.97 307.265   5
  -7   3   4 1947.64 231.093   7
  -7   3   4 2132.94 299.328   1
   7  -3  -3 6903.44 481.054   5
  -7   3   3 7009.21 375.663   7
  -7   3   3 7145.20 511.055   1
  -7   3   2 3195.64 215.183   7
   7  -3  -2 3082.00 318.269   5
  -7   3   2 3113.17 353.386   1
   7  -3  -1 20476.2 813.385   5
  -7   3   1 19669.4 459.079   7
  -7   3   1 20810.2 890.700   1
  -7   3   1 18346.4 476.614   6
   7  -3   0 10727.7 594.241   5
  -7   3   0 11340.9 635.216   1
  -7   3   0 10424.6 404.422   6
   7  -3   1 4769.50 415.408   5
   7  -3   1 4649.56 181.322   3
  -7   3  -1 5261.12 430.800   1
  -7   3  -1 5404.65 323.767   6
  -7   3  -2 7097.27 414.932   6
  -7   3  -2 7319.12 517.939   1
   7  -3   2 7830.38 530.447   5
   7  -3   3 1115.68 217.548   5
  -7   3  -3 1308.03 239.255   1
  -7   3  -3 960.125 176.041   6
   7  -3   4 618.703 199.655   5
  -7   3  -4 428.376 176.416   1
  -7   3  -4 506.280 162.073   6
   7  -3   5 525.737 196.690   5
  -7   3  -5 394.592 159.317   6
  -7   3  -6 2012.11 322.749   6
   7  -3   6 1132.45 254.844   5
  -7   3  -7 665.262 218.549   6
  -7   3  -8 252.378 187.633   6
  -7   3  -9 288.053 175.866   6
  -7   2  10-174.293 248.456   7
  -7   2   9-1.85536 198.125   7
  -7   2   8-56.6034 175.192   7
  -7   2   7 191.595 129.014   7
   7  -2  -7 841.289 236.202   5
   7  -2  -6 9567.01 660.689   5
  -7   2   6 9363.53 571.819   7
  -7   2   5 4977.63 378.732   7
   7  -2  -5 4672.55 444.227   5
   7  -2  -4 10170.0 620.621   5
  -7   2   4 10519.9 498.859   7
   7  -2  -3 13963.6 710.898   5
  -7   2   3 14288.0 521.099   7
   7  -2  -2 1116.71 215.803   5
  -7   2   2 930.751 110.362   7
   7  -2  -1 493.696 145.025   5
   7  -2   0 2318.28 297.131   5
   7  -2   1 212.702 113.266   5
  -7   2  -1 202.126 86.5228   6
   7  -2   1 259.669 71.8389   3
  -7   2  -2 6622.28 416.679   6
   7  -2   2 6092.87 492.744   5
  -7   2  -3 15114.5 700.691   6
   7  -2   3 14181.9 785.628   5
   7  -2   4 4258.76 459.302   5
  -7   2  -4 4027.20 392.221   6
   7  -2   5 269.646 178.257   5
  -7   2  -5 229.956 152.919   6
   7  -2   6 1355.51 305.487   5
  -7   2  -6 1350.16 284.003   6
  -7   2  -7 4667.60 524.396   6
   7  -2   7 5925.11 616.454   5
  -7   2  -8 3954.94 508.086   6
  -7   1  10 50.3138 155.128   7
  -7   1   9 768.854 246.371   7
  -7   1   8 3799.22 421.685   7
   7  -1  -7 565.360 213.949   5
  -7   1   7 449.910 191.716   7
   7  -1  -6 7687.97 587.178   5
  -7   1   6 6820.80 476.805   7
   7  -1  -5 390.915 180.636   5
  -7   1   5 496.321 129.520   7
   7  -1  -4 45.5148 157.087   5
   7  -1  -4-111.844 79.2202   7
  -7   1   4 41.7800 93.4325   7
   7  -1  -3 16278.5 788.580   5
   7  -1  -3 16184.5 545.036   7
  -7   1   3 16698.8 569.918   7
   7  -1  -2 2710.53 171.105   7
   7  -1  -2 3117.44 330.543   5
   7  -1  -1 9150.65 573.781   5
   7  -1   0 2998.75 337.282   5
   7  -1   1 3161.45 363.244   5
   7  -1   1 2532.70 223.769   3
   7  -1   2 2763.35 350.859   5
   7  -1   3 1034.32 240.913   5
   7  -1   4 198.845 161.635   5
   7  -1   5 464.846 208.198   5
   7  -1   6 14242.8 932.169   5
   7  -1   7 3722.19 515.922   5
   7  -1   8 1196.14 352.291   5
  -7   0  11 632.210 276.843   7
  -7   0  10 258.221 232.924   7
  -7   0   9 163.316 161.742   7
   7   0  -8 2999.08 422.164   5
  -7   0   8 3013.18 384.300   7
   7   0  -7 25897.7 1169.21   5
  -7   0   7 25433.7 1037.71   7
   7   0  -6 1645.23 321.611   5
  -7   0   6 1434.21 236.941   7
   7   0  -5 8173.00 597.422   5
  -7   0   5 8819.10 505.281   7
   7   0  -4 15225.2 799.311   5
  -7   0   4 14608.3 617.881   7
   7   0  -3 2494.06 331.974   5
   7   0  -3 1658.68 171.466   7
   7   0  -2 542.264 177.739   5
   7   0  -2 833.740 107.550   7
   7   0  -1 140.223 99.4719   5
   7   0  -1 27.8960 34.2019   7
   7   0  -1-26.9301 60.4761   6
   7   0   0 12778.4 718.011   5
   7   0   0 7588.59 389.488   6
   7   0   1 6396.39 513.790   5
   7   0   1 4879.45 178.914   7
   7   0   2 525.625 182.155   5
   7   0   3 1536.20 298.404   5
   7   0   4 4187.69 471.466   5
   7   0   5 1359.03 303.546   5
   7   0   6 378.508 232.352   5
   7   0   7 1431.53 351.191   5
  -7  -1  11-289.344 240.908   7
  -7  -1  10 1181.70 291.348   7
  -7  -1   9 2307.87 363.358   7
   7   1  -8 4180.85 513.954   5
  -7  -1   8 4870.98 491.460   7
   7   1  -7-56.5147 178.375   5
  -7  -1   7-27.6696 140.289   7
   7   1  -6 13.9264 165.562   5
  -7  -1   6 96.6793 145.712   7
   7   1  -5 2872.92 380.433   5
   7   1  -4 1509.24 267.916   5
   7   1  -3 181.409 147.186   5
   7   1  -3 69.4775 52.4467   6
   7   1  -2 0.70361 106.262   5
   7   1  -2-54.7655 63.0198   6
   7   1  -1 60.7012 109.526   5
   7   1  -1 125.896 70.0598   6
   7   1   0 2910.73 360.310   5
   7   1   1 43.6154 137.167   5
   7   1   2 1793.82 308.421   5
   7   1   3 2024.04 329.817   5
   7   1   4 5974.44 587.114   5
   7   1   5 19.4452 165.532   5
   7   1   6 1412.66 326.150   5
   7   1   7-38.6544 190.532   5
  -7  -2  11 351.998 268.097   7
  -7  -2  10 7.06215 224.312   7
   7   2  -9 761.402 286.627   5
  -7  -2   9 504.312 213.615   7
   7   2  -8 76.9044 159.584   5
  -7  -2   8-74.8527 174.547   7
   7   2  -7 711.471 269.730   5
   7   2  -6 2492.39 380.534   5
   7   2  -5 314.164 169.605   5
   7   2  -4 589.472 220.527   5
   7   2  -3 2170.21 329.834   5
   7   2  -2 83.6923 163.142   5
   7   2  -1 0.50858 175.487   5
   7   2   0 181.217 153.280   5
   7   2   1 3204.79 413.609   5
   7   2   2 6053.85 559.174   5
   7   2   3 8.64305 171.674   5
   7   2   4 3717.14 470.122   5
   7   2   5 1322.70 324.914   5
   7   2   6-120.476 203.089   5
  -7  -3  11-403.248 299.512   7
  -7  -3  10 475.436 273.303   7
   7   3  -9 1923.88 386.191   5
   7   3  -8-118.242 190.817   5
   7   3  -7 1.29775 164.509   5
   7   3  -6 474.620 188.722   5
   7   3  -5 1149.87 288.929   5
   7   3  -4 1730.02 304.366   5
   7   3  -3 2719.26 373.586   5
   7   3  -2 30432.4 1231.41   5
   7   3  -1 178.125 136.161   5
   7   3   0 912.980 244.056   5
   7   3   1 654.250 244.696   5
   7   3   2 2233.37 369.111   5
   7   3   3 1309.50 275.726   5
   7   3   4 284.756 178.080   5
   7   3   5 188.451 174.089   5
   7   4  -9 105.082 237.115   5
   7   4  -8 285.551 239.781   5
   7   4  -7 646.101 259.164   5
   7   4  -6 1113.93 296.657   5
   7   4  -5 218.131 183.997   5
   7   4  -4 432.904 225.188   5
   7   4  -3 2031.97 341.863   5
   7   4  -2 2503.96 373.957   5
   7   4  -1 353.189 199.034   5
   7   4   0 2454.09 367.992   5
   7   4   1 1047.20 271.609   5
   7   4   2 958.989 268.151   5
   7   4   3 83.7365 168.717   5
   7   4   4-171.687 197.947   5
   7   5 -10 309.584 200.548   4
   7   5  -9 40.4557 202.237   4
   7   5  -8 57.2352 158.388   5
   7   5  -7 477.771 264.904   5
   7   5  -6 2258.95 380.028   5
   7   5  -5-0.63954 195.394   5
   7   5  -4 2114.83 346.690   5
   7   5  -3 311.833 200.192   5
   7   5  -2 60.8277 125.370   5
   7   5  -1 222.328 154.151   5
   7   5   0-297.200 208.278   5
   7   5   1 371.501 203.509   5
   7   5   2 75.2075 154.964   5
   7   5   3-63.6187 152.257   5
   7   5   3-85.3109 174.305   4
   7   6  -8 494.617 231.589   5
   7   6  -8 609.637 271.995   4
   7   6  -7-62.7261 211.687   5
   7   6  -7-7.65243 199.320   4
   7   6  -6 463.832 239.937   5
   7   6  -5-317.356 227.869   5
   7   6  -4 1766.82 332.393   5
   7   6  -3 947.849 270.983   5
   7   6  -2-20.7584 211.888   5
   7   6  -1 192.684 138.794   5
   7   6  -1 556.951 211.117   4
   7   6   0 737.559 235.481   5
   7   6   0 505.201 256.540   4
   7   6   1 154.350 196.370   5
   7   7  -6 990.801 320.406   5
   7   7  -5 2365.25 411.812   5
   7   7  -4 158.969 186.223   5
   7   7  -3-10.2496 155.164   5
  -8  11   2-384.093 258.270   7
  -8  11   1 486.628 246.217   7
  -8  10   3 24.7270 191.197   7
   8 -10  -3 19.2868 211.107   2
  -8  10   2-120.088 177.061   7
   8 -10  -2 24.2275 169.905   2
  -8  10   1 387.390 202.939   7
   8 -10  -1 258.414 189.028   2
   8 -10   0 1478.62 337.363   2
   8 -10   1-332.687 262.386   2
   8 -10   2 946.594 265.825   2
   8 -10   3 712.052 233.462   2
   8 -10   4-175.128 199.386   2
   8 -10   5 728.501 266.504   2
   8 -10   6 2334.14 399.298   2
   8 -10   7 171.922 158.075   2
   8 -10   8 606.303 235.687   2
  -8   9   5 442.400 215.294   7
  -8   9   4 1781.69 331.583   7
   8  -9  -4 1392.09 336.838   2
  -8   9   3 1564.20 288.849   7
   8  -9  -3 1527.41 325.062   2
  -8   9   2 198.024 184.894   7
   8  -9  -2 584.880 248.517   2
  -8   9   1 86.2573 145.908   7
   8  -9  -1-79.6180 203.315   2
   8  -9   0 1821.71 335.043   2
   8  -9   1-55.4843 179.078   2
   8  -9   2-5.41712 152.564   2
   8  -9   3 732.806 246.319   2
   8  -9   4 2038.04 352.543   2
   8  -9   5 560.137 225.035   2
   8  -9   6-9.12581 176.067   2
   8  -9   7 617.357 221.141   2
  -8   9  -7 412.733 187.573   6
   8  -9   8 1663.61 332.510   2
  -8   9  -8 1673.99 352.516   6
   8  -9   9 1811.59 342.804   2
  -8   9  -9 1610.69 360.762   1
  -8   8   6 245.190 201.302   7
  -8   8   5 3030.18 419.306   1
  -8   8   5 4166.96 488.825   7
   8  -8  -5 4363.20 487.849   2
  -8   8   4 3482.58 432.381   7
   8  -8  -4 2957.86 410.765   2
  -8   8   4 3675.91 466.338   1
  -8   8   3 331.591 194.669   7
   8  -8  -3 622.702 234.734   2
   8  -8  -2 4650.62 486.789   2
  -8   8   2 5089.23 461.607   7
   8  -8  -1 3040.07 408.725   2
  -8   8   1 3231.22 369.271   7
   8  -8   0 2606.11 383.468   2
  -8   8   0 2556.82 295.758   7
   8  -8   1 1409.75 267.630   2
   8  -8   2 701.048 216.570   2
   8  -8   2 995.280 180.558   5
   8  -8   3 2722.16 390.014   2
   8  -8   3 3318.43 324.272   5
   8  -8   4-50.3192 142.840   2
   8  -8   4-65.2359 108.486   5
   8  -8   5-49.1671 135.962   2
   8  -8   5 69.1048 126.698   5
   8  -8   6 254.558 177.860   2
   8  -8   6 197.206 151.329   5
  -8   8  -6 546.696 203.073   6
   8  -8   7 358.207 214.780   5
  -8   8  -7 433.673 234.471   1
  -8   8  -7 401.478 196.526   6
   8  -8   7 633.407 201.643   2
  -8   8  -8 666.089 236.889   1
   8  -8   8 292.486 182.945   5
  -8   8  -8 207.809 170.324   6
   8  -8   8 634.414 193.480   2
  -8   8  -9 1264.23 300.398   1
   8  -8   9 738.388 275.969   5
   8  -7  -7 671.480 244.779   3
  -8   7   7-44.9048 184.206   7
   8  -7  -6 2440.48 371.058   3
  -8   7   6 2792.49 400.905   7
   8  -7  -6 2786.20 381.295   2
   8  -7  -5 221.962 115.086   3
  -8   7   5 358.970 193.941   1
  -8   7   5 437.336 200.271   7
   8  -7  -5 396.089 196.973   2
   8  -7  -4 17.9618 154.800   2
  -8   7   4 288.019 158.701   1
  -8   7   4 11.7642 142.413   7
   8  -7  -3 732.692 193.692   2
  -8   7   3 456.056 156.006   7
  -8   7   3 390.357 179.753   1
  -8   7   2 556.076 169.754   1
  -8   7   2 172.089 141.318   7
   8  -7  -2 315.327 131.248   5
  -8   7   1 834.821 183.366   7
   8  -7  -1 890.155 173.099   5
   8  -7   0 777.044 163.477   5
  -8   7   0 699.610 152.435   7
   8  -7   1 325.650 134.871   5
   8  -7   2 65.7179 95.9077   5
   8  -7   3 84.2436 107.650   5
   8  -7   4 678.623 192.197   5
  -8   7  -4 754.395 182.306   6
  -8   7  -5 10690.3 723.669   1
  -8   7  -5 9872.78 646.832   6
   8  -7   5 9724.38 651.462   5
  -8   7  -6 247.217 184.223   1
   8  -7   6 134.222 185.320   5
   8  -7   6-217.478 180.790   2
  -8   7  -6-0.26525 160.078   6
   8  -7   7-184.588 140.239   2
   8  -7   7-67.9141 178.706   5
  -8   7  -7 45.1744 166.742   1
  -8   7  -7-114.295 154.015   6
  -8   7  -8 112.819 174.502   1
  -8   7  -8-32.5836 147.721   6
   8  -7   8-95.7268 229.064   5
   8  -7   8 91.6979 139.031   2
  -8   7  -9 464.514 211.328   6
  -8   6   8 756.441 263.512   7
  -8   6   7 242.671 200.441   7
   8  -6  -6 558.082 193.619   2
  -8   6   6 380.066 172.544   1
  -8   6   6 164.399 156.399   7
  -8   6   5-110.492 150.212   7
  -8   6   5 73.0627 118.382   1
  -8   6   4 633.238 203.210   1
  -8   6   4 1259.10 229.466   7
   8  -6  -4 1163.34 235.843   5
  -8   6   3 4120.38 448.016   1
  -8   6   3 4313.29 375.228   7
   8  -6  -3 4408.35 391.303   5
  -8   6   2 857.081 227.610   1
   8  -6  -2 819.744 181.178   5
  -8   6   2 617.087 157.298   7
  -8   6   1 43.7897 116.530   1
   8  -6  -1 83.0849 127.456   5
  -8   6   1 144.382 96.3603   7
  -8   6   0 292.533 161.434   1
   8  -6   0 158.780 94.6494   5
  -8   6   0 438.419 117.080   7
   8  -6   1 122.504 108.575   5
  -8   6  -1 103.002 61.1365   7
  -8   6  -1 202.615 158.137   1
  -8   6  -2 346.571 189.371   1
   8  -6   2 67.2310 112.215   5
  -8   6  -2 2.49972 49.0013   7
  -8   6  -2 165.266 119.252   6
  -8   6  -3 4377.67 453.038   1
  -8   6  -3 4248.43 368.907   6
   8  -6   3 4927.85 433.178   5
  -8   6  -4 5732.46 514.849   1
  -8   6  -4 6138.59 478.600   6
   8  -6   5 417.691 206.247   5
  -8   6  -5 647.187 206.336   1
  -8   6  -5 285.245 146.861   6
   8  -6   6 1155.03 266.443   5
  -8   6  -6 720.795 232.957   1
  -8   6  -6 1039.38 226.992   6
   8  -6   7 2704.24 410.459   5
  -8   6  -7 2413.80 373.931   6
  -8   6  -7 2408.98 346.353   1
   8  -6   8 586.394 199.676   2
  -8   6  -8 418.562 198.329   1
  -8   6  -8 199.031 156.885   6
   8  -6   8 766.679 252.956   5
  -8   6  -9-214.348 203.387   6
  -8   5   8-58.2999 199.869   7
  -8   5   7 341.466 153.275   7
  -8   5   6 1749.05 300.879   1
  -8   5   6 1631.33 282.720   7
  -8   5   5-115.511 143.987   1
  -8   5   5-101.391 142.245   7
   8  -5  -5 22.5476 138.414   5
  -8   5   4 2291.92 283.664   7
   8  -5  -4 1839.95 287.348   5
  -8   5   4 1749.28 291.795   1
   8  -5  -3 1886.51 273.374   5
  -8   5   3 1609.56 213.804   7
  -8   5   3 1679.53 290.032   1
   8  -5  -2 781.777 181.889   5
  -8   5   2 969.048 151.756   7
  -8   5   2 826.243 221.647   1
   8  -5  -1 5614.95 431.671   5
  -8   5   1 5736.10 302.695   7
  -8   5   1 5944.60 505.561   1
   8  -5   0 30223.9 1057.72   5
  -8   5   0 29137.7 664.901   7
  -8   5   0 30649.5 1197.14   1
  -8   5   0 31015.6 831.376   6
   8  -5   1 13185.8 691.391   5
  -8   5  -1 13646.3 784.428   1
  -8   5  -1 13894.2 566.701   6
   8  -5   2 7073.23 526.397   5
  -8   5  -2 7519.94 575.206   1
  -8   5  -2 7088.77 432.586   6
  -8   5  -3 13945.9 782.493   1
  -8   5  -3 13640.5 653.169   6
   8  -5   3 14209.5 772.595   5
   8  -5   4 595.029 194.153   5
  -8   5  -4 707.926 219.007   1
  -8   5  -4 564.037 149.586   6
   8  -5   5 139.444 176.258   5
  -8   5  -5-74.2010 114.781   6
  -8   5  -5-281.671 200.576   1
   8  -5   6 668.896 241.104   5
  -8   5  -6 181.503 147.873   1
  -8   5  -6 471.484 162.925   6
   8  -5   7 316.141 182.125   5
  -8   5  -7 154.056 174.501   1
  -8   5  -7 328.150 181.486   6
  -8   5  -8 52.3100 176.014   6
   8  -5   8 177.123 188.206   5
  -8   5  -9 167.689 170.635   6
  -8   4   9-178.100 203.293   7
  -8   4   8-269.357 191.295   7
  -8   4   7 187.891 189.108   7
  -8   4   6-39.3934 123.755   7
   8  -4  -6 287.926 178.305   5
  -8   4   5 983.223 241.165   1
  -8   4   5 952.169 204.350   7
   8  -4  -5 1006.67 248.149   5
  -8   4   4 245.521 153.088   1
   8  -4  -4 271.087 146.811   5
  -8   4   4 357.574 132.018   7
  -8   4   3 3661.42 284.378   7
   8  -4  -3 2975.72 335.715   5
  -8   4   3 3007.22 364.780   1
   8  -4  -2 1528.91 254.373   5
  -8   4   2 1056.08 238.875   1
  -8   4   2 973.359 135.329   7
  -8   4   1-29.6230 127.910   1
   8  -4  -1 272.648 159.706   5
  -8   4   1 107.142 50.8547   7
   8  -4   0 35521.9 1191.84   5
  -8   4   0 33614.3 1245.88   1
  -8   4   0 33043.3 842.157   6
  -8   4  -1 3757.93 403.808   1
   8  -4   1 3706.75 394.958   5
  -8   4  -1 3518.94 276.723   6
   8  -4   2 828.548 226.920   5
  -8   4  -2 1242.74 255.245   1
  -8   4  -2 1048.71 169.501   6
   8  -4   3 2266.20 336.049   5
  -8   4  -3 1855.70 296.110   1
  -8   4  -3 2365.87 271.495   6
  -8   4  -4 401.553 159.518   1
   8  -4   4 370.091 154.649   5
  -8   4  -4 617.184 174.952   6
   8  -4   5 338.562 180.375   5
  -8   4  -5-39.2786 153.989   1
  -8   4  -5 223.735 138.960   6
   8  -4   6 289.836 208.923   5
  -8   4  -6 198.250 151.526   6
   8  -4   7-125.272 206.623   5
  -8   4  -7 300.800 193.405   6
   8  -4   8 836.513 277.278   5
  -8   4  -8 96.3994 150.417   6
  -8   4  -9 232.982 164.373   6
  -8   3  10-17.4354 197.614   7
  -8   3   9-330.023 261.925   7
  -8   3   8 1356.06 279.840   7
  -8   3   7 432.496 178.017   7
   8  -3  -7 13.6554 163.815   5
   8  -3  -6 174.885 198.788   5
  -8   3   6 494.538 160.147   7
   8  -3  -5 515.565 199.881   5
  -8   3   5 625.628 168.987   7
   8  -3  -4 12989.2 740.914   5
  -8   3   4 14257.4 606.466   7
   8  -3  -3 9475.80 608.001   5
  -8   3   3 8512.80 402.752   7
   8  -3  -2 2057.82 285.657   5
  -8   3   2 1879.67 148.701   7
  -8   3   2 1995.47 316.134   1
   8  -3  -1 101.801 112.637   5
  -8   3   1-152.025 165.590   1
   8  -3   0 1499.38 262.486   5
  -8   3   0 1487.04 254.527   1
  -8   3   0 1686.90 170.208   6
   8  -3   1 2771.72 346.501   5
  -8   3  -1 3660.94 409.126   1
  -8   3  -1 2699.59 252.746   6
   8  -3   2 848.481 212.712   5
  -8   3  -2 955.009 236.824   1
  -8   3  -2 824.944 172.751   6
   8  -3   3 424.893 186.743   5
  -8   3  -3 682.712 155.156   6
   8  -3   4 743.886 240.454   5
  -8   3  -4 1042.19 203.325   6
   8  -3   5 773.330 223.043   5
  -8   3  -5 489.769 163.634   6
   8  -3   6 24.1234 157.709   5
  -8   3  -6 221.194 180.890   6
   8  -3   7 75.0973 230.961   5
  -8   3  -7 498.941 212.298   6
   8  -3   8 44.3521 199.969   5
  -8   3  -8 173.466 196.301   6
  -8   2  10-30.4542 230.553   7
  -8   2   9 27.4283 180.745   7
  -8   2   8 21.1639 148.296   7
   8  -2  -7 291.338 209.802   5
  -8   2   7 282.164 179.848   7
   8  -2  -6 17401.8 940.453   5
  -8   2   6 17464.0 783.476   7
   8  -2  -5 608.413 230.974   5
  -8   2   5 942.322 181.796   7
   8  -2  -4 2215.26 328.262   5
  -8   2   4 1863.04 220.081   7
   8  -2  -3 415.663 178.597   5
  -8   2   3 139.261 75.3746   7
   8  -2  -2 588.943 185.046   5
   8  -2  -1 16295.5 816.563   5
   8  -2   0 3157.60 371.416   5
   8  -2   1 2352.83 323.600   5
   8  -2   2 1374.81 271.723   5
   8  -2   3-42.2176 171.876   5
  -8   2  -3-60.0656 104.806   6
   8  -2   4 315.775 159.337   5
  -8   2  -4 152.701 141.638   6
   8  -2   5 1389.59 289.509   5
  -8   2  -5 2184.70 331.596   6
   8  -2   6 892.492 251.111   5
   8  -2   7-240.625 254.575   5
  -8   1  10 2067.07 385.077   7
  -8   1   9 1011.20 302.964   7
   8  -1  -8 4062.63 511.906   5
  -8   1   8 4046.45 450.319   7
   8  -1  -7 13.0292 173.442   5
  -8   1   7 61.2568 136.373   7
   8  -1  -6 2256.30 363.457   5
  -8   1   6 2098.77 285.202   7
   8  -1  -5 7277.92 591.996   5
  -8   1   5 6866.93 458.477   7
   8  -1  -4 190.287 188.077   5
  -8   1   4 191.010 118.038   7
   8  -1  -3 8469.28 609.306   5
   8  -1  -2 21080.9 967.103   5
   8  -1  -1 640.569 206.455   5
   8  -1   0 1011.74 243.377   5
   8  -1   1 1796.13 308.409   5
   8  -1   2 7450.03 608.090   5
   8  -1   3 330.363 178.516   5
   8  -1   4-35.4173 183.573   5
   8  -1   5 582.543 244.177   5
   8  -1   6 514.792 251.021   5
   8  -1   7-123.695 242.588   5
  -8   0  10 290.694 256.581   7
  -8   0   9 39.3208 191.026   7
   8   0  -8 13390.7 914.076   5
  -8   0   8 13915.7 821.302   7
   8   0  -7 1945.30 396.883   5
  -8   0   7 1025.06 239.459   7
   8   0  -6-155.027 188.578   5
  -8   0   6 331.761 156.919   7
   8   0  -5 2156.16 331.692   5
   8   0  -4-20.4643 175.505   5
   8   0  -3 914.129 242.673   5
   8   0  -2 1199.60 264.127   5
   8   0  -1 1609.67 288.863   5
   8   0   0 361.511 187.347   5
   8   0   1 98.9416 148.365   5
   8   0   2-19.0512 153.178   5
   8   0   3 1099.27 287.420   5
   8   0   4 1891.95 360.783   5
   8   0   5 444.382 228.576   5
   8   0   6 8.58083 214.090   5
  -8  -1  10-214.271 243.319   7
   8   1  -9 181.352 253.552   5
  -8  -1   9 630.496 253.227   7
   8   1  -8-130.421 250.485   5
  -8  -1   8 125.959 186.439   7
   8   1  -7 558.152 260.818   5
  -8  -1   7 1210.15 255.804   7
   8   1  -6-23.6393 180.706   5
   8   1  -5 4630.76 504.082   5
   8   1  -4 2849.18 398.166   5
   8   1  -3 2530.34 363.859   5
   8   1  -2-21.5791 182.079   5
   8   1  -1-81.3501 139.667   5
   8   1   0 2128.21 340.061   5
   8   1   1 4028.14 463.780   5
   8   1   2 120.149 188.885   5
   8   1   3 265.692 180.352   5
   8   1   4 2999.36 450.026   5
   8   1   5-132.635 193.307   5
  -8  -2  10 53.5953 203.724   7
   8   2  -9 627.072 306.000   5
  -8  -2   9 737.540 247.854   7
   8   2  -8 306.298 241.869   5
   8   2  -7 681.591 280.775   5
   8   2  -6 829.349 271.372   5
   8   2  -5-122.500 225.159   5
   8   2  -4-163.358 203.641   5
   8   2  -3 1639.59 319.500   5
   8   2  -2 960.861 225.627   5
   8   2  -1 9061.79 685.993   5
   8   2   0 5666.20 570.668   5
   8   2   1-6.86486 165.827   5
   8   2   2 3156.52 443.006   5
   8   2   3 821.455 243.744   5
   8   2   4 1313.29 314.106   5
   8   3  -8 1225.74 318.390   5
   8   3  -7 2758.20 443.502   5
   8   3  -6 453.367 216.192   5
   8   3  -5-120.400 193.841   5
   8   3  -4-297.017 204.344   5
   8   3  -3 263.102 169.452   5
   8   3  -2 214.082 175.151   5
   8   3  -1 42.6849 143.320   5
   8   3   0 11.4924 157.334   5
   8   3   1 360.271 171.975   5
   8   3   2 83.3588 201.474   5
   8   3   3 239.470 250.377   5
   8   4  -8 697.422 294.843   5
   8   4  -7 142.144 191.389   5
   8   4  -6 247.205 228.375   5
   8   4  -5 681.716 247.751   5
   8   4  -4 1959.47 369.383   5
   8   4  -3 106.300 192.536   5
   8   4  -2 417.564 245.517   5
   8   4  -1 1456.84 325.033   5
   8   4   0 94.9250 159.518   5
   8   4   1-69.6958 170.273   5
   8   4   2 161.513 208.278   5
   8   5  -6 473.504 248.104   5
   8   5  -5 219.933 197.918   5
   8   5  -4 167.646 188.583   5
   8   5  -3 7.37965 150.832   5
   8   5  -2 10.2365 196.486   5
   8   5  -1 418.461 191.053   5
   8   5   0 426.533 197.527   5
   8   5   1-79.1013 187.207   5
   8   6  -4 70.7525 201.772   5
   8   6  -3 738.683 248.430   5
   8   6  -2-89.1599 178.531   5
   9 -10   1 625.309 227.867   2
   9 -10   2 1840.05 388.676   2
   9 -10   3 310.737 200.854   2
   9 -10   4 731.450 254.665   2
  -9  10  -6-264.509 218.927   6
  -9   9   4 1320.43 321.279   1
   9  -9  -4 1282.41 321.399   2
   9  -9  -3-147.054 225.803   2
  -9   9   3-81.7065 202.658   1
  -9   9   2 1872.89 368.754   1
   9  -9  -2 1043.44 283.781   2
   9  -9  -1 511.332 237.382   2
   9  -9   0 3367.40 469.623   2
   9  -9   1 285.927 192.937   2
   9  -9   2-162.821 218.591   2
   9  -9   3 772.100 247.700   2
   9  -9   4 50.6911 188.649   2
  -9   9  -5 190.141 135.158   6
   9  -9   5-371.504 267.049   2
  -9   9  -6-108.216 186.161   6
   9  -9   6-90.8936 159.116   2
  -9   9  -7 139.430 157.130   6
   9  -9   7 10.2788 152.380   2
  -9   9  -8 551.007 271.385   1
   9  -9   8 886.461 256.891   2
  -9   8   5 1029.90 274.893   1
   9  -8  -5 1597.10 322.004   2
  -9   8   4 282.841 204.729   1
   9  -8  -4 503.063 227.153   2
   9  -8  -3 463.203 247.354   2
  -9   8   3 195.905 225.459   1
   9  -8  -2 27.6491 167.478   2
  -9   8   2-28.1325 157.943   1
   9  -8  -1 589.766 238.334   2
  -9   8   1 432.268 196.656   1
   9  -8   0-11.3301 133.595   2
  -9   8   0 63.2035 154.024   1
  -9   8  -1 132.975 157.878   1
  -9   8  -2-185.330 179.282   1
   9  -8   3 285.401 155.931   5
  -9   8  -3 739.281 234.252   1
   9  -8   4 764.895 222.463   2
   9  -8   4 846.183 216.496   5
  -9   8  -4 707.818 208.644   6
  -9   8  -4 1202.46 315.141   1
   9  -8   5 322.975 233.133   2
   9  -8   5 81.2937 140.972   5
  -9   8  -5 392.725 190.309   6
  -9   8  -5-130.115 190.888   1
   9  -8   6 21.6544 146.526   2
  -9   8  -6 7.71923 156.580   1
   9  -8   6 377.245 198.047   5
  -9   8  -6-273.277 200.372   6
   9  -8   7 80.0073 156.770   2
   9  -8   7-328.989 236.830   5
  -9   8  -7 285.764 211.437   1
  -9   8  -7 103.021 135.279   6
   9  -8   8 309.951 269.601   5
  -9   8  -8-142.460 214.448   1
  -9   8  -8 163.158 168.912   6
   9  -8   8 55.9134 184.188   2
   9  -8   9 838.806 279.815   5
   9  -7  -6 586.368 234.858   2
   9  -7  -5-182.688 208.647   2
  -9   7   5-91.6016 182.877   1
  -9   7   4 284.210 203.247   1
  -9   7   3-44.7033 137.709   1
  -9   7   2 3176.69 410.443   1
   9  -7  -2 2262.56 302.904   5
  -9   7   1 52.7066 141.177   1
   9  -7  -1-75.4423 120.613   5
  -9   7   0 134.977 153.963   1
   9  -7   0 211.496 129.393   5
  -9   7  -1 120.771 177.471   1
   9  -7   1 269.776 138.987   5
   9  -7   2 5884.18 471.426   5
  -9   7  -2 5837.85 557.378   1
  -9   7  -2 6134.40 439.402   6
  -9   7  -3 1645.53 322.181   1
   9  -7   3 1564.80 265.592   5
  -9   7  -3 2301.25 289.493   6
   9  -7   4 474.976 183.202   5
  -9   7  -4 769.650 235.357   1
  -9   7  -4 636.874 178.829   6
   9  -7   5 449.614 200.720   5
  -9   7  -5 594.061 234.288   1
  -9   7  -5 546.402 208.546   6
   9  -7   6 22.0760 166.884   5
  -9   7  -6 52.3235 176.357   1
  -9   7  -6 158.601 154.389   6
   9  -7   7 1707.46 344.061   5
   9  -7   7 977.909 226.053   2
  -9   7  -7 1613.70 337.201   1
  -9   7  -7 915.030 253.594   6
   9  -7   8 205.782 172.785   2
   9  -7   8 309.387 213.653   5
  -9   7  -8 189.844 220.454   1
  -9   7  -8 70.1720 182.636   6
  -9   6   6 608.905 162.845   1
  -9   6   5 834.398 239.337   1
   9  -6  -5 302.121 151.650   5
  -9   6   4 272.303 170.559   1
   9  -6  -4 155.546 156.697   5
   9  -6  -3 231.188 129.103   5
  -9   6   3 294.482 201.363   1
   9  -6  -2-18.3604 140.712   5
  -9   6   2 390.820 174.775   1
   9  -6  -1 738.326 192.160   5
  -9   6   1 369.999 188.301   1
   9  -6   0 30.4776 112.553   5
  -9   6   0 68.7863 161.203   1
   9  -6   1 338.840 139.395   5
  -9   6  -1 95.0015 153.779   1
   9  -6   2 3334.00 383.003   5
  -9   6  -2 3213.87 430.934   1
  -9   6  -2 3605.15 324.148   6
   9  -6   3 2089.80 322.939   5
  -9   6  -3 1891.96 333.418   1
  -9   6  -3 2498.16 291.682   6
   9  -6   4-92.8847 162.845   5
  -9   6  -4 112.849 165.005   1
  -9   6  -4 70.0843 104.119   6
   9  -6   5 4356.93 487.182   5
  -9   6  -5 3292.69 389.337   6
  -9   6  -5 4714.55 504.236   1
   9  -6   6 3184.95 444.067   5
  -9   6  -6 3413.47 456.361   1
  -9   6  -6 3605.02 443.235   6
   9  -6   7 201.928 175.305   5
  -9   6  -7-207.998 175.540   1
  -9   6  -7-44.1820 151.422   6
   9  -6   8 147.655 220.311   5
  -9   6  -8-61.1270 155.150   1
  -9   6  -8-83.8137 178.263   6
  -9   5   7-85.0638 189.398   7
  -9   5   6-139.052 169.768   7
   9  -5  -6 122.212 172.346   5
  -9   5   5 1972.70 299.447   7
   9  -5  -5 2661.92 379.338   5
  -9   5   5 2711.38 376.140   1
   9  -5  -4 2241.02 327.205   5
  -9   5   4 2029.84 348.793   1
   9  -5  -3 2886.29 361.216   5
  -9   5   3 3149.37 399.337   1
  -9   5   2 575.771 197.166   1
   9  -5  -2 296.684 146.181   5
  -9   5   1 896.331 230.887   1
   9  -5  -1 1022.32 219.855   5
  -9   5   0 3665.89 443.904   1
   9  -5   0 3883.84 400.530   5
  -9   5  -1-55.1203 143.674   1
   9  -5   1 10.5895 117.698   5
  -9   5  -2 2032.63 334.861   1
   9  -5   2 1482.43 269.378   5
  -9   5  -2 1403.52 206.275   6
   9  -5   3 3778.90 426.728   5
  -9   5  -3 3985.51 464.548   1
  -9   5  -3 2932.06 316.556   6
   9  -5   4 1452.46 300.116   5
  -9   5  -4 1942.41 340.582   1
  -9   5  -4 1586.14 254.407   6
   9  -5   5 333.732 144.565   5
  -9   5  -5 289.247 207.910   1
  -9   5  -5 307.869 139.524   6
  -9   5  -6 213.346 183.427   1
   9  -5   6-341.773 229.484   5
  -9   5  -6-122.889 168.683   6
   9  -5   7-244.577 241.911   5
  -9   5  -7 78.1747 164.403   6
   9  -5   8 263.609 207.618   5
  -9   5  -8 344.594 219.669   6
  -9   4   8 1006.57 251.322   7
  -9   4   7 131.767 175.253   7
  -9   4   6-97.5748 158.951   7
   9  -4  -6 100.441 151.960   5
   9  -4  -5 446.886 213.272   5
  -9   4   5 928.920 190.521   7
   9  -4  -4 133.259 156.519   5
  -9   4   3 3935.86 456.931   1
   9  -4  -3 3205.50 387.548   5
  -9   4   2 3132.99 414.412   1
   9  -4  -2 2397.98 337.452   5
   9  -4  -1 717.593 197.620   5
  -9   4   1 1313.97 281.328   1
   9  -4   0 379.920 171.425   5
  -9   4   0 124.298 146.892   1
   9  -4   1 150.536 182.740   5
  -9   4  -1-6.32310 147.721   1
   9  -4   2 644.125 201.537   5
  -9   4  -2 344.326 120.710   6
   9  -4   3 2977.46 401.523   5
  -9   4  -3 3008.54 416.181   1
  -9   4  -3 3384.33 345.609   6
   9  -4   4 3160.65 419.191   5
  -9   4  -4 3116.84 359.371   6
   9  -4   5 470.085 224.371   5
  -9   4  -5 187.962 174.746   6
   9  -4   6 375.077 239.730   5
  -9   4  -6-81.1931 193.535   6
   9  -4   7 251.499 217.377   5
  -9   4  -7 109.115 162.770   6
  -9   4  -8 1697.12 367.845   6
  -9   3   8 15.4428 171.469   7
   9  -3  -7 562.222 240.782   5
  -9   3   7 587.926 195.311   7
   9  -3  -6 152.810 190.376   5
  -9   3   6 309.042 139.288   7
   9  -3  -5-165.194 161.537   5
   9  -3  -4 5642.91 525.729   5
   9  -3  -3 354.879 184.448   5
   9  -3  -2-97.3724 166.404   5
   9  -3  -1 534.741 171.307   5
   9  -3   0 255.128 159.770   5
   9  -3   1 1035.69 251.591   5
   9  -3   2 2836.08 396.179   5
  -9   3  -2 3187.87 318.281   6
   9  -3   3 483.114 197.374   5
  -9   3  -3 730.699 183.146   6
   9  -3   4 403.800 191.319   5
  -9   3  -4 595.520 192.220   6
   9  -3   5 100.130 166.847   5
  -9   3  -5 25.5103 127.329   6
   9  -3   6 62.5996 184.917   5
  -9   3  -6-67.5459 142.956   6
   9  -3   7 3904.58 533.770   5
  -9   3  -7 4938.79 570.573   6
   9  -2  -8 2074.43 411.635   5
  -9   2   8 1381.86 286.736   7
   9  -2  -7 231.296 207.864   5
  -9   2   7 477.044 193.584   7
  -9   2   6 6726.75 494.695   7
   9  -2  -6 6515.74 602.190   5
   9  -2  -5 16.8819 179.809   5
   9  -2  -4 3306.68 418.093   5
   9  -2  -3 6794.61 574.536   5
   9  -2  -2 5801.01 527.009   5
   9  -2  -1 328.735 183.335   5
   9  -2   0 560.576 184.889   5
   9  -2   1 9667.35 707.163   5
   9  -2   2 2276.59 374.973   5
   9  -2   3 357.073 184.703   5
   9  -2   4 948.452 264.660   5
   9  -2   5 1951.59 369.146   5
   9  -2   6 873.887 300.109   5
   9  -1  -8 253.534 220.496   5
   9  -1  -7 3247.11 468.132   5
   9  -1  -6 13406.7 890.796   5
   9  -1  -5 325.010 212.375   5
   9  -1  -4 333.501 217.852   5
   9  -1  -3 221.840 194.881   5
   9  -1  -2 266.711 198.312   5
   9  -1  -1 371.620 215.188   5
   9  -1   0 2513.70 355.714   5
   9  -1   1 1999.96 354.102   5
   9  -1   2 58.3288 133.822   5
   9  -1   3 180.135 165.221   5
   9  -1   4 193.611 193.536   5
   9  -1   5 111.414 174.937   5
   9   0  -8-414.012 305.313   5
   9   0  -7 591.020 271.939   5
   9   0  -6 589.688 239.941   5
   9   0  -5 388.380 201.557   5
   9   0  -4 670.013 206.649   5
   9   0  -3 840.607 233.255   5
   9   0  -2 405.925 220.605   5
   9   0  -1 5001.09 535.808   5
   9   0   0 223.947 205.237   5
   9   0   1-213.916 177.258   5
   9   0   2 22.0034 163.758   5
   9   0   3 1343.26 316.775   5
   9   0   4 59.2979 193.680   5
   9   0   5-184.793 234.959   5
   9   1  -8-145.043 277.449   5
   9   1  -7 722.855 279.186   5
   9   1  -6 194.473 224.879   5
   9   1  -5 736.384 289.971   5
   9   1  -4 608.426 218.963   5
   9   1  -3-143.428 203.233   5
   9   1  -2 1141.49 284.194   5
   9   1  -1 7903.33 671.703   5
   9   1   0 982.032 258.474   5
   9   1   1 51.6471 159.874   5
   9   1   2-211.667 178.526   5
   9   1   3 20.0037 182.739   5
   9   1   4 350.880 260.648   5
   9   2  -7 1.17267 174.375   5
   9   2  -6 2757.97 457.608   5
   9   2  -5 488.150 209.209   5
   9   2  -4 268.439 193.804   5
   9   2  -3 903.805 287.544   5
   9   2  -2 2274.98 390.032   5
   9   2  -1 7191.29 662.433   5
   9   2   0 799.494 278.393   5
   9   2   1-137.784 198.499   5
   9   2   2 527.492 226.390   5
   9   3  -6 303.008 272.832   5
   9   3  -5 780.488 295.129   5
   9   3  -4 426.726 216.566   5
   9   3  -3 451.193 205.999   5
   9   3  -2 681.254 228.313   5
   9   3  -1 53.8674 160.561   5
   9   3   0 1123.07 308.580   5
   9   3   1-165.985 259.178   5
   9   4  -4 537.427 226.313   5
   9   4  -3 17.4751 197.744   5
   9   4  -2 241.146 163.071   5
   9   4  -1 133.290 179.804   5
 -10   9   0 399.509 257.002   1
  10  -9   1-163.609 240.456   2
 -10   9  -1 377.116 275.092   1
  10  -9   2 422.421 236.312   2
 -10   9  -2 518.584 191.265   1
  10  -9   3 427.065 239.882   2
 -10   9  -3 185.674 224.924   1
 -10   9  -6-79.3195 163.028   6
  10  -8  -4-325.004 264.698   2
 -10   8   4-252.695 195.227   1
  10  -8  -3 140.622 176.529   2
 -10   8   3 433.489 239.168   1
 -10   8   2-41.0098 157.545   1
 -10   8   1 310.020 209.100   1
 -10   8   0 1324.58 324.762   1
 -10   8  -1 1181.51 323.053   1
 -10   8  -2 376.939 224.119   1
 -10   8  -3 323.273 232.835   1
  10  -8   4 311.939 187.287   5
 -10   8  -4 197.291 229.532   1
  10  -8   5-650.260 252.391   5
 -10   8  -5-92.2589 175.801   1
  10  -8   6 177.762 173.283   2
  10  -8   6 306.731 184.472   5
 -10   8  -6-261.396 281.876   1
 -10   8  -6 173.439 148.182   6
  10  -8   7 209.357 175.427   2
  10  -8   7 41.7441 199.974   5
 -10   8  -7-31.0021 139.645   6
 -10   8  -7-143.325 216.318   1
  10  -7  -6-198.890 240.788   2
 -10   7   5-358.633 230.703   1
 -10   7   4 464.935 169.413   1
 -10   7   3 719.555 245.795   1
 -10   7   2 150.625 171.138   1
  10  -7  -1-82.8149 154.559   5
 -10   7   1 584.314 249.084   1
  10  -7   0-142.604 183.751   5
 -10   7   0-176.520 224.482   1
  10  -7   1 1331.11 264.837   5
 -10   7  -1 1467.61 344.069   1
  10  -7   2 3568.53 410.491   5
 -10   7  -2 3448.42 475.380   1
  10  -7   3 101.010 135.843   5
 -10   7  -3 614.267 252.714   1
  10  -7   4 690.909 230.424   5
 -10   7  -4 1097.04 280.038   1
  10  -7   5 593.372 221.102   5
 -10   7  -5 1177.16 301.359   1
  10  -7   6 139.737 213.874   5
 -10   7  -6 5.34087 190.917   1
 -10   7  -6 207.555 157.452   6
  10  -7   7-64.5369 176.842   5
 -10   7  -7 122.199 212.630   1
 -10   7  -7 470.439 232.724   6
 -10   7  -8 353.094 273.196   1
 -10   6   5 1254.31 306.845   1
  10  -6  -4-233.681 217.520   5
 -10   6   4-34.7953 146.393   1
  10  -6  -3 203.451 192.779   5
 -10   6   3 406.157 197.363   1
 -10   6   2 1449.93 328.137   1
  10  -6  -2 867.261 241.739   5
 -10   6   1 84.4037 150.481   1
  10  -6  -1 282.811 159.485   5
 -10   6   0 1005.71 253.495   1
  10  -6   0 878.751 228.006   5
 -10   6  -1 5800.13 583.854   1
  10  -6   1 5209.24 492.004   5
  10  -6   2 7211.61 590.180   5
 -10   6  -2 6869.70 639.106   1
  10  -6   3 193.197 186.142   5
 -10   6  -3 29.7486 170.890   1
  10  -6   4 370.766 216.621   5
 -10   6  -4-7.17157 171.223   1
  10  -6   5-150.506 181.086   5
 -10   6  -5 26.4325 128.936   6
 -10   6  -5 187.279 186.612   1
 -10   6  -6 340.706 241.328   1
  10  -6   6 22.9352 176.213   5
 -10   6  -6 242.302 172.019   6
  10  -6   7 184.440 188.491   5
 -10   6  -7 126.221 145.889   6
  10  -5  -6-29.9847 172.612   5
  10  -5  -5 510.342 245.220   5
 -10   5   4 878.036 236.983   1
  10  -5  -4 982.112 264.791   5
 -10   5   3-54.0997 152.584   1
  10  -5  -3 206.819 174.157   5
  10  -5  -2 1326.73 281.284   5
 -10   5   2 941.271 260.118   1
 -10   5   1 173.171 157.784   1
  10  -5  -1-290.972 193.573   5
 -10   5   0 424.186 191.986   1
  10  -5   0 237.762 162.596   5
 -10   5  -1 1264.57 320.654   1
  10  -5   1 740.841 211.638   5
  10  -5   2 1630.42 316.988   5
 -10   5  -2 2739.02 407.322   1
  10  -5   3 78.5960 154.527   5
 -10   5  -3 147.650 193.783   1
  10  -5   4-46.5708 157.165   5
 -10   5  -4 293.973 171.896   1
  10  -5   5-207.288 199.908   5
 -10   5  -5 62.4845 119.053   6
  10  -5   6 1045.70 300.168   5
 -10   5  -6 250.584 182.129   6
 -10   5  -7 157.205 141.150   6
  10  -4  -7 844.974 298.957   5
  10  -4  -6 38.4409 190.398   5
  10  -4  -5 235.526 202.011   5
  10  -4  -4-39.7760 182.562   5
  10  -4  -3 91.1968 165.374   5
  10  -4  -2 1176.17 255.521   5
  10  -4  -1 545.502 216.928   5
  10  -4   0 190.729 171.371   5
  10  -4   1 89.7151 132.947   5
  10  -4   2 47.5481 185.353   5
  10  -4   3 303.658 214.780   5
  10  -4   4-94.1389 167.239   5
  10  -4   5 47.5117 234.609   5
 -10   4  -5 558.398 210.905   6
  10  -4   6-321.750 284.951   5
 -10   4  -6-174.822 163.767   6
 -10   4  -7 798.784 242.891   6
  10  -3  -7 340.744 256.620   5
  10  -3  -6 587.354 280.334   5
  10  -3  -5-152.734 212.936   5
  10  -3  -4 902.877 255.526   5
  10  -3  -3 448.129 215.982   5
  10  -3  -2 279.127 169.949   5
  10  -3  -1 1085.58 254.065   5
  10  -3   0 2036.36 350.821   5
  10  -3   1 41.4767 160.951   5
  10  -3   2 285.630 177.486   5
  10  -3   3 5032.90 564.587   5
  10  -3   4 796.440 268.750   5
  10  -3   5 601.752 261.880   5
  10  -2  -7 2276.37 404.457   5
  10  -2  -6 466.404 253.013   5
  10  -2  -5-241.905 224.555   5
  10  -2  -4 1804.92 353.270   5
  10  -2  -3 1778.20 329.125   5
  10  -2  -2 271.165 207.654   5
  10  -2  -1 230.621 185.941   5
  10  -2   0-26.1704 131.637   5
  10  -2   1 372.803 194.202   5
  10  -2   2 1616.58 335.449   5
  10  -2   3 50.8992 163.008   5
  10  -2   4-681.087 333.996   5
  10  -1  -7 2241.48 447.189   5
  10  -1  -6 17.5229 178.748   5
  10  -1  -5 1582.17 341.290   5
  10  -1  -4 1736.21 355.104   5
  10  -1  -3-227.743 262.340   5
  10  -1  -2 199.314 171.526   5
  10  -1  -1 257.243 195.580   5
  10  -1   0 439.728 204.029   5
  10  -1   1 538.178 235.802   5
  10  -1   2-90.6463 185.487   5
  10  -1   3-15.1398 172.741   5
  10   0  -6-6.95351 235.905   5
  10   0  -5 1796.76 373.694   5
  10   0  -4 17.7772 187.874   5
  10   0  -3 1008.56 298.949   5
  10   0  -2-21.7065 211.607   5
  10   0  -1 773.736 274.618   5
  10   0   0 809.617 278.348   5
  10   0   1 1271.65 297.791   5
  10   0   2-240.207 257.532   5
  10   1  -5 197.237 235.587   5
  10   1  -4-76.4488 199.766   5
  10   1  -3-105.840 203.868   5
  10   1  -2 1479.22 339.917   5
  10   1  -1 81.0614 195.605   5
  10   1   0 48.9846 191.839   5
  10   1   1 1252.69 328.067   5
  10   2  -3 2499.69 453.766   5
  10   2  -2 1642.93 364.839   5
 -11   7   1 1307.96 340.803   1
 -11   7   0 2975.09 481.630   1
  11  -7   0 3312.14 426.485   5
 -11   7  -1 805.654 259.931   1
  11  -7   1 466.050 207.422   5
  11  -7   2 206.070 174.526   5
 -11   7  -2 558.251 215.050   1
  11  -7   3 770.863 262.532   5
 -11   7  -3 373.621 168.780   1
  11  -7   4 372.480 233.968   5
  11  -7   5 271.453 208.925   5
 -11   6   4 861.063 258.129   1
  11  -6  -4 1324.31 305.782   5
  11  -6  -3-20.8449 178.352   5
 -11   6   3 569.858 288.524   1
  11  -6  -2 28.1945 181.100   5
 -11   6   2 144.625 219.008   1
 -11   6   1-255.644 252.763   1
  11  -6  -1-53.6042 213.416   5
 -11   6   0 1765.89 362.547   1
  11  -6   0 1911.07 340.362   5
 -11   6  -1 81.3030 206.889   1
  11  -6   1-26.2927 173.542   5
  11  -6   2 376.449 225.508   5
 -11   6  -2-87.2889 213.334   1
  11  -6   3 1665.14 330.679   5
 -11   6  -3 1636.08 351.875   1
  11  -6   4-197.298 223.617   5
 -11   6  -4 239.619 216.353   1
  11  -6   5 328.828 216.680   5
  11  -5  -6 113.046 229.377   5
  11  -5  -5 998.965 312.569   5
  11  -5  -4 109.854 205.860   5
  11  -5  -3 666.080 253.525   5
  11  -5  -2-148.565 205.255   5
  11  -5  -1 131.669 187.850   5
  11  -5   0 506.426 243.131   5
  11  -5   1 473.392 227.941   5
  11  -5   2 293.093 214.004   5
  11  -5   3 140.640 174.725   5
  11  -5   4-111.327 194.037   5
  11  -4  -6-351.502 296.611   5
  11  -4  -5-207.045 254.355   5
  11  -4  -4 1060.00 318.251   5
  11  -4  -3-45.9059 195.184   5
  11  -4  -2 494.311 259.925   5
  11  -4  -1 135.170 163.394   5
  11  -4   0 529.135 224.041   5
  11  -4   1 1106.40 305.879   5
  11  -4   2-79.5859 219.461   5
  11  -4   3 831.435 262.008   5
  11  -4   4-223.525 209.827   5
  11  -3  -5 3055.83 466.856   5
  11  -3  -4 564.045 261.136   5
  11  -3  -3 663.311 254.539   5
  11  -3  -2 416.334 235.894   5
  11  -3  -1 2669.72 415.260   5
  11  -3   0 192.936 203.053   5
  11  -3   1 106.429 178.696   5
  11  -3   2 164.603 181.394   5
  11  -3   3 540.459 234.591   5
  11  -2  -5 2636.68 453.015   5
  11  -2  -4 789.121 294.456   5
  11  -2  -3 2851.51 446.365   5
  11  -2  -2 1897.69 372.248   5
  11  -2  -1 358.199 225.475   5
  11  -2   0 544.272 280.484   5
  11  -2   1 18.8802 214.474   5
  11  -2   2 459.719 254.836   5
  11  -1  -4 263.130 238.588   5
  11  -1  -3 528.825 254.770   5
  11  -1  -2 526.545 272.329   5
  11  -1  -1-34.6716 199.022   5
  11  -1   0 380.674 234.880   5
  12  -7   2 639.650 273.343   5
  12  -7   3 22.2150 201.983   5
  12  -6  -3 1378.81 335.824   5
  12  -6  -2 343.350 230.427   5
  12  -6  -1-34.0890 223.472   5
  12  -6   0-390.372 233.219   5
  12  -6   1 62.5269 210.759   5
  12  -6   2 228.234 189.421   5
  12  -5  -3 141.263 220.857   5
  12  -5  -2 265.823 189.245   5
  12  -5  -1 73.7598 234.765   5
  12  -5   0 5.11270 167.904   5
  12  -5   1-348.482 249.601   5
  12  -4  -2 489.361 260.635   5
  12  -4  -1 961.492 307.134   5
  12  -4   0 55.8821 205.168   5
   0   0   0    0.00    0.00   0
TITL lc-4-084 in P-1
REM P-1 (#2 in standard setting)
CELL 0.71073   9.241353   9.437419  10.125898 109.0039  92.1284 110.1366
ZERR    2.00   0.000888   0.001147   0.001126   0.0105   0.0084   0.0099
LATT  1
SFAC C H N O
UNIT 40.00 40.00 6.00 6.00
TREF
HKLF 4
END
;
_shelx_hkl_checksum              72596
loop_
_space_group_symop_operation_xyz
'x, y, z'
'-x, -y, -z'
loop_
_atom_site_label
_atom_site_type_symbol
_atom_site_fract_x
_atom_site_fract_y
_atom_site_fract_z
_atom_site_U_iso_or_equiv
_atom_site_adp_type
_atom_site_occupancy
_atom_site_site_symmetry_order
_atom_site_calc_flag
_atom_site_refinement_flags_posn
_atom_site_refinement_flags_adp
O3 O 0.1328(2) -1.0657(2) 0.2047(2) 0.0513(5) Uani 1 1 d . .
O2 O 0.2177(3) -0.7047(3) 0.1687(2) 0.0655(7) Uani 1 1 d . .
O1 O -0.2020(3) -1.1016(3) 0.2489(3) 0.0881(9) Uani 1 1 d . .
N1 N 0.0618(3) -0.9551(3) 0.2553(3) 0.0500(6) Uani 1 1 d . .
C1 C 0.1352(3) -0.7889(3) 0.3586(3) 0.0413(6) Uani 1 1 d . .
H1 H 0.1967 -0.7825 0.4428 0.050 Uiso 1 1 calc R U
C4 C 0.2243(3) -0.6652(3) 0.2965(3) 0.0441(6) Uani 1 1 d . .
C6 C 0.3249(3) -0.4466(3) 0.5399(3) 0.0479(7) Uani 1 1 d . .
H6 H 0.2703 -0.5196 0.5809 0.058 Uiso 1 1 calc R U
C5 C 0.3154(3) -0.4962(3) 0.3939(3) 0.0410(6) Uani 1 1 d . .
C8 C 0.4985(4) -0.1808(4) 0.5655(4) 0.0595(8) Uani 1 1 d . .
H8 H 0.5606 -0.0754 0.6233 0.071 Uiso 1 1 calc R U
C11 C -0.0742(4) -0.7748(4) 0.5278(3) 0.0624(9) Uani 1 1 d . .
H11A H -0.0268 -0.8267 0.5732 0.094 Uiso 1 1 calc R U
H11B H -0.1854 -0.8191 0.5226 0.094 Uiso 1 1 calc R U
H11C H -0.0347 -0.6608 0.5815 0.094 Uiso 1 1 calc R U
C14 C 0.1273(4) -1.3714(4) -0.0688(3) 0.0554(8) Uani 1 1 d . .
H14 H 0.0205 -1.3993 -0.0925 0.066 Uiso 1 1 calc R U
C7 C 0.4154(4) -0.2890(4) 0.6245(3) 0.0571(8) Uani 1 1 d . .
H7 H 0.4200 -0.2559 0.7222 0.069 Uiso 1 1 calc R U
C2 C -0.0357(3) -0.8031(4) 0.3795(3) 0.0463(7) Uani 1 1 d . .
H2 H -0.0724 -0.7422 0.3334 0.056 Uiso 1 1 calc R U
C13 C 0.2213(4) -1.2125(3) 0.0102(3) 0.0480(7) Uani 1 1 d . .
C17 C 0.4438(4) -1.2909(5) -0.0013(4) 0.0701(10) Uani 1 1 d . .
H17 H 0.5506 -1.2645 0.0208 0.084 Uiso 1 1 calc R U
C10 C 0.3980(4) -0.3846(4) 0.3355(3) 0.0516(7) Uani 1 1 d . .
H10 H 0.3911 -0.4157 0.2376 0.062 Uiso 1 1 calc R U
C9 C 0.4898(4) -0.2286(4) 0.4207(4) 0.0599(8) Uani 1 1 d . .
H9 H 0.5460 -0.1554 0.3806 0.072 Uiso 1 1 calc R U
C16 C 0.3459(5) -1.4485(5) -0.0798(4) 0.0702(10) Uani 1 1 d . .
H16 H 0.3878 -1.5280 -0.1103 0.084 Uiso 1 1 calc R U
C12 C 0.1507(5) -1.0866(4) 0.0588(3) 0.0701(10) Uani 1 1 d . .
H12A H 0.2186 -0.9855 0.0524 0.084 Uiso 1 1 calc R U
H12B H 0.0501 -1.1221 0.0006 0.084 Uiso 1 1 calc R U
C18 C 0.3811(4) -1.1732(4) 0.0439(3) 0.0607(8) Uani 1 1 d . .
H18 H 0.4461 -1.0671 0.0972 0.073 Uiso 1 1 calc R U
C15 C 0.1899(5) -1.4891(4) -0.1129(3) 0.0653(9) Uani 1 1 d . .
H15 H 0.1254 -1.5957 -0.1651 0.078 Uiso 1 1 calc R U
C3 C -0.0857(4) -0.9825(4) 0.2833(3) 0.0535(8) Uani 1 1 d . .
loop_
_atom_site_aniso_label
_atom_site_aniso_U_11
_atom_site_aniso_U_22
_atom_site_aniso_U_33
_atom_site_aniso_U_23
_atom_site_aniso_U_13
_atom_site_aniso_U_12
O3 0.0673(14) 0.0469(11) 0.0482(11) 0.0156(9) 0.0201(10) 0.0322(10)
O2 0.0886(17) 0.0568(13) 0.0420(12) 0.0144(10) 0.0160(11) 0.0192(12)
O1 0.0540(15) 0.0670(16) 0.103(2) 0.0061(14) 0.0178(14) -0.0017(13)
N1 0.0461(14) 0.0392(13) 0.0584(15) 0.0084(11) 0.0143(11) 0.0166(11)
C1 0.0393(14) 0.0398(14) 0.0449(15) 0.0126(12) 0.0083(11) 0.0173(12)
C4 0.0449(15) 0.0460(15) 0.0437(15) 0.0152(12) 0.0122(12) 0.0204(13)
C6 0.0547(17) 0.0452(16) 0.0451(16) 0.0186(13) 0.0096(13) 0.0179(13)
C5 0.0401(14) 0.0419(14) 0.0454(15) 0.0173(12) 0.0134(11) 0.0187(12)
C8 0.0520(18) 0.0434(17) 0.074(2) 0.0131(16) -0.0002(16) 0.0153(14)
C11 0.062(2) 0.077(2) 0.0573(19) 0.0244(17) 0.0252(16) 0.0350(18)
C14 0.0567(19) 0.0566(19) 0.0508(17) 0.0182(14) 0.0076(14) 0.0200(15)
C7 0.067(2) 0.0514(18) 0.0466(17) 0.0107(14) 0.0001(14) 0.0215(16)
C2 0.0427(15) 0.0542(17) 0.0478(16) 0.0187(13) 0.0119(12) 0.0245(13)
C13 0.067(2) 0.0470(16) 0.0378(15) 0.0170(12) 0.0169(13) 0.0284(15)
C17 0.061(2) 0.105(3) 0.068(2) 0.047(2) 0.0224(18) 0.043(2)
C10 0.0565(18) 0.0522(17) 0.0539(17) 0.0227(14) 0.0232(14) 0.0250(15)
C9 0.0536(19) 0.0481(18) 0.083(2) 0.0308(17) 0.0237(17) 0.0170(15)
C16 0.104(3) 0.086(3) 0.054(2) 0.0317(19) 0.033(2) 0.067(3)
C12 0.117(3) 0.070(2) 0.0467(18) 0.0213(16) 0.0257(19) 0.061(2)
C18 0.067(2) 0.0562(19) 0.0479(18) 0.0182(15) 0.0072(15) 0.0116(16)
C15 0.098(3) 0.0447(17) 0.0500(18) 0.0100(14) 0.0095(18) 0.0299(18)
C3 0.0447(17) 0.0542(18) 0.0550(18) 0.0151(14) 0.0108(13) 0.0148(14)
loop_
_atom_type_symbol
_atom_type_description
_atom_type_scat_dispersion_real
_atom_type_scat_dispersion_imag
_atom_type_scat_source
C C 0.0033 0.0016 'International Tables Vol C Tables 4.2.6.8 and 6.1.1.4'
H H 0.0000 0.0000 'International Tables Vol C Tables 4.2.6.8 and 6.1.1.4'
N N 0.0061 0.0033 'International Tables Vol C Tables 4.2.6.8 and 6.1.1.4'
O O 0.0106 0.0060 'International Tables Vol C Tables 4.2.6.8 and 6.1.1.4'
loop_
_geom_angle_atom_site_label_1
_geom_angle_atom_site_label_2
_geom_angle_atom_site_label_3
_geom_angle
N1 O3 C12 109.7(2)
C3 N1 O3 128.8(2)
C3 N1 C1 97.2(2)
O3 N1 C1 127.1(2)
N1 C1 C4 114.5(2)
N1 C1 C2 85.37(19)
C4 C1 C2 116.8(2)
N1 C1 H1 112.5
C4 C1 H1 112.5
C2 C1 H1 112.5
O2 C4 C5 121.5(3)
O2 C4 C1 119.7(3)
C5 C4 C1 118.8(2)
C7 C6 C5 120.1(3)
C7 C6 H6 120.0
C5 C6 H6 120.0
C6 C5 C10 118.8(3)
C6 C5 C4 123.0(3)
C10 C5 C4 118.2(3)
C7 C8 C9 119.9(3)
C7 C8 H8 120.0
C9 C8 H8 120.0
C2 C11 H11A 109.5
C2 C11 H11B 109.5
H11A C11 H11B 109.5
C2 C11 H11C 109.5
H11A C11 H11C 109.5
H11B C11 H11C 109.5
C15 C14 C13 120.9(3)
C15 C14 H14 119.5
C13 C14 H14 119.5
C8 C7 C6 120.5(3)
C8 C7 H7 119.7
C6 C7 H7 119.7
C11 C2 C3 115.0(3)
C11 C2 C1 117.9(2)
C3 C2 C1 86.0(2)
C11 C2 H2 111.9
C3 C2 H2 111.9
C1 C2 H2 111.9
C14 C13 C18 118.6(3)
C14 C13 C12 120.2(3)
C18 C13 C12 121.3(3)
C18 C17 C16 119.3(3)
C18 C17 H17 120.3
C16 C17 H17 120.3
C9 C10 C5 120.7(3)
C9 C10 H10 119.6
C5 C10 H10 119.6
C10 C9 C8 120.0(3)
C10 C9 H9 120.0
C8 C9 H9 120.0
C15 C16 C17 121.1(3)
C15 C16 H16 119.5
C17 C16 H16 119.5
O3 C12 C13 106.4(2)
O3 C12 H12A 110.4
C13 C12 H12A 110.4
O3 C12 H12B 110.4
C13 C12 H12B 110.4
H12A C12 H12B 108.6
C17 C18 C13 120.4(3)
C17 C18 H18 119.8
C13 C18 H18 119.8
C16 C15 C14 119.7(3)
C16 C15 H15 120.1
C14 C15 H15 120.1
O1 C3 N1 133.0(3)
O1 C3 C2 136.6(3)
N1 C3 C2 90.3(2)
loop_
_geom_bond_atom_site_label_1
_geom_bond_atom_site_label_2
_geom_bond_distance
O3 N1 1.389(3)
O3 C12 1.450(4)
O2 C4 1.218(3)
O1 C3 1.195(4)
N1 C3 1.356(4)
N1 C1 1.471(3)
C1 C4 1.515(4)
C1 C2 1.567(4)
C1 H1 0.9800
C4 C5 1.488(4)
C6 C7 1.381(4)
C6 C5 1.387(4)
C6 H6 0.9300
C5 C10 1.390(4)
C8 C7 1.373(5)
C8 C9 1.377(5)
C8 H8 0.9300
C11 C2 1.516(4)
C11 H11A 0.9600
C11 H11B 0.9600
C11 H11C 0.9600
C14 C15 1.380(4)
C14 C13 1.384(4)
C14 H14 0.9300
C7 H7 0.9300
C2 C3 1.543(4)
C2 H2 0.9800
C13 C18 1.394(5)
C13 C12 1.501(4)
C17 C18 1.381(5)
C17 C16 1.384(5)
C17 H17 0.9300
C10 C9 1.375(4)
C10 H10 0.9300
C9 H9 0.9300
C16 C15 1.357(5)
C16 H16 0.9300
C12 H12A 0.9700
C12 H12B 0.9700
C18 H18 0.9300
C15 H15 0.9300
loop_
_geom_torsion_atom_site_label_1
_geom_torsion_atom_site_label_2
_geom_torsion_atom_site_label_3
_geom_torsion_atom_site_label_4
_geom_torsion
C12 O3 N1 C3 107.7(4)
C12 O3 N1 C1 -108.1(3)
C3 N1 C1 C4 -125.5(3)
O3 N1 C1 C4 81.9(3)
C3 N1 C1 C2 -8.1(2)
O3 N1 C1 C2 -160.7(3)
N1 C1 C4 O2 7.0(4)
C2 C1 C4 O2 -90.5(3)
N1 C1 C4 C5 -174.3(2)
C2 C1 C4 C5 88.2(3)
C7 C6 C5 C10 -0.2(4)
C7 C6 C5 C4 178.1(3)
O2 C4 C5 C6 179.7(3)
C1 C4 C5 C6 1.0(4)
O2 C4 C5 C10 -2.1(4)
C1 C4 C5 C10 179.2(2)
C9 C8 C7 C6 1.1(5)
C5 C6 C7 C8 -1.0(5)
N1 C1 C2 C11 123.3(3)
C4 C1 C2 C11 -121.5(3)
N1 C1 C2 C3 7.1(2)
C4 C1 C2 C3 122.2(3)
C15 C14 C13 C18 0.3(5)
C15 C14 C13 C12 -179.2(3)
C6 C5 C10 C9 1.2(4)
C4 C5 C10 C9 -177.1(3)
C5 C10 C9 C8 -1.1(5)
C7 C8 C9 C10 0.0(5)
C18 C17 C16 C15 0.0(5)
N1 O3 C12 C13 -177.5(3)
C14 C13 C12 O3 98.9(3)
C18 C13 C12 O3 -80.6(4)
C16 C17 C18 C13 -0.4(5)
C14 C13 C18 C17 0.2(5)
C12 C13 C18 C17 179.8(3)
C17 C16 C15 C14 0.5(5)
C13 C14 C15 C16 -0.7(5)
O3 N1 C3 O1 -17.3(6)
C1 N1 C3 O1 -169.3(4)
O3 N1 C3 C2 160.1(3)
C1 N1 C3 C2 8.2(2)
C11 C2 C3 O1 50.7(5)
C1 C2 C3 O1 169.7(4)
C11 C2 C3 N1 -126.6(3)
C1 C2 C3 N1 -7.6(2)
