#------------------------------------------------------------------------------
#$Date: 2019-11-24 17:20:10 +0200 (Sun, 24 Nov 2019) $
#$Revision: 238791 $
#$URL: file:///home/coder/svn-repositories/cod/cif/1/55/54/1555493.cif $
#------------------------------------------------------------------------------
#
# This file is available in the Crystallography Open Database (COD),
# http://www.crystallography.net/
#
# All data on this site have been placed in the public domain by the
# contributors.
#
data_1555493
loop_
_publ_author_name
'Schweighauser, Luca'
'Bodoky, Ina'
'Kessler, Simon N.'
'H\"aussinger, Daniel'
'Donsbach, Carsten'
'Wegner, Hermann A.'
_publ_section_title
;
 Bidentate Lewis Acid Catalyzed Domino Diels-Alder Reaction of Phthalazine
 for the Synthesis of Bridged Oligocyclic Tetrahydronaphthalenes.
;
_journal_issue                   6
_journal_name_full               'Organic letters'
_journal_page_first              1330
_journal_page_last               1333
_journal_paper_doi               10.1021/acs.orglett.6b00276
_journal_volume                  18
_journal_year                    2016
_chemical_formula_moiety         'C17 H21 N'
_chemical_formula_sum            'C17 H21 N'
_chemical_formula_weight         239.35
_space_group_crystal_system      triclinic
_space_group_IT_number           2
_space_group_name_Hall           '-P 1'
_space_group_name_H-M_alt        'P -1'
_atom_sites_solution_hydrogens   geom
_audit_creation_date             2015-12-13
_audit_creation_method
;
Olex2 1.2
(compiled 2015.09.30 svn.r3233 for OlexSys, GUI svn.r5103)
;
_cell_angle_alpha                75.45(3)
_cell_angle_beta                 78.72(3)
_cell_angle_gamma                70.16(3)
_cell_formula_units_Z            2
_cell_length_a                   6.0723(12)
_cell_length_b                   8.6709(17)
_cell_length_c                   14.006(3)
_cell_measurement_reflns_used    4940
_cell_measurement_temperature    100
_cell_measurement_theta_max      27.165
_cell_measurement_theta_min      1.51
_cell_volume                     666.5(3)
_computing_molecular_graphics    'Olex2 (Dolomanov et al., 2009)'
_computing_publication_material  'Olex2 (Dolomanov et al., 2009)'
_computing_structure_refinement  'ShelXL (Sheldrick, 2015)'
_computing_structure_solution    'ShelXT (Sheldrick, 2015)'
_diffrn_ambient_temperature      100
_diffrn_measured_fraction_theta_full 0.998
_diffrn_measured_fraction_theta_max 0.998
_diffrn_measurement_device_type  'STOE IPDS-2T'
_diffrn_measurement_method       '\w scans'
_diffrn_radiation_type           MoK\a
_diffrn_radiation_wavelength     0.71073
_diffrn_reflns_av_R_equivalents  0.0506
_diffrn_reflns_av_unetI/netI     0.0539
_diffrn_reflns_Laue_measured_fraction_full 0.998
_diffrn_reflns_Laue_measured_fraction_max 0.998
_diffrn_reflns_limit_h_max       7
_diffrn_reflns_limit_h_min       -6
_diffrn_reflns_limit_k_max       10
_diffrn_reflns_limit_k_min       -10
_diffrn_reflns_limit_l_max       17
_diffrn_reflns_limit_l_min       -17
_diffrn_reflns_number            6366
_diffrn_reflns_point_group_measured_fraction_full 0.998
_diffrn_reflns_point_group_measured_fraction_max 0.998
_diffrn_reflns_theta_full        26.000
_diffrn_reflns_theta_max         26.732
_diffrn_reflns_theta_min         1.513
_diffrn_standards_number         0
_exptl_absorpt_coefficient_mu    0.068
_exptl_absorpt_correction_T_max  0.9974
_exptl_absorpt_correction_T_min  0.9744
_exptl_absorpt_correction_type   numerical
_exptl_absorpt_process_details   'STOE X-Area'
_exptl_crystal_colour            colourless
_exptl_crystal_colour_primary    colourless
_exptl_crystal_density_diffrn    1.193
_exptl_crystal_description       plate
_exptl_crystal_F_000             260
_exptl_crystal_size_max          0.337
_exptl_crystal_size_mid          0.108
_exptl_crystal_size_min          0.04
_refine_diff_density_max         0.207
_refine_diff_density_min         -0.190
_refine_diff_density_rms         0.039
_refine_ls_extinction_method     none
_refine_ls_goodness_of_fit_ref   0.885
_refine_ls_hydrogen_treatment    constr
_refine_ls_matrix_type           full
_refine_ls_number_parameters     164
_refine_ls_number_reflns         2819
_refine_ls_number_restraints     0
_refine_ls_restrained_S_all      0.885
_refine_ls_R_factor_all          0.0654
_refine_ls_R_factor_gt           0.0405
_refine_ls_shift/su_max          0.000
_refine_ls_shift/su_mean         0.000
_refine_ls_structure_factor_coef Fsqd
_refine_ls_weighting_details
'w=1/[\s^2^(Fo^2^)+(0.0660P)^2^] where P=(Fo^2^+2Fc^2^)/3'
_refine_ls_weighting_scheme      calc
_refine_ls_wR_factor_gt          0.0941
_refine_ls_wR_factor_ref         0.1035
_reflns_Friedel_coverage         0.000
_reflns_number_gt                1985
_reflns_number_total             2819
_reflns_threshold_expression     'I > 2\s(I)'
_iucr_refine_instructions_details
;

    cdx067a_cut079_num007.res created by SHELXL-2014/7

TITL cdx067a_cut079_num007_a.res in P-1
REM Old TITL cdx067a_cut079_num007 in P-1 #2
REM SHELXT solution in P-1
REM R1 0.141, Rweak 0.007, Alpha 0.041, Orientation as input
REM Formula found by SHELXT: C17 N
CELL 0.71073 6.0723 8.6709 14.0061 75.446 78.723 70.16
ZERR 2 0.0012 0.0017 0.0028 0.03 0.03 0.03
LATT 1
SFAC C H N
UNIT 34 42 2
 
L.S. 10
PLAN  20
TEMP -173.15
BOND $H
LIST 6
MORE -1
CONF
fmap 2
acta 52
REM <olex2.extras>
REM <HklSrc "%.\\cdx067a_cut079_num007.hkl">
REM </olex2.extras>
 
WGHT    0.066000
FVAR       1.09708
N01   3    0.566946    0.302618    0.387520    11.00000    0.01985    0.02060 =
         0.01674   -0.00187   -0.00150   -0.00290
C02   1    0.329619    0.533301    0.221499    11.00000    0.02002    0.01972 =
         0.01382   -0.00233   -0.00469   -0.00221
C03   1    0.724263    0.307338    0.117784    11.00000    0.02051    0.01817 =
         0.01795   -0.00317   -0.00370   -0.00122
C04   1    0.583169    0.250681    0.294672    11.00000    0.01992    0.01609 =
         0.02021   -0.00152   -0.00342   -0.00235
AFIX  13
H04   2    0.596529    0.129060    0.309742    11.00000   -1.20000
AFIX   0
C05   1    0.790526    0.277530    0.220190    11.00000    0.01784    0.01686 =
         0.01814   -0.00298   -0.00241   -0.00018
AFIX  13
H05   2    0.954617    0.209632    0.234467    11.00000   -1.20000
AFIX   0
C06   1    0.746153    0.452854    0.154263    11.00000    0.01778    0.01905 =
         0.01760   -0.00202   -0.00153   -0.00260
AFIX  13
H06   2    0.888692    0.489446    0.125027    11.00000   -1.20000
AFIX   0
C07   1    0.114736    0.648932    0.243938    11.00000    0.01880    0.02571 =
         0.01703   -0.00350   -0.00252   -0.00290
AFIX  43
H07   2   -0.018730    0.612644    0.273268    11.00000   -1.20000
AFIX   0
C08   1    0.289218    0.870448    0.181889    11.00000    0.02973    0.01701 =
         0.02090   -0.00308   -0.00526   -0.00111
AFIX  43
H08   2    0.274686    0.986236    0.168381    11.00000   -1.20000
AFIX   0
C09   1    0.094598    0.818224    0.223479    11.00000    0.02239    0.02353 =
         0.01960   -0.00596   -0.00372    0.00358
AFIX  43
H09   2   -0.053108    0.897896    0.238132    11.00000   -1.20000
AFIX   0
C10   1    0.372435    0.348713    0.234443    11.00000    0.01797    0.02090 =
         0.02103   -0.00356   -0.00192   -0.00465
AFIX  13
H10   2    0.227655    0.315145    0.264044    11.00000   -1.20000
AFIX   0
C11   1    0.527312    0.585702    0.178942    11.00000    0.01967    0.01954 =
         0.01389   -0.00287   -0.00339   -0.00193
C12   1    0.506735    0.755441    0.159470    11.00000    0.02476    0.02186 =
         0.01801   -0.00285   -0.00195   -0.00617
AFIX  43
H12   2    0.640105    0.792377    0.131118    11.00000   -1.20000
AFIX   0
C13   1    0.473632    0.300733    0.131674    11.00000    0.02359    0.02006 =
         0.02257   -0.00436   -0.00638   -0.00320
AFIX  23
H13A  2    0.471042    0.187091    0.131908    11.00000   -1.20000
H13B  2    0.383598    0.381729    0.078630    11.00000   -1.20000
AFIX   0
C14   1    0.768881    0.201785    0.441735    11.00000    0.02433    0.02892 =
         0.01951   -0.00172   -0.00478   -0.00374
AFIX  23
H14A  2    0.909396    0.238587    0.412486    11.00000   -1.20000
H14B  2    0.807375    0.081827    0.440373    11.00000   -1.20000
AFIX   0
C15   1    0.894257    0.241099    0.033198    11.00000    0.02771    0.02422 =
         0.01838   -0.00569   -0.00289    0.00025
AFIX 137
H15A  2    1.048153    0.253512    0.034384    11.00000   -1.50000
H15B  2    0.834358    0.304109   -0.029918    11.00000   -1.50000
H15C  2    0.911071    0.122497    0.039992    11.00000   -1.50000
AFIX   0
C16   1    0.361937    0.279369    0.457493    11.00000    0.02513    0.02419 =
         0.02380   -0.00246    0.00193   -0.00525
AFIX  23
H16A  2    0.341714    0.169855    0.459788    11.00000   -1.20000
H16B  2    0.216160    0.369371    0.438814    11.00000   -1.20000
AFIX   0
C17   1    0.419662    0.287040    0.557473    11.00000    0.03734    0.02903 =
         0.02040   -0.00334    0.00392   -0.00540
AFIX  23
H17A  2    0.355862    0.210882    0.612423    11.00000   -1.20000
H17B  2    0.352763    0.402256    0.570153    11.00000   -1.20000
AFIX   0
C18   1    0.689515    0.231331    0.547764    11.00000    0.03791    0.04074 =
         0.02052   -0.00407   -0.00582   -0.00533
AFIX  23
H18A  2    0.746309    0.319369    0.558426    11.00000   -1.20000
H18B  2    0.749848    0.127243    0.596610    11.00000   -1.20000
AFIX   0
HKLF 4
 
REM  cdx067a_cut079_num007_a.res in P-1
REM R1 =  0.0405 for    1985 Fo > 4sig(Fo)  and  0.0654 for all    2819 data
REM    164 parameters refined using      0 restraints
 
END  
     
WGHT      0.0521      0.0000 

REM Highest difference peak  0.207,  deepest hole -0.190,  1-sigma level  0.039
Q1    1   0.7674  0.2573  0.1626  11.00000  0.05    0.21
Q2    1   0.6909  0.2612  0.2567  11.00000  0.05    0.19
Q3    1   0.4750  0.3021  0.2671  11.00000  0.05    0.19
Q4    1   0.8117  0.2873  0.0796  11.00000  0.05    0.18
Q5    1   0.4144  0.3286  0.1900  11.00000  0.05    0.18
Q6    1   0.5764  0.2754  0.3422  11.00000  0.05    0.17
Q7    1   0.7310  0.3922  0.1152  11.00000  0.05    0.16
Q8    1   0.6649  0.2566  0.4144  11.00000  0.05    0.14
Q9    1   0.7555  0.2326  0.4917  11.00000  0.05    0.14
Q10   1   0.7885  0.3843  0.2016  11.00000  0.05    0.14
Q11   1   0.7888  0.1598  0.5966  11.00000  0.05    0.13
Q12   1   0.9218  0.2561  0.2491  11.00000  0.05    0.13
Q13   1   0.7342  0.0345  0.4541  11.00000  0.05    0.12
Q14   1   0.3572  1.0354  0.1439  11.00000  0.05    0.12
Q15   1   0.8160  0.4071  0.2668  11.00000  0.05    0.12
Q16   1   0.4350  0.5528  0.2175  11.00000  0.05    0.12
Q17   1   0.6674  0.2962  0.6151  11.00000  0.05    0.12
Q18   1   0.8345  0.2317  0.6176  11.00000  0.05    0.12
Q19   1   0.4640  0.2904  0.4195  11.00000  0.05    0.11
Q20   1   0.9603  0.1555  0.4010  11.00000  0.05    0.11

  REM The information below was added by Olex2.
  REM
  REM R1 = 0.0405 for 1985 Fo > 4sig(Fo) and 0.0654 for all 6366 data
  REM n/a parameters refined using n/a restraints
  REM Highest difference peak 0.21, deepest hole -0.19
  REM Mean Shift 0, Max Shift 0.000.
  
  REM +++ Tabular Listing of Refinement Information +++
  REM R1_all = 0.0654
  REM R1_gt = 0.0405
  REM wR_ref = 0.1035
  REM GOOF = 0.885
  REM Shift_max = 0.000
  REM Shift_mean = 0
  REM Reflections_all = 6366
  REM Reflections_gt = 1985
  REM Parameters = n/a
  REM Hole = -0.19
  REM Peak = 0.21
  REM Flack = n/a
  
  
;
_cod_data_source_file            ol6b00276_si_002.cif
_cod_data_source_block           cdx067a_cut079_num007
_cod_database_code               1555493
_shelx_space_group_comment
;
The symmetry employed for this shelxl refinement is uniquely defined
by the following loop, which should always be used as a source of
symmetry information in preference to the above space-group names.
They are only intended as comments.
;
_olex2_refinement_description
;
1. Fixed Uiso
 At 1.2 times of:
  All C(H) groups, All C(H,H) groups
 At 1.5 times of:
  All C(H,H,H) groups
2.a Ternary CH refined with riding coordinates:
 C04(H04), C05(H05), C06(H06), C10(H10)
2.b Secondary CH2 refined with riding coordinates:
 C13(H13A,H13B), C14(H14A,H14B), C16(H16A,H16B), C17(H17A,H17B), C18(H18A,H18B)
2.c Aromatic/amide H refined with riding coordinates:
 C07(H07), C08(H08), C09(H09), C12(H12)
2.d Idealised Me refined as rotating group:
 C15(H15A,H15B,H15C)
;
_shelx_shelxl_version_number     2014/7
_olex2_submission_special_instructions 'No special instructions were received'
loop_
_space_group_symop_operation_xyz
'x, y, z'
'-x, -y, -z'
loop_
_atom_site_label
_atom_site_type_symbol
_atom_site_fract_x
_atom_site_fract_y
_atom_site_fract_z
_atom_site_U_iso_or_equiv
_atom_site_adp_type
_atom_site_occupancy
_atom_site_site_symmetry_order
_atom_site_calc_flag
_atom_site_refinement_flags_posn
N01 N 0.5669(2) 0.30262(13) 0.38752(8) 0.0204(3) Uani 1 1 d .
C02 C 0.3296(2) 0.53330(16) 0.22150(9) 0.0187(3) Uani 1 1 d .
C03 C 0.7243(2) 0.30734(16) 0.11778(9) 0.0200(3) Uani 1 1 d .
C04 C 0.5832(2) 0.25068(16) 0.29467(9) 0.0198(3) Uani 1 1 d .
H04 H 0.5965 0.1291 0.3097 0.024 Uiso 1 1 calc R
C05 C 0.7905(2) 0.27753(15) 0.22019(9) 0.0190(3) Uani 1 1 d .
H05 H 0.9546 0.2096 0.2345 0.023 Uiso 1 1 calc R
C06 C 0.7462(2) 0.45285(16) 0.15426(9) 0.0193(3) Uani 1 1 d .
H06 H 0.8887 0.4894 0.1250 0.023 Uiso 1 1 calc R
C07 C 0.1147(2) 0.64893(17) 0.24394(9) 0.0216(3) Uani 1 1 d .
H07 H -0.0187 0.6126 0.2733 0.026 Uiso 1 1 calc R
C08 C 0.2892(3) 0.87045(16) 0.18189(10) 0.0240(3) Uani 1 1 d .
H08 H 0.2747 0.9862 0.1684 0.029 Uiso 1 1 calc R
C09 C 0.0946(2) 0.81822(17) 0.22348(10) 0.0241(3) Uani 1 1 d .
H09 H -0.0531 0.8979 0.2381 0.029 Uiso 1 1 calc R
C10 C 0.3724(2) 0.34871(16) 0.23444(10) 0.0205(3) Uani 1 1 d .
H10 H 0.2277 0.3151 0.2640 0.025 Uiso 1 1 calc R
C11 C 0.5273(2) 0.58570(16) 0.17894(9) 0.0187(3) Uani 1 1 d .
C12 C 0.5067(3) 0.75544(16) 0.15947(9) 0.0221(3) Uani 1 1 d .
H12 H 0.6401 0.7924 0.1311 0.027 Uiso 1 1 calc R
C13 C 0.4736(2) 0.30073(17) 0.13167(10) 0.0224(3) Uani 1 1 d .
H13A H 0.4710 0.1871 0.1319 0.027 Uiso 1 1 calc R
H13B H 0.3836 0.3817 0.0786 0.027 Uiso 1 1 calc R
C14 C 0.7689(3) 0.20178(18) 0.44173(10) 0.0257(3) Uani 1 1 d .
H14A H 0.9094 0.2386 0.4125 0.031 Uiso 1 1 calc R
H14B H 0.8074 0.0818 0.4404 0.031 Uiso 1 1 calc R
C15 C 0.8943(3) 0.24110(17) 0.03320(10) 0.0253(3) Uani 1 1 d .
H15A H 1.0482 0.2535 0.0344 0.038 Uiso 1 1 calc GR
H15B H 0.8344 0.3041 -0.0299 0.038 Uiso 1 1 calc GR
H15C H 0.9111 0.1225 0.0400 0.038 Uiso 1 1 calc GR
C16 C 0.3619(3) 0.27937(18) 0.45749(10) 0.0261(3) Uani 1 1 d .
H16A H 0.3417 0.1699 0.4598 0.031 Uiso 1 1 calc R
H16B H 0.2162 0.3694 0.4388 0.031 Uiso 1 1 calc R
C17 C 0.4197(3) 0.28704(19) 0.55747(11) 0.0316(4) Uani 1 1 d .
H17A H 0.3559 0.2109 0.6124 0.038 Uiso 1 1 calc R
H17B H 0.3528 0.4023 0.5702 0.038 Uiso 1 1 calc R
C18 C 0.6895(3) 0.2313(2) 0.54776(11) 0.0349(4) Uani 1 1 d .
H18A H 0.7463 0.3194 0.5584 0.042 Uiso 1 1 calc R
H18B H 0.7498 0.1272 0.5966 0.042 Uiso 1 1 calc R
loop_
_atom_site_aniso_label
_atom_site_aniso_U_11
_atom_site_aniso_U_22
_atom_site_aniso_U_33
_atom_site_aniso_U_23
_atom_site_aniso_U_13
_atom_site_aniso_U_12
N01 0.0199(6) 0.0206(6) 0.0167(5) -0.0019(4) -0.0015(4) -0.0029(4)
C02 0.0200(7) 0.0197(6) 0.0138(6) -0.0023(5) -0.0047(5) -0.0022(5)
C03 0.0205(7) 0.0182(6) 0.0180(6) -0.0032(5) -0.0037(5) -0.0012(5)
C04 0.0199(7) 0.0161(6) 0.0202(7) -0.0015(5) -0.0034(5) -0.0023(5)
C05 0.0178(6) 0.0169(6) 0.0181(6) -0.0030(5) -0.0024(5) -0.0002(5)
C06 0.0178(6) 0.0190(6) 0.0176(6) -0.0020(5) -0.0015(5) -0.0026(5)
C07 0.0188(7) 0.0257(7) 0.0170(6) -0.0035(5) -0.0025(5) -0.0029(5)
C08 0.0297(8) 0.0170(6) 0.0209(7) -0.0031(5) -0.0053(6) -0.0011(6)
C09 0.0224(7) 0.0235(7) 0.0196(7) -0.0060(5) -0.0037(5) 0.0036(5)
C10 0.0180(7) 0.0209(6) 0.0210(7) -0.0036(5) -0.0019(5) -0.0047(5)
C11 0.0197(7) 0.0195(6) 0.0139(6) -0.0029(5) -0.0034(5) -0.0019(5)
C12 0.0248(7) 0.0219(7) 0.0180(6) -0.0029(5) -0.0019(5) -0.0062(5)
C13 0.0236(7) 0.0201(6) 0.0226(7) -0.0044(5) -0.0064(5) -0.0032(5)
C14 0.0243(7) 0.0289(7) 0.0195(7) -0.0017(5) -0.0048(6) -0.0037(6)
C15 0.0277(8) 0.0242(7) 0.0184(7) -0.0057(5) -0.0029(6) 0.0003(6)
C16 0.0251(7) 0.0242(7) 0.0238(7) -0.0025(5) 0.0019(6) -0.0052(6)
C17 0.0373(9) 0.0290(7) 0.0204(7) -0.0033(5) 0.0039(6) -0.0054(6)
C18 0.0379(9) 0.0407(9) 0.0205(7) -0.0041(6) -0.0058(6) -0.0053(7)
loop_
_atom_type_symbol
_atom_type_description
_atom_type_scat_dispersion_real
_atom_type_scat_dispersion_imag
_atom_type_scat_source
C C 0.0033 0.0016 'International Tables Vol C Tables 4.2.6.8 and 6.1.1.4'
H H 0.0000 0.0000 'International Tables Vol C Tables 4.2.6.8 and 6.1.1.4'
N N 0.0061 0.0033 'International Tables Vol C Tables 4.2.6.8 and 6.1.1.4'
loop_
_geom_angle_atom_site_label_1
_geom_angle_atom_site_label_2
_geom_angle_atom_site_label_3
_geom_angle
C04 N01 C14 111.66(10)
C04 N01 C16 112.99(11)
C16 N01 C14 104.14(11)
C07 C02 C10 125.30(12)
C07 C02 C11 120.37(12)
C11 C02 C10 114.26(11)
C05 C03 C06 60.79(9)
C05 C03 C13 106.28(11)
C05 C03 C15 123.26(12)
C13 C03 C06 113.47(11)
C15 C03 C06 120.14(12)
C15 C03 C13 119.20(12)
N01 C04 H04 108.6
N01 C04 C05 113.91(11)
N01 C04 C10 114.64(11)
C05 C04 H04 108.6
C05 C04 C10 102.07(10)
C10 C04 H04 108.6
C03 C05 C04 108.09(11)
C03 C05 H05 119.6
C03 C05 C06 60.46(9)
C04 C05 H05 119.6
C04 C05 C06 115.02(11)
C06 C05 H05 119.6
C03 C06 C05 58.75(8)
C03 C06 H06 116.3
C05 C06 H06 116.3
C11 C06 C03 118.21(12)
C11 C06 C05 118.56(11)
C11 C06 H06 116.3
C02 C07 H07 120.1
C02 C07 C09 119.89(13)
C09 C07 H07 120.1
C09 C08 H08 119.6
C09 C08 C12 120.77(13)
C12 C08 H08 119.6
C07 C09 H09 120.0
C08 C09 C07 119.95(13)
C08 C09 H09 120.0
C02 C10 C04 109.79(11)
C02 C10 H10 112.5
C02 C10 C13 107.58(11)
C04 C10 H10 112.5
C04 C10 C13 101.34(10)
C13 C10 H10 112.5
C02 C11 C06 116.07(12)
C12 C11 C02 119.51(12)
C12 C11 C06 124.38(13)
C08 C12 C11 119.50(13)
C08 C12 H12 120.3
C11 C12 H12 120.3
C03 C13 C10 103.20(11)
C03 C13 H13A 111.1
C03 C13 H13B 111.1
C10 C13 H13A 111.1
C10 C13 H13B 111.1
H13A C13 H13B 109.1
N01 C14 H14A 110.8
N01 C14 H14B 110.8
N01 C14 C18 104.75(11)
H14A C14 H14B 108.9
C18 C14 H14A 110.8
C18 C14 H14B 110.8
C03 C15 H15A 109.5
C03 C15 H15B 109.5
C03 C15 H15C 109.5
H15A C15 H15B 109.5
H15A C15 H15C 109.5
H15B C15 H15C 109.5
N01 C16 H16A 111.0
N01 C16 H16B 111.0
N01 C16 C17 104.00(12)
H16A C16 H16B 109.0
C17 C16 H16A 111.0
C17 C16 H16B 111.0
C16 C17 H17A 110.8
C16 C17 H17B 110.8
C16 C17 C18 104.79(12)
H17A C17 H17B 108.9
C18 C17 H17A 110.8
C18 C17 H17B 110.8
C14 C18 C17 104.72(13)
C14 C18 H18A 110.8
C14 C18 H18B 110.8
C17 C18 H18A 110.8
C17 C18 H18B 110.8
H18A C18 H18B 108.9
loop_
_geom_bond_atom_site_label_1
_geom_bond_atom_site_label_2
_geom_bond_distance
N01 C04 1.4553(17)
N01 C14 1.4654(18)
N01 C16 1.4645(18)
C02 C07 1.3844(19)
C02 C10 1.5008(18)
C02 C11 1.3990(19)
C03 C05 1.5016(19)
C03 C06 1.5281(18)
C03 C13 1.515(2)
C03 C15 1.5034(19)
C04 H04 1.0000
C04 C05 1.5136(19)
C04 C10 1.5476(19)
C05 H05 1.0000
C05 C06 1.5330(18)
C06 H06 1.0000
C06 C11 1.4811(18)
C07 H07 0.9500
C07 C09 1.3901(19)
C08 H08 0.9500
C08 C09 1.379(2)
C08 C12 1.392(2)
C09 H09 0.9500
C10 H10 1.0000
C10 C13 1.5505(19)
C11 C12 1.3939(19)
C12 H12 0.9500
C13 H13A 0.9900
C13 H13B 0.9900
C14 H14A 0.9900
C14 H14B 0.9900
C14 C18 1.527(2)
C15 H15A 0.9800
C15 H15B 0.9800
C15 H15C 0.9800
C16 H16A 0.9900
C16 H16B 0.9900
C16 C17 1.531(2)
C17 H17A 0.9900
C17 H17B 0.9900
C17 C18 1.532(2)
C18 H18A 0.9900
C18 H18B 0.9900
loop_
_geom_torsion_atom_site_label_1
_geom_torsion_atom_site_label_2
_geom_torsion_atom_site_label_3
_geom_torsion_atom_site_label_4
_geom_torsion
N01 C04 C05 C03 -150.76(10)
N01 C04 C05 C06 -85.58(14)
N01 C04 C10 C02 51.39(14)
N01 C04 C10 C13 164.94(11)
N01 C14 C18 C17 22.82(16)
N01 C16 C17 C18 -26.24(15)
C02 C07 C09 C08 -0.70(19)
C02 C10 C13 C03 73.91(13)
C02 C11 C12 C08 -0.55(19)
C03 C05 C06 C11 107.42(14)
C03 C06 C11 C02 35.31(16)
C03 C06 C11 C12 -142.46(13)
C04 N01 C14 C18 -162.43(12)
C04 N01 C16 C17 162.71(11)
C04 C05 C06 C03 -97.43(13)
C04 C05 C06 C11 9.98(18)
C04 C10 C13 C03 -41.28(12)
C05 C03 C06 C11 -108.01(13)
C05 C03 C13 C10 25.32(13)
C05 C04 C10 C02 -72.26(12)
C05 C04 C10 C13 41.29(12)
C05 C06 C11 C02 -32.46(17)
C05 C06 C11 C12 149.77(13)
C06 C03 C05 C04 109.04(11)
C06 C03 C13 C10 -39.37(14)
C06 C11 C12 C08 177.15(12)
C07 C02 C10 C04 -128.18(13)
C07 C02 C10 C13 122.36(14)
C07 C02 C11 C06 -177.71(12)
C07 C02 C11 C12 0.18(19)
C09 C08 C12 C11 0.3(2)
C10 C02 C07 C09 -176.44(12)
C10 C02 C11 C06 -0.49(16)
C10 C02 C11 C12 177.40(11)
C10 C04 C05 C03 -26.61(13)
C10 C04 C05 C06 38.56(14)
C11 C02 C07 C09 0.45(19)
C11 C02 C10 C04 54.76(14)
C11 C02 C10 C13 -54.70(15)
C12 C08 C09 C07 0.3(2)
C13 C03 C05 C04 0.86(13)
C13 C03 C05 C06 -108.19(11)
C13 C03 C06 C05 96.16(12)
C13 C03 C06 C11 -11.85(16)
C14 N01 C04 C05 -64.42(14)
C14 N01 C04 C10 178.51(11)
C14 N01 C16 C17 41.36(13)
C15 C03 C05 C04 -142.22(13)
C15 C03 C05 C06 108.74(15)
C15 C03 C06 C05 -113.70(14)
C15 C03 C06 C11 138.29(13)
C15 C03 C13 C10 170.18(11)
C16 N01 C04 C05 178.59(11)
C16 N01 C04 C10 61.51(14)
C16 N01 C14 C18 -40.20(14)
C16 C17 C18 C14 2.09(16)
loop_
_refln_index_h
_refln_index_k
_refln_index_l
_refln_F_squared_meas
_refln_F_squared_sigma
-4 6 1 6.9 5.2
-4 5 1 44.5 3.9
-4 4 2 523.15 5.7
-4 3 9 3.5 5.3
-4 3 8 3.8 4.8
-4 3 5 56.19 5.5
-3 5 -2 135.89 5.1
-3 2 1 63.09 3.8
-3 1 7 98.09 6.8
-3 1 6 120.69 5.9
-2 4 -4 610.04 5.6
-2 3 -3 458.15 5.4
-2 1 14 163.88 8.5
-2 0 9 468.35 12.5
-1 8 -6 9.9 4.3
-1 7 -6 -0.9 4
-1 6 -6 15.3 3.7
-1 4 -5 236.78 5.6
-1 0 13 4.8 5.4
0 8 -7 19.2 4.3
0 7 -7 6 3.8
0 4 -6 143.79 4
0 2 -4 -0.4 6.6
0 -1 8 28.5 5.2
0 -1 7 146.99 6
0 -1 6 1 6.1
1 -1 10 14.1 5
1 -1 9 31.5 3.6
1 -1 6 144.49 4.8
1 -1 5 540.45 8.4
2 2 -4 117.19 9.1
2 -1 9 97.69 5.1
2 -1 8 460.05 6.3
2 -1 7 41.8 4.8
3 6 -7 14.7 5.1
3 0 15 12.1 5.7
4 1 0 33 4.8
4 0 13 1.3 5.5
4 0 12 34.3 3.9
4 0 4 15.3 5.2
5 7 -6 23 6.9
6 2 2 65.39 5
6 1 11 14.8 5.4
6 1 10 51.09 5.9
6 1 9 84.39 6
6 1 8 55.59 5.3
7 3 3 1.4 4
7 2 9 9.4 5.6
7 2 8 56.59 6.1
-4 6 2 247.28 6
-4 5 2 16.3 3.8
-4 4 4 20.2 4.9
-4 4 3 41.5 3.7
-3 7 -2 3.9 4
-3 6 -2 9.4 3.7
-3 4 -1 6.4 5
-3 3 0 0.6 5.1
-2 8 -4 5.9 4.3
-2 7 -4 42.6 5.3
-2 6 -4 27.9 4.9
-2 5 -4 608.44 5.4
-1 3 -4 79.29 5.5
-1 2 -3 7.7 4.5
0 5 -6 22.4 4.9
0 3 -5 218.68 4.8
0 0 15 180.98 6.3
0 -1 9 26.1 4.8
0 -1 5 0.1 6.8
1 8 -7 19.5 5.7
1 7 -7 9 5.3
1 6 -7 68.09 3.9
1 4 -6 49.4 5.1
1 0 16 17.6 5.9
1 -1 11 61.19 5.5
1 -1 4 72.89 7.1
2 6 -7 95.29 5.7
2 4 -6 4.6 5
2 0 16 13.3 4.2
2 0 0 54.29 6.6
2 -1 11 25.2 5.1
2 -1 10 2.2 3.5
2 -1 6 57.19 4
2 -1 5 677.43 7.8
3 7 -7 26.4 5
3 0 16 -1.2 5.5
3 0 1 349.96 7
4 0 14 90.69 5.8
4 0 3 157.58 5.2
5 1 2 22.3 4.8
6 1 12 44.7 4.6
6 1 7 205.68 4.8
6 1 6 31.9 5.5
7 4 0 3.8 5.7
7 3 2 10.3 5.5
7 2 7 81.89 4.7
7 2 6 5.5 5.7
-4 6 3 1.9 5.3
-4 5 3 6 3.9
-4 4 5 386.16 6.7
-3 7 -1 11 5.7
-3 6 -1 2 4.6
-3 5 -1 69.59 5.2
-3 2 2 189.68 4.5
-2 4 -3 208.68 4.3
-2 2 -1 235.38 6.9
-2 1 1 151.28 7.2
-1 8 -5 33.4 4.3
-1 7 -5 4.1 5.4
-1 6 -5 45.8 5
-1 5 -5 54.09 3.6
0 8 -6 12.5 5.5
0 7 -6 -0.5 4.6
0 6 -6 35.5 5.1
0 -1 10 198.68 4.8
1 3 -5 59.19 5.1
1 2 -4 2.8 5.9
1 -1 12 214.68 5.9
2 8 -7 11.2 5.7
2 7 -7 14.9 5.2
2 3 -5 32 6.2
2 -1 12 10.3 5.3
2 -1 4 29.1 6.4
3 8 -7 2.7 5.9
3 -1 11 21.3 4.7
3 -1 10 135.89 5.4
3 -1 9 174.48 4.1
3 -1 8 83.99 3.8
3 -1 7 112.59 4
3 -1 6 40.2 5.1
4 0 15 25 4.5
5 4 -4 124.99 11.5
5 2 -1 83.49 5.5
5 0 12 33.7 5.5
5 0 11 1.1 3.8
5 0 10 32.7 3.8
5 0 9 8.1 3.8
5 0 8 51.69 3.9
5 0 7 1 3.7
5 0 6 67.69 5.1
6 3 -1 16.2 5.2
6 2 1 212.58 5.5
6 1 5 97.69 5.1
7 2 5 13.3 5
-4 6 4 9.3 4.2
-4 5 5 4.3 5.6
-4 5 4 61.99 4.4
-4 4 10 1.7 5.6
-4 4 9 4.7 5.7
-4 4 7 49.7 5.5
-4 4 6 40 4
-3 4 0 -3 3.6
-3 3 1 59.39 4.7
-3 2 3 135.79 5.6
-2 8 -3 111.79 4.4
-2 7 -3 10.2 4.7
-2 6 -3 8.1 5.1
-2 5 -3 5 3.5
-2 3 -2 254.47 4.7
-2 0 10 5.9 6.8
-1 1 -1 938.51 10.3
-1 0 14 3.9 5.2
0 4 -5 50.29 4.8
0 0 16 1.9 5.7
0 -1 11 435.16 5.8
0 -1 4 757.22 9.2
1 9 -6 74.39 5.6
1 5 -6 0.9 4.8
1 0 17 10.3 5.4
1 -1 13 16 5.4
1 -1 3 4.2 5.5
2 -1 13 69.19 4
3 -1 12 2.9 4.7
3 -1 5 26.3 4.8
4 6 -6 25.3 6.3
4 0 2 96.89 5.3
5 1 1 1148.99 8.5
5 0 13 3.6 4.3
5 0 5 6.6 4.9
6 1 4 165.48 5.4
7 5 -2 14 7
7 3 1 45.6 5.2
7 2 4 -3.6 5.7
-4 6 6 62.69 6.2
-4 6 5 125.89 4.7
-4 5 7 23.8 5.9
-4 5 6 57.29 5.5
-3 8 1 37.9 5.7
-3 7 0 6.7 3.9
-3 6 0 22 3.7
-3 5 0 2.5 3.6
-2 8 -2 -9.1 5.4
-2 4 -2 21.2 5
-1 8 -4 6.7 5.1
-1 4 -4 154.18 4
0 9 -5 10.1 4.4
0 1 -2 255.87 8.4
0 -1 12 34.2 3.9
1 8 -6 12.2 5.5
1 6 -6 17 4.9
1 -1 14 10.9 5.6
2 5 -6 184.78 5.5
2 -1 14 3.1 4
2 -1 3 1043.7 8.2
3 5 -6 8 5.1
3 1 -2 283.07 7.5
3 -1 14 -1.1 5.6
3 -1 13 8 4.2
3 -1 4 150.88 5.2
4 1 -1 5.1 5
4 -1 11 4.3 5.3
4 -1 10 300.07 4.5
4 -1 9 3.9 3.6
4 -1 8 55.39 3.8
4 -1 7 501.65 6.2
5 3 -3 0.1 6.5
5 0 4 95.59 4.9
6 1 3 23.6 5.4
7 4 -1 7 6.2
7 2 3 10 5.1
7 1 8 117.89 6.8
-4 6 7 10 4.4
-4 5 9 -0.1 5.6
-4 5 8 15.2 4.4
-3 7 1 -1 5.3
-3 6 1 -0.6 4.7
-3 5 1 5.3 5.1
-3 4 1 19 3.7
-3 3 2 65.19 3.8
-2 7 -2 174.58 4.3
-2 6 -2 185.38 5.5
-2 5 -2 1636.94 8.5
-2 3 -1 51.39 5.4
-2 2 0 -1.3 5.9
-2 1 15 118.59 9.2
-1 9 -3 126.29 6.3
-1 7 -4 142.39 4.2
-1 6 -4 12 3.5
-1 5 -4 304.57 4.6
-1 3 -3 50.39 4.3
-1 2 -2 1.4 4.7
-1 0 15 7.8 5.8
-1 -1 9 4 4.6
-1 -1 8 178.48 6.3
-1 -1 7 757.52 9.7
0 8 -5 -0.7 3.9
0 7 -5 111.39 5.3
0 6 -5 81.79 5.2
0 5 -5 20.9 3.5
0 3 -4 31.6 5.8
0 0 17 3.6 6.4
0 -1 13 194.68 5.9
1 7 -6 75.69 4.2
1 -1 15 19.2 5.3
2 9 -6 27.2 5.4
2 -1 15 22.2 4.1
3 0 0 4.3 4
3 -1 15 11 6.3
3 -1 3 1767.52 9.5
4 7 -6 1.9 5.9
4 0 1 144.19 5.5
4 -1 13 2.1 5.2
4 -1 12 23 4.1
4 -1 6 79.39 3.7
4 -1 5 32.9 4.7
5 0 3 144.59 5.8
6 2 0 95.29 5.7
6 0 11 3.9 4.5
6 0 10 4.6 4.6
6 0 9 0.8 4.2
6 0 8 27.5 4.3
6 0 7 29.3 5.8
7 1 7 8.7 4.6
-3 8 2 17.9 4.5
-3 7 2 172.58 5.6
-3 4 2 113.49 5.7
-3 3 3 3.8 5.1
-3 2 12 62.89 8.2
-2 8 -1 30 5
-2 0 11 4.5 6.9
-1 8 -3 127.59 5.6
-1 -1 10 29.8 5.1
0 9 -4 19 5.7
0 2 -3 16 5
0 -1 14 9 5.4
0 -1 3 1878.51 14.6
1 9 -5 -1.6 5.9
1 4 -5 41.8 5.2
1 -1 2 2.5 6.3
2 8 -6 40.7 4.2
2 7 -6 8.1 4.7
2 6 -6 61.19 4.2
2 -1 16 -0.4 5.3
2 -1 2 543.75 7
3 8 -6 3.8 5
3 6 -6 190.08 6.1
4 8 -6 4.3 5.7
4 2 -3 16.2 6.2
4 -1 14 2.2 4.3
5 1 0 100.39 4
5 -1 11 12.4 5.4
5 -1 10 47.8 5.4
5 -1 9 31.6 5.4
6 4 -3 1.2 7.2
6 1 2 11.2 5.1
6 0 6 6.8 5.1
7 3 0 5.2 5.7
7 2 2 11.4 5.6
7 1 6 -2.1 4.5
7 1 5 98.09 5.6
-3 8 3 36.1 4.6
-3 6 2 9.8 3.7
-3 5 2 118.59 4.2
-2 7 -1 9.9 3.7
-2 6 -1 120.09 5.4
-2 5 -1 5.3 4.8
-2 4 -1 117.49 4.1
-1 9 -2 113.79 5.7
-1 7 -3 -0.5 3.6
-1 6 -3 79.09 5
-1 5 -3 3.3 4.9
-1 4 -3 227.28 4.4
-1 -1 11 183.28 6.1
-1 -1 6 17.7 5.4
0 8 -4 68.79 5.8
0 4 -4 120.89 5.5
1 8 -5 2.9 5.4
1 -1 16 -1.5 5.4
1 -2 10 85.59 5.3
1 -2 9 96.99 5.5
1 -2 8 315.87 6
2 0 -1 154.58 7.2
2 -2 11 131.19 5.6
2 -2 10 86.39 3.9
2 -2 9 21.2 3.7
2 -2 8 13.7 3.7
2 -2 7 109.09 5.5
3 7 -6 16.8 3.9
3 -1 2 685.53 7.3
4 -1 4 10.7 3.7
5 2 -2 23 5.3
5 0 2 10.5 5.1
5 -1 12 9.6 4.2
5 -1 8 19.4 3.9
5 -1 7 13.7 3.9
5 -1 6 21.2 4.7
6 3 -2 6.1 5.5
6 0 5 8.5 3.8
-3 7 3 17.9 4.2
-3 6 3 84.09 5.6
-3 5 3 74.69 5.5
-3 4 3 5.8 3.7
-3 3 4 16.5 4.7
-3 2 6 4.8 4.4
-2 8 0 2.1 3.9
-2 3 0 335.57 5
-2 2 1 1096.19 9.6
-1 8 -2 59.69 5.4
-1 3 -2 6.7 6.2
-1 0 16 14 6.1
-1 -1 12 23.7 5.1
0 9 -3 37.4 5.3
0 7 -4 339.57 5.7
0 6 -4 -1.9 4.4
0 5 -4 221.28 5.7
0 -1 15 9.2 5.2
1 7 -5 0.5 3.5
1 6 -5 85.59 5.2
1 5 -5 39.9 3.6
1 -2 12 126.29 5.2
1 -2 11 90.29 4.2
1 -2 7 175.38 4.4
1 -2 6 83.79 5.6
2 9 -5 15.2 5.6
2 4 -5 486.85 7.7
2 -2 13 1.2 5.3
2 -2 12 8 3.8
2 -2 6 57.89 3.6
3 4 -5 14.7 6
3 -2 12 4.5 5.3
3 -2 11 4 4.1
3 -2 10 141.49 4.2
3 -2 9 33.3 3.8
3 -2 8 118.59 3.8
3 -2 7 160.98 4.1
4 0 0 7.7 4.8
4 -1 3 148.59 4.3
5 6 -5 5.9 7
5 -1 5 16.2 5.4
6 1 1 136.79 5.7
6 0 4 13.1 3.8
7 2 1 10.1 5
7 1 4 13.8 4.2
-3 7 4 0.9 4.2
-3 6 4 11.4 5.2
-3 4 4 8.3 5.2
-3 3 14 44.2 8.2
-3 3 5 9.4 5.1
-3 2 11 52.79 6.5
-3 2 8 344.77 7.5
-3 2 7 73.59 5.6
-2 8 1 19.1 5.6
-2 7 0 3.4 3.5
-2 6 0 127.19 5.6
-2 5 0 68.39 4.7
-2 4 0 7.5 4.9
-2 0 12 1 6.9
-1 9 -1 30.9 4.1
-1 7 -2 25.2 5
-1 2 -1 170.38 7.7
-1 1 0 920.81 10.9
-1 -1 5 -1.1 6.9
0 -1 16 2.4 6.1
1 9 -4 2.3 4.2
1 3 -4 17.2 5.6
1 -2 13 201.58 6.2
1 -2 5 434.76 7.2
2 8 -5 115.89 5.8
2 -1 1 156.98 5.7
2 -2 14 51.99 5.8
2 -2 5 234.48 4.7
3 9 -5 34.3 5.9
3 0 -1 56.19 5.2
3 -2 14 9.1 5.9
3 -2 13 21.6 4.2
3 -2 6 -2.7 3.5
3 -2 5 122.19 5.4
4 1 -2 35.2 5.3
4 -2 12 0.3 5.8
4 -2 11 1.7 4
4 -2 10 88.09 4
4 -2 9 47.4 3.8
4 -2 8 70.49 4.9
4 -2 7 82.89 5
5 1 -1 474.05 7
5 0 1 7.3 5.3
5 -1 4 40.8 5.4
6 2 -1 -1.2 4.6
6 0 3 109.99 6
6 -1 9 11.8 4.7
6 -1 8 7.6 5.9
7 1 3 -0.8 5.8
-3 7 5 284.47 5.4
-3 6 5 143.39 5.4
-3 5 4 35.3 3.8
-3 2 10 64.59 5.7
-3 2 9 65.49 5.6
-2 7 1 22 5.2
-1 8 -1 19.3 5.3
-1 6 -2 594.24 5.4
-1 5 -2 113.19 5.4
-1 4 -2 55.19 3.9
-1 -1 13 39.4 5.4
0 8 -3 6.9 4
0 3 -3 228.58 5.6
0 -2 11 53.19 5.5
0 -2 10 42.1 3.9
0 -2 9 196.38 4.6
0 -2 8 12.1 3.7
0 -2 7 23 5.3
1 8 -4 158.18 5.6
1 -1 1 946.01 12.1
1 -2 14 8 5.6
2 7 -5 36.8 5.3
2 6 -5 166.08 5.9
2 5 -5 244.18 6.1
2 -2 15 3.7 5.3
2 -2 4 258.57 5
3 -1 1 72.99 4.2
4 5 -5 -0.7 6.2
4 -1 2 7.7 3.6
4 -2 13 27 4.6
4 -2 6 -1.7 4.9
5 7 -5 131.29 6.7
6 -1 7 3.1 4.3
6 -1 6 -0.1 5.3
7 4 -2 0.2 6.7
7 3 -1 34.8 6
7 0 6 60.99 4.8
-3 7 7 137.39 5.9
-3 7 6 -2.5 4.2
-3 6 6 50.69 5.4
-3 5 5 249.58 4.7
-3 4 5 494.65 5.8
-3 3 6 7 3.5
-2 8 2 5.6 4
-2 6 1 44.5 4.8
-2 4 1 0.9 4.7
-2 3 1 3 3.8
-2 2 2 104.69 6.2
-1 9 0 9.1 3.8
-1 7 -1 -1.5 5
-1 -1 14 -0.4 4.8
0 9 -2 10.1 4.2
0 7 -3 13 3.6
0 6 -3 28.7 4.7
0 4 -3 56.09 5.2
0 -1 2 254.67 11.4
0 -2 12 586.44 7.1
0 -2 6 93.89 5.9
1 9 -3 3.6 5
1 7 -4 28.8 5.1
1 4 -4 2.2 5
1 0 -1 582.54 14.7
1 -2 15 -2.1 5.9
1 -2 4 839.32 7.7
2 9 -4 -1.4 5.6
3 8 -5 16.9 4.1
3 7 -5 20 4.8
3 5 -5 161.08 6.1
3 -2 4 5.5 3.7
4 8 -5 1.5 5.6
4 -2 5 80.69 3.8
5 -1 3 76.49 4.2
5 -2 11 21.4 4.2
5 -2 10 8.2 4.1
5 -2 9 4.8 4
5 -2 8 154.58 5.2
6 1 0 76.79 5.2
6 0 2 -0.2 5.6
6 -1 5 4.4 5.6
7 2 0 7.6 5
7 1 2 0.9 5.1
7 0 5 -0.3 4.6
-3 7 8 5 5.8
-3 6 7 13.8 5.7
-3 5 6 20.1 5.1
-3 4 6 16.4 4
-3 3 13 13.6 5.8
-2 8 3 4.9 5.7
-2 7 2 60.09 3.8
-2 5 1 369.06 4.9
-2 0 13 3.3 7.9
-1 9 1 0.6 5
-1 8 0 33.9 5.2
-1 6 -1 1.8 4.9
-1 3 -1 113.09 4.9
0 8 -2 14.2 4.8
0 5 -3 4.9 3.7
0 2 -2 1460.15 12.8
0 -2 13 12.1 3.9
1 10 -2 24.5 5.4
1 6 -4 60.79 4
1 5 -4 19.8 4.9
1 2 -3 164.88 8
2 10 -3 12.1 5.8
2 -2 3 462.75 5.9
2 -3 10 12.5 4.9
2 -3 9 1 4.4
3 6 -5 65.99 5.4
3 -2 3 -3.8 3.7
4 7 -5 11.9 5.5
4 6 -5 9.4 5.4
4 0 -1 798.12 8.2
4 -1 1 55.09 3.7
4 -2 4 0.3 4.7
5 0 0 92.99 5.3
5 -1 2 78.29 5.1
5 -2 7 44.6 4
5 -2 6 -0.1 5.5
6 -1 4 41.2 5.2
7 0 4 46.7 4.4
-3 6 8 -0.6 5.8
-3 5 7 49.6 4.2
-3 4 7 2.7 3.9
-3 3 12 1.2 5.3
-3 3 11 2.2 5.5
-3 3 10 29.7 5.8
-3 3 9 84.59 5.5
-2 8 4 1 5.3
-2 7 3 68.79 5.1
-2 6 2 83.99 4
-2 3 2 3.8 5.2
-2 1 4 1028.6 10.8
-1 5 -1 2.4 3.5
-1 4 -1 29.9 3.8
-1 0 2 3.2 9.1
-1 -1 15 27 5.9
0 10 0 4.6 4.5
0 9 -1 -1.1 4.1
0 7 -2 46.4 5.1
0 -2 14 11.9 4.1
0 -2 5 125.99 5.1
1 8 -3 24.1 3.8
1 -2 3 3.8 4.7
1 -3 10 4.4 4.9
2 8 -4 36.6 4
2 3 -4 461.75 8.4
2 -1 0 1037.5 9.3
2 -3 13 11.6 6
2 -3 12 31.5 4.1
2 -3 11 6.1 3.8
2 -3 8 323.27 4.7
2 -3 7 6.8 4.9
3 9 -4 10.3 5.3
3 -1 0 114.09 5.4
3 -3 13 21.4 6
3 -3 12 -0.4 4.3
3 -3 11 -0.1 4.1
3 -3 10 12.5 3.8
3 -3 9 237.48 4.6
3 -3 8 2.5 3.6
3 -3 7 14.7 4.9
4 -2 3 13.9 4.7
4 -3 11 24.7 5.6
4 -3 10 6.7 5.6
5 -2 5 174.68 5.4
6 6 -4 0.3 8.7
6 0 1 22.5 5.5
7 1 1 17.4 5.8
7 0 3 11.3 5.8
-3 6 10 41.9 6.1
-3 6 9 15.4 4.4
-3 5 9 13.4 5.6
-3 5 8 0.5 3.9
-3 4 13 1.7 6
-3 4 12 52.39 6.4
-3 4 8 11.1 3.9
-2 5 2 88.49 4
-2 4 2 -0.5 3.6
-2 2 3 35.1 5.7
-1 9 2 21.6 5
-1 8 1 -1 4.7
-1 7 0 203.78 4.4
-1 2 0 170.08 8.1
0 8 -1 2.6 4.8
0 -2 15 14.7 5.3
1 10 -1 6.4 5.8
1 9 -2 10.5 4
1 7 -3 -5.3 5
1 -3 12 -1.7 5.7
1 -3 11 365.76 5.1
1 -3 9 92.99 4.2
1 -3 8 107.19 4.2
1 -3 7 51.99 5
2 9 -3 11.6 5.6
2 7 -4 6.1 4.7
2 -2 2 139.99 4.9
2 -3 14 6.6 5.5
2 -3 6 33.1 3.7
3 -2 2 4 3.6
3 -3 6 90.69 3.8
4 9 -4 -0.8 5.8
4 -3 12 61.99 4.9
4 -3 9 106.99 4.1
4 -3 8 64.69 4
4 -3 7 74.99 5.3
5 2 -3 52.29 6.8
5 1 -2 6.4 4.9
5 -2 4 31.9 5.6
6 7 -4 13.4 7.1
6 2 -2 10.6 5.4
6 1 -1 59.39 5.7
6 -1 3 -5 4.1
6 -2 7 23.6 5.6
-3 5 11 20.7 5.4
-3 5 10 -2 4
-3 4 11 1.5 5
-2 8 5 12.9 4.2
-2 7 4 6.5 3.7
-2 6 3 21.3 3.7
-2 5 3 205.38 5.4
-1 6 0 198.88 4.4
-1 -1 16 0.2 6.1
-1 -1 4 288.57 10.1
0 10 1 3.4 4.5
0 9 0 2 3.8
0 6 -2 131.19 4.1
0 5 -2 5 4.9
0 3 -2 1.9 4.8
0 1 -1 46.1 6.9
0 -2 16 5.7 6.5
0 -2 4 4.1 4.9
1 -3 14 43.7 6
1 -3 13 53.29 4.4
1 -3 6 7.2 4.7
2 10 -2 3.4 4.3
2 6 -4 16.9 4.8
2 4 -4 11.1 5.3
2 -3 5 258.37 4.7
3 8 -4 29.4 4.1
3 -3 5 0.6 3.6
4 -1 0 26.7 3.7
4 -2 2 196.08 5.8
4 -3 6 19.6 3.6
5 0 -1 945.61 8.4
5 -1 1 178.38 4.5
5 -3 9 29.6 5.4
5 -3 8 27.7 5.9
6 3 -3 18.3 6.3
6 -2 6 31.3 4.5
7 3 -2 4.8 6.9
7 2 -1 49 5.9
7 0 2 3.7 6.1
-2 8 6 21.7 4.3
-2 7 5 52.09 5.6
-2 6 4 4.2 5.4
-2 4 3 -4.8 3.5
-2 3 3 1.6 3.6
-2 0 14 6.9 9
-1 9 3 63.89 4.3
-1 8 2 147.59 4.3
-1 7 1 -5.2 3.5
-1 5 0 7.9 3.6
-1 4 0 4.7 3.9
-1 3 0 103.09 5
-1 -2 12 47.9 5.8
-1 -2 11 411.76 7.4
-1 -2 10 25.1 4.8
-1 -2 9 1.7 4.6
-1 -2 8 118.09 5.9
0 10 2 70.39 6
0 7 -1 18.6 3.6
0 4 -2 618.34 6.3
0 -3 10 13.5 5.5
0 -3 9 33.5 5
1 10 0 8.8 5.3
1 9 -1 6.2 5.6
1 8 -2 9.7 3.8
1 6 -3 7 3.7
1 5 -3 10.4 5.1
1 3 -3 68.79 6.5
1 -1 0 900.51 12.6
1 -2 2 -1 4.9
1 -3 15 33.9 6.3
1 -3 5 350.86 6.1
2 8 -3 25.5 4.8
2 5 -4 4.7 3.5
2 -3 4 9.8 3.8
3 9 -3 4.6 5.5
3 7 -4 95.29 5.7
3 1 -3 575.74 11.5
3 0 -2 620.34 7.7
3 -2 1 23.4 5.3
3 -3 4 32.8 3.6
4 8 -4 3.4 5
4 -3 5 53.99 4
5 8 -4 -1.7 5.8
5 -2 3 1.6 3.8
5 -3 7 177.28 4.8
6 0 0 62.99 4.2
6 -1 2 38.1 4.3
6 -2 5 1.1 4.4
7 1 0 33.7 5.8
-2 8 7 38.5 4.5
-2 7 6 17.4 5.5
-2 5 4 5.6 5.4
-2 0 7 96.79 9.7
-1 9 4 19.6 4.3
-1 8 3 74.99 5.1
-1 6 1 416.26 5
-1 -2 13 5.7 4.8
-1 -2 7 1.6 4.8
0 9 1 61.89 4.1
0 8 0 -0.9 3.6
0 6 -1 75.39 4.9
0 -3 12 24.3 5.1
0 -3 11 219.98 4.9
0 -3 8 213.88 4.6
0 -3 7 11.5 4.7
1 7 -2 164.58 5.2
1 4 -3 260.67 5.1
2 10 -1 31.2 6.1
2 9 -2 7.4 4.7
2 0 -2 516.45 9.7
2 -2 1 224.38 5.4
2 -4 11 10.7 5.1
2 -4 10 55.29 5.6
2 -4 9 44.2 5.1
3 10 -2 67.99 5.9
3 3 -4 75.59 7
3 -1 -1 82.69 5.5
3 -3 3 285.87 5.8
3 -4 12 67.29 6.2
3 -4 11 4.6 5.4
3 -4 10 60.09 5.4
3 -4 9 429.26 6.7
4 1 -3 29.9 6.2
4 0 -2 110.49 5.7
4 -2 1 2.1 5.6
4 -3 4 24.3 3.8
5 7 -4 9.2 6.1
5 -1 0 69.09 5.6
5 -2 2 259.27 6
5 -3 6 27.7 4.3
5 -3 5 123.09 5.6
6 -2 4 28.8 4.3
7 0 1 3.8 5.8
-2 8 9 72.99 6.7
-2 8 8 1.1 4.5
-2 7 7 14.8 5
-2 6 5 3 4
-2 4 4 23.2 3.6
-2 3 4 18 4.9
-2 1 5 67.49 5.5
-1 9 5 3.2 6
-1 7 2 24.4 3.8
-1 5 1 343.37 6
0 10 3 -3.2 4.1
0 -2 3 17.2 5.3
0 -3 14 7.8 6
0 -3 13 -2.4 4
1 10 1 4.8 5.2
1 8 -1 103.69 5.1
1 1 -2 140.89 12.1
1 -3 4 68.39 4.2
2 7 -3 12.9 3.7
2 -1 -1 149.09 7.5
2 -3 3 457.05 5.5
2 -4 13 11.7 5.6
2 -4 12 -4.8 4.2
2 -4 8 25.1 3.8
2 -4 7 105.49 5.3
3 8 -3 12.8 4.8
3 6 -4 -0.4 3.6
3 -4 8 4.4 3.8
3 -4 7 60.19 3.8
4 9 -3 27.5 5.3
4 7 -4 14.6 4
4 -1 -1 283.17 6.1
4 -3 3 -1.6 5.1
4 -4 10 19.6 4.5
4 -4 9 4.1 3.9
4 -4 8 159.88 5.9
5 4 -4 115.79 11.8
5 -3 4 85.29 5.5
6 -1 1 6.1 4.1
6 -2 3 25.9 6.1
-2 7 8 -1.5 5.8
-2 6 6 47.1 4.1
-2 5 5 64.89 4.1
-1 9 6 9.5 5.5
-1 8 4 67.59 5
-1 7 3 334.17 6
-1 6 2 245.08 5.6
-1 4 1 4.6 5.4
-1 2 1 20.6 7.2
-1 -2 14 1.3 5.2
-1 -2 6 139.19 5.9
0 10 4 152.88 5.7
0 9 2 -4.4 3.7
0 8 1 -2.7 3.5
0 7 0 95.69 3.8
0 5 -1 37.6 3.5
0 -3 15 51.99 6.5
0 -3 6 480.55 5.8
1 9 0 16.9 4
1 6 -2 76.39 5.4
1 -2 1 172.48 8
1 -4 13 -1 5.3
1 -4 12 19.9 5.6
1 -4 11 13.6 4.1
1 -4 10 2.9 3.9
1 -4 9 5.3 3.8
1 -4 8 54.39 5.4
2 8 -2 6.6 5.3
2 6 -3 85.79 5.2
2 -4 6 106.39 3.9
3 5 -4 62.49 5
3 4 -4 118.09 6.2
3 -2 0 6.4 5
3 -3 2 203.08 5.9
3 -4 6 106.99 4
4 6 -4 0.4 5.2
4 -4 7 104.99 4.3
4 -4 6 4 5.4
5 6 -4 3.2 6
5 -2 1 22.8 5.4
6 1 -2 2.1 5.3
6 0 -1 -3.8 5.4
7 1 -1 21.4 5.4
-2 7 9 3.8 5.6
-2 6 7 8.4 5.4
-2 5 6 -0.6 5.2
-2 4 5 -1.1 3.6
-2 3 5 103.19 5.3
-1 8 5 13.3 5.1
-1 3 1 74.59 5.1
-1 -2 15 1.2 5.8
0 9 3 22.5 5.3
0 6 0 22.8 5.2
0 4 -1 434.06 6
0 3 -1 1128.59 10.3
0 2 -1 0.1 5.6
0 -1 1 45.9 7.7
0 -3 5 226.58 6.2
1 10 2 -0.4 5.8
1 -3 3 50.09 4.3
1 -4 14 12 6.3
1 -4 7 5.1 3.7
2 10 0 5.3 4.2
2 9 -1 8.1 3.9
2 -2 0 -0.2 4.3
2 -3 2 244.88 4.7
2 -4 5 -1.5 3.5
3 10 -1 0.8 5.2
3 9 -2 12.5 4
3 -4 5 104.69 4
4 8 -3 23.1 4.9
4 -2 0 16 3.9
4 -3 2 240.48 4.5
4 -4 5 2.2 5.3
5 5 -4 47.1 6.9
5 0 -2 32.2 4
5 -1 -1 2 5.5
5 -3 3 -2.1 4.1
5 -4 7 28.7 4.6
6 -1 0 29.9 5.9
6 -2 2 6.6 4.2
7 4 -3 38.5 11.1
7 2 -2 1.7 5.9
7 0 0 5.5 5.9
-2 7 11 3.9 6.2
-2 7 10 -0.4 4.2
-2 6 8 14.9 5.6
-2 1 6 33.1 6.1
-1 9 7 7.9 4.3
-1 7 4 3.9 4.7
-1 6 3 1200.58 7.9
-1 5 2 7.8 3.7
0 10 5 13.6 4.4
0 8 2 2.4 3.6
0 7 1 2.5 3.5
1 9 1 23.6 3.9
1 8 0 13.7 3.7
1 7 -1 106.09 3.9
1 5 -2 144.49 4.3
1 -4 6 43 4
2 7 -2 0.3 5
2 5 -3 333.17 6.4
2 -4 4 587.24 6.4
3 7 -3 0.3 3.7
3 -3 1 19.6 5.4
3 -4 4 244.48 4.6
3 -5 10 169.98 6.5
3 -5 9 16.6 5.3
4 5 -4 2.3 5.2
4 4 -4 1 6.2
4 -4 4 81.29 5.4
5 8 -3 30.9 6
5 1 -3 254.57 6.7
5 -2 0 2.8 4.9
5 -3 2 8.4 5.4
5 -4 6 2.2 4.6
5 -4 5 -8.6 5.7
6 2 -3 13.3 5.4
6 -3 4 80.29 4.8
-2 6 9 114.29 6.2
-2 5 7 15.7 3.9
-2 4 6 19.2 3.8
-1 9 9 10.6 5.7
-1 9 8 4.3 4.5
-1 8 6 37.8 4.3
-1 4 2 5.5 5.4
-1 -2 5 2.2 5.3
0 10 6 14.8 6.2
0 9 4 59.49 4.1
0 5 0 212.58 5.6
0 -2 2 1428.76 12.8
0 -3 4 28.2 5.9
0 -4 12 397.56 7.3
0 -4 11 116.49 5.6
0 -4 10 3.9 3.8
0 -4 9 22 5.5
0 -4 8 190.18 5.7
1 10 3 -3.8 5.6
1 4 -2 66.69 5.9
1 -3 2 7.6 6.1
1 -4 5 227.98 4.7
2 10 1 -0.3 4.1
2 9 0 28.9 5.5
2 8 -1 41.8 5.2
2 4 -3 1.8 4.9
2 -3 1 42.9 5.5
2 -5 12 53.69 5.7
2 -5 11 1.5 4.3
2 -5 10 51.59 4.4
2 -5 9 17.1 4.3
2 -5 8 14.5 5.6
3 8 -2 81.39 5.5
3 -1 -2 39.4 5.3
3 -4 3 16.1 3.5
3 -5 8 168.58 4.5
3 -5 7 50.69 5.5
4 10 -1 10.6 5.9
4 9 -2 7.7 4.1
4 -1 -2 9 5.1
4 -3 1 70.29 4
4 -4 3 16.3 5
4 -5 8 102.19 6.2
5 -4 4 2.5 5.5
6 -2 1 5 4.1
6 -3 3 27.1 4.6
-2 6 11 15.2 6.1
-2 6 10 13.4 4.1
-2 5 8 18.9 4.9
-2 4 7 -0.2 5.2
-2 3 6 2.5 3.5
-1 8 7 35.8 4.3
-1 7 5 71.29 4
-1 6 4 59.29 5.3
-1 5 3 19 5
-1 3 2 11.1 6.5
-1 -3 12 104.69 5.8
-1 -3 11 7.6 3.9
-1 -3 10 71.19 4.3
-1 -3 9 69.19 5.4
0 10 7 35.5 6.5
0 9 5 24 4.8
0 8 3 45.4 3.7
0 7 2 44.7 5.1
0 6 1 87.49 3.9
0 -4 14 17.7 6.1
0 -4 13 21.1 4.5
0 -4 7 -1.9 5.3
1 9 2 5.2 3.8
1 8 1 2.1 4.7
1 7 0 59.79 4.9
1 6 -1 27.3 3.8
1 3 -2 316.27 8.1
1 -4 4 147.99 4.3
1 -5 11 38.2 5.4
1 -5 10 9.8 5.5
2 2 -3 204.48 9.4
2 -4 3 207.98 4.4
2 -5 7 266.17 4.7
2 -5 6 60.19 5
3 10 0 3.4 4.2
3 9 -1 3.9 4
3 6 -3 840.62 8.2
3 -2 -1 57.09 3.9
3 -5 6 133.49 4.3
4 7 -3 4.9 5.5
4 0 -3 421.66 7.8
4 -2 -1 18.5 4.1
4 -5 7 -0.8 4.2
4 -5 6 69.09 5.7
5 9 -2 -0.1 6
5 -3 1 30.9 5.4
6 0 -2 2.1 5.5
6 -1 -1 1.1 5.6
6 -3 2 54.89 5.9
7 0 -1 2.3 6.1
-2 6 13 11.5 4.6
-2 6 12 15.2 4.4
-2 5 9 14.1 5.2
-2 3 7 17.8 4.5
-2 -1 11 6.5 8.5
-1 8 8 6.4 5.2
-1 7 6 32.1 5.5
-1 2 2 17.9 7.3
-1 -3 14 2.6 6.1
-1 -3 13 -3 4.9
-1 -3 8 3.9 3.7
0 4 0 647.14 6.9
0 -4 6 139.09 5.4
1 10 4 4.1 4
1 2 -2 82.99 6.1
1 -2 0 159.88 6.2
1 -5 12 4 4.2
1 -5 9 51.69 3.9
1 -5 8 31.1 4.1
1 -5 7 54.19 5.4
2 10 2 -1.6 5.3
2 6 -2 38.5 3.7
2 3 -3 42.9 5.4
2 -2 -1 1068.19 9.6
2 -4 2 21.5 5.2
2 -5 5 103.99 5.6
3 0 -3 145.99 6.7
3 -3 0 5.2 3.7
3 -4 2 46.8 3.7
3 -5 5 179.88 4.5
4 -3 0 75.79 5.5
4 -4 2 -5.6 3.9
4 -5 5 -7.3 5.2
5 7 -3 35 5.9
5 -1 -2 35.6 5.8
5 -2 -1 96.09 5.9
5 -4 3 3.6 4.3
6 7 -3 5.6 6.4
6 -2 0 20.4 5.5
7 3 -3 93.19 8.9
7 1 -2 2.4 6
-2 5 11 142.29 6.1
-2 5 10 1.2 3.9
-2 4 8 17.7 3.8
-2 2 7 2.9 5.1
-2 1 7 9.9 5.9
-2 -1 12 56.49 8.6
-2 -1 10 193.78 11.2
-1 8 9 12.9 4.1
-1 7 7 23.9 5.1
-1 6 5 291.67 4.8
-1 5 4 33.7 5.3
-1 4 3 53.89 4.1
-1 -3 7 -0.6 3.7
0 9 6 0.7 3.8
0 8 4 74.59 3.9
0 7 3 433.76 6.2
0 5 1 41.3 5.4
0 -3 3 221.38 5.6
0 -4 5 45.6 4.9
1 10 5 2.7 5.4
1 9 3 2.4 3.8
1 5 -1 171.48 4.6
1 -1 -1 356.36 8.6
1 -3 1 113.19 5.1
1 -4 3 222.08 4.4
1 -5 6 5.3 5
2 9 1 6 3.8
2 8 0 14.1 5.3
2 7 -1 66.69 4
2 -1 -2 118.69 7.1
2 -3 0 322.27 5
2 -5 4 578.64 6.5
3 10 1 3.3 5.2
3 7 -2 26.7 4.8
3 5 -3 523.25 7.4
3 -5 4 -0.5 3.6
4 10 0 54.09 5.3
4 9 -1 91.89 5.8
4 8 -2 29.9 4
4 -5 4 1.7 5
5 0 -3 87.89 5.8
5 -3 0 111.99 5.9
5 -4 2 97.69 6
6 1 -3 28.4 5.4
6 -3 1 -3.8 6
-2 5 13 55.89 5.5
-2 5 12 -1 3.9
-2 4 9 562.14 6.4
-2 0 8 218.98 10.8
-1 8 11 17.5 6.2
-1 8 10 76.69 4.7
-1 -3 15 3 5.4
-1 -3 6 8.2 5.5
0 9 7 27 5.3
0 8 5 9.1 5
0 6 2 6.1 3.6
0 3 0 150.68 5.8
0 -5 11 56.79 5.3
0 -5 10 11.6 5.1
1 8 2 16.9 3.8
1 7 1 362.36 6
1 6 0 7.1 5
1 -5 5 51.59 5.3
2 10 3 6.7 5.3
2 5 -2 6.6 5.1
2 -4 1 113.29 5.3
2 -6 10 27.7 4.5
2 -6 9 10.4 5.4
2 -6 8 -0.4 6
3 9 0 38.9 3.8
3 8 -1 126.99 4.3
3 -4 1 -4 3.6
3 -5 3 1.8 3.7
3 -6 8 9.1 4.5
3 -6 7 60.09 6
4 6 -3 149.29 6
4 -2 -2 357.56 6.2
4 -4 1 8.3 3.8
4 -5 3 8.1 5.8
5 8 -2 6.5 5.5
6 -1 -2 6.4 5.1
-2 4 15 -2.2 6
-2 4 14 21.1 5.6
-2 4 10 81.09 4.4
-2 2 8 131.69 6.3
-2 -1 13 10.8 9.4
-1 7 8 11.2 3.9
-1 6 6 465.25 5.3
-1 5 5 73.19 5.3
-1 3 3 320.07 6.1
-1 -1 3 91.89 11.1
-1 -2 4 4.5 6.2
0 9 8 2.7 6
0 7 4 -6.9 4.8
0 2 0 9999 29.3
0 -4 4 110.39 5.7
0 -5 13 -2 6.3
0 -5 12 53.69 4.5
0 -5 9 1.4 3.7
0 -5 8 9.6 5.4
1 10 6 11.3 3.9
1 9 4 45.6 4
1 -4 2 57.69 4
1 -5 4 297.47 5.9
1 -6 11 14.7 5.6
1 -6 10 1.3 5.4
2 9 2 -2.8 5.3
2 -5 3 2.6 3.6
2 -6 7 5.8 4.1
2 -6 6 84.99 5.5
3 10 2 0.8 5.6
3 -2 -2 177.58 4.6
3 -3 -1 53.69 3.7
3 -5 2 114.99 5.3
3 -6 6 89.09 4.3
4 -3 -1 9.1 4.1
5 9 -1 33.4 5.5
5 -4 1 4 4.2
5 -5 3 -5.9 6.2
6 8 -2 19.7 5.6
6 6 -3 0.9 6.4
6 -2 -1 4.9 4.2
6 -3 0 -0.4 6
7 2 -3 315.07 9.1
7 0 -2 12.6 6.4
-2 4 13 42.5 5.2
-2 3 15 44.5 7.5
-2 1 8 90.89 6.6
-1 7 10 5.5 5.2
-1 7 9 5.2 3.8
-1 6 7 4.1 4.9
-1 4 4 46.8 4
-1 -4 12 26.7 5.9
-1 -4 11 19.4 5.2
-1 -4 10 165.78 5.8
-1 -4 9 83.89 5.7
0 9 9 2.3 5.9
0 8 6 28.4 3.9
0 6 3 22.5 4.8
0 5 2 3 5.4
0 4 1 1101.99 8.3
0 -2 1 0.8 5.9
0 -3 2 -5.2 5
0 -5 7 4.8 3.8
1 10 7 17.5 5.2
1 9 5 0.7 4.7
1 8 3 26.1 3.7
1 4 -1 261.27 5.6
1 -6 9 7.3 4.1
1 -6 8 11.1 4.2
1 -6 7 5.6 5.1
2 10 4 6.5 4.1
2 8 1 10.4 3.8
2 7 0 -2.1 5.2
2 6 -1 7 3.4
2 -3 -1 0.8 5.4
2 -5 2 1569.34 8.6
2 -6 5 96.89 5.5
3 9 1 12.1 5.2
3 6 -2 4.9 5
3 -4 0 0.3 3.7
3 -6 5 12.4 3.8
3 -6 4 33.4 4.9
4 10 1 61.39 4.5
4 9 0 6.2 5.6
4 8 -1 2.3 4.7
4 7 -2 131.89 5.4
4 -1 -3 276.57 5.4
4 -4 0 51.39 4.1
4 -5 2 31.8 4.1
4 -6 5 14.8 4.5
5 6 -3 7.5 5.5
5 -1 -3 50.19 5.1
5 -2 -2 27.5 4.1
5 -3 -1 43.5 4.4
6 0 -3 -2.9 5.7
-2 3 14 1.4 6
-2 3 11 11.8 5.1
-2 2 9 540.85 8.2
-1 7 11 -5.5 5.7
-1 6 8 48.8 5.5
-1 5 6 225.08 6
-1 2 3 152.88 7.5
-1 -3 5 54.89 4
-1 -4 14 69.29 5.8
-1 -4 13 238.08 5.5
-1 -4 8 4.8 3.7
0 9 10 5.2 5.4
0 8 7 44.9 5
0 7 5 345.77 5.9
0 1 0 869.61 13
0 -4 3 58.19 5.4
0 -5 6 21.2 4
1 10 8 183.88 6.8
1 7 2 37.5 3.5
1 6 1 786.12 7.4
1 5 0 682.63 6.3
1 -3 0 97.19 5
1 -4 1 33.4 5.4
1 -5 3 8.3 3.6
1 -6 6 16.7 5.5
2 9 3 73.09 5.4
2 4 -2 2 4.9
2 -2 -2 92.59 6.4
2 -4 0 7.3 3.7
2 -6 4 26.4 5.1
3 8 0 0.2 3.7
3 7 -1 180.28 5.5
3 4 -3 34.3 5.4
3 -1 -3 341.77 6
3 -5 1 65.29 5.3
4 5 -3 17.3 5.3
4 -5 1 35.9 5.9
4 -6 4 20.2 4.6
5 2 -4 20.7 8.7
5 -4 0 0 4.2
5 -5 2 7.1 4.4
-2 3 13 23.9 5.7
-2 3 12 2.3 4.8
-2 2 15 0.9 6.6
-2 2 10 1.6 5.5
-2 1 15 86.79 9.9
-1 7 13 10.2 5.6
-1 7 12 31.3 4.5
-1 6 9 79.89 5.1
-1 4 5 19.4 5.2
-1 3 4 374.06 7.3
-1 -4 7 40 4
0 9 11 3.6 4.5
0 8 8 4.2 5.6
0 6 4 2.4 5.2
0 -5 5 21.8 3.8
0 -6 10 8 5.3
1 10 9 -4.4 6.2
1 9 6 11 3.8
1 8 4 16.3 3.7
1 -2 -1 19.3 5.5
1 -6 5 46.7 3.9
2 10 5 5.7 4.1
2 8 2 50.99 4.9
2 -5 1 4.7 5
2 -6 3 2.7 5.2
2 -7 8 11.4 5.6
2 -7 7 -7.4 5.5
3 10 3 36.8 4.1
3 -3 -2 58.09 5.2
3 -4 -1 24.7 5.3
3 -6 3 0.4 3.8
4 10 2 23.6 5.7
4 -3 -2 10.5 3.8
4 -4 -1 13.1 5.4
4 -6 3 6.3 4.5
5 9 0 27.8 5.2
5 7 -2 3.3 5.4
5 -5 1 2.3 6.3
6 -2 -2 18.3 4.4
6 -3 -1 21 4.6
7 1 -3 0.4 6.3
-2 2 14 53.49 6.9
-2 2 11 78.69 6.2
-2 1 9 76.19 5.7
-1 6 10 203.48 6.2
-1 5 7 39.9 4.1
-1 -4 6 47.8 5.3
0 8 9 112.79 6.1
0 7 6 314.57 4.8
0 5 3 55.29 5.4
0 3 1 621.14 7.7
0 -5 4 208.58 5.5
0 -6 11 99.39 4.9
0 -6 9 5.1 4.2
0 -6 8 109.79 5.5
1 9 7 68.69 5.6
1 7 3 9.7 5
1 3 -1 113.79 5.6
1 -5 2 107.59 4.2
1 -6 4 3.8 4.8
1 -7 9 13.8 6.2
2 10 6 12.9 5
2 9 4 12.4 5.2
2 7 1 155.68 5.6
2 5 -1 167.28 5.7
2 -7 6 16.2 4.3
3 10 4 2 5.3
3 9 2 1 3.7
3 -5 0 -3.4 4.7
3 -6 2 11.4 3.9
3 -7 5 2.1 5.5
4 9 1 1.1 5.5
4 1 -4 44.1 7
4 -2 -3 3.4 3.8
4 -5 0 0.9 5.2
4 -6 2 4.7 4.4
5 8 -1 3.6 3.8
5 1 -4 316.77 8.7
5 -2 -3 -2.2 5.6
5 -3 -2 48.6 4.4
5 -4 -1 5.1 5.3
6 7 -2 -0.8 5.8
6 -1 -3 16.5 5.3
-2 2 13 41.1 5.8
-2 2 12 6.2 5.2
-2 0 9 449.36 12.5
-2 -2 11 -0.1 7
-1 6 11 47.4 6
-1 5 8 12.8 5.5
-1 4 6 5.2 5
-1 -3 4 11.4 4.2
-1 -5 12 233.08 6.9
-1 -5 11 124.79 6.2
-1 -5 10 25.1 5.7
-1 -5 9 211.78 6.3
0 8 10 13.2 5.8
0 7 7 12.4 5.2
0 6 5 83.99 5.4
0 4 2 34.9 4.8
0 -3 1 1052.89 9
0 -4 2 564.24 6.2
0 -6 7 1 3.9
0 -6 6 30.3 5.4
1 8 5 26.1 3.8
1 6 2 23.8 5.2
1 -4 0 -0.1 3.9
1 -6 3 72.69 5.4
1 -7 8 78.69 4.6
1 -7 7 104.99 5.6
2 10 7 -4 4.9
2 6 0 0.3 3.4
2 -3 -2 -0.4 5.3
2 -4 -1 0.7 3.6
2 -5 0 64.19 5.2
2 -6 2 202.98 4.4
2 -7 5 5.5 4.1
3 8 1 22.6 3.9
3 5 -2 48 5.1
3 -2 -3 120.39 4.4
3 -6 1 -3.4 5.2
3 -7 4 7.8 4.2
4 10 3 52.49 5.6
4 8 0 76.99 5.6
4 7 -1 729.53 7.9
4 6 -2 -0.6 4.8
4 0 -4 1486.35 13.2
4 -6 1 11.5 5.4
5 10 2 9.6 5.3
5 5 -3 11 5.4
5 0 -4 179.48 7.1
5 -5 0 7.1 4.5
6 8 -1 14.4 5.3
6 5 -3 14.2 6.7
6 -3 -2 13.6 5.5
-2 1 14 133.79 8.6
-2 1 10 466.85 8.8
-2 -2 12 1.1 7.6
-2 -2 10 12.3 6.9
-1 6 14 67.49 5.9
-1 6 13 34 4.5
-1 6 12 4.4 4.1
-1 3 5 133.99 6.1
-1 -2 3 135.39 6.3
-1 -4 5 39.4 4
-1 -5 13 95.89 6.1
-1 -5 8 2.4 3.9
-1 -5 7 44.8 5.2
0 8 12 70.19 5.9
0 8 11 9.9 4.3
0 -1 0 2102.49 19.8
0 -5 3 3.3 3.8
0 -6 5 83.19 5.4
1 9 8 9.8 3.8
1 8 6 -1.4 5.1
1 7 4 96.79 5.4
1 5 1 686.43 6.5
1 4 0 706.63 7.4
1 -3 -1 70.99 5.1
1 -5 1 0.6 3.7
1 -7 6 1.6 4.3
1 -7 5 -5.5 5.7
2 9 5 7.1 4.9
2 8 3 32.5 3.8
2 0 -3 162.78 8.8
2 -6 1 105.69 5.6
2 -7 4 46.5 3.9
3 10 5 8.2 5.9
3 9 3 29.6 5.4
3 7 0 41.1 3.9
3 6 -1 1142.99 8.1
3 3 -3 150.48 7.3
3 -4 -2 103.29 5.8
3 -5 -1 7.5 5.2
3 -7 3 -0.7 4.1
4 -3 -3 2.8 5.5
4 -4 -2 492.35 5.6
4 -5 -1 35 5.5
5 -4 -2 2.7 5.2
6 1 -4 30.4 6.7
6 -2 -3 0.8 5.8
-2 1 13 6.1 6.5
-2 1 12 29.8 6.8
-2 1 11 59.79 6.6
-2 0 14 5.1 8.6
-2 -2 13 -1.2 7.1
-1 5 9 10.6 3.9
-1 4 7 44.2 5.2
-1 2 4 1018.9 9.4
-1 -5 6 6 4.9
0 8 13 7.5 4.6
0 7 8 116.09 4.3
0 6 6 396.96 6.4
0 5 4 5.5 3.5
0 -2 0 9734.93 29.2
0 -6 4 5.9 5.2
0 -7 10 6.7 6.1
0 -7 9 2.2 5.7
0 -7 8 4.4 5.3
1 9 9 56.09 4.5
1 -6 2 549.54 5.3
1 -7 4 149.39 5.6
2 10 8 40.2 4.3
2 7 2 11.2 5.2
2 3 -2 62.79 6.1
2 -1 -3 0.8 5.9
2 -7 3 10.1 3.8
3 -3 -3 3.5 5.2
3 -6 0 20.8 5.5
3 -7 2 2.2 5.4
4 9 2 51.39 5
4 4 -3 19.2 6.3
4 -1 -4 131.29 5.9
4 -6 0 8.9 5.3
5 9 1 4.4 4.2
5 8 0 -1.6 5.1
5 6 -2 42.5 5
5 -1 -4 16.2 5.3
5 -3 -3 8.2 5.3
5 -5 -1 18.6 4.6
6 2 -4 7.4 8.6
6 0 -4 12.5 6.4
-2 0 10 4.8 7.6
-2 -2 9 154.08 8.6
-1 5 11 131.49 6.2
-1 5 10 0.5 3.8
-1 -3 3 58.29 6.7
-1 -4 4 3.1 3.7
-1 -6 10 56.49 5.7
0 7 9 37.6 4
0 4 3 10.5 4.4
0 2 1 2204.28 14.6
0 -4 1 367.46 5.8
0 -5 2 4.3 3.6
0 -7 7 5.8 4
1 9 11 10.2 6.1
1 9 10 56.69 4.7
1 8 7 36.6 3.8
1 7 5 7.2 5.1
1 6 3 6.2 3.7
1 -4 -1 2.3 5.4
1 -5 0 6.3 3.6
1 -7 3 1.1 4.9
1 -8 7 10.9 6.3
2 10 9 46 4.4
2 9 6 3.7 3.8
2 8 4 35.6 3.8
2 6 1 20.8 4.9
2 -2 -3 31.1 6
2 -4 -2 2.6 3.6
2 -5 -1 337.27 4.9
2 -6 0 125.89 5.6
2 -7 2 171.88 4.4
2 -8 5 51.99 4.8
3 10 6 3.2 4.2
3 9 4 2.5 5.4
3 8 2 71.29 4.1
3 -7 1 11.7 5.4
4 10 4 8.1 4.1
4 8 1 2.8 5.3
4 -5 -2 12 4.9
5 10 3 10.2 4.3
5 7 -1 48 5.6
7 4 -3 28 10
-2 0 13 3.2 8.1
-2 -2 14 3.6 9.5
-2 -3 11 8.2 6.2
-1 5 15 33.9 6.2
-1 5 14 83.99 6.5
-1 5 13 50.39 6.1
-1 5 12 22.7 4.1
-1 4 8 97.59 5.2
-1 3 6 102.19 5.7
-1 -5 5 29.9 3.9
-1 -6 11 174.38 5.2
-1 -6 9 16.7 4.4
-1 -6 8 21.6 5.7
0 7 11 114.49 5.8
0 7 10 188.78 4.7
0 6 7 351.26 5.1
0 5 5 4 4.9
0 3 2 19.7 5.1
0 -3 0 147.09 5.8
0 -6 3 28.4 3.8
0 -7 6 0.6 3.8
0 -7 5 112.49 5.8
1 9 12 13.2 4.5
1 8 8 130.89 5.7
1 5 2 234.28 6.3
1 2 -1 192.38 7.1
1 -1 -2 75.89 6.3
1 -2 -2 13.2 7.3
1 -6 1 -2.2 3.7
1 -8 6 17.8 4.4
2 10 10 7.2 4.5
2 9 7 118.89 5.2
2 5 0 23.9 4.9
2 4 -1 19.1 5.4
2 -7 1 18.9 5.2
2 -8 4 5.6 4.6
3 10 7 3.8 5.8
3 7 1 5.7 4.8
3 -4 -3 10.1 5.4
3 -5 -2 120.09 4.2
3 -6 -1 1 5.1
4 10 5 8.9 5.1
4 9 3 0 4.8
4 7 0 118.69 5.7
4 -2 -4 188.18 4.7
4 -4 -3 28 3.9
4 -6 -1 12.5 4.3
5 9 2 12.9 5.2
5 -2 -4 26.2 5.1
5 -4 -3 -5.4 5.9
5 -5 -2 9 5.9
6 8 0 66.39 6.2
6 7 -1 1.3 5.8
6 6 -2 24.6 5.8
6 -1 -4 23.8 6.1
6 -3 -3 7.3 4.5
-2 0 12 1.8 7.6
-2 0 11 2.8 7.2
-2 -3 12 59.09 6.7
-2 -3 10 14.7 5.5
-2 -3 9 152.38 7.1
-1 4 9 97.79 5.5
-1 0 3 10.4 10.4
-1 -4 3 246.88 6.4
-1 -5 4 13.5 5.1
-1 -6 7 68.49 4.1
-1 -6 6 13.4 5.3
0 7 14 4.7 5.4
0 7 13 24.9 6
0 7 12 64.79 4.6
0 6 8 297.37 6.1
0 -5 1 33.7 3.6
0 -6 2 125.89 5.6
0 -7 4 347.67 6.4
1 8 9 1.1 5.2
1 7 6 46.8 5
1 6 4 71.99 4.9
1 4 1 3477.05 14.4
1 -3 -2 6.5 6.5
1 -5 -1 320.27 5.8
1 -6 0 188.78 5.3
1 -7 2 21.3 3.7
1 -8 5 31 4.4
1 -8 4 6.4 5.9
2 9 8 192.98 5.9
2 8 5 3.4 3.7
2 7 3 5.7 3.5
2 -3 -3 3 3.6
2 -5 -2 82.39 5.5
2 -6 -1 38.8 5.2
2 -8 3 113.09 4.5
3 9 5 -4.3 5.4
3 8 3 9.4 5.2
3 6 0 276.37 6.1
3 4 -2 79.99 5.8
3 0 -4 3.2 6.3
3 -1 -4 116.99 5.9
3 -2 -4 2.7 5.1
3 -7 0 2.2 4.1
4 6 -1 187.78 5.9
4 5 -2 352.76 6.6
4 -3 -4 51.79 5.7
5 10 4 7.4 5.9
6 -2 -4 1.8 5.5
-2 -2 8 6.7 6.7
-2 -3 13 10.3 6.4
-1 4 10 134.69 6.1
-1 3 7 5.5 5.1
-1 -6 5 80.29 5.3
0 6 9 412.46 6.1
0 5 6 2.4 5.1
0 4 4 69.09 6.1
0 -4 0 604.74 6.9
0 -7 3 14.4 4.8
0 -8 8 126.49 5
0 -8 7 26.8 5.5
1 8 10 113.59 6
1 3 0 966.4 9.3
1 -7 1 8.7 5.2
1 -8 3 128.69 5.9
2 -4 -3 3 5
2 -7 0 0.4 3.9
2 -8 2 -2.5 4
3 10 8 -4.2 4
3 5 -1 -2 3.6
3 -3 -4 7.3 5
3 -5 -3 66.89 5.2
3 -6 -2 18.8 5.6
4 10 6 5.4 5.7
4 8 2 33.2 5.3
4 -5 -3 8.5 5.3
4 -6 -2 220.98 5.2
5 8 1 3.9 5.4
5 4 -3 22 6.5
5 -3 -4 32.5 4.2
6 9 2 4.3 6
-2 -3 14 0.6 7.3
-2 -3 8 20.5 5.3
-2 -4 11 6.6 5.3
-2 -4 10 225.98 6.6
-1 4 11 15 5.6
-1 -3 2 303.47 8.2
-1 -5 3 12 5.2
-1 -7 10 20.2 4.6
-1 -7 9 15.6 4.5
-1 -7 8 19.6 5.2
-1 -7 7 15.8 5.2
0 6 10 -3 5
0 -5 0 198.08 5.6
0 -6 1 82.69 5.3
0 -8 6 13.8 4.2
0 -8 5 11.1 5.9
1 8 11 0.3 4.3
1 7 7 178.68 4.2
1 5 3 1.5 5.2
1 -4 -2 5.8 3.8
1 -8 2 67.49 5.6
2 9 10 0.1 5
2 9 9 7.9 3.7
2 8 6 205.88 4.6
2 7 4 17.8 4.9
2 6 2 179.08 4.5
2 -6 -2 80.49 5.4
2 -8 1 25.2 4.1
3 10 9 6.3 4
3 9 6 27.1 3.9
3 8 4 -0.1 4.6
3 7 2 0.4 4.8
3 -7 -1 6.2 4.3
4 9 4 13.6 3.9
4 -4 -4 8.5 5.7
5 10 5 72.09 5.8
5 9 3 -0.7 5.5
5 7 0 26.7 5.2
5 -4 -4 -3.6 5.3
5 -5 -3 0.1 4.5
-2 -4 13 5.2 6.6
-2 -4 12 -0.2 5.5
-2 -4 9 30.4 5.3
-2 -4 8 129.49 6.3
-1 4 14 3 5.1
-1 4 13 -0.8 4.8
-1 4 12 -1.2 3.9
-1 3 8 13.2 5.1
-1 -2 2 82.79 6.3
-1 -4 2 58.29 6
-1 -6 4 67.49 4.2
-1 -7 6 82.39 5.8
0 6 11 13.8 5.4
0 5 7 23.9 5.2
0 3 3 12.1 4.9
0 -7 2 43.2 3.8
0 -8 4 62.49 5.5
1 8 14 21.2 6.4
1 8 13 121.39 5.9
1 8 12 49.5 4.5
1 7 8 28.7 5.3
1 6 5 18 3.7
1 -5 -2 4.2 5.2
1 -6 -1 380.06 4.9
1 -7 0 199.08 4.4
2 9 11 70.99 6.2
2 8 7 82.79 5.4
2 5 1 333.37 6.4
2 -5 -3 180.08 5.8
2 -7 -1 15.3 3.9
2 -8 0 5.4 5.6
3 10 10 61.49 4.6
3 9 7 104.39 5.5
3 -4 -4 1.8 3.9
3 -6 -3 83.49 5.2
3 -7 -2 167.38 5.6
4 10 7 3.7 4.3
4 7 1 11.6 4.8
4 -6 -3 4.5 6
5 6 -1 8.4 5.2
5 5 -2 1.9 5.1
6 8 1 2.1 4.1
6 4 -3 2.3 6.7
-2 -3 7 35 6.1
-2 -5 10 115.49 5.6
-1 -5 2 136.19 5.3
-1 -6 3 4.4 5.4
-1 -7 5 6 3.9
0 6 15 10.3 6.3
0 6 14 1.7 5.8
0 6 13 2.2 5.8
0 6 12 58.09 4.3
0 4 5 2.4 3.8
0 -3 -1 595.04 7.6
0 -4 -1 1026.5 9.4
0 -6 0 20.8 5.2
0 -7 1 18.8 5.1
0 -8 3 10.5 4.1
1 7 9 218.78 5.9
1 0 -2 2.9 10.8
1 -8 1 26.5 4
1 -9 3 127.89 5
2 9 13 -2.1 6.2
2 9 12 18.1 4.5
2 8 8 237.98 5.5
2 7 5 16.3 4.9
2 6 3 5.8 4.8
2 -7 -2 61.29 5.1
3 10 11 25.9 4.6
3 8 5 4.6 4.6
3 6 1 29 3.6
3 -5 -4 30.6 5.2
3 -8 -1 36.2 5.8
4 10 8 -0.5 5.4
4 9 5 64.49 4.3
4 8 3 6.9 3.7
4 -2 -5 187.48 6.5
4 -5 -4 60.69 4.4
5 10 6 -0.1 4.3
5 9 4 -2.5 5.1
5 8 2 19.7 5.4
5 -1 -5 60.39 6
5 -2 -5 39.9 5.9
5 -5 -4 7.8 6.3
6 9 3 9 5.3
6 7 0 8 5.4
7 5 -2 12.6 6.7
-2 -4 7 56.99 5.4
-2 -5 12 0.9 5.9
-2 -5 11 98.09 5.7
-2 -5 9 18.8 4.9
-2 -5 8 279.07 6.6
-1 3 9 299.07 5.2
-1 -7 4 26.4 4
-1 -8 8 55.49 4.5
-1 -8 7 33.7 6
0 5 8 329.57 5
0 2 2 18.9 5.9
0 -2 -1 2126.39 14.7
0 -5 -1 34.4 5.5
0 -8 2 14.1 5.4
0 -9 5 12.1 4.7
1 7 10 58.79 5.6
1 6 6 16.6 3.7
1 5 4 136.89 5.8
1 4 2 352.96 6.1
1 -3 -3 309.07 7.4
1 -6 -2 224.08 4.4
1 -7 -1 10.4 3.7
1 -8 0 27.5 5
1 -9 2 124.09 4.8
2 4 0 29.7 4.3
2 2 -2 1693.33 16.9
2 -2 -4 515.35 7.7
2 -3 -4 14 3.6
2 -4 -4 22.2 4.9
2 -6 -3 18 3.8
2 -8 -1 11.6 4.2
3 9 8 57.59 4.1
3 7 3 7.2 3.6
3 -7 -3 20.2 5.3
4 10 9 13.5 6
4 9 6 7.5 5.1
4 6 0 42.5 3.8
4 -1 -5 8.1 5.4
4 -3 -5 44 4.4
5 10 7 14 6
5 0 -5 85.19 7.4
5 -3 -5 43.6 5.3
6 6 -1 3.3 5.4
6 5 -2 36.5 5.4
6 -1 -5 14.9 6.2
6 -2 -5 65.89 5.9
7 6 -1 7 6.1
-2 -1 13 9.1 9.2
-2 -2 7 151.28 9.1
-2 -4 6 0.4 4.7
-2 -5 7 50.29 5.5
-1 3 16 4.2 5.2
-1 3 10 57.09 4.8
-1 -4 1 261.87 7.1
-1 -6 2 62.29 4
-1 -7 3 7.6 5.2
-1 -8 6 16 4.3
-1 -8 5 -2 5.5
0 5 9 25.4 4
0 4 6 45.7 5.5
0 -7 0 87.99 4.9
0 -8 1 18 5
0 -9 4 13.5 4.3
0 -9 3 46.5 5.5
1 7 11 59.09 4.1
1 6 7 144.29 5.4
1 -2 -3 149.49 7.6
1 -4 -3 52.59 4.1
1 -5 -3 9.1 5.2
1 -9 1 28.4 5.3
2 8 9 27.4 3.7
2 7 6 106.99 5
2 3 -1 92.79 6.5
2 -5 -4 7.5 5.5
3 9 9 0.2 3.7
3 8 6 13.9 5.4
3 5 0 46.7 3.9
3 -3 -5 7.8 5.1
3 -6 -4 8 4.9
3 -8 -2 26.2 4.5
4 10 10 11.1 6.1
4 8 4 80.39 5.4
4 7 2 706.63 7.4
4 5 -1 167.88 5.9
4 3 -3 55.89 6.5
4 -4 -5 330.47 5.4
4 -6 -4 4.2 4.2
5 9 5 14.3 5
5 7 1 5.9 5.1
5 -4 -5 14 6.1
6 9 4 9 5.7
6 8 2 37.1 5.3
6 0 -5 4.1 6.5
-2 -3 6 18.7 5.1
-2 -5 6 185.88 6.1
-2 -6 11 60.89 6.2
-2 -6 10 42.2 4.4
-2 -6 9 80.09 4.6
-2 -6 8 38.3 5.7
-2 -6 7 108.69 5.6
-1 -3 1 103.99 7.2
-1 -5 1 180.38 4.6
-1 -7 2 155.88 5.3
-1 -8 4 168.68 5.5
0 5 10 12.3 3.9
0 3 4 10.8 4.9
0 -6 -1 82.39 3.9
0 -9 2 20.8 6
1 7 15 10.2 6.2
1 7 14 121.89 6.7
1 7 13 49.2 4.3
1 7 12 20.7 4.2
1 3 1 40.6 5.4
1 -6 -3 1120.19 7.5
1 -7 -2 27.9 3.8
1 -8 -1 -1.2 3.8
1 -9 0 9 5.6
2 8 11 51.69 5.7
2 8 10 -1 3.8
2 6 4 2.3 3.7
2 5 2 37.2 4
2 -1 -4 958.6 10.8
2 -6 -4 9.8 5.1
2 -7 -3 61.19 4.1
2 -8 -2 0.7 4.3
3 9 10 3.6 3.9
3 7 4 50.09 5.1
3 6 2 565.04 6.6
3 4 -1 367.56 7.2
3 -2 -5 84.79 4.3
3 -4 -5 446.16 5.7
4 9 7 -8 4
4 4 -2 15.5 5.1
4 -5 -5 8.8 5.2
5 10 8 17.9 4.4
5 8 3 3 4.1
-2 -1 10 182.58 11.3
-2 -6 6 74.09 5.9
-1 1 5 478.95 9.3
-1 -6 1 19.4 3.9
-1 -8 3 36.8 4.9
-1 -9 6 81.09 5.9
-1 -9 5 -3.9 5.6
0 5 16 1.3 4.4
0 5 15 46.6 6.3
0 5 14 13.3 5.7
0 5 13 10.6 5.7
0 5 12 70.89 5.2
0 5 11 -0.1 3.8
0 4 7 740.63 7.5
0 -4 -2 30.9 6.5
0 -5 -2 4.9 5.3
0 -7 -1 3 3.6
0 -8 0 -0.2 3.7
0 -9 1 1.5 5.3
1 6 8 546.85 5.6
1 5 5 3.2 3.7
1 4 3 316.37 7.3
1 -8 -2 133.19 5.6
2 8 13 15.6 6
2 8 12 2.1 4.1
2 7 7 113.79 4
2 -8 -3 -1.1 5.4
3 9 12 -1.7 6
3 9 11 41.7 4.1
3 8 7 -2 3.6
3 3 -2 915.01 10.4
3 2 -3 1.2 5.5
3 -5 -5 237.08 4.7
3 -7 -4 2.5 4.3
3 -8 -3 31.8 4.7
4 9 8 14.4 5.5
4 8 5 26.1 5.3
4 6 1 0.1 4.8
4 0 -5 77.79 7.1
4 -6 -5 115.69 6.2
5 9 6 96.49 5.8
5 6 0 7.6 5.4
6 9 5 2.7 5.3
6 7 1 -4 5.3
-2 -1 12 46.5 9
-2 -1 11 3.7 8.4
-2 -4 5 408.16 6.3
-2 -5 5 216.88 4.9
-2 -6 5 158.18 6.2
-2 -7 10 2.5 5.8
-2 -7 9 -1.7 4.3
-2 -7 8 1.9 5.3
-2 -7 7 9.2 5.6
-1 -7 1 92.69 5
-1 -8 2 9.6 5.5
-1 -9 4 -2.1 6.1
0 -3 -2 15.3 5.2
0 -6 -2 0.6 3.6
0 -8 -1 -2.8 4.7
1 6 9 6.4 3.6
1 2 0 1558.04 14.8
1 -7 -3 308.57 4.8
1 -9 -1 2.4 3.9
2 8 14 68.09 4.7
2 7 8 50.69 3.7
2 6 5 4.3 5.1
2 -4 -5 -1.9 5.1
2 -7 -4 1.3 4
3 9 13 25.6 4.8
3 8 8 18.6 4.7
3 7 5 29.9 5
3 -1 -5 11.1 5.5
3 -6 -5 134.19 4.4
4 9 9 5.4 5
4 7 3 36.3 3.8
5 8 4 26.4 5.2
5 7 2 30.6 5.5
5 -3 -6 79.09 5.7
6 8 3 78.09 4.6
7 7 1 5.9 5.5
-2 -3 5 28.4 6
-2 -5 4 0.7 4.9
-2 -7 6 14.7 3.9
-1 2 16 12.8 5.7
-1 -4 0 658.43 7.2
-1 -5 0 672.53 6.2
-1 -6 0 7.5 3.8
-1 -8 1 105.79 5.2
-1 -9 3 2.1 4
0 4 8 32.7 3.8
0 3 5 1.7 6.4
0 -7 -2 37.8 3.8
0 -9 0 2.2 4
1 6 11 85.19 5.3
1 6 10 97.69 4
1 5 6 433.36 5.2
1 -4 -4 45.7 3.8
1 -5 -4 28.6 3.8
1 -6 -4 58.99 5.3
1 -8 -3 76.29 5.6
1 -9 -2 21.6 5.5
2 7 9 19.5 5.2
2 5 3 65.69 5.4
2 4 1 27.2 4.3
2 -3 -5 94.89 5.3
2 -5 -5 57.29 4
2 -6 -5 6.6 5.5
2 -8 -4 1.2 5.4
3 8 9 -6.2 5.2
3 6 3 4.3 5.1
3 5 1 23.5 3.6
3 -7 -5 247.08 6.8
4 9 10 15.5 5.5
4 8 6 95.79 5.1
4 -3 -6 19.8 4
4 -4 -6 43.7 4.1
4 -5 -6 54.69 6.2
5 9 7 0 4.1
5 5 -1 29.4 5
5 -2 -6 6.8 5.8
5 -4 -6 4.4 5.5
6 9 6 47.5 6.1
6 6 0 9.4 5.2
7 6 0 0.2 5.1
-2 -4 4 8.9 5.4
-2 -6 4 12 3.8
-2 -7 5 38.8 4.1
-2 -8 8 2.4 4.4
-2 -8 7 13.2 5.5
-2 -8 6 49.3 6.1
-1 2 15 68.29 6.2
-1 -1 2 136.39 12.5
-1 -2 1 181.28 7.2
-1 -7 0 66.49 3.8
-1 -9 2 19.5 4.2
0 4 17 3.2 6.2
0 4 9 15.2 5
0 2 3 145.49 6.2
0 -1 -1 945.01 14.2
0 -5 -3 59.49 5.4
0 -8 -2 1.5 5.1
0 -9 -1 57.99 5.1
1 6 16 17.5 5.4
1 6 15 18.8 5.8
1 6 14 0.4 5.7
1 6 13 6.2 5.3
1 6 12 52.09 4.1
1 4 4 366.76 7.2
1 -1 -3 50.29 7.6
1 -3 -4 335.77 5.8
1 -7 -4 1.1 4.7
2 7 10 -3.4 4.9
2 6 6 150.58 5.5
2 -7 -5 43.3 5.6
3 8 10 72.09 5.4
3 7 6 4.5 4.8
3 -4 -6 11.6 5.1
3 -5 -6 15.1 5.6
4 9 11 63.39 5.8
4 7 4 197.48 5.7
4 5 0 1.7 5
4 -2 -6 2.8 4.9
4 -6 -6 57.59 6.3
5 9 8 5.7 5.2
5 8 5 1.2 5.2
5 4 -2 61.99 5.9
5 2 -4 18.8 9.2
6 8 4 3 5.6
6 7 2 59.59 6
-2 -5 3 301.07 6.3
-2 -6 3 79.49 5.4
-2 -7 4 0.4 3.8
-2 -8 5 121.59 5.6
-1 2 14 0.2 5.5
-1 2 13 4.8 5.1
-1 -3 0 923.11 9.3
-1 -5 -1 653.73 7.3
-1 -6 -1 734.13 7.3
-1 -8 0 11.2 3.8
-1 -9 1 14.1 5.3
0 4 16 54.19 6.2
0 4 10 96.79 5.4
0 -4 -3 0.2 6.1
0 -6 -3 13.4 3.6
0 -7 -3 410.46 6.1
0 -10 0 2.5 4.6
1 5 7 211.68 4.6
1 3 2 20.7 5.2
1 -8 -4 71.19 5.4
1 -9 -3 62.49 4.3
2 7 12 7.7 5.5
2 7 11 24.6 3.8
2 -2 -5 77.59 5.7
3 8 12 -2.9 5
3 8 11 0.7 3.8
3 -3 -6 7.5 3.7
3 -6 -6 46.1 4.4
4 9 12 -1.9 4.1
4 8 7 2.9 3.7
4 6 2 541.35 6.1
5 9 9 6.8 5.9
5 7 3 49.1 5.2
5 6 1 -1.1 4.8
5 -1 -6 7.1 6.3
6 9 7 12.5 4.4
6 5 -1 39.9 5.5
7 7 2 4.6 5.9
7 5 -1 2.6 5.8
-2 -2 6 84.09 7.8
-2 -7 3 7.3 3.8
-2 -8 4 37.8 4.3
-2 -9 6 32.8 6.4
-2 -9 5 24.7 5.3
-1 1 6 37.5 5.5
-1 -7 -1 333.27 4.8
-1 -9 0 24.2 5.7
-1 -10 2 21.6 4.6
0 4 15 0 4.3
0 4 14 68.19 5.4
0 4 13 77.99 5.8
0 4 12 47.6 5.1
0 4 11 311.97 5.4
0 3 6 11.2 4.2
0 -2 -2 2.6 6
0 -8 -3 42.4 4.8
0 -9 -2 -1.6 3.8
0 -10 -1 5.5 4.6
1 5 8 165.28 4.5
1 -5 -5 71.39 5.2
1 -6 -5 282.07 5.5
2 7 16 32 4.8
2 7 15 5 4.3
2 7 14 5.6 4.1
2 7 13 1.3 4.3
2 6 7 172.08 4.3
2 5 4 199.78 4.6
2 3 0 24.4 6.7
2 -5 -6 -2.6 5.2
2 -6 -6 41.2 5.4
2 -8 -5 5.7 4.2
3 8 14 4.7 5.6
3 8 13 5.9 4.2
3 7 7 59.99 3.7
3 6 4 9.1 3.7
3 4 0 17.4 5.1
3 -7 -6 -0.5 4.2
4 8 8 21.6 3.9
4 7 5 7.1 4.5
5 9 10 2 6
5 8 6 134.49 5.4
5 3 -3 0.4 6.1
6 9 8 9.8 6.1
6 8 5 -0.3 5.5
6 -1 -6 11.1 7
7 4 -2 3 6.3
7 3 -3 68.99 8.3
-2 -3 4 423.06 8
-2 -4 3 0.4 3.7
-2 -5 2 2.5 4.7
-2 -6 2 32.1 3.8
-2 -7 2 -2.3 5.1
-2 -8 3 27.5 4
-2 -9 4 1.8 5.8
-1 -4 -1 3308.97 13.4
-1 -8 -1 2.7 3.7
-1 -10 1 -2.1 4.2
0 -3 -3 11.8 6.9
0 -6 -4 5.1 5
0 -7 -4 2 4.4
0 -9 -3 29.6 5.3
0 -10 -2 66.29 6.1
1 5 9 11 5.3
1 4 5 17.6 6
1 1 -1 39.4 8.5
1 -2 -4 969.2 9.2
1 -4 -5 26.5 3.7
1 -7 -5 62.09 3.9
1 -8 -5 23.3 5.6
1 -9 -4 27.7 4.3
2 6 8 384.26 6.1
2 4 2 1.3 5.7
2 -4 -6 16.6 3.7
2 -7 -6 17.3 3.9
3 7 8 -1.8 3.6
3 5 2 185.08 4.4
3 -2 -6 4.9 4.7
4 8 9 10.3 3.9
4 4 -1 83.19 5.5
4 -1 -6 102.19 6.3
4 -4 -7 50.59 5.8
4 -5 -7 26.2 5.4
4 -6 -7 9.4 5.6
5 9 11 8 4.3
5 8 7 68.79 5.2
5 7 4 13 4.6
5 -4 -7 14.9 6.3
6 7 3 2.9 5.4
6 6 1 19.1 5.4
6 4 -2 0.1 4.9
-2 -2 14 1.5 9.4
-2 -8 2 1.3 3.9
-2 -9 3 24.2 4.3
-1 1 16 1.4 5.9
-1 -5 -2 231.08 6.2
-1 -6 -2 18.1 3.7
-1 -7 -2 38.7 3.5
-1 -8 -2 12.9 5.3
-1 -9 -1 25.5 4
-1 -10 0 3.8 4.3
0 3 7 4.4 3.8
0 -5 -4 4.3 3.4
0 -8 -4 75.79 5
1 5 17 -2.4 4.6
1 5 16 16.5 6
1 5 11 110.49 5.2
1 5 10 263.07 4.8
1 -9 -5 10.6 5.4
2 6 9 50.89 4.9
2 5 5 103.09 5.5
2 -3 -6 2.3 4.7
2 -8 -6 13.1 4.3
3 7 9 20.5 3.7
3 6 5 8.5 3.7
3 -4 -7 6.5 5.5
3 -5 -7 43.7 4.2
3 -6 -7 1.7 4.1
3 -7 -7 127.89 5.8
4 8 10 18.4 3.8
4 7 6 48.5 5
4 6 3 211.38 4.8
4 5 1 62.69 5.1
4 -3 -7 14.1 5.5
5 6 2 6.6 5.1
5 5 0 22.8 4.9
5 -3 -7 15.6 6
6 8 6 5.9 5.1
6 3 -3 14.3 6.4
6 2 -4 6.9 8.7
7 7 3 7.7 5.2
7 6 1 19.1 4.5
-2 -6 1 7.7 3.3
-2 -7 1 75.89 4.1
-2 -8 1 34.8 5
-2 -9 2 5.8 3.9
-2 -10 3 10.7 6.1
-1 1 15 -1.1 6
-1 1 7 477.05 8.2
-1 -9 -2 -1.5 4.9
-1 -10 -1 -2.6 4.2
0 3 17 19.9 4.7
0 3 8 351.66 6.3
0 2 4 249.97 6.7
0 -4 -4 56.59 5.9
0 -9 -4 52.09 3.9
0 -10 -3 -1.3 4.2
1 5 15 5.7 4.1
1 5 14 -0.4 4.1
1 5 13 55.89 5.1
1 5 12 21 4
1 4 6 159.08 6
1 3 3 21.3 7.1
1 -3 -5 112.39 5.9
1 -6 -6 425.46 6.2
1 -7 -6 27.4 5.5
2 6 10 8.4 3.5
2 -6 -7 2.9 4.9
3 7 11 3.6 4.5
3 7 10 20.4 3.6
4 8 13 -0.9 5.1
4 8 12 36.6 5.2
4 8 11 7.2 3.7
5 8 8 -0.9 4
5 7 5 35 4.9
6 8 7 33.6 5.4
6 7 4 5.3 4.9
-2 -4 2 1.5 3.7
-2 -5 1 149.19 4.3
-2 -7 0 12.4 5.3
-2 -8 0 14.1 5.3
-2 -9 1 14.8 4
-2 -10 2 6.5 5.6
-1 0 4 328.67 12.1
-1 -3 -1 37 5.6
-1 -4 -2 345.17 7.5
-1 -6 -3 4 5.1
-1 -7 -3 8.4 3.5
-1 -8 -3 20.8 4.9
-1 -10 -2 4.3 5.8
0 3 16 8.8 4.4
0 3 15 0.1 5.1
0 3 9 -1.5 4.9
0 -6 -5 81.69 5.3
0 -7 -5 335.47 4.6
0 -8 -5 9.9 5
0 -10 -4 175.78 5.8
1 -5 -6 202.38 4.5
1 -8 -6 47 4.4
1 -9 -6 13.1 5.4
2 6 16 11.8 4.5
2 6 15 -0.4 5.1
2 6 14 2.7 5.6
2 6 13 13.4 5.5
2 6 12 -4.3 3.8
2 6 11 116.79 4.2
2 5 6 216.28 5.7
2 -5 -7 15.3 3.8
2 -7 -7 12.4 3.9
2 -8 -7 33.5 6.3
3 7 15 -1.5 6.1
3 7 14 6.5 5.9
3 7 13 7.9 5.7
3 7 12 15.1 3.9
3 6 6 -1.1 3.4
3 5 3 44.2 3.8
3 3 -1 28.3 5.3
3 -3 -7 0.6 5.2
4 8 14 7.4 4.4
4 7 7 157.68 4.3
4 6 4 -5.1 5.2
4 3 -2 414.76 8
5 8 9 96.89 4.4
5 -2 -7 1.7 5.7
6 6 2 8.9 4.7
6 5 0 41.8 5.6
7 7 4 -0.5 5.8
7 5 0 26.3 5.8
-2 -3 3 39.7 5.4
-2 -6 0 2.5 3.4
-2 -9 0 46.8 4.2
-2 -10 1 37.2 4.6
-1 1 14 7.6 5.2
-1 1 8 7 5
-1 -2 0 1543.35 15.1
-1 -9 -3 1.4 3.8
0 3 14 101.59 5.7
0 3 13 -0.4 4.9
0 3 11 208.38 5.6
0 3 10 4.1 5
0 -5 -5 7.9 4.8
0 -9 -5 14.7 3.9
1 4 7 518.25 5.8
1 2 1 3570.44 18.6
1 -4 -6 2 4.9
2 4 3 83.69 4.6
2 -4 -7 5.4 5
3 6 7 31.7 4.9
3 4 1 148.79 4.5
3 -6 -8 -0.5 5.6
3 -7 -8 2.5 6
4 7 8 19.1 3.8
4 -2 -7 -1 5.3
4 -5 -8 10.1 5.6
5 8 11 77.09 6
5 8 10 121.29 4.7
5 7 6 166.18 5.6
5 6 3 29.2 5
5 4 -1 96.29 5.2
6 8 8 21.1 4.3
6 7 5 20.1 4.9
7 6 2 2.9 5.1
-3 -7 9 1.9 5.8
-3 -7 8 12.6 5.7
-3 -7 7 20.7 5.5
-3 -7 6 18.3 5.7
-3 -8 7 5.6 6.1
-3 -8 6 9 5.9
-2 -5 0 22.3 5.2
-2 -7 -1 139.99 5.2
-2 -8 -1 9.6 3.7
-2 -9 -1 6.9 5.4
-2 -10 0 7.9 4.3
-1 1 13 1.7 4.5
-1 1 12 26.8 5.2
-1 1 9 3.2 5
-1 -5 -3 4.9 3.8
-1 -7 -4 95.89 5.3
-1 -8 -4 20.1 3.6
-1 -9 -4 56.89 5.3
-1 -10 -3 2.7 4.1
0 3 12 3.3 3.9
0 2 5 346.67 8.2
0 -7 -6 305.57 5.7
0 -8 -6 22.4 4.8
0 -10 -5 16.6 4.4
1 4 17 54.39 6.5
1 4 8 487.55 6.6
1 -6 -7 7.3 5.2
1 -7 -7 24.6 3.9
1 -8 -7 36.1 5.2
2 5 7 4.6 3.6
2 3 1 310.77 7.9
2 2 -1 144.59 7
2 -1 -5 62.19 5.5
2 -7 -8 -4.3 5.2
3 6 8 3.8 4.9
3 5 4 22.6 5
3 0 -5 0.7 7
3 -5 -8 -2.1 3.9
4 7 9 48.7 3.7
4 6 5 215.38 5.6
4 5 2 5 3.5
4 4 0 38.8 5
4 -4 -8 4.5 5.1
5 8 13 3.1 5.4
5 8 12 72.69 4.8
5 5 1 2 4.5
6 8 9 1 4
7 7 5 8.2 5.8
-3 -6 10 13.8 6.7
-3 -6 9 2.8 5.3
-3 -6 8 2.3 5.1
-3 -6 7 12.2 5.2
-3 -6 6 182.08 6
-3 -7 5 20.2 5
-3 -8 5 16.5 4.3
-3 -8 4 34.7 5.9
-3 -9 5 36.2 6.2
-2 -4 1 18.9 4.1
-2 -6 -1 17.6 3.5
-2 -10 -1 -6 4.2
-1 1 11 122.19 5.4
-1 1 10 36.6 3.7
-1 -6 -4 69.69 3.8
-1 -10 -4 7.3 5
0 2 17 -3 6.2
0 -2 -3 143.09 6.2
0 -3 -4 12 4.8
0 -4 -5 2.4 5
0 -6 -6 373.96 6.2
0 -9 -6 2.3 3.8
0 -10 -6 12.4 5.7
1 4 16 2.3 4.3
1 4 15 5.5 5.1
1 4 9 5.6 4.8
1 3 4 11.4 4.7
1 -5 -7 38 5.6
1 -9 -7 3 4.4
2 5 17 5.1 5.6
2 5 8 58.79 3.8
2 4 4 60.09 6.1
2 0 -4 6.7 7.7
2 -2 -6 142.19 4.8
2 -6 -8 5.6 3.9
2 -8 -8 9.7 4.4
3 6 9 4.1 4.8
3 -1 -6 102.29 6.2
3 -4 -8 11.1 5.5
4 7 11 241.78 5.7
4 7 10 29.1 3.8
5 7 7 52.09 3.9
5 6 4 16.8 5
6 8 10 109.09 4.9
6 7 6 60.79 5.6
6 6 3 78.49 5.1
6 4 -1 30.3 5.1
7 4 -1 -0.8 5.6
-3 -6 5 60.49 5.5
-3 -7 4 94.59 4.5
-3 -8 3 14 5.5
-3 -9 4 9.7 4.4
-3 -9 3 8.2 5.8
-2 -2 13 -0.6 7.3
-2 -2 5 5.5 6.8
-2 -7 -2 7.4 3.7
-2 -8 -2 48.3 3.9
-2 -9 -2 4.4 4
-2 -10 -2 7.9 5.8
-1 0 16 13.3 6
-1 -4 -3 307.67 7.2
-1 -8 -5 30 4.7
-1 -9 -5 6.6 5.1
1 4 14 53.39 4.1
1 4 13 60.99 5.4
1 4 12 1.3 5.1
1 4 11 1 5.3
1 4 10 232.08 4.7
1 -2 -5 443.26 8.1
1 -8 -8 10.4 5
2 5 16 8.6 5.9
2 5 9 65.09 3.7
2 -3 -7 11 4.9
2 -5 -8 11.4 3.8
3 6 16 17.8 5.9
3 6 11 44 4.7
3 6 10 157.28 4.3
3 5 5 0.3 4.7
3 -2 -7 66.29 5.8
4 7 15 4.9 4.6
4 7 14 -4.7 4.1
4 7 13 -2 3.9
4 7 12 -0.8 3.8
4 6 6 115.89 3.9
4 -3 -8 1.6 5.6
5 7 8 50.49 4
5 0 -6 18.4 11.2
5 -3 -8 14 6.2
6 7 7 3.6 4.9
6 5 1 72.19 5
7 7 6 4.3 4.9
7 6 3 17.9 4.2
7 5 1 5.9 5.4
-3 -5 9 67.89 6.6
-3 -5 8 125.19 7.1
-3 -5 7 60.39 5.9
-3 -6 4 -1.4 5.2
-3 -7 3 3.8 3.8
-3 -8 2 74.39 5.2
-3 -9 2 20.8 5
-3 -10 2 66.79 5.6
-2 -3 2 53.39 5.9
-2 -5 -1 310.07 5.1
-2 -6 -2 169.58 5.6
-2 -8 -3 33.9 5
-2 -9 -3 81.79 5.4
-2 -10 -3 3.3 5.3
-1 -3 -2 16.5 5.4
-1 -5 -4 131.49 4.3
-1 -7 -5 0.9 3.5
-1 -10 -5 0 4.1
0 2 16 -0.2 4.1
0 2 6 461.25 6.9
0 -5 -6 1.9 3.4
0 -7 -7 14.1 5
0 -8 -7 40.8 3.9
0 -9 -7 11.8 4.1
0 -10 -7 46.5 6.5
1 3 5 5.3 6.5
1 -3 -6 96.39 4.2
1 -6 -8 37 5
1 -7 -8 12.4 3.8
1 -9 -8 12.3 4.4
2 5 15 8.1 4
2 5 14 15.6 3.9
2 5 13 41.2 5.4
2 5 12 23.1 5.2
2 5 11 6.5 3.5
2 5 10 8.4 3.6
2 -7 -9 7.3 5.1
2 -8 -9 75.89 6.4
3 6 15 72.09 4.7
3 6 14 6.6 4.1
3 6 13 1.7 3.9
3 6 12 94.69 4.2
3 4 2 23 3.8
3 -6 -9 18.9 4.3
4 6 7 7.8 4.8
4 5 3 0.1 3.3
4 -5 -9 -2.4 6.4
5 7 10 203.78 6.1
5 7 9 10.2 4
5 6 5 34.9 5
5 5 2 32.6 5.2
5 3 -2 35.5 6.1
6 6 4 14.5 5.4
7 7 7 25.3 6
-3 -5 6 6.3 4.9
-3 -6 3 791.62 8.1
-3 -7 2 23.6 3.9
-3 -8 1 134.79 5.6
-3 -9 1 8.7 4
-3 -10 1 -3.5 6
-2 -4 0 32.4 4.2
-2 -7 -3 3.7 3.5
-1 0 15 3 5.7
-1 -6 -5 13.4 3.6
-1 -8 -6 -3.8 5
-1 -9 -6 7.7 4.8
-1 -10 -6 15.1 5.5
0 2 15 30.6 4.2
0 2 7 899.01 8.9
0 -6 -7 345.77 6.1
1 3 17 12.6 5.6
1 -1 -4 4.9 6.9
1 -4 -7 36.7 3.7
2 4 5 402.96 5.7
2 -4 -8 10.6 4.8
2 -6 -9 102.19 6.1
3 5 6 6.1 4.7
3 -3 -8 18.7 5.2
3 -5 -9 12.9 5
4 6 8 11.8 5
4 2 -3 12.2 6.6
5 7 14 13.5 5.4
5 7 13 25.7 5.7
5 7 12 13.9 5.3
5 7 11 11.1 3.8
5 4 0 13.5 4.8
5 -1 -7 2.7 7.3
6 7 9 3.8 5
6 7 8 44.8 4.1
7 7 8 -0.7 5.5
7 6 4 14.5 4.2
7 3 -2 2.8 5.9
-3 -5 10 11.2 6.8
-3 -5 5 153.28 6.1
-3 -6 2 -3.7 4.7
-3 -7 1 179.18 5.6
-3 -8 0 3.4 5.1
-3 -9 0 47.8 3.9
-3 -10 0 10.6 5.4
-2 -8 -4 37.3 4.9
-2 -9 -4 8.8 3.7
-2 -10 -4 3.7 4.1
-1 -7 -6 46.1 3.5
0 2 14 6.8 3.9
0 2 13 46 5.2
0 -1 -2 895.51 14.7
0 -8 -8 4.8 5.6
0 -9 -8 4.4 4.2
1 3 16 2.5 5.3
1 3 6 951.1 9
1 2 2 284.37 7.4
1 -5 -8 9.7 5.4
1 -8 -9 11.5 5.1
1 -9 -9 16.3 5.7
2 4 6 41.1 5.5
2 3 2 -0.3 4.7
3 5 7 33.7 5.1
3 3 0 240.08 5.3
3 2 -2 1227.48 12.7
4 6 9 3.6 4.9
4 5 4 14.7 3.6
4 4 1 0.8 3.4
4 -4 -9 -3 6
5 6 6 209.68 4.7
6 7 10 7.6 5.1
6 6 5 0.2 4.8
6 5 2 94.49 4.9
6 3 -2 5.2 5.3
7 5 2 -1.7 5.5
-3 -5 4 59.29 5.3
-3 -7 0 39.8 5.3
-3 -9 -1 7.4 4.8
-3 -10 -1 23 5.3
-2 -2 12 2.1 6.6
-2 -5 -2 30.9 3.9
-2 -6 -3 4.4 3.4
-2 -7 -4 14.8 3.4
-2 -9 -5 2.9 5.1
-2 -10 -5 6.7 5.6
-1 0 14 4.7 4.7
-1 0 5 436.56 10.3
-1 -2 -1 3585.34 19.9
-1 -4 -4 351.56 5.8
-1 -5 -5 1.7 3.5
-1 -6 -6 11.8 4.8
-1 -8 -7 52.59 4.7
-1 -9 -7 73.29 4
-1 -10 -7 18.6 5.2
0 2 12 72.59 5.3
0 2 11 66.59 4.9
0 2 10 112.59 5.1
0 2 9 83.89 5.4
0 2 8 2.9 3.6
0 -3 -5 1.5 4.3
0 -4 -6 39.4 3.8
0 -5 -7 31.5 5
0 -7 -8 109.49 4.2
1 3 15 24 5.3
1 -7 -9 -2.9 3.7
2 4 17 10 4.4
2 -5 -9 14.1 3.9
3 5 17 0.1 4.4
3 5 8 46.9 5.1
3 4 3 4.6 3.7
3 -4 -9 99.09 5.9
3 -6 -10 24.3 5.4
4 6 16 20 4.7
4 6 15 46.5 4.4
4 6 14 4.6 5.6
4 6 13 29.4 5.3
4 6 12 104.79 5.5
4 6 11 17.6 4.6
4 6 10 52.89 3.8
4 3 -1 12.3 4.9
5 6 7 10.9 4.8
5 5 3 9.1 3.6
6 7 12 14.1 4.6
6 7 11 5.7 4.4
6 6 6 7.1 4.6
6 4 0 24.5 4.9
7 6 5 9 4
7 4 0 0.7 4.8
-3 -5 11 48.5 10.3
-3 -5 3 507.55 7.5
-3 -6 1 1126.09 8.5
-3 -8 -1 22.6 3.8
-3 -9 -2 -2.6 5.4
-3 -10 -2 3.6 5.2
-2 -3 1 90.89 6.8
-2 -4 -1 21 4.3
-2 -8 -5 2.3 3.7
-1 0 13 7.8 5
-1 -7 -7 178.08 5.3
0 -6 -8 293.67 5.8
0 -9 -9 12.7 6
1 3 14 -5.7 5.2
1 3 7 0.7 3.9
1 -6 -9 79.19 4
2 4 16 8.4 4.1
2 4 15 15.8 5.3
2 4 7 31.7 3.7
2 -7 -10 2.3 4.2
3 5 16 2.1 4.2
3 5 15 20.2 5.2
3 5 14 3 5.1
3 5 9 20.1 4.6
4 5 5 123.09 4.1
4 -1 -7 27.1 6.4
4 -2 -8 7.4 6.3
5 6 8 42.9 3.7
5 -2 -8 22.9 6.1
6 5 3 0.9 5.1
6 -1 -7 6.2 10.2
7 6 6 50.39 5.7
7 2 -3 219.18 8.8
-3 -7 -1 0.9 3.7
-3 -8 -2 76.39 4.2
-3 -10 -3 39.2 5.8
-2 -5 -3 68.19 5.4
-2 -6 -4 4.2 3.7
-2 -7 -5 10.4 4.8
-2 -9 -6 3.7 5.2
-2 -10 -6 22.2 4
-1 -1 16 -1.3 5.9
-1 -3 -3 27.4 5.1
-1 -9 -8 9.6 4.7
-1 -10 -8 172.58 5.2
0 1 16 -1.1 5.4
0 -2 -4 239.08 6.6
0 -8 -9 100.49 4.5
1 3 13 4.8 3.7
1 3 12 235.68 5.9
1 3 11 74.59 5.2
1 3 9 118.79 5.4
1 3 8 139.69 4.4
1 -3 -7 7.2 5.1
1 -4 -8 82.29 5.3
1 -8 -10 69.29 4.5
2 4 14 3.9 3.7
2 4 13 -2 5.1
2 4 9 60.39 5.3
2 4 8 591.94 5.7
2 3 3 27 6.7
2 -2 -7 2.8 5.2
2 -3 -8 35.4 5.2
2 -6 -10 13.2 4
3 5 13 56.29 4
3 5 12 118.99 4.1
3 5 11 3.6 3.7
3 5 10 498.25 5.2
3 4 4 48.2 5.1
3 -5 -10 2.7 5.7
4 5 6 40.2 5.1
4 4 2 4.1 4.5
5 6 10 28.7 5.1
5 6 9 -1 3.5
5 5 4 39.4 3.6
5 4 1 -2.7 4.7
6 6 7 182.78 4.7
7 6 7 6.9 5.6
7 5 3 1.8 3.9
-3 -5 2 42.1 5.2
-3 -6 0 259.47 4.8
-3 -7 -2 4.8 4.8
-3 -8 -3 21.4 4.8
-3 -9 -3 23.9 3.9
-3 -10 -4 8.5 5.2
-2 -2 11 0.1 6.3
-2 -2 4 106.19 8.4
-2 -8 -6 216.08 4.4
-1 0 12 2.5 4.5
-1 -5 -6 412.16 5
-1 -6 -7 136.59 5.2
-1 -8 -8 125.69 4.2
0 1 15 3.9 4.9
0 -7 -9 39.5 3.8
1 3 10 32 3.5
1 2 17 3.9 6
1 2 3 605.94 10.5
1 -2 -6 169.38 6.2
1 -5 -9 12.9 4.8
1 -7 -10 -4 3.9
2 4 12 30.4 3.7
2 4 11 39.6 3.7
2 4 10 48 3.9
2 2 0 705.13 9.1
2 -4 -9 507.75 6.2
3 3 1 319.77 6.9
4 5 7 15 4.7
4 -3 -9 -1 5.2
5 6 14 -0.1 4.1
5 6 13 3.3 3.8
5 6 12 2.3 3.6
5 6 11 35.5 3.8
5 5 5 80.79 5
5 2 -3 45.1 6.3
6 6 9 14.5 5.5
6 6 8 -3.2 3.8
6 5 4 16.5 5.1
6 4 1 1.6 4.8
7 6 8 17.6 5.8
7 5 4 27.5 5.1
7 4 1 35.2 5.3
7 3 -1 23.1 6.1
-4 -9 4 6.1 6
-4 -9 3 28.3 6.1
-3 -6 -1 27.1 4.9
-3 -9 -4 6.1 3.8
-2 -3 14 2.6 7.5
-2 -4 -2 -1.7 5.6
-2 -6 -5 -0.7 4.9
-2 -7 -6 116.79 5.2
-2 -9 -7 109.69 4.2
-2 -10 -7 6.3 4.1
-1 0 11 137.89 6
-1 0 6 3.7 5.2
-1 -1 15 20.8 6.1
-1 -4 -5 21.5 4.2
-1 -7 -8 27.7 3.6
-1 -9 -9 60.09 5.9
-1 -10 -9 3.7 4.5
0 -4 -7 692.03 6.3
0 -5 -8 313.77 4.9
0 -6 -9 398.16 6.2
0 -8 -10 12.3 5.7
0 -9 -10 8.9 4.2
1 2 16 63.19 5.6
1 -6 -10 201.18 6
1 -8 -11 15 5.4
2 3 17 8.4 5.7
2 -5 -10 -2.5 4.9
2 -7 -11 11.2 4.4
3 4 17 5.6 5.6
3 4 5 3 3.4
3 -2 -8 284.37 7
3 -3 -9 75.29 5.5
4 5 16 0.6 4.4
4 5 15 5.2 6
4 5 8 25.8 4.7
4 4 3 51.49 4.7
4 -4 -10 2.7 5.4
5 3 -1 1.2 4.6
6 6 13 12.6 5.9
6 6 12 24.6 5.9
6 6 11 -1.9 5.1
6 6 10 -0.1 3.9
6 3 -1 14.4 5.4
6 2 -3 8.8 6
7 6 9 -0.4 4.3
-4 -8 6 0 5.7
-4 -8 5 3.4 5.6
-4 -8 4 5.6 5.6
-4 -8 3 22 5.2
-4 -9 2 8.1 4.2
-4 -9 1 94.29 6.1
-4 -10 1 15.7 4.6
-4 -10 0 51.19 6.1
-3 -4 7 24 6.4
-3 -4 6 2.7 5.8
-3 -5 1 -0.6 3.5
-3 -7 -3 2.4 5
-3 -8 -4 -3.1 4.6
-3 -9 -5 1 4.7
-3 -10 -5 1.7 4.3
-2 -3 0 26.4 6.7
-2 -5 -4 184.58 4.5
-2 -8 -7 81.89 3.8
-2 -10 -8 39.6 5.6
-1 0 10 18.2 4.8
-1 0 9 64.99 5.4
-1 0 7 214.28 6.6
-1 -1 1 36.3 10.1
-1 -8 -9 -2.9 3.6
0 1 14 9.4 4.8
0 -3 -6 4.7 4
0 -7 -10 194.68 5.4
2 3 16 60.39 5.7
2 3 4 14.6 4.5
2 -1 -6 28.1 5.3
2 -6 -11 17.9 5.3
3 4 16 0.8 4.1
3 4 6 11.5 4.6
3 -4 -10 31.6 5.7
4 5 14 -2.4 3.8
4 5 13 33.7 3.9
4 5 12 6.4 4.8
4 5 11 182.08 5.5
4 5 10 152.48 4.1
4 5 9 -1.6 3.5
4 3 0 4.3 4.6
5 5 6 61.79 3.7
5 4 2 52.39 4.6
6 5 5 60.89 3.8
7 5 5 6.3 4.9
-4 -8 2 30.6 5.6
-4 -9 0 6.4 5.1
-4 -10 -1 63.19 6.2
-3 -4 8 100.19 9.1
-3 -4 5 13.1 4.9
-3 -5 0 37.7 5.1
-3 -6 -2 532.65 6.4
-3 -10 -6 7.6 5.5
-2 -2 10 11.8 6.7
-2 -9 -8 210.58 4.6
-1 0 8 76.79 5.4
-1 -2 -2 292.67 9.6
-1 -3 -4 7.9 4.7
-1 -5 -7 202.88 5.4
-1 -6 -8 523.65 6.1
-1 -7 -9 225.08 5.2
-1 -9 -10 62.39 6.1
0 1 13 4.6 5.2
0 -9 -11 -8 4.4
1 2 15 7.7 4
1 2 4 1016.9 10.8
1 -7 -11 -1.2 4
2 3 15 28.7 5.3
3 4 15 13.3 4.1
3 4 14 13.4 5.5
3 4 7 -6.8 4.7
3 -5 -11 19.6 5.4
4 4 4 100.49 4.8
5 5 15 3 6
5 5 8 39.5 4.7
5 5 7 107.29 4
6 5 6 34.4 4.7
6 4 2 19.6 5.1
7 5 6 22.5 5.4
7 4 2 3.8 3.8
-4 -7 5 8.2 5
-4 -7 4 14.4 5.1
-4 -8 1 0.7 3.9
-4 -8 0 76.19 5.3
-4 -9 -1 -0.5 4.1
-4 -10 -2 12.5 5.3
-3 -4 4 107.39 5.7
-3 -7 -4 40.3 3.6
-3 -8 -5 2.9 3.6
-3 -9 -6 26.4 4.9
-2 -4 -3 82.99 4.6
-2 -6 -6 158.58 4.1
-2 -7 -7 118.69 3.9
-2 -8 -8 247.58 4.5
-2 -10 -9 35.3 5.3
-1 -1 14 2.6 5.2
-1 -4 -6 147.29 5.8
-1 -8 -10 125.19 5.8
0 1 12 17.9 4.9
0 -5 -9 19.7 5.5
0 -6 -10 -1.2 4.8
0 -8 -11 5.4 4.1
1 2 14 2.1 3.7
1 -3 -8 14.9 5
1 -4 -9 91.99 4.1
1 -5 -10 1.4 3.7
2 3 14 2.7 4.9
2 3 5 62.19 4.7
2 -4 -10 70.69 5.3
3 4 13 22.9 3.8
3 4 12 -0.6 4.5
3 4 11 196.78 5.4
3 4 10 8.5 4.7
3 4 9 73.69 5.2
3 4 8 37.8 3.6
3 3 2 25.8 4
3 -1 -7 82.19 6
5 5 14 2 3.9
5 5 13 4.3 4.8
5 5 12 34.6 5.3
5 5 11 50.69 5.2
5 5 10 8 4.9
5 5 9 -0.9 3.6
5 4 3 74.39 5.3
6 5 7 7.5 3.6
7 5 7 63.69 5.8
7 3 0 3 5.5
-4 -7 7 5.1 6.4
-4 -7 6 0.9 5.6
-4 -7 3 7.4 5.1
-4 -7 2 130.49 6
-4 -8 -1 6.4 5.4
-4 -9 -2 60.49 4.2
-4 -10 -3 61.89 4.7
-3 -4 3 32.1 5.2
-3 -5 -1 20.5 4.9
-3 -6 -3 2.3 3.5
-3 -8 -6 21.1 5.3
-3 -10 -7 1.9 4.2
-2 -3 -1 303.77 7.9
-2 -5 -5 105.29 4.1
-2 -9 -9 7.3 3.7
0 1 11 172.38 5.5
0 -2 -5 346.07 8.1
0 -4 -8 31.7 3.7
0 -7 -11 122.99 5.6
1 2 13 76.99 4
1 2 5 217.78 7.5
1 1 17 11.7 4.3
1 -1 -5 452.55 9
1 -6 -11 43.2 4.2
2 3 13 26.3 3.8
2 3 12 6 5
2 3 6 3.7 4.1
2 2 17 -0.9 5.2
2 2 1 218.08 7.4
2 -3 -9 25.5 3.6
2 -5 -11 129.09 5.9
3 3 17 41.5 5.6
3 2 -1 209.08 6.4
4 4 16 15.2 4.4
4 4 15 3.4 5.3
4 4 5 236.48 4.6
4 2 -2 85.69 5.8
5 3 0 4.5 4.6
6 5 13 -1.9 6.1
6 5 12 2.4 5.3
6 5 11 6.3 5
6 5 10 4.3 5.6
6 5 9 6.8 4.9
6 5 8 22.7 4
6 4 3 59.39 5.2
6 3 0 2.7 4.9
7 5 9 71.49 6
7 5 8 7 4.2
7 4 3 -1.2 3.8
7 2 -2 -1.6 5.9
-4 -7 1 718.23 8.3
-4 -8 -2 33 4.9
-4 -9 -3 -7.4 3.9
-4 -10 -4 14.3 4.2
-3 -7 -5 22.6 3.6
-3 -9 -7 104.09 4.3
-3 -10 -8 7.5 5.5
-2 -2 3 188.58 9
-2 -3 13 9.2 6.2
-2 -6 -7 172.58 5.5
-2 -7 -8 49.4 3.8
-2 -8 -9 23.4 4.8
-2 -10 -10 7.1 4.4
-1 -1 13 32.8 4.8
-1 -5 -8 156.78 5.8
-1 -6 -9 6.8 3.4
-1 -7 -10 60.89 4.9
-1 -9 -11 -4.7 4.2
0 1 10 47 4.9
0 1 6 182.28 7
0 0 15 136.79 6.1
0 -1 -3 36.5 9.2
0 -3 -7 1.2 5.3
0 -8 -12 89.09 6.2
1 2 12 1.3 3.6
1 2 11 16.2 5
1 2 6 94.59 6.4
1 1 16 -1.5 5.9
1 -7 -12 36.2 4.3
2 3 11 105.39 4.1
2 3 10 12.4 5.2
2 3 9 129.49 5.3
2 3 8 9.9 4.6
2 3 7 167.28 4.5
2 -2 -8 118.79 5.5
2 -6 -12 14.3 6
3 3 16 71.39 5.4
3 3 3 9.1 5.6
4 4 14 31 5.1
4 4 6 16.3 3.6
4 3 1 169.68 4.5
5 4 4 26.8 3.7
5 0 -6 16.8 10.3
7 5 10 9.9 4.3
7 4 4 0.8 5.3
-4 -7 8 88.69 7.9
-4 -7 0 116.89 5.4
-4 -9 -4 5.6 5.1
-4 -10 -5 12.1 5.2
-3 -4 2 72.09 4.2
-3 -5 -2 180.98 5.5
-3 -6 -4 5 3.7
-3 -8 -7 1.7 5
-3 -9 -8 67.29 5.5
-2 -2 9 143.99 8.3
-2 -4 -4 47.6 4.4
-2 -5 -6 209.68 5.6
-2 -9 -10 7.3 3.9
-1 -3 -5 -0.9 4.5
-1 -8 -11 7.5 4.1
0 1 9 99.49 4.3
0 1 8 200.68 5.9
0 1 7 168.78 6.1
1 2 10 278.77 4.8
1 2 9 30.4 5
1 2 8 349.17 6.5
1 2 7 2328.97 12.1
1 -2 -7 449.36 7.4
2 2 16 -1.8 4.1
2 1 -2 74.29 8.9
3 3 15 73.39 5.3
3 -4 -11 1.6 5.2
4 4 13 14.1 3.8
4 4 12 48.7 4.6
4 4 11 112.99 5.2
4 4 10 182.08 5.1
4 4 9 43.1 4.5
4 4 8 105.99 4.9
4 4 7 169.98 4
4 1 -4 40.9 7.3
4 -2 -9 20.8 7
4 -3 -10 1 5.5
5 4 15 0.1 5.9
5 4 5 12.7 5
6 4 4 19.6 3.5
6 2 -2 9.7 5.1
6 1 -4 23.8 6.4
7 4 5 -0.9 4.9
7 3 1 38.5 5.2
-4 -7 -1 11.8 3.8
-4 -8 -3 4 3.8
-4 -9 -5 75.09 5.9
-4 -10 -6 5.9 5.9
-3 -4 1 341.47 7
-3 -7 -6 6.4 3.3
-3 -10 -9 3.3 4.1
-2 -7 -9 17.3 4.8
-2 -8 -10 -6.5 5.2
-1 -2 15 -0.2 5.7
-1 -2 -3 593.04 10.8
-1 -4 -7 503.45 5.6
-1 -9 -12 5.4 4.5
0 0 14 25.9 5.3
0 -5 -10 15.2 3.7
0 -6 -11 11.3 3.8
0 -7 -12 67.59 5.9
1 1 15 47.7 5.2
1 -4 -10 133.29 5.4
1 -5 -11 122.79 4.6
1 -6 -12 0.1 5
2 2 15 85.89 5.2
3 3 14 52.59 4.1
3 3 4 53.49 5.4
3 -3 -10 18.8 5.1
3 -5 -12 2.8 6.2
4 3 2 4.7 4.6
5 4 14 2.6 3.9
5 4 13 76.29 5.5
5 4 6 188.08 5.1
5 3 1 64.49 4.8
5 2 -2 17.7 5.1
6 4 5 1.1 3.5
6 3 1 20.2 4.9
7 4 6 3.6 5.3
-4 -6 5 7.8 5.1
-4 -6 4 0.6 5.1
-4 -6 3 142.09 6
-4 -6 2 2.2 5.1
-4 -7 -2 708.73 7.3
-4 -8 -4 74.29 4.1
-3 -5 -3 46.7 4.8
-3 -6 -5 1.8 3.7
-3 -7 -7 61.89 5
-3 -8 -8 22.4 3.6
-3 -9 -9 5 4.7
-2 -3 -2 2 4.8
-2 -6 -8 352.86 4.8
-2 -9 -11 53.49 4.5
-1 -1 12 19.8 4.9
-1 -5 -9 3.6 5.1
-1 -6 -10 98.29 3.8
-1 -7 -11 62.09 4
-1 -8 -12 61.89 5.8
0 -4 -9 13.5 3.4
0 -8 -13 3.8 5.6
1 1 14 -4.5 5.4
1 0 17 11.1 6.2
1 -3 -9 276.87 6.1
1 -7 -13 3.3 5.5
2 2 14 11.9 5.3
2 2 2 1.7 6.9
2 1 17 11.3 5.4
2 -4 -11 15 5.5
2 -5 -12 -2.2 5.5
3 3 13 25.2 3.7
3 3 12 7.7 4.6
3 3 5 252.87 6
3 2 17 6.8 4.6
3 -2 -9 56.49 6.3
4 3 16 37.3 4.5
5 4 12 0.8 3.6
5 4 11 41.2 4.8
5 4 10 208.68 5.4
5 4 9 15.2 5.2
5 4 8 19 4.5
5 4 7 6.8 3.3
5 -2 -9 1 8.7
6 4 13 5.3 5.7
6 4 7 165.48 5.6
6 4 6 47 3.8
7 4 8 43.8 5.9
7 4 7 8.2 4.2
7 3 2 6.6 5.4
7 2 -1 33 5.7
7 1 -3 2.4 6.8
-4 -6 6 18.5 5.4
-4 -6 1 169.98 5.6
-4 -7 -3 40.9 5.4
-4 -8 -5 37.3 5.5
-4 -9 -6 -0.5 4
-4 -10 -7 -3 4.2
-3 -4 0 18.4 3.6
-3 -10 -10 65.89 4.5
-2 -2 2 1626.04 16.4
-2 -4 -5 381.56 5.6
-2 -5 -7 12.3 3.5
-2 -7 -10 12.3 5.3
-2 -8 -11 64.39 5.6
0 0 13 184.48 6.1
0 -2 -6 456.25 8.1
1 0 -3 8.7 10.9
2 2 13 279.57 6
2 -3 -10 233.48 6.4
2 -6 -13 10.6 5.5
3 3 11 1.9 3.4
3 3 10 238.68 5.5
3 3 6 132.49 5.5
3 2 16 205.28 6.6
3 2 0 331.77 7.1
4 3 15 -1.2 4.3
4 3 14 0 5
4 3 3 11.3 4.6
4 2 -1 173.48 5.8
5 3 2 96.29 5
5 1 -4 283.47 8.4
6 4 12 17.2 4
6 4 11 -0.1 4
6 4 10 -3 4
6 4 9 -3.4 3.9
6 4 8 9.4 3.9
6 3 2 149.88 5.4
7 4 10 -0.1 4.1
7 4 9 24.5 4
-5 -9 2 6.2 6.2
-5 -9 1 34.6 6.2
-5 -9 0 22 6
-5 -10 -2 3.3 4.4
-5 -10 -3 9.6 6.1
-4 -6 7 0 6.7
-4 -6 0 43.1 3.8
-4 -7 -4 206.28 5.5
-4 -9 -7 -4.8 4
-4 -10 -8 3.2 4.2
-3 -5 -4 17.5 3.5
-3 -6 -6 -1.4 3.4
-3 -7 -8 5.9 4.8
-3 -8 -9 -0.2 3.6
-3 -9 -10 -1.5 3.9
-3 -10 -11 28.5 6.1
-2 -2 8 4.9 5.7
-2 -3 12 54.09 6.7
-2 -6 -9 43.2 3.5
-2 -9 -12 13.9 4.3
-1 -1 11 155.38 5.8
-1 -2 14 -0.9 5.6
-1 -3 -6 922.31 7.7
-1 -4 -8 445.86 5.4
-1 -6 -11 85.39 5.4
-1 -7 -12 26.3 5.4
0 -3 -8 330.67 5.1
0 -5 -11 -0.7 5
0 -6 -12 57.59 4.2
0 -7 -13 33 5.3
1 1 13 15.2 3.6
1 0 16 27.7 5.8
1 -5 -12 23 5.4
1 -6 -13 32 5.4
2 2 12 400.16 6.2
2 1 16 138.69 6.1
3 3 9 191.08 4.3
3 3 8 21.9 3.5
3 3 7 84.79 3.8
3 2 15 166.08 5.7
4 3 13 48.1 5.2
5 3 15 4.9 4.5
6 2 -1 -0.6 4.8
6 -1 -7 4.8 10.5
7 3 3 -3.2 3.8
-5 -9 -1 4.6 4.3
-5 -9 -2 16.6 5.8
-5 -10 -4 4.2 6.1
-4 -6 -1 2.5 3.7
-4 -8 -6 92.19 4.2
-4 -9 -8 22.6 5.6
-4 -10 -9 12.8 6.1
-3 -4 -1 145.19 4.5
-2 -3 -3 26 4.8
-2 -4 -6 42.3 5.4
-2 -5 -8 52.19 5.2
-1 -5 -10 260.07 5.8
-1 -8 -13 113.79 4.9
0 0 12 153.38 4.3
0 -1 15 3.9 4.9
0 -4 -10 92.69 5.6
1 1 12 538.25 6.9
1 1 1 676.73 11.1
1 -4 -11 15.1 5.4
2 2 11 102.49 5.6
2 2 3 14.1 4.9
2 -1 -7 7.5 6
3 1 -3 506.45 11
4 3 12 -3.2 3.4
4 3 11 5.6 4.6
4 3 5 3.8 4.4
4 3 4 133.69 4.1
4 2 16 -3.2 6
5 3 14 88.69 4.4
5 3 13 11.7 4.8
5 3 3 24.5 3.8
5 2 -1 66.59 5.1
6 3 3 14.4 3.6
7 3 4 2 3.9
7 2 0 8.1 3.8
-5 -8 2 4.3 5.1
-5 -8 1 8.4 5
-5 -9 -3 0.8 5
-5 -10 -5 72.59 5.9
-4 -6 -2 578.44 6.1
-4 -7 -5 3.2 3.4
-4 -8 -7 3.9 3.7
-3 -4 -2 24.4 5.2
-3 -5 -5 1.8 3.3
-3 -6 -7 32.5 3.5
-3 -7 -9 31.4 5
-3 -8 -10 70.09 4.1
-3 -9 -11 37.5 4.1
-2 -2 1 144.09 7.9
-2 -6 -10 13.4 4.8
-2 -7 -11 19.2 3.7
-2 -8 -12 2.7 4.2
-2 -9 -13 5.5 4.3
-1 -1 10 26.6 4.9
-1 -2 -4 997.7 9.5
0 0 11 22.4 4.5
1 1 11 25.3 4.7
1 0 15 4.2 5
1 -2 -8 124.09 5.6
2 2 10 277.07 4.8
2 2 4 210.08 5.5
2 1 15 88.09 4.4
2 -2 -9 491.45 7.9
2 -5 -13 49.5 5.5
3 2 14 82.89 4.2
3 2 1 1206.98 9.9
3 -4 -12 47.8 6.3
4 3 10 621.34 5.5
4 3 9 105.69 5.1
4 3 8 131.79 5.1
4 3 7 117.39 5.1
4 3 6 14.8 4.8
4 2 15 12.4 5.5
5 3 12 17.7 5.2
5 3 4 3.5 3.6
6 3 13 5.4 4.3
6 3 12 18 5.7
6 3 4 2.3 3.4
7 3 7 6.3 5
7 3 6 3.9 5.3
7 3 5 2.5 3.8
7 1 -2 4.3 6
-5 -8 4 1.6 5.2
-5 -8 3 25.2 5.6
-5 -8 0 0.5 4.2
-5 -8 -1 -0.6 5.6
-5 -9 -4 3.1 4.1
-5 -10 -6 3 4.3
-4 -6 -3 209.58 4.8
-4 -7 -6 61.59 5
-4 -8 -8 19.3 4.8
-4 -9 -9 4.9 4
-4 -10 -10 10.5 4.5
-3 -9 -12 -1.1 5.4
-2 -3 -4 14.5 6.4
-1 -2 13 5.4 4.7
-1 -3 15 1.2 5.9
-1 -3 -7 -0.7 5.2
-1 -4 -9 4.6 4.4
-1 -6 -12 59.79 5.4
-1 -7 -13 49.6 4.2
-1 -8 -14 25.3 6.3
0 -1 14 3.2 5.2
0 -1 -4 682.03 9.6
0 -2 16 7.3 6.2
0 -5 -12 68.99 5.4
0 -6 -13 0.5 4.1
0 -7 -14 -0.3 5.3
1 -1 -6 41.1 5.5
1 -3 -10 55.69 5.3
2 2 9 61.79 3.8
2 2 8 44.6 3.7
2 2 7 1198.38 8.8
2 2 6 21.2 6.1
2 2 5 7.3 4.3
2 1 14 72.49 5.5
2 -4 -12 10.6 5.5
3 2 13 64.89 3.9
3 1 16 10.5 5.4
3 -3 -11 1.2 5.2
4 2 0 19 5
4 -3 -11 12.1 6.9
5 3 11 3.2 3.6
5 3 10 48.8 4.6
5 3 9 -1.7 5.1
5 3 8 37.3 4.6
5 3 7 85.49 4.6
5 3 6 4.4 4.7
5 3 5 118.49 4.1
5 2 15 44.1 5.8
6 3 11 7.4 4
6 3 10 -4.9 5.4
6 3 9 -0.3 4.9
6 3 7 9.7 4.7
6 3 6 45.6 5.1
6 3 5 25 3.6
6 2 0 68.89 5.3
6 1 -3 23.7 5.3
7 3 10 1.1 4.3
7 3 9 5.6 4.2
7 3 8 61.39 4.4
7 2 1 4.3 3.9
-5 -8 -2 21.5 4.1
-5 -8 -3 6.6 5.6
-5 -9 -5 12.8 4.1
-5 -10 -7 14.3 4.5
-4 -6 8 4.1 8.2
-4 -6 -4 1.7 5.2
-4 -9 -10 13.5 5.5
-3 -4 -3 10.1 5.2
-3 -5 11 57.79 10.2
-3 -5 -6 2.5 3.6
-3 -6 -8 -0.5 3.4
-3 -7 -10 14.4 5.1
-3 -8 -11 3.6 3.7
-2 -2 7 137.69 8.5
-2 -4 -7 33.4 3.7
-2 -5 -9 57.79 3.7
-2 -7 -12 1.2 4.1
-2 -8 -13 8.5 4.3
-1 -5 -11 111.79 5.4
0 0 10 270.07 5.9
0 -2 -7 875.11 9
0 -3 -9 -0.7 3.4
1 1 10 173.58 4.4
1 0 14 5.1 3.9
1 -1 16 1.6 5.4
1 -5 -13 56.49 5.9
1 -6 -14 57.79 5.7
2 0 16 8.8 5.7
3 2 12 11.4 3.6
3 1 15 -0.1 5
4 2 14 2 4
5 2 14 26.4 5.3
5 2 0 2.8 4.7
6 3 8 43.8 3.8
6 0 -5 2.9 6.7
7 2 2 7.6 5.2
-5 -8 -4 33.2 5.3
-5 -9 -6 100.29 4.7
-5 -10 -8 26.3 5.6
-4 -5 4 1.5 5.3
-4 -5 3 16.3 5.1
-4 -5 2 313.67 5.8
-4 -5 1 159.68 5.5
-4 -5 0 1.3 4.9
-4 -6 -5 211.08 5.4
-4 -7 -7 167.28 4.3
-4 -8 -9 24.1 3.9
-3 -6 -9 0.3 4.5
-3 -8 -12 4.1 4.8
-3 -9 -13 31.6 6.3
-2 -2 0 700.83 10.6
-2 -3 11 6.9 5.9
-2 -4 13 1.8 6.5
-2 -6 -11 115.59 4
-1 -1 9 0.5 4.7
-1 -7 -14 137.39 5.8
0 -4 -11 316.57 5.1
1 1 9 212.28 4.6
1 1 2 2192.28 15.8
1 -4 -12 -0.2 5.3
2 1 13 103.79 4.2
2 -3 -11 3.9 4.7
3 2 11 581.14 5.4
3 2 10 20.2 4.8
3 2 2 3.2 4
3 -1 -8 123.19 8.2
4 2 13 2 3.6
4 2 12 5.7 4.6
5 2 13 7.3 5.3
5 1 -3 209.68 6.8
6 2 1 159.08 5.3
7 2 3 3 5.3
7 1 -1 17.4 5.6
-5 -7 2 -2.1 4.9
-5 -7 1 41 5.8
-5 -7 0 35.7 5.5
-5 -8 -5 -0.6 4.8
-5 -9 -7 1.5 4
-4 -5 -1 62.09 5.2
-4 -7 -8 19.8 5.2
-4 -8 -10 20.7 4.9
-4 -9 -11 59.79 4.4
-3 -4 -4 42.8 3.9
-3 -5 -7 29.9 3.6
-3 -7 -11 2.8 4.7
-2 -3 -5 66.89 4.7
-2 -4 -8 570.44 6.5
-2 -5 -10 8.2 4.9
-2 -7 -13 0.4 5.8
-2 -8 -14 61.79 5.4
-1 -2 12 35.9 4.7
-1 -2 -5 203.68 5.8
-1 -3 -8 136.19 5.5
-1 -4 -10 232.58 5.7
-1 -6 -13 1.1 3.7
0 0 9 232.58 5.8
0 -1 13 156.28 4.7
0 -2 15 13.2 5.6
0 -6 -14 3.2 5.1
1 1 8 536.15 6.2
1 1 7 1517.35 10.3
1 0 13 153.68 4.4
2 1 12 80.59 3.9
2 0 15 10.4 5.1
3 2 9 50.89 4.8
3 2 3 500.45 7.3
3 1 14 82.69 4.4
4 2 11 7 4.9
4 2 1 19.1 3.3
4 1 15 10.4 5.2
4 1 -3 26.5 5.3
5 2 12 16 5.1
5 2 1 77.39 5
6 2 12 1.1 4.2
6 2 2 52.09 4.8
6 1 -2 0.7 4.7
7 2 9 14.8 5.3
7 2 5 10.3 5.3
7 2 4 2 4.8
-5 -7 3 30.8 5.9
-5 -7 -1 1.2 3.7
-5 -7 -2 33.8 5.8
-5 -8 -6 145.49 5.5
-5 -9 -8 10.4 4.2
-4 -5 5 2.4 5.7
-4 -5 -2 3.9 3.5
-4 -6 -6 125.49 4
-4 -9 -12 -0.9 5.1
-3 -6 -10 173.68 5.4
-3 -8 -13 -9.7 5.7
-2 -2 -1 215.18 7.7
-2 -6 -12 7 4.7
-1 -1 8 147.29 6
-1 -1 -1 678.93 11.6
-1 -3 14 2.9 5.2
-1 -5 -12 22 3.7
0 0 8 18.6 4.5
0 -5 -13 8.9 4.1
1 1 6 46 6.7
1 1 5 2876.61 14.6
1 1 4 694.53 10.4
1 1 3 2736.43 15.8
1 0 12 59.79 5
1 -1 15 24.6 4.3
1 -2 -9 412.86 6.9
1 -3 -11 319.47 6.1
2 1 11 849.41 7.4
2 1 -1 44.3 7.3
2 -5 -14 8.1 5.6
3 2 8 148.29 4.1
3 2 7 22.2 3.7
3 2 6 20.3 5.1
3 2 5 141.39 5.7
3 2 4 258.47 5.1
3 1 13 35.6 5.3
3 0 16 2.3 4.4
3 -2 -10 52.99 5.9
3 -4 -13 0.3 6.4
4 2 10 3.8 4.5
4 2 2 74.79 4.8
4 1 14 -0.4 5.7
5 2 11 7.3 3.7
5 2 2 142.59 5.1
6 2 11 29.4 4.1
6 2 10 3.4 5.6
6 2 3 187.48 5.4
7 2 8 36.8 4.3
7 2 7 58.49 4.4
7 2 6 -1 3.8
7 1 0 25.4 5.4
-5 -7 4 7.8 5.6
-5 -7 -3 48.3 3.9
-5 -7 -4 3.3 5.2
-5 -8 -7 73.99 5.4
-5 -9 -9 7.5 5.4
-4 -5 -3 -0.7 3.3
-4 -6 -7 9.4 4.8
-4 -7 -9 54.69 3.8
-4 -8 -11 3.2 4.8
-3 -3 3 132.39 6.8
-3 -3 2 874.71 10.2
-3 -3 1 24.2 5.3
-3 -4 -5 0 3.4
-3 -5 -8 54.69 3.6
-3 -7 -12 18.3 4.8
-2 -3 -6 4 5.8
-1 -7 -15 2.9 5.4
0 -1 12 32.3 4.8
0 -1 -5 140.49 7.5
0 -2 -8 7.4 5
0 -3 -10 3.8 3.4
0 -4 -12 46 5.4
1 -5 -14 77.09 5.9
2 1 10 429.56 6.1
2 0 14 7 3.7
2 0 -5 193.18 11.6
2 -1 16 2.1 4.2
2 -4 -13 32.2 5.3
3 0 15 2.4 5.5
4 2 9 61.59 3.7
4 2 8 -1.3 4.7
4 2 3 224.88 5.5
4 -2 -10 1.4 8
5 2 10 26.3 3.5
5 2 9 1.6 4.9
5 2 3 240.88 5.7
5 1 14 181.08 5.1
6 2 9 118.49 4.4
6 2 8 51.19 5.1
6 2 7 6.7 5.1
6 2 6 335.97 6
6 2 5 19.2 5
6 2 4 193.18 4.3
7 1 1 5.2 4.8
-6 -9 -2 3 6.1
-5 -7 -5 41.3 5.3
-5 -8 -8 -6 5.6
-5 -9 -10 -4.3 6.2
-4 -5 -4 14.4 3.6
-4 -7 -10 30.5 4.9
-3 -3 0 226.48 6.4
-3 -4 -6 8.9 4.8
-3 -6 -11 44.1 5.2
-3 -8 -14 -5.1 6
-2 -2 -2 0.7 7.3
-2 -4 -9 55.79 3.8
-2 -5 -11 3.5 3.4
-2 -6 -13 21.2 5.3
-2 -7 -14 -2.7 4
-1 -2 -6 96.29 5
-1 -3 -9 113.69 5.3
-1 -4 -11 5.1 4.9
-1 -6 -14 4.4 4
0 -2 14 13.5 3.9
0 -6 -15 11.2 5.4
1 0 11 15.8 5.3
1 -1 14 13.2 4
1 -4 -13 3.7 5.3
2 0 13 0 4.8
2 -2 -10 -0.2 5
3 1 12 -2.3 3.5
3 1 -2 245.28 7.1
4 2 7 31.1 3.5
4 2 6 42.6 3.8
4 2 5 137.89 4
4 2 4 34.2 3.5
4 1 13 6.9 3.9
4 0 15 25.6 6.1
5 2 8 6.4 3.5
5 2 7 5.6 3.4
5 2 6 287.67 5.6
5 2 5 14 4.9
5 2 4 8.2 3.5
5 1 13 7.7 4
5 1 -2 6.1 4.8
6 1 12 27.5 6.1
6 1 -1 41.9 5.4
6 0 -4 11 6.2
7 1 2 0.9 4.6
-6 -9 -3 11.2 4.4
-6 -9 -4 10.4 5.4
-6 -9 -5 1.1 5.4
-5 -7 5 100.29 7.5
-5 -7 -6 169.48 5.8
-5 -8 -9 120.29 6
-4 -5 6 9 6.6
-4 -5 -5 123.59 5.5
-4 -6 -8 22.5 3.6
-4 -8 -12 46.8 4.2
-3 -3 4 66.99 6.5
-3 -3 -1 320.27 6.8
-3 -5 -9 23.3 3.4
-3 -7 -13 17.7 3.9
-2 -3 10 13.5 5.9
-2 -4 12 -0.6 6
-1 -1 7 671.13 9.3
-1 -1 -2 2148.78 17.4
-1 -2 11 363.56 6.7
-1 -3 13 1.5 5.3
-1 -5 -13 60.19 4
0 -1 11 478.45 6.8
0 -3 15 41.6 5.7
0 -5 -14 1.9 3.9
1 -1 -7 458.15 7.8
2 1 9 411.16 5.2
2 -1 15 11.3 4.1
2 -1 -8 80.99 6.6
2 -3 -12 4.2 5.3
3 1 11 2.5 3.5
3 0 14 0.6 4
3 -3 -12 2 5.5
4 1 12 6.4 3.6
5 1 12 29.4 3.8
5 0 -5 72.39 7.1
6 1 11 11.9 5.2
6 1 0 56.29 4.7
7 1 8 86.49 6.2
7 1 7 8.9 5.3
7 1 4 12 4.7
7 1 3 -3.1 5.3
7 0 -2 8.3 6
-6 -9 -6 45.5 5.7
-5 -6 1 12.2 4.8
-5 -6 0 13.4 5.4
-5 -6 -1 -1.9 5.3
-5 -6 -2 5.6 4.7
-5 -7 -7 69.59 5.5
-5 -9 -11 4.4 4.3
-4 -5 -6 44.6 5.2
-4 -6 -9 9.6 5
-4 -7 -11 234.18 4.7
-4 -8 -13 0.1 5.6
-3 -3 -2 29.7 5.3
-3 -4 -7 -1.8 4.7
-3 -5 -10 528.55 6
-3 -6 -12 102.99 5.5
-2 -2 6 79.09 8.1
-2 -2 -3 13 7
-2 -3 -7 168.28 4.5
-2 -4 -10 54.09 5.2
-2 -5 -12 17.7 3.7
-2 -7 -15 -4.1 4.3
-1 -6 -15 23.3 5.8
0 -2 13 6.1 4.8
0 -3 -11 189.08 5.6
1 0 10 13.5 4.8
1 -1 13 12.9 4.8
1 -2 15 -0.3 4.3
1 -5 -15 32.5 5.5
2 1 8 131.39 4.1
2 1 0 889.61 11.4
2 0 12 20.6 5
3 1 10 228.38 4.2
3 0 13 35.2 5.3
3 -1 15 20.8 5.5
4 1 11 6.8 3.4
4 1 -2 30.6 5.2
4 0 14 74.69 4.7
5 1 11 13.5 3.7
6 1 10 33.4 4.2
6 1 9 54.39 5
7 1 6 8.2 4.1
7 1 5 69.19 4.2
7 0 -1 3.5 5
-6 -8 -1 0.6 5.2
-6 -8 -2 45.6 6.1
-6 -8 -3 84.29 5.9
-6 -9 -7 6.3 4.4
-5 -6 2 41 5.3
-5 -6 -3 23.9 3.6
-5 -6 -4 22.8 4.8
-5 -7 -8 68.39 5.5
-5 -8 -10 134.49 4.9
-4 -7 -12 -2.9 4.7
-3 -3 -3 14.8 5.7
-3 -7 -14 2.2 4.2
-2 -6 -14 1.9 4
-1 -2 -7 2230.38 11
-1 -3 -10 35.8 4.7
-1 -4 14 67.59 6.3
-1 -4 -12 0.4 3.5
-1 -5 -14 0.4 5
0 -2 -9 87.59 5.3
0 -4 -13 74.89 4.2
1 -2 -10 52.49 5.4
1 -3 -12 3.6 4.8
2 1 7 1.9 3.8
2 -1 14 2.2 3.9
2 -4 -14 25.1 6.2
3 1 9 390.36 5.7
4 1 10 330.37 4.7
4 0 13 4.2 4.9
5 1 10 31.1 3.8
5 1 -1 376.96 5.6
5 0 13 1.1 4.2
6 1 8 34.9 5.1
6 1 7 156.98 5.4
6 1 2 13.7 4.8
6 1 1 96.19 3.8
6 -1 -6 5.7 5.8
-6 -8 1 2.6 6.1
-6 -8 0 51.19 6
-6 -8 -4 3.7 4.2
-6 -8 -5 4.2 5.7
-6 -9 -8 9 4.5
-5 -6 3 8.8 5.6
-5 -6 -5 39 5.3
-5 -7 6 16.9 7.5
-5 -7 -9 18 5.4
-5 -8 -11 80.19 4.7
-4 -4 1 74.39 5.1
-4 -4 0 29 5.1
-4 -4 -1 1.3 4.8
-4 -5 -7 13.8 3.5
-4 -6 -10 68.19 3.8
-4 -8 -14 8.9 5.5
-3 -3 -4 54.59 5.5
-3 -4 -8 38.4 3.7
-3 -5 -11 4 4.9
-3 -6 -13 4.1 5.2
-2 -2 -4 208.58 7.3
-2 -3 -8 5.1 3.4
-2 -4 -11 35.5 4.7
-2 -5 -13 38.9 5.3
-2 -7 -16 40.2 6.4
-1 -1 6 20.5 6
-1 -2 10 23.9 4.9
0 -1 10 205.48 5.5
0 -1 -6 170.38 5.5
0 -3 14 8.8 5.9
0 -5 -15 47.4 5.5
1 0 9 12.6 3.4
1 -1 12 181.68 5.6
1 -2 14 4.4 5.6
1 -4 -14 2.5 5.5
2 1 6 614.24 6.7
2 1 5 111.89 6.3
2 1 1 434.26 8.5
2 0 11 12.2 3.6
2 -2 15 5.9 5.9
3 1 8 71.19 4.8
3 1 -1 5.1 5.2
3 0 12 10.2 3.7
3 -1 14 0 5.5
4 1 9 86.29 3.6
4 1 -1 0 5
4 0 12 28.5 4.8
5 1 9 17.3 3.6
5 1 8 55.09 5.2
5 1 0 77.59 5
5 0 12 22.6 5
6 1 6 29.4 3.7
6 1 5 64.09 4.7
6 1 4 122.19 4.8
6 1 3 15.2 3.6
6 0 11 -4.9 5.4
6 0 -3 0.5 4.8
7 0 1 1.8 4.8
7 0 0 3.8 4.1
-6 -8 2 17.9 5.5
-6 -8 -6 1.2 4.3
-6 -8 -7 38 5.4
-5 -6 -6 218.38 4.6
-5 -8 -12 91.49 6.3
-4 -4 2 12.7 4.8
-4 -4 -2 3 3.5
-4 -4 -3 48.3 5.1
-4 -5 -8 20.5 3.4
-4 -6 -11 6.3 5
-4 -7 -13 -6.4 5
-3 -7 -15 7.2 4.3
-2 -6 -15 6.7 5
-1 -1 -3 2690.73 15.9
-1 -3 12 86.69 5.8
-1 -6 -16 14.5 4.3
0 -2 12 490.75 7.1
0 -3 -12 -1.1 4.9
1 -3 15 20.6 6.3
2 1 4 76.59 4.9
2 1 3 98.19 7.2
2 1 2 55.39 5.4
2 -1 13 56.49 4
3 1 7 26.5 3.5
3 0 11 137.99 5
4 1 8 22.3 3.4
4 -1 14 -0.6 4.3
5 1 7 4.9 3.4
5 1 6 142.59 5
5 1 1 905.61 7.5
5 0 11 -6.3 5.2
6 0 10 6.2 4.2
7 0 6 48.2 5.4
7 0 5 6.1 5.6
7 0 4 39.1 5.5
7 0 3 8.9 5.3
7 0 2 1.3 5.4
-6 -8 -8 23.6 5.9
-5 -6 -7 13.9 3.8
-5 -7 -10 208.78 4.8
-4 -4 -4 89.29 4.8
-4 -5 -9 1.1 4.9
-3 -3 -5 244.08 4.9
-3 -4 8 101.89 9.1
-3 -4 -9 72.99 3.8
-3 -5 10 13.9 6.9
-3 -5 -12 136.49 5.4
-3 -6 -14 16.5 5.7
-2 -2 -5 9.3 6.1
-2 -3 9 138.59 6.7
-2 -3 -9 121.39 5
-2 -4 11 7.8 5.7
-1 -2 -8 337.37 5.3
-1 -3 -11 68.39 5.5
-1 -4 -13 59.19 3.9
-1 -5 -15 11.7 5.6
0 -1 9 21.2 4.6
0 -4 -14 74.79 4.3
1 0 8 624.04 6.3
1 0 -4 315.07 11.8
1 -1 11 51.99 5.3
1 -1 -8 6.2 5.1
1 -2 13 167.58 5.6
2 0 10 83.19 3.9
2 -2 14 49.3 5.7
2 -2 -11 72.89 5.6
2 -3 -13 24.5 5.6
3 1 6 28.5 3.6
3 1 0 102.29 6
3 -1 13 7 4.1
3 -2 -11 43.8 7.4
4 1 7 80.29 3.7
4 1 6 31.2 5
4 1 0 26.3 5
4 0 11 20.8 3.4
4 0 -5 68.29 6.6
4 -1 13 -4.9 5.7
5 1 5 26.8 3.5
5 1 4 265.87 4.6
5 1 3 168.38 5.2
5 1 2 12.6 3.5
5 0 10 12 5.1
5 0 -4 147.59 6.1
5 -1 -7 2.4 6.9
6 0 9 -0.5 4
6 0 8 22.8 5.2
6 0 -2 1.6 4.6
-6 -7 -1 -1.1 4.9
-6 -7 -2 60.19 6.2
-6 -7 -3 2.8 5.6
-6 -7 -4 4.6 5.4
-6 -8 -9 6.5 5.3
-5 -6 4 3.1 5.1
-5 -6 -8 41.4 3.8
-5 -7 -11 1.9 3.9
-5 -8 -13 3.4 4.2
-4 -4 3 19.7 5
-4 -4 -5 241.98 4.6
-4 -6 -12 125.49 4.3
-4 -7 -14 2.3 4.3
-3 -3 -6 132.99 5.5
-3 -4 -10 13.3 4.7
-2 -4 -12 23.5 3.6
-2 -5 -14 14.8 3.7
-2 -6 -16 22.3 6
-1 -1 -4 662.83 10.2
0 -2 -10 108.29 4.1
0 -3 13 1.2 5.4
0 -5 -16 -1.9 5.8
1 -2 -11 43.6 5.2
1 -3 -13 0.5 5.5
2 0 9 81.39 5.2
2 -1 12 8.2 3.8
3 1 5 2 3.6
3 1 4 0 5.3
3 1 3 1038.5 8.7
3 1 2 16.1 5.3
3 1 1 175.38 6
3 0 10 160.58 4.1
3 -2 14 6.4 5.8
3 -3 -13 8.8 6.8
4 1 5 15.4 3.7
4 1 4 93.29 5.1
4 1 3 204.38 5.5
4 1 2 9.6 4.5
4 1 1 9.6 3.1
4 0 10 19.4 4.5
5 0 9 18.7 5
5 -1 12 -1.2 4.1
6 0 7 14.6 5.5
6 0 -1 -1.5 4.9
6 -1 -5 16.3 5.8
-6 -7 0 11.5 5.6
-6 -7 -5 17.5 4.1
-6 -7 -6 54.59 5.9
-6 -8 -10 120.09 5.1
-5 -5 -1 -0.1 5
-5 -5 -2 37.1 5.4
-5 -5 -3 8.8 5.1
-5 -5 -4 46.8 4.9
-5 -6 -9 2.6 3.6
-5 -7 -12 11 4.9
-4 -4 -6 13.5 3.7
-4 -5 -10 181.68 4.2
-4 -6 -13 37.1 5.3
-4 -7 -15 3.6 5.7
-3 -5 -13 56.29 5.5
-3 -6 -15 82.19 5.9
-2 -2 -6 19.8 4.4
-2 -3 -10 9.1 5.1
-2 -5 12 4 6
-1 -2 9 0.7 4.7
-1 -2 -9 30.1 4.9
-1 -4 -14 58.69 5.5
0 -1 -7 168.48 5.2
0 -2 11 42 5.3
0 -4 14 7.6 6
1 0 7 431.36 5.9
1 -3 14 38.6 4.4
1 -4 -15 71.39 5.7
2 -2 13 8.7 5.2
2 -4 -15 0.9 6.1
3 0 9 3.5 4.7
3 -1 12 1.7 3.7
4 0 9 2.6 4.4
4 -1 12 13.1 3.8
5 0 8 43.2 5.1
5 -1 11 5.9 4.8
6 0 6 7.8 3.8
6 0 5 11.4 4.9
6 0 4 11.1 4.5
6 0 1 13.1 4.4
6 0 0 20.2 4.1
-6 -7 1 2.5 5.6
-6 -7 -7 9.7 4
-6 -7 -8 50.09 5.9
-5 -5 0 23.8 3.8
-5 -5 -5 83.49 4
-5 -6 -10 36.1 3.8
-5 -7 -13 26.4 5.1
-4 -4 -7 175.38 4.2
-4 -5 -11 183.58 5.6
-3 -3 -7 85.29 3.8
-3 -4 -11 204.58 5
-2 -4 -13 4.4 3.6
-2 -5 -15 11.5 4
-1 -1 5 0.2 5.6
-1 -1 -5 2757.72 14.5
-1 -3 -12 230.68 4.6
-1 -5 -16 16.7 4.2
0 -1 8 27.1 4.9
0 -3 -13 3 3.7
0 -4 -15 -0.3 5.8
1 0 6 525.05 7.8
1 -1 10 14.8 3.6
1 -2 12 87.89 4.1
2 0 8 15.8 3.4
2 -1 11 23.3 3.6
2 -1 -9 67.89 5.6
2 -3 14 4.2 6
3 -1 11 16.3 4.6
3 -2 13 23.2 4
4 0 8 11.6 4.4
4 -1 11 2 5
4 -2 13 32.3 4.5
5 0 7 8.2 4.9
5 0 -3 68.49 5.1
5 -1 10 34.3 5.3
6 0 3 83.49 3.9
6 0 2 -1.3 3.6
6 -1 9 14.3 4.5
6 -1 8 1.9 5.2
6 -1 -4 16 5.1
-6 -7 -9 3.9 5.2
-5 -5 1 26.7 5
-5 -5 -6 64.69 3.8
-5 -5 -7 126.09 5.4
-5 -6 -11 37.7 5.3
-4 -4 -8 107.09 3.8
-4 -6 -14 10.4 4.2
-3 -3 -8 18.3 3.5
-3 -5 -14 -11.8 5.2
-3 -6 -16 11.2 6
-2 -2 -7 1132.79 7.8
-2 -3 -11 108.59 5.3
0 -2 -11 67.09 5.1
0 -3 12 16.1 5.3
1 -3 13 56.59 5.7
1 -4 14 9.1 5.6
3 0 8 203.88 4.3
4 -2 12 3.4 5.8
5 0 6 50.29 3.6
5 0 -2 25 4.9
5 -2 11 19.1 5.2
6 -1 7 0.9 5.5
-6 -7 2 -0.1 5.1
-6 -7 -10 -4.3 4.3
-5 -5 2 2.8 4.9
-5 -5 -8 35 5
-5 -6 -12 -0.2 5.3
-5 -7 -14 6 4.4
-4 -4 -9 38.7 4.8
-4 -5 -12 5.9 3.5
-3 -3 -9 190.78 5.3
-3 -4 -12 2.3 3.5
-2 -2 -8 45.5 4.7
-2 -4 -14 4.6 5.1
-2 -5 -16 3.3 5.9
-1 -1 -6 48.9 6.4
-1 -2 -10 272.67 4.7
-1 -3 -13 -0.9 5.1
-1 -4 -15 4.1 3.9
-1 -5 -17 6.8 5.5
0 -1 -8 193.58 5.9
0 -2 10 39.6 4.9
0 -4 13 26.2 5.8
1 0 5 366.96 7.8
1 -1 9 24 3.5
1 -1 -9 3.2 5.2
1 -2 11 78.79 5.4
1 -2 -12 -2.3 4.9
1 -3 -14 43 5.3
2 0 7 265.37 4.8
2 -1 10 -2.9 3.5
2 -2 12 7.5 3.7
2 -3 13 -4.9 6
2 -3 -14 -1.7 5.8
3 0 7 46.8 4.9
3 -1 10 106.59 5.2
3 -2 12 5 4
3 -3 13 19.1 5.4
4 0 7 24.7 3.4
4 -1 10 243.58 4.3
5 0 5 1.3 3.3
5 0 4 74.99 4.9
5 0 -1 712.63 7.4
5 -1 9 20.6 3.7
6 -1 6 2.7 3.8
6 -1 -3 13.6 5.2
-6 -6 -3 92.49 4.5
-6 -6 -4 11.6 4.1
-6 -6 -5 2.9 4
-6 -7 -11 6.3 4.4
-5 -5 -9 0.3 3.7
-4 -6 -15 58.79 4.6
-3 -5 -15 19.8 4.1
1 -4 -16 8.4 4.6
4 0 6 75.39 3.6
4 -1 9 -0.8 3.5
4 -2 11 5.6 3.8
5 0 3 107.19 3.9
5 0 2 5.3 3.3
5 0 0 71.89 3.7
5 -1 8 9.9 3.7
5 -2 10 6.1 4
6 -1 5 -0.4 3.8
-2 8 -2 -0.2 5.7
-2 7 -1 16.7 5.2
-2 6 -1 113.59 5.8
-2 5 -1 4.7 4.9
-2 2 -5 206.28 9.3
-1 9 3 67.59 4.6
-1 7 4 6.2 4.7
-1 1 -16 0.3 5.3
-1 0 -15 -2.7 4.2
-1 -1 -10 202.88 4.4
0 9 7 17.1 5.3
0 8 7 51.29 5.4
0 7 7 4.2 5.1
0 5 6 1.9 3.5
0 -1 -16 -4.2 4
0 -2 -8 1.7 3.8
0 -2 -9 99.59 4.9
0 -2 -10 125.19 5.2
0 -2 -11 77.99 3.7
0 -2 -12 76.19 3.8
1 10 9 8.7 4.4
1 7 9 251.57 4.7
1 1 4 718.93 10.5
1 -2 -15 86.09 4.2
2 9 11 75.09 4.3
2 8 11 73.69 4
2 4 9 61.49 5.5
2 3 8 4 3.7
2 -3 -7 13.9 3.7
2 -3 -8 40.9 3.8
2 -3 -9 27.3 4.9
2 -3 -10 253.57 5.3
2 -3 -11 9.7 3.7
2 -3 -12 -1.5 3.6
3 7 12 14.5 3.9
3 5 11 -4 4.7
3 4 10 12.9 3.9
3 3 9 197.08 4.4
3 -3 -6 7.9 3.8
3 -3 -7 -4.8 4.6
3 -3 -11 1.5 5.5
3 -3 -12 -4.8 4.3
4 7 13 -1.1 5.8
4 -3 -6 15.9 4
4 -3 -7 7.4 5.3
4 -3 -8 5.2 5.5
4 -3 -9 5.9 5.5
4 -3 -10 -8.2 5.8
4 -3 -11 10.3 4.3
5 6 13 -2.8 5.6
5 5 12 49.9 4.2
5 3 10 57.29 5.8
5 1 7 3.1 5.4
5 -2 -1 74.59 5.1
6 6 13 10.7 4.6
6 3 10 0.4 5.7
6 -2 -3 -2.9 5.8
7 2 8 46.2 7.6
-2 3 -13 12.9 5.6
-1 9 4 22.6 5.3
-1 8 4 75.29 4.4
-1 6 4 55.39 4
-1 4 3 57.79 5.4
-1 3 2 11.2 6.3
-1 0 -14 2.9 3.9
0 10 7 41.4 6.4
0 6 7 374.96 6.2
0 1 2 999 12.9
0 0 -17 3.7 4.4
0 -1 -3 36.3 9.1
0 -1 -15 5.2 4.1
1 6 9 4.8 3.4
1 -2 -4 1010.3 8.6
1 -2 -14 0.7 3.7
2 7 11 24 3.6
2 5 10 11.1 3.5
2 2 7 1184.98 8.5
2 -2 -2 95.89 6.3
2 -2 -15 -3.3 5.6
3 9 13 31.6 4.5
3 6 12 109.49 5.7
3 2 8 174.38 5.9
3 -2 -1 60.99 5.7
3 -3 -8 14.4 3.6
3 -3 -9 78.29 4.1
3 -3 -10 30.4 3.9
4 5 12 4.2 5.5
4 4 11 128.69 4.2
4 3 10 722.13 7.9
4 1 7 92.99 5.8
4 -2 -1 18 5.1
5 7 14 13.5 6.3
6 -2 -4 1.8 5.8
-2 8 -1 23.4 5.4
-2 7 0 -0.3 4.9
-2 6 0 131.89 6.1
-2 4 -13 7.5 5.9
-1 5 4 30.6 5
-1 1 -15 24 4.2
-1 0 -12 63.99 5.1
-1 0 -13 165.58 4.4
0 8 8 1.8 4.8
0 4 6 45.3 4
0 3 5 3.2 4.5
0 0 -16 5.2 5.9
0 -1 -14 10.7 3.7
1 9 10 81.29 4.6
1 8 10 135.79 4.3
1 7 10 67.89 5.2
1 5 9 8.2 4.7
1 4 8 503.55 5.4
1 3 7 2.4 4
1 -1 -16 0.1 4.2
1 -2 -5 483.75 7.7
1 -2 -12 5.8 4.9
1 -2 -13 1.1 3.4
2 9 12 17.5 4.2
2 8 12 0.1 5.5
2 6 11 127.29 4.2
2 -2 -14 69.49 5.1
3 8 13 -2.2 4.2
3 -2 -14 60.19 5.4
4 8 14 19.9 4.4
4 6 13 38.3 4.1
5 2 9 5.8 5.4
5 -2 -2 22.7 4.8
6 -1 1 3.2 5.8
6 -2 -5 56.69 5.5
7 3 10 2.3 6.3
-2 8 0 1.7 5.7
-2 5 0 64.09 5.4
-2 4 -1 109.69 5.7
-2 3 -12 31.5 5.1
-2 2 -6 50.69 6.2
-2 2 -9 17.5 5
-2 2 -10 81.89 5.2
-1 9 5 4.1 5.9
-1 8 5 16.4 4.2
-1 7 5 66.69 4.1
-1 6 5 298.57 6
-1 2 1 17.1 7.6
-1 1 -14 11.6 5.7
-1 0 -11 21.8 5.4
0 9 8 6.9 4.1
0 7 8 124.29 4.2
0 5 7 26.8 3.9
0 2 4 261.17 8.4
0 0 -15 180.78 5.6
0 -1 -12 28.4 5
0 -1 -13 -1.1 3.8
1 2 6 92.79 5.1
1 -1 -15 4.6 4.2
1 -2 -6 192.58 6.2
1 -2 -10 61.79 5.1
1 -2 -11 52.59 3.7
2 7 12 10.9 5.1
2 -2 -3 36.1 5.4
2 -2 -13 53.49 3.8
3 7 13 14.7 4
3 4 11 229.18 5.5
3 -2 -13 46.6 5.9
4 7 14 7.1 4.1
4 2 9 70.19 5.3
5 6 14 8.7 5.3
5 5 13 1.9 5.8
5 4 12 4.9 5.6
5 -1 2 74.69 6.8
5 -2 -3 0.7 5.3
6 5 13 1.1 4.4
6 4 12 19.7 6
6 2 9 156.18 7.3
6 1 7 173.98 9.4
7 0 3 3.9 6.8
-2 7 1 10.9 5.6
-2 4 -12 -1 5.7
-2 3 -11 5.8 5.1
-2 2 -7 91.69 5.7
-2 2 -8 11.1 4.9
-1 4 4 53.49 5
-1 2 -15 -4.1 4.5
-1 1 -1 904.81 24.4
-1 1 -13 15.9 4.8
-1 0 -10 14.9 4.6
0 6 8 326.37 4.7
0 1 -16 2.2 6.2
0 -1 -4 749.03 9.2
0 -1 -11 186.48 5.7
1 9 11 1.4 4.2
1 8 11 14.7 4.8
1 6 10 90.99 3.9
1 0 -16 18.4 5.5
1 -1 -14 10.6 4.9
1 -2 -7 492.85 5.6
1 -2 -8 140.09 4
1 -2 -9 454.05 5.1
2 9 13 5.3 5.8
2 5 11 4.7 3.5
2 4 10 51.69 3.9
2 3 9 126.39 4.1
2 1 6 660.53 8.9
2 0 4 383.86 10.4
2 -1 -15 122.69 5.7
2 -2 -11 81.09 5.3
2 -2 -12 11.8 3.4
3 8 14 5 5.6
3 6 13 0.3 5.5
3 5 12 147.19 4.4
3 3 10 258.27 5.9
3 1 7 26.2 5.5
3 -1 2 658.63 13.8
3 -2 -2 174.38 4.9
3 -2 -12 59.19 5.2
4 5 13 47.1 5
4 -2 -2 328.27 5.4
4 -2 -11 12.7 5.6
4 -2 -12 4.5 4.1
5 3 11 -0.9 4.9
5 -2 -4 14.8 4.9
5 -2 -5 37.5 4.8
5 -2 -8 25.2 5.6
5 -2 -9 3.3 5.2
-2 8 1 15.5 5.7
-2 6 1 39.5 4
-2 5 -12 49.3 6.5
-2 3 -2 242.28 8.5
-1 9 6 10.9 6
-1 8 6 44.4 4.4
-1 7 6 36.1 4.8
-1 5 5 73.09 3.7
-1 3 3 314.17 7.5
-1 3 -15 31.2 6.4
-1 2 -14 2.1 5.7
-1 0 -6 531.65 7.3
-1 0 -7 465.75 7.6
-1 0 -8 692.83 7.6
-1 0 -9 17.5 3.5
0 9 9 10.2 4.4
0 8 9 118.49 4.5
0 7 9 41.4 5.4
0 5 8 344.17 5.9
0 4 7 761.22 6.9
0 0 -14 25 3.9
0 -1 -5 155.18 7.7
0 -1 -9 107.69 5.2
0 -1 -10 49.8 4
1 7 11 77.69 3.9
1 5 10 284.87 5.8
1 4 9 -2.9 4.8
1 -1 -13 3.2 4.6
2 8 13 14.4 4
2 6 12 2.5 3.7
2 2 8 43.5 5.1
2 -1 -14 158.58 5.7
2 -2 -4 532.15 6.2
2 -2 -9 533.45 6.3
2 -2 -10 0.3 3.3
3 7 14 -6.4 6
3 0 5 80.09 6.8
3 -2 -3 120.09 5.6
3 -2 -10 63.49 5.3
3 -2 -11 51.59 3.9
4 6 14 10.1 4.1
4 4 12 58.59 3.9
4 3 11 13.1 5
4 -2 -3 6.1 5
4 -2 -9 22.6 5.2
4 -2 -10 0.4 3.9
5 -2 -6 5.6 3.8
5 -2 -7 2.3 3.9
6 3 11 5.1 5.8
6 -1 0 25.5 4.8
-2 8 2 6 5.3
-2 7 2 54.39 5.8
-2 5 1 350.76 6.8
-2 4 0 6.1 5.2
-2 4 -11 12.6 5.3
-2 3 -10 4.4 5
-1 6 6 445.96 5.5
-1 1 -12 197.88 4.6
0 6 9 454.35 6.2
0 3 6 5 4.3
0 2 -16 6.6 6.4
0 1 -15 9.1 4.2
0 0 -13 213.78 4.7
0 -1 -6 198.38 5.5
0 -1 -7 181.38 5
0 -1 -8 219.48 4.8
1 9 12 16.4 4.6
1 8 12 72.29 5.8
1 6 11 100.39 4.9
1 3 8 122.89 4.3
1 1 5 3020.8 15.7
1 0 -15 10.7 4.1
1 -1 -12 23.9 4.9
2 7 13 6.9 3.7
2 -1 1 149.79 7.7
2 -1 -13 3.6 4.7
2 -2 -5 80.29 4
2 -2 -6 148.79 4.2
2 -2 -7 3.1 3.7
2 -2 -8 130.89 4.2
3 2 9 51.39 3.8
3 -1 -14 21.1 4.4
3 -2 -4 2.7 4.9
3 -2 -8 288.47 5.7
3 -2 -9 57.19 3.8
4 7 15 14.9 4.4
4 -1 2 5.6 5.7
4 -2 -4 171.88 4.6
4 -2 -5 188.28 5.7
4 -2 -6 5.7 5.1
4 -2 -7 -2 5
4 -2 -8 2.3 3.6
5 5 14 2.8 6.1
-2 6 2 75.59 4.3
-2 5 -11 1.8 5.8
-2 3 -9 3 4.9
-1 9 7 7 5.3
-1 8 7 36.7 4.2
-1 7 7 25.4 5.4
-1 5 6 229.48 5.8
-1 4 5 19 5.1
-1 3 -14 43.3 6.2
-1 2 -13 183.08 5.8
-1 1 -11 59.29 5.2
0 9 10 11.5 4.1
0 8 10 14.2 4.1
0 7 10 214.78 6
0 2 5 371.86 8.1
0 1 -14 1.9 5.4
0 0 -12 155.08 4.2
1 7 12 22.3 5.3
1 2 7 2516.75 12.1
1 1 -16 0.9 4.4
1 0 -14 1.2 5.1
1 -1 -1 337.07 8.5
1 -1 -11 125.89 3.9
2 8 14 80.09 5.5
2 6 13 19.1 5.3
2 5 12 29.8 3.7
2 4 11 39.5 3.8
2 0 -15 1.9 5.3
2 -1 -12 31.8 4.7
3 6 14 11 5.2
3 5 13 58.89 4
3 4 12 2.7 3.8
3 -1 -13 165.78 4.5
3 -2 -5 86.59 3.8
3 -2 -6 -4.2 3.7
3 -2 -7 65.29 3.9
4 5 14 2.9 5.2
4 -1 -12 -3.8 5.9
5 4 13 90.09 5.7
5 2 10 31.3 5
5 -1 1 151.08 6.7
6 4 13 -0.6 6.2
6 -1 -1 3.7 5.4
7 0 2 2.5 6.4
-2 8 3 3.1 5.5
-2 7 3 64.59 5.7
-2 5 2 81.69 5.5
-2 4 -10 51.59 5.6
-1 6 7 1.8 4.8
-1 4 -14 8.4 5.6
-1 3 4 363.16 7.1
-1 2 2 15.1 4.8
-1 1 -10 12.4 5.1
0 9 11 1.7 5.5
0 5 9 29.5 3.5
0 4 8 33.5 3.8
0 2 -15 8.9 5.3
0 1 3 37.7 6.9
0 0 -11 24 5.2
1 8 13 158.88 5.4
1 5 11 118.59 4.9
1 4 10 249.88 5.4
1 1 -15 38.6 5.9
1 0 -13 8.4 5.3
1 -1 -10 40.7 3.7
2 7 14 1.2 5.6
2 3 10 5.3 3.6
2 0 -14 6.3 5.5
2 -1 -11 58.39 4.8
3 7 15 5.5 4.2
3 3 11 -1 3.8
3 -1 -12 46.6 3.8
4 6 15 69.69 4.6
4 4 13 26.3 5.2
4 2 10 0.4 5.2
4 1 8 27.7 5.6
4 -1 -11 1.4 5.6
5 1 8 60.19 6.9
5 -1 -10 -1.3 4.4
6 0 4 12.2 7.5
6 -1 -2 2.2 4.7
6 -1 -3 12.7 5.2
6 -1 -4 20.2 5.2
6 -1 -5 13 5.7
6 -1 -6 9.9 5.8
6 -1 -7 4.7 4.3
7 2 9 15.6 8
-2 6 3 17.9 3.9
-2 4 1 0.8 5.1
-2 3 -1 42.9 6.1
-2 3 -8 307.17 7.2
-1 9 8 10.1 4.4
-1 8 8 2.5 4.1
-1 7 8 22.1 5.3
-1 3 -13 48.3 6.1
-1 2 -12 110.19 4.3
-1 1 -9 29.5 4.7
0 8 11 6.2 4.1
0 6 10 1.9 3.7
0 3 7 0.5 3.8
0 1 -13 183.18 4.5
0 0 -10 308.67 6.1
1 7 13 60.39 5.1
1 6 12 66.49 3.8
1 3 9 125.69 3.9
1 -1 -9 4.3 3.6
2 2 9 70.59 5.1
2 1 7 -0.3 5.3
2 -1 -10 469.85 5.8
3 5 14 -0.5 4.8
3 0 -14 3.8 4
3 -1 -11 370.76 4.8
4 3 12 -0.8 5.4
4 -1 -10 6.9 5.7
5 5 15 5.4 5.5
5 3 12 18.9 4.2
5 -1 -8 24.2 5
5 -1 -9 1.6 4.2
6 3 12 24.3 5.5
6 2 10 5.7 6.5
7 0 1 2.2 6.1
-2 8 4 -2.1 4.3
-2 7 4 6.2 3.9
-2 6 4 4.8 4.9
-2 6 -10 15.6 6.4
-2 5 3 194.28 5.7
-2 5 -10 50.69 5.7
-2 4 -9 45.6 5.8
-1 9 9 17 5.6
-1 8 9 11.6 5.3
-1 6 8 44.5 5.4
-1 5 7 40.2 3.8
-1 4 6 1.1 3.6
-1 2 -11 84.39 5.7
0 7 11 119.79 4.3
0 5 10 12.4 4.6
0 3 -15 53.39 4.6
0 2 -14 13.7 4.1
0 1 -12 38.1 5.4
0 0 -9 248.28 5.6
1 2 -15 8.1 5.4
1 1 -14 4.2 4.2
1 0 3 4529.95 27.5
1 0 -12 0.8 3.6
1 -1 -2 76.49 5.9
1 -1 -7 532.75 7
1 -1 -8 2.4 3.6
2 6 14 2.2 4
2 5 13 39.1 3.8
2 4 12 28.7 3.6
2 1 -15 13.8 4.3
2 0 -13 -0.4 3.7
2 -1 -9 78.59 5.1
3 6 15 100.59 4.4
3 4 13 33.2 4
3 2 10 16 3.7
3 1 8 72.89 5.6
3 0 -13 -6.8 4.9
3 -1 -10 21.3 3.8
4 6 16 31.3 5.7
4 5 15 14.5 5.2
4 0 -13 64.49 4.7
4 -1 -9 4.3 5.3
5 4 14 11.1 5.9
5 -1 0 51.69 5.2
5 -1 -7 1.3 5.4
-2 8 5 10.6 5.9
-2 7 5 52.99 5.6
-2 4 2 -0.2 5.3
-2 3 -7 7.1 4.9
-1 7 9 0.2 4.8
-1 4 -13 3.4 4.2
-1 3 5 121.69 5.8
-1 3 -12 1.5 5.4
-1 2 3 151.78 7.5
-1 1 -8 7 3.5
0 8 12 102.49 4.5
0 6 11 5.8 3.8
0 4 9 12.7 3.6
0 2 6 488.95 6.3
0 2 -13 16.7 5
1 8 14 30.7 4.4
1 6 13 6.8 3.8
1 5 12 21.8 3.7
1 4 11 4.2 3.4
1 2 8 373.86 5.3
1 1 6 57.59 6.8
1 1 -13 39.2 5.4
1 0 -11 145.69 4
1 -1 -3 47.5 5.6
1 -1 -4 0.7 6.7
1 -1 -5 510.75 8.1
1 -1 -6 41.9 4.5
2 7 15 1.1 4.4
2 3 11 111.49 4.2
2 1 -14 -3 5.7
2 0 -12 1.7 4.5
2 -1 -8 90.19 5.4
3 3 12 8.8 4.8
3 1 -14 17.6 5.3
3 0 -12 140.99 5.6
3 -1 -9 2.6 3.6
4 4 14 43.1 5.7
4 0 -12 -2 4.2
4 -1 1 52.49 5.2
4 -1 -8 99.99 4.1
5 -1 -1 4.6 5.1
5 -1 -2 31.2 4.9
5 -1 -4 9.9 4.8
5 -1 -5 56.99 5.5
5 -1 -6 4.5 4
7 0 0 5 5.2
7 0 -1 2.1 5.9
7 0 -2 7.9 5.5
-2 6 5 5.5 5.3
-2 5 4 4.9 5
-2 5 -9 16.4 6.1
-2 3 0 326.47 7.3
-1 8 10 83.59 6.2
-1 6 9 84.49 5.6
-1 5 8 7.8 3.6
-1 4 7 44.5 5.4
-1 2 -10 86.29 5.4
-1 1 -7 168.98 5.7
0 7 12 82.89 4.3
0 3 8 319.67 5
0 3 -14 11.7 4.3
0 1 4 758.22 11.2
0 1 -11 512.05 5.6
0 0 -8 20.7 3.8
1 7 14 158.28 4.4
1 3 10 36.7 3.9
1 3 -15 -11 6.2
1 2 -14 6.1 5.7
1 0 -10 23.9 4.9
2 6 15 6.3 5.9
2 5 14 20.1 5.1
2 4 13 9.3 4.8
2 2 -15 9.3 4.5
2 0 -11 5.9 4.8
2 -1 0 944.41 11.8
2 -1 -7 9.6 4.8
3 6 16 18.8 5.9
3 5 15 27.1 5.7
3 -1 1 65.29 5.2
3 -1 -8 138.59 4
4 2 11 2 5.3
4 0 -11 16.4 5.2
4 -1 -6 98.49 4.9
4 -1 -7 26.5 3.8
5 3 13 19.7 5.5
5 2 11 11.6 5.5
5 0 -10 13.1 4.3
5 -1 -3 41.8 3.9
-2 8 6 15 4.2
-2 7 6 28.7 5.2
-2 6 -9 13.2 6.4
-2 4 3 1.8 5
-2 4 -8 27.3 5.2
-2 3 -6 33.6 6.3
-1 7 10 0.3 4
-1 4 -12 11.6 5
-1 3 -11 353.16 6.6
0 8 13 1.4 4.7
0 6 12 65.89 4.1
0 5 11 1.5 3.7
0 4 10 102.19 4
0 4 -14 13.2 6.1
0 2 -12 570.04 6.8
0 0 -7 347.57 5.7
1 6 14 7.2 5.1
1 5 13 61.29 3.8
1 4 12 7.4 4.9
1 1 -12 21 3.8
2 7 16 64.29 4.9
2 2 10 307.87 4.8
2 1 8 146.29 5.8
2 1 -13 8.9 3.8
2 0 5 195.18 7.2
2 -1 -6 30.1 3.6
3 4 14 20.2 3.9
3 2 11 628.04 7.2
3 1 -13 -1 5
3 0 -11 10.8 3.7
3 -1 -6 112.09 5.5
3 -1 -7 91.49 3.9
4 5 16 -2.3 5.9
4 3 13 61.99 4.1
4 1 9 96.89 5.8
4 0 -10 9.3 5.3
4 -1 0 25 5.1
4 -1 -5 0.9 5.1
5 0 -9 1.5 5
6 0 3 94.49 6.7
6 0 -6 13.1 5
6 0 -7 4.4 4
-2 8 7 33.8 6.2
-2 7 7 14.6 5.2
-2 6 6 37.4 3.9
-2 5 5 67.89 5.1
-2 3 1 0.6 5
-1 8 11 14.5 5.4
-1 6 10 218.08 5.9
-1 5 9 8.8 3.5
-1 5 -12 6.4 6
-1 4 8 94.79 5.5
-1 3 6 101.59 4.1
-1 2 4 1037.8 10
-1 2 -9 94.59 5.4
-1 1 0 862.81 15.8
0 7 13 37.7 4.3
0 3 9 4.7 4.6
0 3 -13 4.3 4.1
0 2 7 955.4 7.5
0 1 -10 210.58 4.5
0 0 -6 232.98 5.7
1 7 15 0.8 4.1
1 3 11 82.69 5.3
1 3 -14 2.8 6
1 2 9 28.5 3.8
1 2 -13 7.6 5
1 0 -9 70.89 4
2 3 12 2.3 3.6
2 2 -14 1.8 4.4
2 1 -12 60.29 5.1
2 0 -10 4.4 3.4
2 -1 -1 142.19 6.9
2 -1 -4 1004.6 8.8
2 -1 -5 60.79 3.9
3 3 13 40.1 5.3
3 2 -14 132.49 4.8
3 1 9 442.86 7.1
3 0 6 5.8 6.1
3 0 -10 134.29 4
3 -1 0 109.59 5.5
3 -1 -5 9.2 4.8
4 4 15 -4.7 5.8
4 1 -12 7.4 4.2
4 0 6 80.59 8.4
4 -1 -1 268.57 6
4 -1 -2 15.4 4.9
4 -1 -3 268.97 5.8
4 -1 -4 129.29 4.3
5 4 15 1.2 4.4
5 0 -8 -1.1 5.4
6 3 13 3.9 5.6
6 1 8 45.8 10.7
6 0 -5 7.6 5.5
-2 8 8 1.4 5.4
-2 6 7 0.6 4.9
-2 4 4 21.9 3.7
-1 7 11 2.8 4.2
-1 4 -11 15.6 5.2
-1 3 -10 4.1 5.1
0 6 13 2.3 3.7
0 5 12 89.09 3.9
0 4 11 343.17 5.8
0 4 -13 21.2 6
0 2 -11 49.5 5.5
0 1 5 150.68 7.4
0 1 -9 25.2 5.1
0 0 -5 1417.76 10.3
1 6 15 17.5 5.5
1 5 14 12.6 5.2
1 1 7 1643.54 10
1 1 -11 177.28 4.1
1 0 -8 88.29 5.2
2 6 16 10.8 4.4
2 5 15 10 4.1
2 4 14 0.1 5
2 2 -13 -2.8 5.6
2 0 -9 468.95 6.2
2 -1 -2 117.49 5.3
2 -1 -3 3 4.4
3 5 16 8 4.5
3 4 15 16.7 5.8
3 1 -12 13.6 3.9
3 0 -9 361.76 5.9
3 -1 -1 85.29 5.4
3 -1 -2 39.2 5.1
3 -1 -3 342.67 6.4
3 -1 -4 116.99 4
4 1 -11 2 5.1
4 0 -9 160.68 4.4
5 1 9 23.4 5.8
5 1 -10 9.4 5.1
5 0 -7 3.6 5.1
6 2 11 29.7 6
6 0 2 3.5 5.9
6 0 -3 -1.9 4.9
6 0 -4 12 5
-2 7 8 4.1 5.1
-2 5 6 -0.6 3.7
-2 5 -8 13.6 5.3
-2 4 5 4.3 4.6
-2 4 -7 104.09 6.7
-2 3 2 2 4.9
-2 3 -5 232.68 8.6
-1 6 11 46.7 4.3
-1 5 10 2.7 3.6
-1 4 9 103.89 5.2
-1 3 7 5.8 3.4
-1 2 5 481.85 7.5
-1 2 -8 303.87 6.1
0 7 14 0.1 4.4
0 3 10 0.5 4.9
0 3 -12 28.3 4.1
0 2 8 11.4 5.3
0 0 -4 166.58 8.1
1 4 13 66.69 3.9
1 4 -14 70.99 4.7
1 3 -13 -1.2 5.6
1 2 10 313.47 5.8
1 2 -12 37.9 3.8
1 1 -10 32.3 5.1
1 0 4 2637.24 17.9
2 3 13 34 5.1
2 3 -14 -1.1 4.3
2 2 11 110.69 4.3
2 1 -11 11.8 3.5
3 2 -13 3.9 4.2
3 1 -11 16.7 5.1
4 3 14 7 4.2
4 2 12 8.2 4
4 0 -8 88.69 4
5 3 14 117.29 5.8
5 2 12 18.3 5.7
5 0 -6 13.4 5.2
6 1 -8 64.39 4.6
6 0 1 14.8 5
6 0 0 52.19 5
6 0 -1 -1.3 5.1
6 0 -2 1.7 5.1
-2 8 9 79.79 5.9
-2 7 9 1.7 5.2
-2 7 -8 4.4 7.5
-2 6 8 6.5 4.8
-2 6 -8 0.6 6.2
-2 5 7 13.9 5.3
-2 3 3 1.2 5.1
-1 7 12 36.6 4.3
-1 1 1 333.77 10.7
-1 1 -4 73.59 7.2
0 6 14 -0.7 3.9
0 5 13 7.3 3.7
0 5 -13 1.6 4.4
0 4 12 50.39 5.1
0 2 -10 46.8 5.6
0 1 -8 24.6 5.2
0 0 -3 6159.88 26
1 6 16 18.6 5.5
1 5 15 8.3 5
1 3 12 272.47 4.5
1 0 -7 247.78 4.9
2 5 16 8.7 4.2
2 4 15 9.7 5.2
2 2 -12 0.1 5.3
2 1 9 452.05 5.8
2 0 -8 230.98 4.4
3 5 17 3.8 6.3
3 3 14 70.39 4.3
3 2 12 9.5 3.8
3 2 -12 28.4 5.3
3 0 -8 293.77 4.6
4 4 16 40.3 4.5
4 2 -12 -1.4 4.1
4 1 10 389.06 7.7
4 1 -10 1.4 3.7
4 0 -7 252.17 5.3
5 1 -9 2.9 4.1
5 0 -5 80.99 5.2
6 1 -7 -0.8 5.8
7 1 5 74.69 8.1
7 1 -3 -2.7 5.2
-3 8 1 37.2 6.6
-3 7 2 159.78 6.8
-3 7 1 2 5.7
-3 7 0 0.9 5.3
-3 7 -1 7.6 6.2
-2 4 6 23.7 5.3
-1 7 13 12.6 6
-1 6 12 5.1 4
-1 5 11 134.59 4.2
-1 4 10 152.88 5.2
-1 4 -10 1.8 4.8
-1 3 8 16.5 3.8
-1 3 -9 112.79 5
-1 2 6 187.08 6
0 4 -12 383.26 5.6
0 3 -11 286.97 5.7
0 1 6 202.08 6.9
1 4 14 61.29 3.8
1 4 -13 298.17 6.1
1 3 -12 90.79 5.5
1 2 -11 385.96 4.9
1 1 8 561.24 6.2
1 1 -9 1.8 5.3
1 0 -6 5.9 6.2
2 3 -13 13.5 4.2
2 2 12 443.46 6.3
2 1 -10 199.28 4.1
2 0 6 118.69 6
2 0 -7 101.09 4.9
3 4 16 -0.6 4.2
3 3 -13 0.2 4.4
3 1 10 262.77 6.2
3 1 -10 17.5 3.6
3 0 -7 263.47 5.5
4 2 -11 6.1 4.9
4 0 -6 330.97 5.9
5 1 -8 2 5.5
5 0 -4 159.48 5.6
6 1 -6 27.5 5.6
7 1 -2 1.5 5.7
-3 8 3 28.6 6.3
-3 8 2 20.4 5.5
-3 7 3 23.2 5.6
-3 6 2 15.7 4.9
-3 6 1 -0.9 5.1
-3 6 0 17.1 5.4
-3 6 -1 -0.4 5.8
-2 7 10 4.2 4.3
-2 6 9 115.59 4.2
-2 5 8 17.3 3.8
-2 3 4 16.2 3.5
-1 6 13 35.3 5.4
-1 5 12 27.9 4.8
-1 1 2 78.69 8.3
-1 1 -3 3 7.6
0 6 15 13 4.1
0 5 14 -1.8 3.7
0 5 -12 50.29 6
0 4 13 94.19 5.2
0 3 11 171.38 4.1
0 2 9 90.49 3.8
0 2 -9 237.78 5.4
0 1 -7 141.99 6
1 5 16 16.8 5.4
1 5 -13 104.59 6.4
1 3 13 1.6 5
1 2 11 15.6 3.6
2 5 17 4.6 5.6
2 4 -13 -0.2 5.7
2 3 14 11.9 3.8
2 2 -11 -6.2 4.8
2 1 -9 351.16 5.6
3 3 15 92.69 5.4
3 2 13 78.49 5.4
3 2 -11 82.79 5.3
3 1 -9 453.55 5.8
4 3 15 7.2 4.2
4 3 -12 100.59 5.9
4 2 13 0.6 4.9
4 1 -9 118.79 4
5 3 15 11.9 6.2
5 2 -10 27.5 4.4
5 0 -3 71.09 5.4
6 2 12 7.4 6.8
6 2 -8 11.4 5.5
6 1 -5 7.2 4.9
7 1 4 10.4 6.4
7 1 0 29.9 5.1
7 1 -1 20.2 5.7
-3 7 5 265.67 6.5
-3 7 4 0.6 5.2
-3 7 -2 -0.4 7.4
-3 6 3 82.69 6
-2 7 11 19.4 6.1
-2 6 10 5.1 5.1
-2 5 9 16.3 5.4
-2 5 -7 257.97 7.9
-2 4 7 5.8 3.8
-2 4 -6 106.59 6.7
-2 3 5 102.69 5.2
-1 4 11 7.6 4.8
-1 3 9 301.77 4.6
-1 2 7 482.75 6.8
0 4 -11 120.69 5.8
0 3 -10 15.7 5.2
0 1 7 182.68 6.5
1 4 15 8.9 5
1 4 -12 22.4 5.7
1 2 -10 24 3.6
1 1 9 225.18 5.8
1 1 -8 175.18 5.4
1 0 5 394.76 8.5
1 0 -5 477.85 6.5
2 4 16 4.7 4.1
2 3 -12 56.59 4.2
2 1 10 442.06 5.6
2 0 -6 16.2 3.7
3 4 17 6.8 6.1
3 3 -12 -0.1 4.2
3 0 7 48.7 5.5
3 0 -6 103.69 4.2
4 2 -10 11.8 5.2
4 1 -8 27.6 4.6
4 0 -5 78.29 4
5 2 13 4.5 5.9
5 2 -9 12.3 5.7
5 1 10 37.6 6.6
5 1 -7 6.5 3.8
5 0 -2 25.6 5.4
7 1 3 -0.7 5.4
7 1 2 3.5 5.6
7 1 1 9.5 5.4
-3 7 6 1.1 5.8
-3 6 5 139.19 5.4
-3 6 4 10.4 3.8
-3 6 -2 4.5 6.9
-3 5 2 121.69 5.8
-3 5 1 2.7 4.9
-3 5 0 2.9 5.4
-2 6 11 30 5
-2 4 8 10.1 3.5
-2 3 6 6.9 4.8
-1 6 14 89.59 6.3
-1 5 13 61.49 5.4
-1 3 10 60.89 5
-1 1 3 53.39 5.8
0 5 15 67.19 4.1
0 4 14 85.29 5.4
0 3 12 -2 3.5
0 2 10 125.19 4.1
0 1 -6 1.9 5.9
1 3 14 -2.7 5.3
1 3 -11 4.5 3.8
1 2 12 0.3 5
2 3 15 27.1 4.8
2 2 13 305.97 5.7
2 2 -10 11 4.7
2 1 -8 46.2 5
2 0 7 281.57 6.5
2 0 -5 218.78 6.3
3 2 -10 26.6 4.7
3 1 11 -0.4 5
3 1 -8 11.7 4.7
3 0 -5 1.2 3.4
4 3 16 53.99 5.6
4 3 -11 23.2 5
4 1 11 10.7 5.2
4 0 -4 1431.66 8.2
5 3 -10 0.5 5.3
5 1 -6 14.5 5.2
5 0 4 77.09 7
5 0 0 85.09 4.8
5 0 -1 791.32 7.6
6 2 -7 13.4 4.3
6 1 -4 28.4 3.9
-3 7 7 127.49 6.5
-3 6 6 50.89 5.9
-3 5 4 32.7 5.7
-3 5 3 67.79 5.3
-3 5 -1 59.39 6.5
-2 6 -7 3.8 6.1
-2 5 10 2.9 3.9
-2 4 9 565.14 6.5
-2 3 -4 13 7
-2 2 1 1021.6 10.6
-1 4 12 -4.2 3.5
-1 2 8 142.39 4
-1 1 4 5.9 6.9
0 5 -11 49.2 4.4
0 3 13 2.9 4.7
0 2 -8 7.3 3.5
0 1 8 215.58 5.9
0 0 1 4.4 7.7
1 5 17 0 4.4
1 5 -12 228.98 5.1
1 4 16 4.5 5.9
1 2 -9 2.1 5.2
1 1 10 201.28 5.2
1 1 -7 798.62 7.6
1 0 6 568.34 8.3
1 0 -4 351.76 6.6
2 4 17 16 4.3
2 4 -12 0.8 4.2
2 3 -11 8.2 3.8
2 1 11 916.31 7.8
3 4 -12 21.8 4.3
3 3 16 71.39 5.5
3 3 -11 48.4 3.9
3 2 14 104.19 5.8
4 2 14 -1.7 5.1
4 2 -9 47.2 3.7
4 1 -7 112.09 3.8
4 0 7 33.8 8.3
4 0 -3 411.26 6.4
5 2 -8 8 3.9
5 0 3 120.39 6.9
5 0 2 4 5
5 0 1 4.2 4.9
6 2 -6 83.49 5.3
6 1 -3 24.5 3.9
-3 7 8 -3.3 6.1
-3 6 7 6.3 5.6
-3 5 5 233.08 6.2
-2 7 -7 -0.8 5.8
-2 6 12 20 4.2
-2 5 11 146.89 5.5
-2 3 7 16.1 3.8
-2 2 3 34.1 5.8
-2 2 2 87.69 4.8
-2 2 0 0.1 5.4
-1 5 14 108.69 4.4
-1 4 13 3.4 4.7
-1 3 11 365.76 4.7
-1 1 5 501.15 8.1
0 6 -11 97.39 4.8
0 5 16 5 4.2
0 4 15 4 5.3
0 4 -10 -0.1 3.7
0 3 -9 36.2 5.1
0 2 11 64.99 3.7
0 0 2 1271.77 15.1
1 4 -11 18.8 3.8
1 3 15 36.5 5.6
1 3 -10 86.79 3.9
1 2 13 83.79 5.2
2 5 -12 6 5.4
2 3 16 76.79 6.1
2 2 14 6.9 5.3
2 2 -9 167.48 5.2
2 1 -7 172.98 5.5
2 0 -4 8.1 6.1
3 5 -12 1.4 6.1
3 2 -9 11.2 3.4
3 1 -7 3.8 3.4
3 0 -4 0.1 3.5
4 4 -11 3.2 5.8
4 3 -10 44.8 3.9
4 1 -6 203.58 5.4
4 0 -2 105.59 5.3
5 3 -9 3.3 5.7
5 2 14 27 6.1
5 1 -5 5.2 3.7
6 1 -2 -3.7 4.4
7 2 -3 259.37 5.2
-3 6 8 -1.6 5.8
-3 5 6 18.8 4
-3 4 3 -2.4 4.8
-3 4 2 101.69 5
-2 6 13 15.3 6.1
-2 5 12 -7.2 5.1
-2 4 10 83.49 4
-2 3 8 41.9 3.8
-2 2 4 505.85 6.1
-2 2 -1 211.48 8.8
-1 5 15 45.1 5.4
-1 2 9 420.26 5
0 3 14 131.49 5.4
0 2 12 72.09 5.2
0 1 9 114.59 5.1
0 1 -5 -1.6 6.6
0 0 3 5957.2 25
1 5 -11 125.49 6
1 4 17 69.89 5.8
1 0 -3 10.4 5.8
2 4 -11 9.5 4.1
2 3 -10 13.3 3.7
2 0 8 15.4 5.4
3 4 -11 23.3 4.2
3 3 17 62.99 6.1
3 3 -10 1.7 3.4
3 2 15 196.38 5.8
3 1 12 6.1 4
3 0 8 197.18 6.6
3 0 -3 132.99 5.6
4 2 -8 19.6 3.7
4 1 12 -1.1 4.8
5 2 -7 40.8 4.1
5 1 11 15.7 6.2
5 1 -4 296.57 5.8
6 3 -7 17.8 5.6
6 2 -5 9.7 4
6 1 -1 33.8 4.9
7 2 -2 -2.8 5
-3 6 9 19 5.8
-3 5 7 51.19 4.2
-3 4 5 463.05 6.8
-3 4 4 8.4 4.6
-3 4 1 18.6 5.2
-2 5 -6 56.19 6.7
-2 4 11 17.6 5.1
-2 3 9 21.8 5
-2 2 5 82.99 4
-1 7 -9 14.5 5.4
-1 4 14 10.4 3.9
-1 3 12 -3.5 3.6
-1 2 10 63.09 4.8
-1 1 6 42.7 4.6
0 5 -10 8.4 4
0 4 16 74.49 4.4
0 2 -7 20.2 3.6
0 0 4 155.48 6.3
1 6 -11 215.68 6
1 4 -10 167.48 5.7
1 3 16 1.9 5.7
1 3 -9 71.59 5
1 2 14 -5.3 5.3
1 2 -8 114.59 4.1
1 1 11 19.9 3.7
1 1 -6 24.5 4.2
1 0 7 397.26 6.2
2 5 -11 115.19 5.4
2 3 17 -0.1 5.5
2 2 15 110.79 5.3
2 2 -8 2.1 4.6
2 1 12 82.99 4.1
2 0 -3 157.98 7.1
3 2 -8 380.66 5.6
3 1 -6 25.1 3.6
4 4 -10 21.9 5.5
4 3 -9 4.4 3.7
4 2 15 13 4.3
4 1 -5 -2.4 5
4 0 -1 767.22 7.1
5 3 -8 5.5 5
5 2 -6 31 5.1
6 2 -4 5.7 4.9
6 1 0 64.79 5.2
7 2 -1 34 5.6
-3 6 10 30.8 6.2
-3 5 9 9.1 5.2
-3 5 8 3.1 4.1
-3 5 -2 112.59 9.2
-3 4 6 15.4 5.1
-3 4 0 1.6 5
-2 5 13 55.29 4.5
-2 4 12 12.3 5.1
-2 4 -5 0.9 5.6
-2 3 10 269.57 5.4
-2 2 6 146.89 4.3
-1 3 13 -1.8 5
-1 1 7 500.85 5.8
-1 1 -2 0.1 10.5
0 7 -10 -0.8 6
0 6 -10 -3.6 4.2
0 4 -9 21.3 3.9
0 3 15 -0.8 5
0 3 -8 183.58 4.5
0 2 13 53.49 5.2
0 1 10 48.4 3.9
0 0 5 1308.87 10
1 1 12 600.74 6.9
1 0 8 669.33 7.7
2 4 -10 241.18 5.9
2 3 -9 165.98 5.3
2 1 -6 20.1 3.7
2 0 9 89.39 5.4
3 5 -11 78.19 4.6
3 4 -10 2.3 4.8
3 3 -9 298.97 4.5
3 1 13 30.2 5.6
3 0 9 1.4 4.7
3 0 -2 599.74 7.5
4 2 -7 34 3.7
4 0 0 1.5 4.6
5 4 -9 5.7 4.2
5 2 15 67.29 6.5
5 1 -3 229.28 4.5
6 3 -6 11.7 4.1
6 1 1 109.29 5.6
7 2 0 8.1 5.5
-3 5 10 -3.2 5.3
-3 4 7 4.8 3.7
-2 5 14 9.6 6.3
-2 2 7 0 3.6
-1 4 15 102.99 4.2
-1 2 11 46.8 3.6
-1 1 8 8.4 4.8
0 4 17 18.6 4.7
0 1 11 189.68 5.6
0 0 6 219.98 7.3
1 5 -10 34.4 5.2
1 3 17 23.6 6
1 2 15 4.4 5.4
1 2 -7 0.5 4.9
1 0 -2 3.4 5.8
2 6 -11 66.89 4.7
2 2 16 -0.3 5.2
2 1 13 104.29 4.2
3 2 16 234.38 5.2
3 2 -7 -5.8 4.8
3 1 -5 28.3 4.5
4 5 -10 18.8 5.3
4 4 -9 13.4 5.1
4 3 -8 93.19 3.9
4 2 16 4.5 6.1
4 1 13 13.6 5.7
4 1 -4 52.59 4.8
4 0 8 9.6 7.2
5 3 -7 -0.5 3.9
5 2 -5 4.8 5
5 1 -2 4 5
6 4 -7 14.4 5.2
6 2 -3 10 4.8
6 1 8 40.1 10.6
6 1 2 8.5 4.9
7 3 -3 84.09 5.7
7 2 1 5.1 4.7
-3 5 11 25 5.4
-3 4 9 110.19 5.1
-3 4 8 9.5 3.8
-3 4 -1 1.6 5.5
-3 3 4 13.1 5.1
-3 3 3 -1.4 4.9
-2 7 -6 9.7 6.3
-2 6 -6 77.99 5.7
-2 4 13 49.7 4.2
-2 3 11 13.9 3.8
-2 2 8 126.59 4.2
-1 7 -8 60.29 5.5
-1 4 16 -0.5 5.8
-1 3 14 56.29 3.8
-1 2 12 -2.4 3.5
-1 1 9 3.4 5
0 5 -9 4.6 3.8
0 3 16 3.6 4.3
0 2 14 17.3 3.8
0 2 -6 93.09 5.7
0 1 -4 693.93 8.7
0 0 7 332.27 6.9
1 6 -10 56.19 5.8
1 4 -9 78.59 5.2
1 3 -8 6 5.1
1 1 13 18.1 5.1
1 1 -5 -1.1 4.5
1 0 9 15.4 4.6
2 5 -10 96.39 4.3
2 2 -7 145.99 4.2
2 1 -5 31.1 5.4
2 0 10 94.59 5.3
2 0 -2 485.35 7.1
3 5 -10 10.7 4.1
3 4 -9 60.29 4.7
3 3 -8 31.9 4.9
3 1 14 88.99 5.2
3 0 -1 52.39 5.3
4 2 -6 60.19 3.6
4 0 1 136.29 5.6
5 5 -9 15.5 4.4
5 4 -8 5.8 4
5 1 12 39.3 6.6
6 3 -5 -2.4 3.9
6 1 3 14.2 5.1
-3 4 10 35 5.6
-3 3 7 2.8 4.7
-3 3 6 8.3 3.7
-3 3 5 2.6 3.9
-3 3 2 56.89 5
-2 4 14 26.5 5.6
-2 3 12 2.9 3.7
-2 2 9 555.34 5.3
-1 3 15 9.5 5.4
-1 2 13 5.5 4.9
-1 1 10 34.3 4.7
0 7 -9 10.1 5.2
0 6 -9 2.3 5.1
0 4 -8 177.08 5.5
0 3 17 25.3 5.6
0 3 -7 10.8 4.8
0 2 15 40.2 5.5
0 1 12 24.2 3.4
0 0 8 19.3 5.2
1 7 -10 22.4 4.6
1 2 16 78.09 4.3
2 6 -10 55.49 5.9
2 4 -9 38.1 3.8
2 3 -8 21.3 3.5
2 2 17 3.1 5.3
2 1 14 71.49 4.2
3 6 -10 16.5 6
3 2 17 4.4 6.1
3 1 -4 0 4.9
3 0 10 178.98 6.2
4 5 -9 5.3 5.4
4 3 -7 7.7 4.9
4 1 -3 27.2 4.4
4 0 2 88.49 5.8
5 3 -6 13.3 3.9
5 2 -4 18.5 4.6
5 1 -1 409.66 6.1
6 4 -6 14.9 4.1
6 3 -4 -0.2 4.9
6 2 -2 10 3.9
6 1 4 128.99 6.1
7 3 -2 2.1 3.9
7 2 2 7.4 4.7
-3 5 12 4.5 4.4
-3 4 11 5.8 5.7
-3 3 8 15.4 5.2
-3 3 1 57.09 5.2
-2 4 15 10.2 6.2
-2 3 13 33.3 4.9
-2 2 10 0.1 3.3
-2 1 5 63.09 5.3
-2 1 4 967.3 8.8
0 1 13 9.3 5.1
1 5 -9 187.58 4.6
1 2 -6 137.59 5.6
1 1 14 0 3.8
1 0 10 15.8 3.5
2 7 -10 -2.1 4.4
2 0 11 8.5 5.2
3 5 -9 87.79 5.5
3 2 -6 5.2 3.5
4 4 -8 19.3 3.6
4 2 -5 19.6 3.5
4 1 14 -2.4 5.1
4 0 9 0.5 6.3
5 5 -8 0.2 4
5 4 -7 176.18 4.3
6 2 -1 -2 5
6 1 7 155.38 9.4
6 1 6 18.7 6.4
6 1 5 76.69 6
7 3 -1 24.9 5.6
7 2 3 2.5 5.1
-4 6 7 3.3 6.1
-4 6 6 56.69 5.7
-4 6 5 110.29 5.9
-4 6 4 4.5 5.8
-3 4 12 62.79 5.8
-3 3 9 82.29 4.1
-2 3 14 -2.9 5.5
-2 2 11 81.69 3.9
-2 1 7 8.4 4.7
-2 1 6 25.8 3.7
-2 1 3 4.4 4.4
-2 1 2 117.99 7
-1 3 16 -0.7 4.3
-1 2 14 3.5 3.7
-1 2 -4 801.62 10.5
-1 1 11 138.89 3.9
0 5 -8 5.3 5.2
0 2 16 1.3 4.1
0 0 9 220.28 4.5
1 6 -9 15.6 5.7
1 4 -8 6.2 4.9
1 3 -7 3.2 4.7
1 2 17 3 4.5
1 1 -4 291.57 6.1
1 0 11 17.5 4.9
1 0 -1 540.55 10.1
2 5 -9 21.7 4
2 4 -8 132.19 4.8
2 2 -6 82.59 3.9
2 1 15 98.79 4.4
2 1 -4 1728.43 9.6
2 0 -1 145.39 5.3
3 4 -8 118.29 4
3 3 -7 7.8 3.4
3 1 15 2.9 4.2
3 0 11 152.48 6.2
3 0 0 3.8 3.5
4 6 -9 5.3 4.4
4 3 -6 22.8 4.9
4 1 -2 34 4.8
4 0 3 144.09 7
5 6 -8 -4.9 5.8
5 3 -5 20.2 3.7
5 2 -3 50.89 4.9
5 1 13 4.7 6.5
5 1 0 84.29 3.8
6 5 -6 4.1 5.9
6 4 -5 9.7 4
6 3 -3 20.6 5
7 4 -3 36.1 4.4
7 2 4 -0.3 5.5
-4 6 3 0.7 5.8
-4 5 7 18.2 5.8
-4 5 6 51.09 6.2
-4 5 5 2.2 5.5
-4 5 4 61.19 5.3
-3 4 13 0.3 5.9
-3 3 11 -3.2 5.2
-3 3 10 29 4
-3 3 0 2.5 4.9
-3 2 6 3.8 4.8
-3 2 5 86.69 5.1
-3 2 4 2.3 4.6
-2 5 -5 89.29 5.8
-2 2 12 9.2 3.5
-2 1 8 87.19 4
-1 8 -7 13.3 6.1
-1 7 -7 90.19 5.5
-1 6 -7 1.2 5.1
-1 2 15 91.99 5.2
-1 1 12 23.5 3.8
-1 0 7 240.98 6.2
-1 0 6 1.3 4.4
-1 0 5 445.76 6.4
-1 0 4 334.87 6.6
-1 0 3 9.2 8.5
0 6 -8 112.39 5.7
0 2 -5 133.19 6.4
0 1 14 10 3.7
0 0 10 288.57 4.8
1 7 -9 16.1 4.3
1 1 15 53.09 3.9
1 0 12 68.19 5
2 6 -9 82.29 4.3
2 3 -7 30.5 3.7
2 1 16 162.28 5.9
2 0 12 16.2 3.9
3 6 -9 1.9 4.3
3 2 -5 0 4.8
3 1 -3 538.05 5.9
4 5 -8 95.69 3.9
4 4 -7 21.4 3.5
4 2 -4 162.08 5.4
4 1 15 2.6 5.9
5 5 -7 46.8 4
5 4 -6 33.6 3.7
6 2 0 76.69 5.1
7 4 -2 2.1 5.6
7 3 0 5.6 3.8
7 2 5 6.1 5.7
-4 6 2 220.38 7
-4 5 9 4.6 5.4
-4 5 8 10.8 4.4
-4 5 3 5.4 5.5
-3 3 12 12 5.7
-3 2 8 311.87 5.8
-3 2 7 71.09 3.9
-3 2 3 110.19 5.5
-2 8 -5 50.09 7.3
-2 3 15 69.29 4.4
-2 2 13 48.8 3.9
-2 1 10 477.05 6
-2 1 9 79.69 3.7
-2 1 1 133.79 7.1
-1 3 -5 330.47 7
-1 2 16 20.7 5.5
-1 1 13 -0.3 4.7
-1 0 8 80.49 3.7
0 8 -8 121.79 6.1
0 7 -8 10.6 5.3
0 4 -7 4.6 3.5
0 3 -6 526.15 7
0 2 17 -5.6 4.3
0 1 15 3.8 5.6
0 1 -3 1626.44 13.2
0 0 11 26 3.7
1 5 -8 -0.1 4.7
1 1 16 2.9 5.9
2 7 -9 2.7 4.3
2 5 -8 281.87 5.6
2 0 13 4.6 4.7
3 7 -9 0.7 4.4
3 5 -8 138.59 4
3 4 -7 27.5 4.8
3 3 -6 35.5 4.9
3 1 16 3.8 4.3
3 0 12 15 4.8
4 6 -8 14.3 5.2
4 0 10 8.9 5.6
5 6 -7 23.3 5
5 3 -4 10.3 4.7
5 2 -2 20.5 4.8
5 1 1 976 7.9
6 5 -5 5.7 5.7
6 4 -4 6.6 3.9
6 3 -2 4.8 5
7 3 1 33.2 5.5
7 2 7 61.49 7.3
7 2 6 0.6 5.7
-4 5 2 13.4 5.5
-4 4 8 3.3 5.6
-4 4 7 41.1 5.2
-4 4 6 43.2 4.1
-4 4 5 347.57 6.7
-4 4 4 9.1 5
-3 3 13 21.7 5.9
-3 2 10 62.69 5.4
-3 2 9 65.89 3.9
-3 2 2 175.88 6.1
-2 7 -5 -2.2 6.2
-2 6 -5 92.49 6.7
-2 2 14 68.79 5.1
-2 1 11 67.49 5.1
-1 1 14 5.6 5
-1 0 10 23.1 4.8
-1 0 9 67.59 3.9
-1 0 2 2.4 6.3
0 0 12 179.38 5.2
1 6 -8 29.2 5.4
1 4 -7 51.19 5.1
1 2 -5 0 4.1
1 0 13 161.98 4.3
2 4 -7 63.09 5.1
2 2 -5 3.1 3.7
2 1 17 15.2 6.1
2 1 -3 338.97 7.6
3 6 -8 6.3 5.6
3 0 13 40.9 5
3 0 1 311.67 7.1
4 7 -8 152.18 6
4 5 -7 4.4 3.6
4 4 -6 64.89 5.1
4 3 -5 -4.6 3.4
4 1 -1 3.9 3.3
4 0 4 16.5 6
5 5 -6 2.8 3.8
5 4 -5 10.4 3.5
5 1 14 215.48 7.8
6 2 1 172.98 5.2
7 4 -1 6 5.3
7 2 9 11.4 8.5
7 2 8 33.4 7.2
-4 6 1 10.1 6.3
-4 4 10 1.3 5.4
-4 4 9 4.4 4
-4 4 3 31.6 5.3
-3 3 14 59.19 6.4
-3 2 11 55.69 5.1
-2 4 -4 519.35 10
-2 2 15 -1.2 5.7
-2 1 12 36.3 5.2
-1 1 15 2.6 5.2
-1 0 11 159.48 5.3
0 5 -7 5.7 3.8
0 1 16 4.3 4
0 0 13 203.48 5.7
1 8 -8 56.89 5.6
1 7 -8 24.4 5.2
1 3 -6 8.3 3.5
1 1 17 21.2 4.5
1 1 -3 80.09 5.9
1 0 14 4 5.5
2 7 -8 6 5.2
2 6 -8 35.7 3.9
2 3 -6 17.3 3.7
2 0 14 1.8 5.4
2 0 0 53.49 5.1
3 7 -8 17.3 5.7
3 2 -4 176.48 4.1
3 1 -2 262.67 5.1
4 6 -7 7.2 4.7
4 2 -3 16.1 3.6
4 0 11 21.4 5.7
5 3 -3 2.6 4.9
5 2 -1 71.49 5.2
5 1 2 17.7 4.4
6 6 -5 36.1 5.5
6 5 -4 1.2 5.7
6 4 -3 2.8 3.8
6 3 -1 17.4 5
7 5 -2 17.4 6
7 3 2 10.2 5.3
-4 3 9 -1.2 5.1
-4 3 8 7.5 5.5
-4 3 7 13.5 5.6
-4 3 6 18.9 5.6
-4 3 5 43.8 5.5
-3 2 12 66.29 4.1
-3 2 1 54.99 5.4
-2 1 13 8 4.8
-2 0 7 96.89 5.1
-2 0 6 9.9 5.2
-1 8 -6 16.5 6.1
-1 0 12 1.7 4.8
0 8 -7 27.3 5.4
0 6 -7 -2.1 5.4
0 1 17 6.7 6
0 0 14 29.4 5.3
1 5 -7 38.3 5.3
1 -1 8 7.8 5
1 -1 7 159.28 5.8
1 -1 6 151.88 6.4
2 8 -8 -1.3 4.4
2 5 -7 53.69 4.9
3 5 -7 56.39 3.9
3 4 -6 2.3 4.6
3 3 -5 46 4.9
3 0 14 8.7 5.5
4 7 -7 9.3 5.4
4 5 -6 16.3 5
4 3 -4 6.8 4.7
4 1 0 32.9 4.6
4 0 12 36.7 6
5 6 -6 85.69 4.1
5 5 -5 124.59 5.6
5 4 -4 113.79 5.3
6 2 2 48.2 4
7 4 0 -0.2 3.8
-4 5 1 43.1 5.5
-4 4 2 484.85 7.5
-4 3 11 14 5.5
-4 3 10 4.1 4.2
-4 3 4 51.49 5.7
-3 3 -1 16.6 6.3
-3 2 13 53.79 4.3
-3 1 9 2.1 4.4
-3 1 8 140.99 4
-3 1 7 76.99 3.9
-3 1 6 103.59 4.1
-3 1 5 12.3 3.5
-3 1 4 112.49 5.2
-2 1 14 164.78 5.4
-2 1 0 927.71 12.2
-2 0 9 415.46 4.9
-2 0 8 222.98 4.3
-2 0 5 219.48 4.9
-2 0 4 10.3 6.2
-1 7 -6 0.9 5.5
-1 6 -6 20.6 4.5
-1 1 16 2.8 4.2
-1 0 13 5.2 5.2
0 7 -7 8.7 4
0 4 -6 130.99 4.2
0 2 -4 -3.5 6.5
0 -1 8 29.4 5.1
0 -1 7 133.99 5.9
0 -1 6 4.4 6.1
1 0 15 4.2 4.1
1 -1 9 26.7 3.6
1 -1 5 496.85 8.7
2 2 -4 97.29 4.6
2 0 15 8.9 4.1
3 6 -7 15.3 3.7
4 4 -5 41.9 3.7
4 2 -2 81.89 4.9
4 0 5 143.89 8.5
5 7 -6 33.3 4.1
5 1 3 184.58 6
6 6 -4 -7.3 5.7
6 5 -3 14.5 5.5
6 4 -2 -1.5 3.5
6 3 0 -3.1 4.8
7 5 -1 0.8 5.8
7 3 3 1.5 3.6
-4 3 3 8 5.1
-3 2 14 68.49 4.6
-3 1 11 389.46 5.7
-3 1 10 19.5 3.8
-3 1 3 325.47 6
-2 3 -3 421.56 11.9
-2 1 15 128.79 5.5
-2 0 11 10.6 4.9
-2 0 10 7.7 3.4
-1 4 -5 218.68 6.2
-1 0 14 8.1 5.5
-1 0 1 520.05 10.5
0 3 -5 208.98 4.8
0 0 15 160.18 4.5
0 -1 10 215.88 5.7
0 -1 9 19.1 3.6
0 -1 5 -0.2 4.7
1 8 -7 33.2 6
1 7 -7 10 5.7
1 6 -7 70.49 4
1 4 -6 41.5 3.5
1 2 -4 5.7 6.1
1 0 16 21.9 5.1
1 -1 11 48.7 5.3
1 -1 10 9.9 3.5
2 7 -7 21.8 4.9
2 6 -7 104.69 4.2
2 4 -6 0.3 3.7
2 3 -5 28.1 3.5
2 1 -2 79.59 6.9
2 0 16 17.6 5.8
2 -1 10 -1.2 4.6
2 -1 9 85.29 5.5
2 -1 8 353.56 6.2
2 -1 7 33 5.4
3 8 -7 -3.1 5.8
3 7 -7 31.2 4.1
3 5 -6 5 5
3 2 -3 1 3.5
3 1 -1 4.7 5.3
3 0 15 13 5.2
3 0 2 278.37 7.5
4 6 -6 29.3 3.7
4 0 13 1.9 5.5
5 6 -5 10 4.7
5 3 -2 35.4 3.6
5 2 0 1.3 3.5
6 2 3 196.98 5.6
7 4 1 43.7 4
7 3 4 -2.8 5
-4 4 1 15.7 5.8
-4 2 10 -3.4 5.7
-4 2 9 25.2 3.9
-4 2 8 6.3 3.6
-4 2 7 7.6 3.7
-4 2 6 0.5 3.6
-4 2 5 187.68 5.8
-3 1 13 184.88 5.6
-3 1 12 41.1 3.9
-2 0 12 1.7 3.5
-2 0 3 156.38 5.5
-1 0 15 17.4 5.9
-1 -1 9 0.8 5.1
-1 -1 8 164.28 5.3
-1 -1 7 725.33 7.4
0 5 -6 23.9 4.7
0 0 16 0.9 4.2
0 -1 11 497.95 5.5
0 -1 4 715.33 10.1
1 3 -5 52.49 3.9
1 0 17 6 5.5
1 0 0 3481.15 27
1 -1 12 191.18 5.7
2 8 -7 12.4 4.3
2 -1 11 22.8 5.2
2 -1 6 53.99 5.4
3 4 -5 20.3 4.9
3 3 -4 73.99 5
3 0 16 3.6 5.6
4 7 -6 7.8 4
4 5 -5 -2.1 3.5
4 4 -4 0 4.5
4 3 -3 53.79 3.8
4 1 1 13.3 4.9
5 7 -5 154.48 5.8
5 5 -4 51.09 3.8
5 4 -3 25.3 3.7
6 7 -4 15.5 4.6
6 6 -3 2.7 5.6
6 4 -1 33 3.6
6 3 1 19.4 5
7 6 -1 2.8 5.4
7 5 0 32.7 5.6
-4 6 0 8.1 7.4
-4 3 2 10 5
-4 2 12 6 5.9
-4 2 11 3.9 4.1
-4 2 4 189.08 5.9
-3 2 0 5.7 4.8
-3 1 14 23.6 5.9
-3 1 2 39.3 5.1
-2 8 -4 6.7 6
-2 5 -4 553.64 9.6
-2 0 14 10 5
-2 0 13 8.6 3.7
-1 3 -4 65.69 5.4
-1 2 -3 6.3 6.2
-1 0 16 27.3 5.9
-1 -1 11 176.68 5.3
-1 -1 10 28.2 3.6
-1 -1 6 15.3 4.2
-1 -1 5 0.1 6.2
0 8 -6 16.9 5.9
0 7 -6 5.9 4.8
0 6 -6 29.7 5.5
0 0 17 2.6 6.2
0 -1 13 165.98 5.3
0 -1 12 34.3 3.8
1 5 -6 1.6 3.8
1 -1 13 17 5.2
1 -1 4 69.79 6.9
2 5 -6 187.48 4.2
2 -1 12 7.7 5.4
3 6 -6 197.08 4.4
4 8 -6 -0.9 4.5
4 2 -1 189.08 5.5
4 0 14 77.09 6.3
5 6 -4 -2.8 4.6
5 3 -1 8.5 5
5 2 1 82.39 4.8
5 1 4 290.67 6.9
6 5 -2 48.6 4.1
6 2 4 216.68 5.9
7 4 2 3.8 3.8
7 3 5 8.9 5.2
-5 4 7 11.8 6.2
-5 4 6 -4.9 5.4
-4 5 0 0.1 6.7
-4 2 3 1.2 4.7
-3 0 11 19.4 5.1
-3 0 10 144.29 4.1
-3 0 9 352.16 4.8
-3 0 8 283.47 4.5
-3 0 7 255.27 4.6
-3 0 6 110.09 4.2
-2 7 -4 37.9 5.9
-2 0 15 1.2 6.1
-2 0 2 479.15 7.3
-1 8 -5 34.2 5.9
-1 5 -5 50.39 4.6
-1 -1 12 21.8 3.7
0 4 -5 41.3 5.2
0 -1 14 11.4 5.2
1 9 -6 92.99 5.9
1 6 -6 17 5.1
1 1 -2 144.09 6.4
1 -1 14 12.5 5.6
2 9 -6 47 6.3
2 6 -6 66.79 4.1
2 4 -5 426.96 5.2
2 2 -3 197.78 5.2
2 0 1 32.9 7.3
2 -1 13 63.69 5.6
3 8 -6 10.1 4.2
3 7 -6 17.6 4.1
3 5 -5 166.28 5.1
3 2 -2 1281.57 8.8
4 6 -5 12.5 3.6
4 0 15 20.7 5.6
5 5 -3 13.1 4.7
5 4 -2 62.89 5
6 7 -3 11.2 4.3
6 4 0 29.2 5
7 6 0 0.2 5.3
7 5 1 1.6 5.2
-5 5 4 2.1 5.4
-5 4 5 11.5 5.9
-5 3 8 14.6 5.9
-4 1 11 1.2 5.2
-4 1 10 13.6 4.2
-4 1 9 4.8 3.9
-4 1 8 107.29 4.2
-4 1 7 31.1 4
-4 1 6 108.69 5.2
-3 0 13 -3.2 4.9
-3 0 12 157.48 4.2
-3 0 5 -2.9 3.4
-2 6 -4 19.7 5.2
-2 -1 11 17.5 5
-2 -1 10 184.68 4
-2 -1 9 328.77 4.7
-2 -1 8 45.5 3.6
-2 -1 7 155.38 4
-2 -1 6 20.5 5.3
-1 7 -5 7.1 5.3
-1 -1 14 9.5 5.1
-1 -1 13 40.9 3.8
-1 -1 4 270.77 6.1
0 -1 15 19.4 5.8
1 8 -6 12.7 4.2
1 7 -6 77.79 4.3
1 4 -5 39.2 3.6
1 -1 15 25.6 5.8
2 8 -6 46.6 4.4
2 7 -6 9.7 3.7
2 3 -4 411.16 5.4
2 -1 14 6.3 5.5
2 -1 5 602.24 11.7
3 4 -4 120.09 5.2
3 3 -3 147.19 5.1
3 1 0 107.19 5.5
4 8 -5 1.6 5.4
4 7 -5 11.6 3.7
4 5 -4 2.7 3.4
4 4 -3 25.6 4.7
4 3 -2 410.96 5.2
5 8 -4 -2 5.6
5 7 -4 7.5 3.8
6 6 -2 27.3 4
6 5 -1 41.3 3.9
6 3 2 148.09 4.1
6 2 5 20.3 4.9
7 4 3 0.8 3.7
7 3 6 6.4 5.5
-5 4 4 0.5 5.2
-5 3 7 19.4 4.4
-5 3 6 90.99 6.1
-4 3 1 10.5 5
-4 2 2 339.37 6.2
-4 1 12 0.7 4.1
-4 1 5 4.4 3.7
-3 1 1 78.09 5.5
-3 0 14 1.9 5.7
-3 0 4 4.8 3.6
-2 -1 13 12.2 4.8
-2 -1 12 61.89 3.8
-2 -1 5 31.9 5.6
-1 -1 15 24.6 5.8
0 9 -5 17.6 6.1
0 5 -5 15.8 4.6
0 3 -4 30.5 5.7
0 -1 16 7.1 6.1
0 -1 3 1580.74 13.3
1 3 -4 12.6 5.3
1 2 -3 157.58 7.3
1 -1 16 9.7 5.8
2 5 -5 197.68 4.3
2 1 -1 45.6 6.8
2 -1 15 16.4 6.1
3 7 -5 26.1 5.1
3 6 -5 59.49 3.8
3 -1 12 2.3 5.7
3 -1 11 19.5 5.5
3 -1 10 112.49 6
3 -1 9 154.38 7.2
4 6 -4 3 5
4 2 0 16.5 4.4
4 1 2 8.7 5.1
5 6 -3 11.8 3.7
5 3 0 7.3 3.7
5 2 2 154.18 5.5
5 1 5 27.1 5.3
6 7 -2 7.9 5.1
6 4 1 1.7 4.4
7 6 1 25.7 5.3
7 5 2 6.4 5.2
7 4 4 4.5 4.8
-5 5 3 0.3 6.2
-5 3 5 45.8 5.3
-5 2 9 5.2 6
-5 2 8 35.6 5.8
-5 2 7 7.2 5
-4 4 0 46.3 6.3
-4 1 4 130.69 4.3
-3 0 3 130.99 5.6
-2 -1 14 9.9 5.7
-1 -1 16 3.1 6.1
-1 -1 3 79.49 6.1
0 8 -5 -0.7 5.9
0 6 -5 84.89 5.2
0 2 -3 13.9 4.4
1 9 -5 3.9 6.1
1 5 -5 31.3 3.7
2 9 -5 24.1 6.1
2 6 -5 175.18 5.5
2 -1 16 1.8 5.9
3 9 -5 49.3 4.4
3 8 -5 19.5 4.1
3 5 -4 72.39 4.9
3 0 3 121.19 7.3
3 -1 13 9 5.6
3 -1 8 70.89 6.7
4 7 -4 19.9 4.9
4 0 6 79.99 8.6
5 7 -3 42.6 4.7
5 5 -2 7.2 3.6
5 4 -1 100.89 3.8
6 8 -2 30.3 4.5
6 6 -1 1.2 3.9
6 5 0 44.1 5.1
6 3 3 20.5 4.9
6 2 6 348.67 7.5
7 3 7 -1.2 5.2
-5 4 3 3 5.1
-5 3 4 33.8 5.6
-5 2 6 12.8 5.6
-4 1 3 258.37 6
-4 0 12 4.9 5.9
-4 0 11 27.3 4
-4 0 10 7.1 3.9
-4 0 9 168.18 4.3
-4 0 8 91.89 4.1
-4 0 7 245.58 4.4
-4 0 6 327.37 5.8
-3 -1 12 15.2 5.2
-3 -1 11 14.9 3.7
-3 -1 10 18.6 3.7
-3 -1 9 440.86 5.1
-3 -1 8 8.7 3.4
-3 -1 7 10.9 4.5
-2 0 1 143.99 5.6
-2 -1 15 -4.4 4.5
-2 -1 4 1635.24 9.5
-1 4 -4 143.59 5.6
-1 -2 10 32.5 4.6
-1 -2 9 -0.8 4.7
0 7 -5 108.69 4.4
0 -2 11 47.8 5.4
0 -2 10 39.6 5
0 -2 9 216.88 5.6
0 -2 8 12.7 4.8
1 8 -5 -4.4 5.6
1 7 -5 -3.9 5.1
1 6 -5 88.89 5.1
2 8 -5 119.29 4.4
2 7 -5 38.6 3.9
2 4 -4 10.8 3.3
2 2 -2 1710.23 10.8
3 2 -1 206.08 6.1
3 -1 14 -0.9 5.7
4 9 -4 10.6 4.5
4 8 -4 4.8 4.1
4 5 -3 20.5 3.4
4 4 -2 17.8 4.7
4 3 -1 12.1 4.4
5 8 -3 53.89 4
5 6 -2 48.2 5.1
6 7 -1 -0.2 5.4
7 7 1 5.7 6
7 5 3 5.5 5.3
7 4 5 2 4.8
7 3 8 69.29 6.4
-5 2 5 43.6 5.4
-5 1 10 1.1 6.2
-5 1 9 6.8 5.9
-5 1 8 28.5 5.2
-4 0 13 63.99 4.8
-4 0 5 78.89 5.6
-3 7 -2 1.2 7.4
-3 -1 14 7.8 6
-3 -1 13 7.7 3.9
-3 -1 6 21.2 3.6
-2 8 -3 111.69 6.8
-1 -2 13 2.6 5.4
-1 -2 12 33.4 3.9
-1 -2 11 360.66 4.8
-1 -2 8 108.69 4.1
-1 -2 7 2 5.1
0 -2 13 13.5 4.9
0 -2 12 465.55 5.4
0 -2 7 21.2 5
1 4 -4 1.6 4.9
1 -1 3 1.4 7.4
1 -2 12 109.29 5.8
1 -2 11 82.39 5.6
1 -2 10 83.69 5.4
1 -2 9 84.09 5.4
2 3 -3 42.7 4.2
3 9 -4 8.8 5.8
3 7 -4 100.39 4.9
3 6 -4 3.4 3.6
3 4 -3 31.8 3.6
3 3 -2 931.01 7.8
3 -1 15 6.3 6
4 6 -3 157.08 5
5 5 -1 30.5 4.8
5 4 0 15.8 4.5
5 3 1 66.49 3.8
5 2 3 268.37 6
5 1 6 153.18 7
6 8 -1 10 5.9
6 6 0 5.9 5.4
6 5 1 76.59 4.7
6 4 2 15.3 3.4
6 3 4 -1.7 4.4
7 6 2 7.7 3.9
-5 3 3 10.5 5.4
-5 2 4 29.2 5.4
-5 1 7 3.3 4
-5 1 6 6.4 5.1
-4 2 1 21.8 4.6
-3 0 2 560.14 6.5
-3 -1 5 24.9 3.4
-2 4 -3 185.58 7.4
-2 -1 3 324.27 6
-2 -2 12 2.3 5.2
-2 -2 11 -0.2 3.7
-2 -2 10 12.6 3.7
-2 -2 9 159.58 3.9
-2 -2 8 4 3.4
-1 0 0 3518.15 27.7
-1 -2 14 2.3 5
-1 -2 6 135.79 5.6
0 9 -4 17.8 5.5
0 4 -4 102.79 4.1
0 -2 15 7.4 5.7
0 -2 14 10.4 4
0 -2 6 95.99 5.7
1 -2 14 7.4 5.7
1 -2 13 179.18 4.8
1 -2 8 294.07 6.4
2 9 -4 -0.7 5.3
2 5 -4 0.6 3.7
3 8 -4 34.2 4.2
3 1 1 194.48 6.5
4 9 -3 38.6 6.1
4 8 -3 18.4 5.2
4 7 -3 3.1 3.4
4 2 1 21.1 4.4
4 1 3 232.78 6.5
5 9 -2 1.8 5.8
5 8 -2 6.6 5.2
5 7 -2 -1 3.6
6 2 7 6.8 5.4
7 7 2 19.7 5.9
7 5 4 35.1 5.4
7 4 6 1.9 4.7
7 3 9 7 6.3
-5 5 2 2.2 5.8
-5 1 5 64.09 5.3
-4 3 0 75.09 5.6
-4 1 2 10.1 3.6
-4 0 4 1409.96 8.2
-4 -1 12 9.4 5.2
-4 -1 11 4.3 3.8
-4 -1 10 -1.3 3.8
-4 -1 9 125.99 4.1
-4 -1 8 36.4 4.7
-4 -1 7 119.19 5
-3 1 0 104.89 5.7
-3 -1 4 0.1 3.6
-2 -2 14 0.8 5.4
-2 -2 13 1.3 4
-2 -2 7 149.69 4.2
-2 -2 6 87.79 5.2
-1 -1 2 135.69 6.7
-1 -2 15 6.6 4.4
0 8 -4 64.99 5.7
0 5 -4 202.78 5.4
0 -2 16 13.5 6.2
1 9 -4 2.6 4.2
1 5 -4 20.9 4.8
1 3 -3 58.39 6.4
1 1 -1 41.7 8.9
1 -2 15 -2.2 5.8
1 -2 7 167.68 6.1
2 8 -4 37.5 4.9
2 7 -4 5.5 5.1
2 6 -4 10 3.5
3 5 -3 527.55 5.3
4 5 -2 354.66 4.6
4 4 -1 81.59 5
4 3 0 2.8 4.4
5 6 -1 12.4 3.6
6 8 0 86.49 6.1
6 7 0 12.8 3.9
6 6 1 29.9 5
6 4 3 60.19 4.9
7 6 3 26.6 3.8
-5 0 10 19.5 4.4
-5 0 9 1.7 3.9
-5 0 8 -6.1 4
-3 -2 12 30 3.7
-3 -2 11 88.99 4
-3 -2 10 20.9 3.6
-3 -2 9 10.7 3.5
-2 -2 15 -2.2 4.3
-1 -2 5 0.3 4.1
0 -1 2 224.98 8.6
1 8 -4 171.08 4.7
2 4 -3 5.3 3.5
3 6 -3 721.63 5.7
4 6 -2 -6 3.4
5 3 2 105.69 4
6 5 2 107.19 3.9
