#------------------------------------------------------------------------------
#$Date: 2019-11-24 19:40:39 +0200 (Sun, 24 Nov 2019) $
#$Revision: 239195 $
#$URL: file:///home/coder/svn-repositories/cod/cif/1/55/58/1555870.cif $
#------------------------------------------------------------------------------
#
# This file is available in the Crystallography Open Database (COD),
# http://www.crystallography.net/
#
# All data on this site have been placed in the public domain by the
# contributors.
#
data_1555870
loop_
_publ_author_name
'Guo, Jing'
'Lin, Lili'
'Liu, Yangbin'
'Li, Xiangqiang'
'Liu, Xiaohua'
'Feng, Xiaoming'
_publ_section_title
;
 Nickel(II)-Catalyzed Enantioselective \a-Vinylation of \b-Keto
 Amides/Esters with Hypervalent Iodine Salts.
;
_journal_issue                   21
_journal_name_full               'Organic letters'
_journal_page_first              5540
_journal_page_last               5543
_journal_paper_doi               10.1021/acs.orglett.6b02785
_journal_volume                  18
_journal_year                    2016
_chemical_absolute_configuration rmad
_chemical_formula_moiety         'C20 H21 N O2'
_chemical_formula_sum            'C20 H21 N O2'
_chemical_formula_weight         307.38
_space_group_crystal_system      triclinic
_space_group_IT_number           1
_space_group_name_Hall           'P 1'
_space_group_name_H-M_alt        'P 1'
_atom_sites_solution_hydrogens   geom
_atom_sites_solution_primary     direct
_audit_creation_date             2015-07-10
_audit_creation_method
;
Olex2 1.2
(compiled 2015.01.26 svn.r3150 for OlexSys, GUI svn.r4998)
;
_cell_angle_alpha                115.442(7)
_cell_angle_beta                 109.848(6)
_cell_angle_gamma                92.591(5)
_cell_formula_units_Z            1
_cell_length_a                   7.0663(4)
_cell_length_b                   8.3624(5)
_cell_length_c                   8.9048(7)
_cell_measurement_reflns_used    4838
_cell_measurement_temperature    293
_cell_measurement_theta_max      72.6270
_cell_measurement_theta_min      6.0820
_cell_volume                     435.48(6)
_computing_cell_refinement
;
CrysAlisPro, Agilent Technologies,
Version 1.171.37.35 (release 13-08-2014 CrysAlis171 .NET)
(compiled Aug 13 2014,18:06:01)
;
_computing_data_collection
;
CrysAlisPro, Agilent Technologies,
Version 1.171.37.35 (release 13-08-2014 CrysAlis171 .NET)
(compiled Aug 13 2014,18:06:01)
;
_computing_data_reduction
;
CrysAlisPro, Agilent Technologies,
Version 1.171.37.35 (release 13-08-2014 CrysAlis171 .NET)
(compiled Aug 13 2014,18:06:01)
;
_computing_molecular_graphics    'Olex2 (Dolomanov et al., 2009)'
_computing_publication_material  'Olex2 (Dolomanov et al., 2009)'
_computing_structure_refinement  'ShelXL (Sheldrick, 2008)'
_computing_structure_solution    'ShelXT (Sheldrick, 2015)'
_diffrn_ambient_temperature      293
_diffrn_detector                 'CCD plate'
_diffrn_detector_area_resol_mean 15.9595
_diffrn_detector_type            EosS2
_diffrn_measured_fraction_theta_full 0.994
_diffrn_measured_fraction_theta_max 0.979
_diffrn_measurement_details
;
#__ type_ start__ end____ width___ exp.time_
  1 omega  -31.00   53.00   1.0000    1.0000
omega____ theta____ kappa____ phi______ frames
    -       36.2921  -57.0000 -180.0000 84

#__ type_ start__ end____ width___ exp.time_
  2 omega  -31.00   63.00   1.0000    1.0000
omega____ theta____ kappa____ phi______ frames
    -       36.2921  -77.0000 -120.0000 94

#__ type_ start__ end____ width___ exp.time_
  3 omega   17.00  105.00   1.0000    1.0000
omega____ theta____ kappa____ phi______ frames
    -       36.2921   38.0000  150.0000 88

#__ type_ start__ end____ width___ exp.time_
  4 omega   10.00  104.00   1.0000    1.0000
omega____ theta____ kappa____ phi______ frames
    -       36.2921   77.0000   60.0000 94

#__ type_ start__ end____ width___ exp.time_
  5 omega   23.00   90.00   1.0000    1.0000
omega____ theta____ kappa____ phi______ frames
    -       36.2921 -125.0000   90.0000 67

#__ type_ start__ end____ width___ exp.time_
  6 omega    1.00   75.00   1.0000    1.0000
omega____ theta____ kappa____ phi______ frames
    -       36.2921  -99.0000  120.0000 74

#__ type_ start__ end____ width___ exp.time_
  7 omega    1.00   75.00   1.0000    1.0000
omega____ theta____ kappa____ phi______ frames
    -       36.2921  -99.0000    0.0000 74

#__ type_ start__ end____ width___ exp.time_
  8 omega    7.00  108.00   1.0000    1.0000
omega____ theta____ kappa____ phi______ frames
    -       36.2921   19.0000    0.0000 101

#__ type_ start__ end____ width___ exp.time_
  9 omega  -31.00   53.00   1.0000    1.0000
omega____ theta____ kappa____ phi______ frames
    -       36.2921  -57.0000  -30.0000 84

#__ type_ start__ end____ width___ exp.time_
 10 omega   20.00  104.00   1.0000    1.0000
omega____ theta____ kappa____ phi______ frames
    -       36.2921   57.0000 -120.0000 84

#__ type_ start__ end____ width___ exp.time_
 11 omega    5.00   33.00   1.0000    1.0000
omega____ theta____ kappa____ phi______ frames
    -       38.0000   88.0000  -53.8339 28

#__ type_ start__ end____ width___ exp.time_
 12 omega    4.00   32.00   1.0000    1.0000
omega____ theta____ kappa____ phi______ frames
    -       38.0000   90.0000 -111.3124 28

#__ type_ start__ end____ width___ exp.time_
 13 omega   12.00   40.00   1.0000    1.0000
omega____ theta____ kappa____ phi______ frames
    -       42.0000   83.0000   26.1602 28

#__ type_ start__ end____ width___ exp.time_
 14 omega   12.00   40.00   1.0000    1.0000
omega____ theta____ kappa____ phi______ frames
    -       42.0000   83.0000  -48.6692 28

#__ type_ start__ end____ width___ exp.time_
 15 omega   14.00   46.00   1.0000    1.0000
omega____ theta____ kappa____ phi______ frames
    -       42.0000   80.0000 -178.6152 32

#__ type_ start__ end____ width___ exp.time_
 16 omega   16.00   45.00   1.0000    1.0000
omega____ theta____ kappa____ phi______ frames
    -       46.0000   82.0000  154.9354 29

#__ type_ start__ end____ width___ exp.time_
 17 omega   18.00   46.00   1.0000    1.0000
omega____ theta____ kappa____ phi______ frames
    -       46.0000   80.0000  -10.1554 28

#__ type_ start__ end____ width___ exp.time_
 18 omega   18.00   46.00   1.0000    1.0000
omega____ theta____ kappa____ phi______ frames
    -       46.0000   80.0000  -34.7251 28

#__ type_ start__ end____ width___ exp.time_
 19 omega   16.00   45.00   1.0000    1.0000
omega____ theta____ kappa____ phi______ frames
    -       46.0000   82.0000  115.7354 29

#__ type_ start__ end____ width___ exp.time_
 20 omega   25.00  117.00   1.0000    1.0000
omega____ theta____ kappa____ phi______ frames
    -       50.0000   74.0000   87.4508 92

#__ type_ start__ end____ width___ exp.time_
 21 omega   24.00  117.00   1.0000    1.0000
omega____ theta____ kappa____ phi______ frames
    -       50.0000   76.0000  126.1041 93

#__ type_ start__ end____ width___ exp.time_
 22 omega   27.00  122.00   1.0000    1.0000
omega____ theta____ kappa____ phi______ frames
    -       54.0000   77.0000 -117.3702 95

#__ type_ start__ end____ width___ exp.time_
 23 omega   29.00  121.00   1.0000    1.0000
omega____ theta____ kappa____ phi______ frames
    -       54.0000   74.0000   34.3303 92

#__ type_ start__ end____ width___ exp.time_
 24 omega   37.00  129.00   1.0000    1.0000
omega____ theta____ kappa____ phi______ frames
    -       62.0000   74.0000 -171.9716 92

#__ type_ start__ end____ width___ exp.time_
 25 omega   90.00  175.00   1.0000    1.5000
omega____ theta____ kappa____ phi______ frames
    -      108.0000   61.0000  -60.0000 85

#__ type_ start__ end____ width___ exp.time_
 26 omega   81.00  176.00   1.0000    1.5000
omega____ theta____ kappa____ phi______ frames
    -      108.0000   77.0000    0.0000 95

#__ type_ start__ end____ width___ exp.time_
 27 omega   90.00  175.00   1.0000    1.5000
omega____ theta____ kappa____ phi______ frames
    -      108.0000   61.0000   90.0000 85

#__ type_ start__ end____ width___ exp.time_
 28 omega   90.00  175.00   1.0000    1.5000
omega____ theta____ kappa____ phi______ frames
    -      108.0000   61.0000    0.0000 85

#__ type_ start__ end____ width___ exp.time_
 29 omega   81.00  176.00   1.0000    1.5000
omega____ theta____ kappa____ phi______ frames
    -      108.0000   77.0000   60.0000 95

#__ type_ start__ end____ width___ exp.time_
 30 omega   39.00  109.00   1.0000    1.5000
omega____ theta____ kappa____ phi______ frames
    -      108.0000  -94.0000  -30.0000 70

#__ type_ start__ end____ width___ exp.time_
 31 omega   81.00  176.00   1.0000    1.5000
omega____ theta____ kappa____ phi______ frames
    -      108.0000   77.0000 -180.0000 95

#__ type_ start__ end____ width___ exp.time_
 32 omega   81.00  176.00   1.0000    1.5000
omega____ theta____ kappa____ phi______ frames
    -      108.0000   77.0000  -30.0000 95

#__ type_ start__ end____ width___ exp.time_
 33 omega   81.00  176.00   1.0000    1.5000
omega____ theta____ kappa____ phi______ frames
    -      108.0000   77.0000  120.0000 95

#__ type_ start__ end____ width___ exp.time_
 34 omega   81.00  176.00   1.0000    1.5000
omega____ theta____ kappa____ phi______ frames
    -      108.0000   77.0000  150.0000 95

#__ type_ start__ end____ width___ exp.time_
 35 omega   90.00  175.00   1.0000    1.5000
omega____ theta____ kappa____ phi______ frames
    -      108.0000   61.0000  -90.0000 85

#__ type_ start__ end____ width___ exp.time_
 36 omega   81.00  176.00   1.0000    1.5000
omega____ theta____ kappa____ phi______ frames
    -      108.0000   77.0000  -90.0000 95

#__ type_ start__ end____ width___ exp.time_
 37 omega   39.00  109.00   1.0000    1.5000
omega____ theta____ kappa____ phi______ frames
    -      108.0000  -94.0000 -150.0000 70

#__ type_ start__ end____ width___ exp.time_
 38 omega   81.00  176.00   1.0000    1.5000
omega____ theta____ kappa____ phi______ frames
    -      108.0000   77.0000 -150.0000 95

#__ type_ start__ end____ width___ exp.time_
 39 omega   40.00   98.00   1.0000    1.5000
omega____ theta____ kappa____ phi______ frames
    -      108.0000  -45.0000 -150.0000 58

#__ type_ start__ end____ width___ exp.time_
 40 omega   81.00  176.00   1.0000    1.5000
omega____ theta____ kappa____ phi______ frames
    -      108.0000   77.0000   30.0000 95

#__ type_ start__ end____ width___ exp.time_
 41 omega   81.00  176.00   1.0000    1.5000
omega____ theta____ kappa____ phi______ frames
    -      108.0000   77.0000  -60.0000 95

#__ type_ start__ end____ width___ exp.time_
 42 omega   90.00  175.00   1.0000    1.5000
omega____ theta____ kappa____ phi______ frames
    -      108.0000   61.0000 -180.0000 85

#__ type_ start__ end____ width___ exp.time_
 43 omega   87.00  178.00   1.0000    1.5000
omega____ theta____ kappa____ phi______ frames
    -      108.0000   30.0000    0.0000 91

#__ type_ start__ end____ width___ exp.time_
 44 omega   81.00  176.00   1.0000    1.5000
omega____ theta____ kappa____ phi______ frames
    -      108.0000   77.0000   90.0000 95

#__ type_ start__ end____ width___ exp.time_
 45 omega   40.00  135.00   1.0000    1.5000
omega____ theta____ kappa____ phi______ frames
    -      108.0000  -77.0000   30.0000 95

#__ type_ start__ end____ width___ exp.time_
 46 omega   90.00  175.00   1.0000    1.5000
omega____ theta____ kappa____ phi______ frames
    -      108.0000   61.0000 -150.0000 85

#__ type_ start__ end____ width___ exp.time_
 47 omega   39.00  109.00   1.0000    1.5000
omega____ theta____ kappa____ phi______ frames
    -      108.0000  -94.0000   90.0000 70

#__ type_ start__ end____ width___ exp.time_
 48 omega   90.00  175.00   1.0000    1.5000
omega____ theta____ kappa____ phi______ frames
    -      108.0000   61.0000  150.0000 85

#__ type_ start__ end____ width___ exp.time_
 49 omega   90.00  119.00   1.0000    1.5000
omega____ theta____ kappa____ phi______ frames
    -      108.0000   30.0000  150.0000 29

#__ type_ start__ end____ width___ exp.time_
 50 omega   82.00  132.00   1.0000    1.5000
omega____ theta____ kappa____ phi______ frames
    -      108.0000   77.0000 -120.0000 50
;
_diffrn_measurement_device       'four-circle diffractometer'
_diffrn_measurement_device_type  'New Gemini, Dual, Cu at zero, EosS2'
_diffrn_measurement_method       '\w scans'
_diffrn_orient_matrix_UB_11      -0.0880452000
_diffrn_orient_matrix_UB_12      -0.2027353000
_diffrn_orient_matrix_UB_13      -0.0717749000
_diffrn_orient_matrix_UB_21      0.1815868000
_diffrn_orient_matrix_UB_22      -0.0491132000
_diffrn_orient_matrix_UB_23      -0.0562770000
_diffrn_orient_matrix_UB_31      0.1259754000
_diffrn_orient_matrix_UB_32      0.0180438000
_diffrn_orient_matrix_UB_33      0.1878637000
_diffrn_radiation_monochromator  graphite
_diffrn_radiation_probe          x-ray
_diffrn_radiation_type           CuK\a
_diffrn_radiation_wavelength     1.54184
_diffrn_reflns_av_R_equivalents  0.0261
_diffrn_reflns_av_unetI/netI     0.0240
_diffrn_reflns_Laue_measured_fraction_full 0.994
_diffrn_reflns_Laue_measured_fraction_max 0.979
_diffrn_reflns_limit_h_max       8
_diffrn_reflns_limit_h_min       -8
_diffrn_reflns_limit_k_max       10
_diffrn_reflns_limit_k_min       -10
_diffrn_reflns_limit_l_max       10
_diffrn_reflns_limit_l_min       -10
_diffrn_reflns_number            8385
_diffrn_reflns_point_group_measured_fraction_full 0.895
_diffrn_reflns_point_group_measured_fraction_max 0.874
_diffrn_reflns_theta_full        67.684
_diffrn_reflns_theta_max         72.917
_diffrn_reflns_theta_min         5.998
_diffrn_source                   'Enhance (Cu) X-ray Source'
_exptl_absorpt_coefficient_mu    0.595
_exptl_absorpt_correction_T_max  1.00000
_exptl_absorpt_correction_T_min  0.43351
_exptl_absorpt_correction_type   multi-scan
_exptl_absorpt_process_details
;
CrysAlisPro, Agilent Technologies,
Version 1.171.37.35 (release 13-08-2014 CrysAlis171 .NET)
(compiled Aug 13 2014,18:06:01)
Empirical absorption correction using spherical harmonics,
 implemented in SCALE3 ABSPACK scaling algorithm.
;
_exptl_crystal_colour            'clear light colourless'
_exptl_crystal_colour_lustre     clear
_exptl_crystal_colour_modifier   light
_exptl_crystal_colour_primary    colourless
_exptl_crystal_density_diffrn    1.172
_exptl_crystal_description
;
;
_exptl_crystal_F_000             164
_exptl_crystal_size_max          0.5
_exptl_crystal_size_mid          0.4
_exptl_crystal_size_min          0.3
_refine_diff_density_max         0.271
_refine_diff_density_min         -0.479
_refine_diff_density_rms         0.118
_refine_ls_abs_structure_details
;
 Flack x determined using 1271 quotients [(I+)-(I-)]/[(I+)+(I-)]
 (Parsons, Flack and Wagner, Acta Cryst. B69 (2013) 249-259).
;
_refine_ls_abs_structure_Flack   0.04(17)
_refine_ls_extinction_method     none
_refine_ls_goodness_of_fit_ref   1.125
_refine_ls_hydrogen_treatment    constr
_refine_ls_matrix_type           full
_refine_ls_number_parameters     211
_refine_ls_number_reflns         3052
_refine_ls_number_restraints     3
_refine_ls_restrained_S_all      1.124
_refine_ls_R_factor_all          0.0673
_refine_ls_R_factor_gt           0.0669
_refine_ls_shift/su_max          0.000
_refine_ls_shift/su_mean         0.000
_refine_ls_structure_factor_coef Fsqd
_refine_ls_weighting_details
'w=1/[\s^2^(Fo^2^)+(0.1120P)^2^+0.0082P] where P=(Fo^2^+2Fc^2^)/3'
_refine_ls_weighting_scheme      calc
_refine_ls_wR_factor_gt          0.1472
_refine_ls_wR_factor_ref         0.1484
_reflns_Friedel_coverage         0.786
_reflns_Friedel_fraction_full    0.796
_reflns_Friedel_fraction_max     0.770
_reflns_number_gt                3005
_reflns_number_total             3052
_reflns_threshold_expression     'I > 2\s(I)'
_cod_data_source_file            ol6b02785_si_003.cif
_cod_data_source_block           fxm-bz-2-ph-2
_cod_original_cell_volume        435.48(5)
_cod_database_code               1555870
_shelx_space_group_comment
;
The symmetry employed for this shelxl refinement is uniquely defined
by the following loop, which should always be used as a source of
symmetry information in preference to the above space-group names.
They are only intended as comments.
;
_reflns_odcompleteness_completeness 99.48
_reflns_odcompleteness_iscentric 1
_reflns_odcompleteness_theta     66.97
_olex2_refinement_description
;
1. Fixed Uiso
 At 1.2 times of:
  All C(H) groups, All C(H,H) groups, All N(H) groups
 At 1.5 times of:
  All C(H,H,H) groups
2.a Secondary CH2 refined with riding coordinates:
 C009(H00a,H00b)
2.b Aromatic/amide H refined with riding coordinates:
 N003(H003), C00B(H00c), C00C(H00d), C00D(H00e), C00E(H00f), C00F(H00g),
 C00G(H00h), C00I(H00I), C00J(H00J), C00K(H00K)
2.c Idealised Me refined as rotating group:
 C00L(H00l,H00m,H00n), C00M(H00o,H00p,H00q), C00N(H00r,H00s,H00t)
;
_shelx_res_file
;
    fxm-bz-2-ph-2.res created by SHELXL-2014/7

TITL fxm-bz-2-ph-2_a.res in P1
REM Old TITL fxm-bz-2-ph-2 in P1 #1
REM SHELXT solution in P1
REM R1 0.150, Rweak 0.062, Alpha 0.000, Orientation as input
REM Flack x = 0.283 ( 0.133 ) from Parsons' quotients
REM Formula found by SHELXT: C19 N O3
CELL 1.54184 7.066273 8.362365 8.904771 115.4423 109.8478 92.5913
ZERR 1 0.00038 0.000483 0.000659 0.0066 0.0059 0.0045
LATT -1
SFAC C H N O
UNIT 20 21 1 2

L.S. 10
PLAN  20
TEMP 19.85
BOND $H
LIST 6
MORE -1
CONF
fmap 2
ACTA
REM <olex2.extras>
REM <HklSrc "%.\\fxm-bz-2-ph-2.hkl">
REM </olex2.extras>

WGHT    0.112000    0.008200
FVAR       2.88043
O001  4    0.844076    0.556631    0.502917    11.00000    0.06784    0.06775 =
         0.10853    0.06150    0.05278    0.02321
O002  4    0.255544    0.291659    0.306738    11.00000    0.06905    0.06132 =
         0.06389    0.02843    0.00687   -0.01200
N003  3    0.389947    0.555677    0.332442    11.00000    0.06017    0.05484 =
         0.04655    0.02772    0.00301   -0.00043
AFIX  43
H003  2    0.485425    0.653306    0.404536    11.00000   -1.20000
AFIX   0
C004  1    0.677239    0.225432    0.598327    11.00000    0.04375    0.04451 =
         0.04251    0.02374    0.00879    0.00034
C005  1    0.801399    0.290922    0.536874    11.00000    0.03985    0.04203 =
         0.04146    0.02049    0.00923    0.00320
C006  1    0.382847    0.433224    0.390037    11.00000    0.04516    0.04669 =
         0.04609    0.02202    0.01728    0.00802
C007  1    0.557596    0.485047    0.575659    11.00000    0.04176    0.05171 =
         0.05420    0.03467    0.01984    0.01064
C008  1    0.753128    0.457170    0.533634    11.00000    0.04158    0.04945 =
         0.05515    0.03284    0.01968    0.00962
C009  1    0.529323    0.343482    0.640104    11.00000    0.05022    0.06553 =
         0.07261    0.04923    0.02962    0.01473
AFIX  23
H00A  2    0.561164    0.403484    0.769098    11.00000   -1.20000
H00B  2    0.388521    0.271898    0.575781    11.00000   -1.20000
AFIX   0
C00A  1    0.577258    0.676196    0.720124    11.00000    0.05076    0.05550 =
         0.04220    0.02936    0.01431    0.01119
C00B  1    0.703572    0.070867    0.617939    11.00000    0.06401    0.05086 =
         0.06222    0.03419    0.01426    0.00092
AFIX  43
H00C  2    0.622287    0.026155    0.660606    11.00000   -1.20000
AFIX   0
C00C  1    0.950942    0.203156    0.488268    11.00000    0.05037    0.05087 =
         0.05313    0.02075    0.02072    0.01113
AFIX  43
H00D  2    1.031701    0.247233    0.444800    11.00000   -1.20000
AFIX   0
C00D  1    0.766916    0.787474    0.850314    11.00000    0.05873    0.07070 =
         0.05122    0.03272    0.00712    0.01018
AFIX  43
H00E  2    0.887034    0.749457    0.844332    11.00000   -1.20000
AFIX   0
C00E  1    0.780689    0.954579    0.989396    11.00000    0.09054    0.07819 =
         0.04665    0.01883    0.00013   -0.00029
AFIX  43
H00F  2    0.909306    1.027238    1.076947    11.00000   -1.20000
AFIX   0
C00F  1    0.400069    0.737570    0.731338    11.00000    0.05966    0.06761 =
         0.06046    0.03062    0.02647    0.01868
AFIX  43
H00G  2    0.270882    0.665611    0.644411    11.00000   -1.20000
AFIX   0
C00G  1    0.852595   -0.014381    0.572788    11.00000    0.07665    0.04425 =
         0.08979    0.03598    0.02228    0.01446
AFIX  43
H00H  2    0.872683   -0.117282    0.586479    11.00000   -1.20000
AFIX   0
C00H  1    0.251702    0.541749    0.158414    11.00000    0.06800    0.06955 =
         0.04213    0.02745    0.00684    0.01261
C00I  1    0.974795    0.049972    0.506716    11.00000    0.06868    0.05190 =
         0.07573    0.02521    0.02592    0.02117
AFIX  43
H00I  2    1.072873   -0.011601    0.475100    11.00000   -1.20000
AFIX   0
C00J  1    0.604640    1.012981    0.998068    11.00000    0.12763    0.07709 =
         0.05225    0.01993    0.03198    0.03239
AFIX  43
H00J  2    0.613682    1.126108    1.090302    11.00000   -1.20000
AFIX   0
C00K  1    0.414588    0.903786    0.869966    11.00000    0.09464    0.08049 =
         0.06822    0.03168    0.04128    0.03511
AFIX  43
H00K  2    0.295155    0.942560    0.877109    11.00000   -1.20000
AFIX   0
C00L  1    0.265056    0.375601    0.003542    11.00000    0.14877    0.13655 =
         0.05119    0.03555    0.03939    0.05942
AFIX 137
H00L  2    0.405882    0.383046    0.015636    11.00000   -1.50000
H00M  2    0.181061    0.370244   -0.109564    11.00000   -1.50000
H00N  2    0.216685    0.268229    0.006415    11.00000   -1.50000
AFIX   0
C00M  1    0.029288    0.522961    0.145189    11.00000    0.07162    0.12711 =
         0.09197    0.06179    0.01244    0.03280
AFIX 137
H00O  2   -0.015455    0.409473    0.139225    11.00000   -1.50000
H00P  2   -0.059104    0.526345    0.038026    11.00000   -1.50000
H00Q  2    0.022982    0.621287    0.250025    11.00000   -1.50000
AFIX   0
C00N  1    0.317827    0.715530    0.160758    11.00000    0.12317    0.12513 =
         0.09431    0.08474   -0.01590   -0.01294
AFIX 137
H00R  2    0.309114    0.815961    0.262784    11.00000   -1.50000
H00S  2    0.229143    0.713843    0.050853    11.00000   -1.50000
H00T  2    0.457670    0.728340    0.170143    11.00000   -1.50000
AFIX   0
HKLF 4

REM  fxm-bz-2-ph-2_a.res in P1
REM R1 =  0.0669 for    3005 Fo > 4sig(Fo)  and  0.0673 for all    3052 data
REM    211 parameters refined using      3 restraints

END

WGHT      0.1120      0.0082

REM Highest difference peak  0.271,  deepest hole -0.479,  1-sigma level  0.118
Q1    1   0.6788  1.2816  1.0847  11.00000  0.05    0.27
Q2    1  -0.2369  0.3910  0.2015  11.00000  0.05    0.26
Q3    1   0.2541  0.4256  0.5972  11.00000  0.05    0.25
Q4    1  -0.1993  0.4872  0.2372  11.00000  0.05    0.25
Q5    1   0.1054  0.5056 -0.2595  11.00000  0.05    0.24
Q6    1   0.1282  0.7590  0.5824  11.00000  0.05    0.24
Q7    1   0.8545  0.4976  0.3221  11.00000  0.05    0.23
Q8    1   0.2080  0.5236 -0.1244  11.00000  0.05    0.22
Q9    1   0.3958  0.3664  0.8228  11.00000  0.05    0.21
Q10   1   0.6270  0.8923  0.3043  11.00000  0.05    0.21
Q11   1   0.6144  1.0804  1.1880  11.00000  0.05    0.20
Q12   1  -0.1247  0.2000  0.0242  11.00000  0.05    0.20
Q13   1   0.3864 -0.0818  0.5968  11.00000  0.05    0.20
Q14   1   1.2345 -0.1117  0.6020  11.00000  0.05    0.19
Q15   1   0.3008  0.7932  0.5617  11.00000  0.05    0.19
Q16   1   0.5813  1.0250  0.2887  11.00000  0.05    0.19
Q17   1   0.6518  0.3052  0.8629  11.00000  0.05    0.19
Q18   1   0.4255  0.9787  0.2077  11.00000  0.05    0.18
Q19   1   0.9621  0.6041  0.8327  11.00000  0.05    0.18
Q20   1   0.2778  0.3527  0.7055  11.00000  0.05    0.18
;
_shelx_res_checksum              14827
_shelx_hkl_file
;
  -8  -3   3    4.92    0.92
  -8  -3   4   11.00    1.36
  -8  -3   4   13.29    1.64
  -8  -3   5   24.26    2.14
  -8  -3   5   27.90    2.30
  -8  -3   5   24.92    2.35
  -8  -3   6   34.21    2.68
  -8  -3   6   35.45    2.55
  -8  -3   6   32.66    2.53
  -8  -3   7   58.33    3.03
  -8  -3   7   57.11    3.12
  -8  -2   2   14.52    1.45
  -8  -2   2   10.67    1.39
  -8  -2   3    3.05    0.88
  -8  -2   3    2.98    0.77
  -8  -2   3    3.53    0.91
  -8  -2   3    2.79    0.68
  -8  -2   4    1.97    0.70
  -8  -2   4    1.37    0.50
  -8  -2   4    1.59    0.69
  -8  -2   4    1.69    0.65
  -8  -2   5   13.70    1.74
  -8  -2   5   11.60    1.64
  -8  -2   5   14.35    1.84
  -8  -2   5   14.95    1.99
  -8  -2   6   21.86    2.24
  -8  -2   6   23.23    2.24
  -8  -2   6   23.18    2.17
  -8  -2   7   24.29    2.05
  -8  -2   7   21.67    1.82
  -8  -1   1   46.48    2.79
  -8  -1   2   21.37    2.25
  -8  -1   2   21.28    2.16
  -8  -1   2   20.88    2.02
  -8  -1   2   19.08    2.04
  -8  -1   3    1.92    0.56
  -8  -1   3    3.03    0.81
  -8  -1   3    3.13    0.94
  -8  -1   3    2.86    0.96
  -8  -1   3    3.45    0.97
  -8  -1   4    8.37    1.53
  -8  -1   4    6.34    1.33
  -8  -1   4    5.92    1.33
  -8  -1   4    7.93    1.59
  -8  -1   5   14.28    1.84
  -8  -1   5   14.96    2.05
  -8  -1   5   15.17    1.99
  -8  -1   5   12.27    1.72
  -8  -1   6    0.87    0.58
  -8  -1   6    0.36    0.42
  -8  -1   6    0.55    0.42
  -8  -1   6    1.31    0.61
  -8  -1   7    6.98    1.14
  -8  -1   7    6.29    0.98
  -8   0   0    8.39    1.13
  -8   0   1   11.84    1.61
  -8   0   1    8.39    1.35
  -8   0   1    8.45    1.30
  -8   0   2    7.32    1.42
  -8   0   2    7.45    1.35
  -8   0   2    6.28    1.30
  -8   0   2    6.37    1.16
  -8   0   3    0.50    0.41
  -8   0   3    0.78    0.67
  -8   0   3    0.84    0.60
  -8   0   4   27.82    2.88
  -8   0   4   26.81    2.71
  -8   0   4   22.34    2.33
  -8   0   4   31.70    2.90
  -8   0   5   22.64    2.38
  -8   0   5   19.69    2.10
  -8   0   5   19.19    2.30
  -8   0   5   17.03    2.02
  -8   0   6   22.90    2.23
  -8   0   6   21.19    2.09
  -8   0   6   17.47    1.89
  -8   0   7   20.07    1.84
  -8   1   0    3.01    0.82
  -8   1   0    2.52    0.65
  -8   1   1   24.89    2.30
  -8   1   1   28.28    2.71
  -8   1   1   23.09    2.28
  -8   1   1   21.74    2.11
  -8   1   2    5.96    1.32
  -8   1   2    5.20    1.24
  -8   1   2    5.22    1.13
  -8   1   3   -0.13    0.49
  -8   1   3    0.72    0.52
  -8   1   3    1.64    0.82
  -8   1   3    1.44    0.83
  -8   1   4    1.66    0.71
  -8   1   4    1.81    0.83
  -8   1   4    1.46    0.76
  -8   1   4    2.12    0.72
  -8   1   5    8.34    1.26
  -8   1   5   12.13    1.70
  -8   1   5   12.88    1.74
  -8   1   5   10.48    1.54
  -8   1   6    4.19    0.82
  -8   1   6    4.97    0.96
  -8   2   0    0.83    0.57
  -8   2   0    0.64    0.43
  -8   2   1   10.69    1.66
  -8   2   1   10.33    1.58
  -8   2   1   10.38    1.72
  -8   2   2    1.74    0.72
  -8   2   2    0.89    0.48
  -8   2   2    3.42    1.03
  -8   2   2    1.92    0.83
  -8   2   3    1.58    0.63
  -8   2   3    2.33    0.92
  -8   2   3    0.88    0.47
  -8   2   3    1.65    0.68
  -8   2   4    3.37    0.93
  -8   2   4    1.93    0.60
  -8   2   4    2.70    0.84
  -8   2   4    3.49    0.93
  -8   2   5   22.46    2.15
  -8   2   5   16.44    1.67
  -8   2   5   18.83    1.90
  -8   2   6    1.64    0.50
  -8   3   0   13.37    1.73
  -8   3   0   12.10    1.53
  -8   3   1    4.99    0.93
  -8   3   1    7.96    1.39
  -8   3   1    6.65    1.38
  -8   3   1    7.05    1.36
  -8   3   2   10.28    1.54
  -8   3   2   10.33    1.61
  -8   3   2    7.17    1.28
  -8   3   2    9.06    1.54
  -8   3   3    4.93    1.13
  -8   3   3    3.93    1.00
  -8   3   3    2.31    0.81
  -8   3   4   -1.07    0.49
  -8   3   4   -0.55    0.56
  -8   3   4    0.38    0.33
  -8   3   5    6.52    1.00
  -8   4   0   -0.08    0.42
  -8   4   0    0.31    0.28
  -8   4   1    6.31    1.16
  -8   4   1    6.38    1.04
  -8   4   1    4.39    0.87
  -8   4   1    7.17    1.22
  -8   4   2   12.83    1.62
  -8   4   2   10.62    1.41
  -8   4   2   12.00    1.53
  -8   4   3    7.10    1.08
  -8   4   3    7.34    1.11
  -7  -5   3   27.52    2.01
  -7  -5   4    7.52    1.18
  -7  -5   5   18.82    1.84
  -7  -5   5   14.87    1.71
  -7  -5   5   18.55    2.17
  -7  -5   6   19.16    2.22
  -7  -5   6   15.09    1.53
  -7  -5   6   16.66    1.92
  -7  -5   6   18.70    1.98
  -7  -5   7   35.87    2.71
  -7  -5   7   32.68    2.67
  -7  -5   8   18.29    1.73
  -7  -5   8   19.12    1.81
  -7  -4   2    3.56    0.86
  -7  -4   2    2.56    0.65
  -7  -4   3   11.25    1.50
  -7  -4   3   12.16    1.80
  -7  -4   3   13.73    1.73
  -7  -4   3   10.88    1.67
  -7  -4   4   23.87    2.34
  -7  -4   4   22.24    2.39
  -7  -4   4   25.84    2.78
  -7  -4   4   22.91    2.66
  -7  -4   5   17.61    2.00
  -7  -4   5   20.54    2.53
  -7  -4   5   19.36    2.32
  -7  -4   5   23.98    2.64
  -7  -4   5   21.01    2.45
  -7  -4   6   46.94    3.81
  -7  -4   6   48.50    3.73
  -7  -4   6   40.43    3.36
  -7  -4   6   50.91    3.71
  -7  -4   7   72.24    4.46
  -7  -4   7   77.11    4.49
  -7  -4   7   74.93    4.38
  -7  -4   8    7.65    1.19
  -7  -4   8    7.14    1.25
  -7  -4   8    6.94    1.20
  -7  -3   0    9.72    1.13
  -7  -3   1    5.65    1.15
  -7  -3   1    3.26    0.86
  -7  -3   1    5.07    1.06
  -7  -3   1    5.80    1.00
  -7  -3   2   13.67    1.92
  -7  -3   2   14.96    1.94
  -7  -3   2   17.90    2.24
  -7  -3   3   65.18    4.73
  -7  -3   3   58.32    4.30
  -7  -3   3   68.41    4.77
  -7  -3   3   62.09    4.19
  -7  -3   4   66.73    4.31
  -7  -3   4   69.67    4.81
  -7  -3   4   67.31    4.85
  -7  -3   4   63.68    4.62
  -7  -3   4   59.23    4.67
  -7  -3   5    1.99    0.76
  -7  -3   5    1.27    0.69
  -7  -3   5    0.44    0.60
  -7  -3   5    1.88    0.98
  -7  -3   5    0.47    0.50
  -7  -3   6   61.55    4.28
  -7  -3   6   60.29    4.32
  -7  -3   6   56.31    4.38
  -7  -3   7   39.36    3.19
  -7  -3   7   32.73    3.00
  -7  -3   7   35.91    3.16
  -7  -3   7   33.99    3.11
  -7  -3   8    8.34    1.37
  -7  -3   8    9.13    1.41
  -7  -3   8    8.23    1.33
  -7  -3   8    7.27    1.24
  -7  -3   9    6.20    1.04
  -7  -2   0   46.24    3.22
  -7  -2   1   82.30    5.04
  -7  -2   1   98.49    5.41
  -7  -2   2  163.43    7.95
  -7  -2   2  168.55    8.02
  -7  -2   2  185.86    8.29
  -7  -2   2  170.72    7.75
  -7  -2   3  203.93    8.54
  -7  -2   3  205.22    9.18
  -7  -2   3  196.72    8.86
  -7  -2   3  197.58    9.05
  -7  -2   3  189.02    8.99
  -7  -2   4   23.57    2.91
  -7  -2   4   21.30    2.94
  -7  -2   4   28.73    3.41
  -7  -2   4   23.49    2.60
  -7  -2   4   24.55    2.97
  -7  -2   5   33.38    3.46
  -7  -2   5   39.82    3.85
  -7  -2   5   29.55    3.19
  -7  -2   5   30.62    3.24
  -7  -2   6   10.59    1.77
  -7  -2   6   11.56    1.87
  -7  -2   6   10.52    1.90
  -7  -2   6   12.86    2.03
  -7  -2   7   13.29    1.89
  -7  -2   7   16.76    2.25
  -7  -2   7   12.23    1.75
  -7  -2   8   15.30    1.86
  -7  -2   8   13.28    1.65
  -7  -2   8   17.05    2.01
  -7  -2   9   25.22    2.06
  -7  -1  -1   58.73    3.61
  -7  -1   0   32.48    2.88
  -7  -1   0   37.85    3.33
  -7  -1   1    9.72    1.77
  -7  -1   1   12.25    2.12
  -7  -1   1   13.35    2.27
  -7  -1   1   14.52    2.31
  -7  -1   2   19.38    2.77
  -7  -1   2   21.53    2.98
  -7  -1   2   20.80    2.81
  -7  -1   2   18.26    2.67
  -7  -1   3  153.32    8.07
  -7  -1   3  139.77    7.83
  -7  -1   3  154.45    8.11
  -7  -1   3  135.23    7.14
  -7  -1   4  145.90    7.88
  -7  -1   4  126.43    7.15
  -7  -1   4  142.28    7.60
  -7  -1   4  147.13    7.64
  -7  -1   5   43.45    4.06
  -7  -1   5   45.59    3.99
  -7  -1   5   43.54    4.11
  -7  -1   5   48.62    4.11
  -7  -1   6   13.97    2.17
  -7  -1   6   13.64    2.01
  -7  -1   6   18.10    2.53
  -7  -1   6   13.57    2.11
  -7  -1   7    1.60    0.66
  -7  -1   7    1.48    0.71
  -7  -1   7    2.08    0.87
  -7  -1   8   10.28    1.46
  -7  -1   8    8.76    1.43
  -7   0  -2    6.86    1.12
  -7   0   0  150.85    7.77
  -7   0   1  181.15    8.69
  -7   0   1  183.91    9.30
  -7   0   1  170.26    8.42
  -7   0   2   50.64    4.60
  -7   0   2   52.00    4.70
  -7   0   2   48.56    4.60
  -7   0   3    5.46    1.55
  -7   0   3    9.62    1.92
  -7   0   3    6.70    1.59
  -7   0   3    4.85    1.45
  -7   0   4    2.06    0.75
  -7   0   4    0.71    0.61
  -7   0   4    2.16    0.67
  -7   0   5    3.65    1.21
  -7   0   5    2.46    0.87
  -7   0   5    3.61    1.34
  -7   0   5    5.31    1.57
  -7   0   6    1.71    0.80
  -7   0   6    2.56    0.93
  -7   0   6    1.99    0.88
  -7   0   7    3.10    0.90
  -7   0   7    2.79    0.86
  -7   0   8    4.62    0.94
  -7   0   8    3.36    0.78
  -7   0   8    2.63    0.71
  -7   1  -1   12.44    2.20
  -7   1   0  110.18    6.39
  -7   1   0  102.57    6.73
  -7   1   0   90.69    5.67
  -7   1   1   51.15    4.55
  -7   1   1   56.13    4.96
  -7   1   1   46.78    4.65
  -7   1   2   24.17    3.22
  -7   1   2   18.03    2.86
  -7   1   2   16.09    2.64
  -7   1   2   18.87    2.94
  -7   1   3   13.93    2.41
  -7   1   3   12.34    2.21
  -7   1   3   18.13    2.72
  -7   1   3   15.15    2.47
  -7   1   4   10.22    2.11
  -7   1   4   10.67    2.02
  -7   1   4   10.91    2.06
  -7   1   4    4.90    1.33
  -7   1   5    8.64    1.73
  -7   1   5    7.85    1.69
  -7   1   5   12.94    2.17
  -7   1   6    5.77    1.25
  -7   1   7    1.32    0.47
  -7   1   7    1.89    0.67
  -7   1   7    1.36    0.68
  -7   2  -2    9.87    1.72
  -7   2  -1   13.00    1.96
  -7   2  -1   13.15    2.43
  -7   2   0   25.59    3.07
  -7   2   0   29.82    3.47
  -7   2   1   29.13    3.77
  -7   2   1   32.75    3.79
  -7   2   1   31.38    3.67
  -7   2   1   27.03    3.33
  -7   2   2   43.33    4.22
  -7   2   2   39.24    4.14
  -7   2   2   41.32    4.15
  -7   2   2   46.29    4.54
  -7   2   3   39.52    3.98
  -7   2   3   46.18    4.26
  -7   2   3   45.37    4.23
  -7   2   3   39.69    4.06
  -7   2   4    5.13    1.42
  -7   2   4    7.49    1.71
  -7   2   4    4.88    1.39
  -7   2   5    8.21    1.61
  -7   2   5   10.07    1.73
  -7   2   5    9.22    1.61
  -7   2   5   10.12    1.72
  -7   2   6    4.40    1.08
  -7   2   6    3.14    0.84
  -7   2   7    8.32    1.23
  -7   2   7    8.34    1.18
  -7   3  -1   10.56    2.00
  -7   3   0   27.98    3.23
  -7   3   0   27.45    3.30
  -7   3   1    2.41    1.11
  -7   3   2   26.37    3.25
  -7   3   2   18.15    2.73
  -7   3   2   20.90    2.93
  -7   3   3    2.85    1.23
  -7   3   3    1.34    0.84
  -7   3   4   13.03    1.93
  -7   3   4   14.40    2.03
  -7   3   4   17.13    2.37
  -7   3   4   16.03    2.28
  -7   3   5    4.34    1.15
  -7   3   5    4.67    1.12
  -7   3   6    9.78    1.31
  -7   3   6    9.96    1.34
  -7   4  -3    0.13    0.50
  -7   4  -2   11.83    1.78
  -7   4  -1   29.14    2.96
  -7   4  -1   29.11    3.11
  -7   4   0    7.25    1.75
  -7   4   1   35.85    3.69
  -7   4   1   27.91    3.22
  -7   4   2   10.23    1.85
  -7   4   2   11.34    2.02
  -7   4   3    0.51    0.49
  -7   4   3    0.56    0.60
  -7   4   3    0.16    0.32
  -7   4   4   14.85    1.90
  -7   4   4   13.09    1.70
  -7   4   4   12.45    1.78
  -7   4   5   22.61    1.96
  -7   4   5   25.47    2.15
  -7   5  -2    5.05    1.25
  -7   5  -2    5.11    1.08
  -7   5  -1    1.71    0.94
  -7   5   0    0.98    0.57
  -7   5   1    2.20    0.97
  -7   5   1    0.15    0.64
  -7   5   2    6.21    1.33
  -7   5   2    5.58    1.24
  -7   5   3    3.25    0.84
  -7   5   3    2.23    0.68
  -7   5   4   16.18    1.60
  -7   6  -1    2.51    0.82
  -7   6   0   12.37    1.68
  -7   6   0   12.02    1.70
  -7   6   1   10.80    1.50
  -7   6   1    8.27    1.24
  -7   6   2   12.94    1.44
  -6  -7   5    5.75    0.93
  -6  -7   6   13.61    1.41
  -6  -6   2   21.53    1.71
  -6  -6   3   61.90    3.41
  -6  -6   3   58.47    3.39
  -6  -6   4   21.57    2.18
  -6  -6   4   19.63    1.98
  -6  -6   5   14.67    1.81
  -6  -6   6    8.68    1.48
  -6  -6   6   10.97    1.73
  -6  -6   6    9.74    1.46
  -6  -6   7    3.88    0.90
  -6  -6   7    2.82    0.89
  -6  -6   7    3.68    0.95
  -6  -6   8    7.99    1.33
  -6  -6   8    9.33    1.50
  -6  -6   9    0.63    0.35
  -6  -6   9    0.42    0.27
  -6  -6   9    0.47    0.33
  -6  -5   1    1.93    0.55
  -6  -5   1    2.27    0.65
  -6  -5   1    2.13    0.56
  -6  -5   2   19.90    1.93
  -6  -5   2   22.23    2.24
  -6  -5   2   23.47    2.33
  -6  -5   3   20.07    2.57
  -6  -5   3   25.03    2.86
  -6  -5   3   25.44    2.52
  -6  -5   3   24.39    2.49
  -6  -5   4   63.10    4.42
  -6  -5   4   67.84    5.00
  -6  -5   4   64.14    4.70
  -6  -5   4   65.58    4.18
  -6  -5   4   70.48    4.42
  -6  -5   5  141.85    6.45
  -6  -5   5  136.04    7.03
  -6  -5   5  143.56    7.08
  -6  -5   5  134.39    7.20
  -6  -5   5  136.93    7.10
  -6  -5   6   10.06    1.85
  -6  -5   6   12.14    1.96
  -6  -5   6    9.57    1.52
  -6  -5   6    9.51    1.73
  -6  -5   7    4.43    1.19
  -6  -5   7    4.06    1.19
  -6  -5   7    2.42    0.92
  -6  -5   8    2.19    0.88
  -6  -5   8    2.10    0.85
  -6  -5   8    2.56    0.83
  -6  -5   9    7.10    1.20
  -6  -5   9    9.16    1.34
  -6  -5   9    9.11    1.39
  -6  -4   0    0.82    0.38
  -6  -4   0    1.12    0.56
  -6  -4   0    1.09    0.45
  -6  -4   1   39.53    3.25
  -6  -4   1   38.40    3.04
  -6  -4   1   34.29    3.12
  -6  -4   1   36.58    3.07
  -6  -4   2   62.02    4.37
  -6  -4   2   56.36    3.90
  -6  -4   2   55.18    4.41
  -6  -4   2   52.47    4.28
  -6  -4   3   33.17    3.41
  -6  -4   3   35.21    3.30
  -6  -4   3   33.47    3.57
  -6  -4   3   35.87    3.36
  -6  -4   3   35.04    3.73
  -6  -4   4   33.03    3.64
  -6  -4   4   32.67    3.22
  -6  -4   4   31.06    3.49
  -6  -4   4   30.53    3.32
  -6  -4   4   34.28    3.55
  -6  -4   5    3.23    1.21
  -6  -4   5    3.66    1.07
  -6  -4   5    3.34    1.32
  -6  -4   5    2.16    0.80
  -6  -4   5    4.07    1.33
  -6  -4   6  120.49    6.59
  -6  -4   6  123.95    6.82
  -6  -4   6  128.92    7.06
  -6  -4   6  123.14    7.14
  -6  -4   6  118.98    6.73
  -6  -4   7   27.13    3.10
  -6  -4   7   29.47    3.20
  -6  -4   7   25.28    2.92
  -6  -4   7   28.59    3.01
  -6  -4   7   31.35    3.16
  -6  -4   8   10.38    1.72
  -6  -4   8   11.00    1.74
  -6  -4   8   11.06    1.89
  -6  -4   8    9.44    1.64
  -6  -4   9   14.44    1.73
  -6  -4   9   14.57    1.88
  -6  -4   9   12.54    1.63
  -6  -4   9   14.44    1.87
  -6  -4  10   14.27    1.54
  -6  -3  -1   15.79    1.72
  -6  -3  -1   18.63    1.92
  -6  -3   0   20.01    2.33
  -6  -3   0   26.94    2.78
  -6  -3   1   24.51    2.99
  -6  -3   1   22.03    2.77
  -6  -3   2   67.65    5.21
  -6  -3   2   65.67    5.00
  -6  -3   2   63.87    5.08
  -6  -3   2   61.64    5.11
  -6  -3   3  139.93    8.07
  -6  -3   3  133.30    7.63
  -6  -3   3  140.19    7.99
  -6  -3   3  147.40    7.61
  -6  -3   3  143.97    7.93
  -6  -3   4  195.79    9.52
  -6  -3   4  191.88    8.67
  -6  -3   4  190.03    9.25
  -6  -3   4  191.42    9.32
  -6  -3   4  175.82    9.08
  -6  -3   5   85.69    5.88
  -6  -3   5   89.82    6.20
  -6  -3   5   93.38    5.60
  -6  -3   5   98.46    6.56
  -6  -3   5   86.69    5.83
  -6  -3   6   18.24    2.65
  -6  -3   6   19.11    2.72
  -6  -3   6   16.90    2.38
  -6  -3   6   21.86    2.95
  -6  -3   6   21.53    2.80
  -6  -3   7   20.71    2.69
  -6  -3   7   20.49    2.72
  -6  -3   7   19.32    2.50
  -6  -3   7   19.64    2.59
  -6  -3   7   20.14    2.70
  -6  -3   8   15.23    2.19
  -6  -3   8   12.57    1.86
  -6  -3   8   13.29    1.94
  -6  -3   8   12.52    1.90
  -6  -3   9    8.98    1.55
  -6  -3   9    7.98    1.39
  -6  -3  10   16.46    1.63
  -6  -3  10   12.92    1.44
  -6  -2  -2    0.78    0.29
  -6  -2  -1   42.34    3.60
  -6  -2   0  100.59    6.31
  -6  -2   0   90.31    5.70
  -6  -2   1   82.92    6.10
  -6  -2   1   78.45    5.74
  -6  -2   1   73.93    5.56
  -6  -2   2  261.73   11.67
  -6  -2   2  242.63   10.85
  -6  -2   2  249.14   11.21
  -6  -2   2  222.89   10.32
  -6  -2   3  379.26   14.03
  -6  -2   3  342.73   12.82
  -6  -2   3  371.37   14.07
  -6  -2   3  333.08   16.22
  -6  -2   3  356.70   13.75
  -6  -2   4  230.44   10.33
  -6  -2   4  205.84   12.18
  -6  -2   4  230.36   10.57
  -6  -2   4  219.88    9.64
  -6  -2   4  225.20   10.18
  -6  -2   5  162.82    8.66
  -6  -2   5  157.38    8.12
  -6  -2   5  155.16    8.08
  -6  -2   5  147.60    8.20
  -6  -2   6   40.49    3.87
  -6  -2   6   49.98    4.60
  -6  -2   6   42.74    4.06
  -6  -2   6   38.56    3.92
  -6  -2   6   42.47    4.06
  -6  -2   7   41.10    3.81
  -6  -2   7   35.87    3.42
  -6  -2   7   34.26    3.42
  -6  -2   7   41.09    3.93
  -6  -2   8   27.16    2.90
  -6  -2   8   23.69    2.75
  -6  -2   8   28.06    2.93
  -6  -2   9   19.43    2.15
  -6  -2   9   19.12    2.17
  -6  -2  10    4.17    0.75
  -6  -1  -2    8.87    1.66
  -6  -1   0   59.25    5.34
  -6  -1   1  438.58   15.69
  -6  -1   1  461.79   17.02
  -6  -1   1  409.84   15.14
  -6  -1   2  158.50    9.18
  -6  -1   2  118.05   10.11
  -6  -1   2  148.26    8.50
  -6  -1   2  142.96   10.76
  -6  -1   2  152.25    8.77
  -6  -1   3   26.85    3.52
  -6  -1   3   24.30    4.16
  -6  -1   3   30.13    3.80
  -6  -1   3   28.96    3.62
  -6  -1   4  151.80    8.23
  -6  -1   4  163.88    8.64
  -6  -1   4  156.20    8.62
  -6  -1   4  148.36    8.44
  -6  -1   4  151.44   10.26
  -6  -1   5  263.39   10.86
  -6  -1   5  255.18   11.19
  -6  -1   5  249.71   10.88
  -6  -1   5  239.98   10.41
  -6  -1   6  166.08    8.34
  -6  -1   6  167.34    8.14
  -6  -1   6  173.99    8.57
  -6  -1   6  172.07    8.36
  -6  -1   6  174.93    8.87
  -6  -1   7   65.88    4.91
  -6  -1   7   72.66    5.20
  -6  -1   7   72.47    5.02
  -6  -1   7   67.10    4.72
  -6  -1   8   50.43    3.89
  -6  -1   8   59.12    4.26
  -6  -1   8   56.84    4.22
  -6  -1   9    7.64    1.33
  -6  -1   9    8.02    1.32
  -6  -1   9    8.58    1.32
  -6   0  -1   24.04    3.47
  -6   0   0   98.73    7.59
  -6   0   0   90.78    6.29
  -6   0   1   84.09    8.68
  -6   0   1   87.05    7.09
  -6   0   1   80.54    8.95
  -6   0   1   91.55    6.59
  -6   0   1  100.22    7.24
  -6   0   2  412.08   15.38
  -6   0   2  325.83   14.13
  -6   0   2  383.94   18.57
  -6   0   2  299.99   17.02
  -6   0   2  379.01   14.46
  -6   0   3  217.03   10.72
  -6   0   3  232.43   10.74
  -6   0   3  212.65   10.35
  -6   0   3  208.65   12.86
  -6   0   3  218.32   10.87
  -6   0   4  158.07    8.51
  -6   0   4  158.24    8.72
  -6   0   4  155.76    8.65
  -6   0   4  139.43    8.04
  -6   0   4  128.00    9.55
  -6   0   5    7.22    1.75
  -6   0   5    7.27    1.82
  -6   0   5    3.84    1.27
  -6   0   5    4.94    1.43
  -6   0   6    5.20    1.42
  -6   0   6    4.71    1.35
  -6   0   6    3.99    1.20
  -6   0   6    6.93    1.64
  -6   0   7   34.87    3.47
  -6   0   7   26.31    2.98
  -6   0   7   28.89    3.09
  -6   0   8    4.11    1.11
  -6   0   8    3.30    0.88
  -6   0   8    3.55    1.03
  -6   0   9   12.21    1.51
  -6   0   9   11.17    1.44
  -6   1   0  240.35   11.04
  -6   1   1   28.39    5.18
  -6   1   1   28.99    5.30
  -6   1   2   42.87    6.16
  -6   1   2   48.99    5.18
  -6   1   2   45.00    4.73
  -6   1   3   29.86    3.74
  -6   1   3   37.89    5.40
  -6   1   3   32.25    3.97
  -6   1   3   32.95    4.00
  -6   1   4   81.57    6.00
  -6   1   4   76.17    5.89
  -6   1   4   78.88    6.09
  -6   1   4   67.87    6.83
  -6   1   4   76.56    5.84
  -6   1   5  150.74    8.03
  -6   1   5  149.94    7.94
  -6   1   5  155.02    8.45
  -6   1   5  153.58    8.06
  -6   1   6   82.22    5.49
  -6   1   6   78.08    5.40
  -6   1   6   77.73    5.30
  -6   1   7    4.19    1.12
  -6   1   7    5.77    1.37
  -6   1   7    6.18    1.36
  -6   1   8   14.90    1.82
  -6   1   8   10.98    1.44
  -6   1   8   14.70    1.81
  -6   2   0   24.32    3.61
  -6   2   1   45.04    5.05
  -6   2   1   40.12    6.18
  -6   2   2    7.49    2.17
  -6   2   2    5.66    2.39
  -6   2   3   15.13    3.33
  -6   2   3   11.17    2.37
  -6   2   3   15.43    2.60
  -6   2   3   12.58    2.47
  -6   2   4   74.66    5.58
  -6   2   4   80.84    5.92
  -6   2   4   89.86    6.28
  -6   2   5  150.89    7.72
  -6   2   5  133.70    7.19
  -6   2   5  138.59    7.51
  -6   2   6    5.77    1.35
  -6   2   6    5.44    1.30
  -6   2   6    4.32    1.27
  -6   2   7    6.76    1.28
  -6   2   7    8.65    1.41
  -6   2   7    6.51    1.33
  -6   2   8   -0.37    0.36
  -6   2   8    0.41    0.20
  -6   3  -1   51.10    5.37
  -6   3   0   27.64    4.04
  -6   3   1  255.86   12.47
  -6   3   2   44.17    4.74
  -6   3   3    5.77    1.52
  -6   3   3    4.91    1.60
  -6   3   3    3.95    1.44
  -6   3   4   40.48    4.04
  -6   3   4   41.34    3.97
  -6   3   5   11.20    1.98
  -6   3   5   10.96    1.91
  -6   3   6   18.79    2.24
  -6   3   6   18.83    2.22
  -6   3   6   17.10    2.01
  -6   3   7    3.26    0.83
  -6   3   7    4.06    0.85
  -6   4  -2    5.18    1.79
  -6   4   0   35.26    4.32
  -6   4   1   67.13    5.81
  -6   4   2   71.10    5.84
  -6   4   2   74.46    5.70
  -6   4   3   37.69    3.96
  -6   4   3   36.80    3.80
  -6   4   4   16.96    2.35
  -6   4   4   16.24    2.37
  -6   4   5    5.05    1.24
  -6   4   6    0.01    0.38
  -6   4   6    0.45    0.49
  -6   5  -3   13.05    2.29
  -6   5   0    0.19    0.80
  -6   5   1   10.84    2.08
  -6   5   1   11.10    2.29
  -6   5   2    9.33    1.95
  -6   5   2    8.58    1.82
  -6   5   3    1.99    1.16
  -6   5   3    2.21    0.79
  -6   5   4    5.03    1.17
  -6   5   5    0.26    0.27
  -6   6  -3    1.19    0.72
  -6   6  -2   51.62    4.50
  -6   6  -1   25.46    3.13
  -6   6   0   15.60    2.24
  -6   6   0   13.65    2.37
  -6   6   1   39.97    3.73
  -6   6   1   35.78    3.40
  -6   6   2    4.00    1.07
  -6   6   2    5.31    1.17
  -6   6   3    2.91    0.91
  -6   6   4   14.65    1.52
  -6   7  -3   13.66    1.91
  -6   7  -2   31.94    3.08
  -6   7  -1   25.81    2.72
  -6   7  -1   24.97    2.43
  -6   7   0   10.57    1.60
  -6   7   0    9.50    1.64
  -6   7   1    5.51    1.04
  -6   7   1    7.45    1.25
  -6   7   2   22.16    1.94
  -5  -8   5   13.58    1.43
  -5  -8   6   15.33    1.56
  -5  -8   7    5.86    0.96
  -5  -7   2   43.30    2.58
  -5  -7   2   41.32    2.36
  -5  -7   3   21.56    1.87
  -5  -7   3   20.65    1.98
  -5  -7   3   25.57    2.23
  -5  -7   4    2.81    0.82
  -5  -7   4    2.79    0.82
  -5  -7   5   18.18    1.92
  -5  -7   5   19.03    2.08
  -5  -7   6    1.91    0.76
  -5  -7   6    2.99    0.86
  -5  -7   6    1.80    0.64
  -5  -7   7   16.57    1.89
  -5  -7   7   12.22    1.66
  -5  -7   7   15.06    1.99
  -5  -7   7   17.56    2.14
  -5  -7   8   22.34    2.21
  -5  -7   8   20.10    1.86
  -5  -7   8   24.18    2.43
  -5  -7   8   25.46    2.44
  -5  -7   9   10.19    1.38
  -5  -7   9    8.93    1.25
  -5  -6   1   26.82    2.18
  -5  -6   1   29.43    2.30
  -5  -6   1   27.21    2.32
  -5  -6   2  101.93    5.22
  -5  -6   2  116.94    5.51
  -5  -6   2  113.63    5.15
  -5  -6   3  108.53    5.25
  -5  -6   3  111.29    5.62
  -5  -6   3  115.24    5.82
  -5  -6   4    7.83    1.83
  -5  -6   4    4.57    1.13
  -5  -6   4    6.10    1.39
  -5  -6   5   66.81    4.44
  -5  -6   5   61.86    4.73
  -5  -6   5   69.10    4.87
  -5  -6   5   68.59    5.20
  -5  -6   6   93.66    6.06
  -5  -6   6   86.14    5.65
  -5  -6   6   98.25    5.34
  -5  -6   6   86.77    5.55
  -5  -6   7   46.30    3.84
  -5  -6   7   41.82    3.31
  -5  -6   7   45.05    3.78
  -5  -6   8   20.97    2.42
  -5  -6   8   20.38    2.48
  -5  -6   9    2.49    0.75
  -5  -6   9    1.34    0.45
  -5  -6   9    2.78    0.87
  -5  -6  10    4.80    0.86
  -5  -5  -1    5.65    0.87
  -5  -5   0    8.17    1.31
  -5  -5   0    7.55    1.31
  -5  -5   1   71.38    4.37
  -5  -5   1   68.21    4.45
  -5  -5   1   65.04    4.30
  -5  -5   2  165.45    7.58
  -5  -5   2  182.44    7.58
  -5  -5   2  164.42    8.33
  -5  -5   2  169.10    7.78
  -5  -5   2  151.99    8.04
  -5  -5   3   63.89    5.10
  -5  -5   3   80.05    5.16
  -5  -5   3   72.32    5.68
  -5  -5   3   81.62    5.24
  -5  -5   3   86.22    5.06
  -5  -5   4    5.50    1.48
  -5  -5   4    3.17    1.11
  -5  -5   4    2.96    1.06
  -5  -5   4    1.17    0.64
  -5  -5   4    0.22    0.90
  -5  -5   4    5.57    1.40
  -5  -5   5  123.47    7.29
  -5  -5   5  130.86    6.67
  -5  -5   5  113.39    6.79
  -5  -5   5  125.77    7.40
  -5  -5   5  104.82    6.66
  -5  -5   6  245.42   10.52
  -5  -5   6  239.71   10.40
  -5  -5   6  244.36    9.40
  -5  -5   6  243.19   10.60
  -5  -5   6  224.01    9.90
  -5  -5   6  236.61   10.01
  -5  -5   7  125.36    7.17
  -5  -5   7  120.00    6.92
  -5  -5   7  119.82    6.71
  -5  -5   7  114.25    6.38
  -5  -5   7  114.41    6.76
  -5  -5   8   75.82    4.91
  -5  -5   8   73.51    5.08
  -5  -5   8   67.13    4.89
  -5  -5   8   68.27    4.74
  -5  -5   9    3.79    1.00
  -5  -5   9    5.59    1.25
  -5  -5   9    4.08    1.05
  -5  -5   9    4.11    1.16
  -5  -5  10    2.59    0.77
  -5  -5  10    2.13    0.65
  -5  -4  -2    1.70    0.47
  -5  -4  -1   33.81    2.80
  -5  -4  -1   27.24    2.54
  -5  -4   0   15.37    2.15
  -5  -4   1   79.64    5.73
  -5  -4   1   87.07    5.72
  -5  -4   2    4.96    1.46
  -5  -4   2    3.59    1.37
  -5  -4   2    5.37    1.39
  -5  -4   3   10.93    1.93
  -5  -4   3   10.10    1.98
  -5  -4   3   11.48    2.21
  -5  -4   3   13.19    2.94
  -5  -4   3    7.42    1.74
  -5  -4   3    8.94    1.84
  -5  -4   4    5.08    1.51
  -5  -4   4    4.66    1.28
  -5  -4   4    9.57    2.02
  -5  -4   4    6.54    1.90
  -5  -4   4    3.52    1.19
  -5  -4   4    3.57    1.28
  -5  -4   5  174.24    8.85
  -5  -4   5  139.63    8.86
  -5  -4   5  145.77    7.90
  -5  -4   5  144.25    7.82
  -5  -4   5  145.37    7.89
  -5  -4   5  158.04    7.60
  -5  -4   5  162.27    8.55
  -5  -4   6  140.08    7.79
  -5  -4   6  149.16    8.16
  -5  -4   6  140.29    7.50
  -5  -4   6  129.82    7.17
  -5  -4   6  132.92    7.63
  -5  -4   7   20.40    2.84
  -5  -4   7   20.28    2.78
  -5  -4   7   18.78    2.68
  -5  -4   7   15.57    2.41
  -5  -4   8    6.88    1.57
  -5  -4   8    5.17    1.38
  -5  -4   8    4.83    1.26
  -5  -4   9   34.40    3.05
  -5  -4   9   36.29    3.29
  -5  -4   9   37.71    3.15
  -5  -4   9   38.50    3.41
  -5  -4  10   13.57    1.73
  -5  -4  10   16.86    1.93
  -5  -4  10   11.80    1.40
  -5  -3  -3    9.64    1.14
  -5  -3  -2   49.03    3.37
  -5  -3  -1   72.56    4.95
  -5  -3   0  128.04    7.44
  -5  -3   0  119.71    7.05
  -5  -3   1   64.73    5.34
  -5  -3   1   61.36    6.79
  -5  -3   1   58.27    5.01
  -5  -3   1   56.44    4.99
  -5  -3   2   14.01    3.12
  -5  -3   2   13.79    2.37
  -5  -3   2   12.21    2.37
  -5  -3   2   11.61    2.29
  -5  -3   2   10.87    2.24
  -5  -3   3   96.65    7.82
  -5  -3   3   95.49    6.57
  -5  -3   3   85.23    6.08
  -5  -3   3   83.35    6.10
  -5  -3   3   85.94    5.83
  -5  -3   3   96.21    7.65
  -5  -3   4  277.17   10.99
  -5  -3   4  308.59   13.70
  -5  -3   4  286.69   11.90
  -5  -3   4  286.51   11.67
  -5  -3   4  286.33   13.60
  -5  -3   4  276.59   11.52
  -5  -3   4  277.66   11.78
  -5  -3   5  184.10    9.13
  -5  -3   5  186.73    9.38
  -5  -3   5  200.12    9.79
  -5  -3   5  192.75    9.07
  -5  -3   5  211.33    9.42
  -5  -3   5  196.45    9.26
  -5  -3   6  336.75   12.57
  -5  -3   6  335.73   12.44
  -5  -3   6  338.89   12.91
  -5  -3   6  346.97   13.37
  -5  -3   6  340.69   12.90
  -5  -3   7   86.32    5.80
  -5  -3   7   87.52    5.98
  -5  -3   7   82.90    5.93
  -5  -3   7   96.37    5.97
  -5  -3   7   88.28    5.93
  -5  -3   8   27.29    3.16
  -5  -3   8   34.10    3.56
  -5  -3   8   33.39    3.33
  -5  -3   8   31.97    3.33
  -5  -3   8   26.72    2.92
  -5  -3   9    3.40    1.01
  -5  -3   9    3.40    1.08
  -5  -3  10    2.31    0.72
  -5  -3  10    2.07    0.71
  -5  -2  -2   60.33    4.56
  -5  -2  -1  159.97   10.78
  -5  -2   0   17.73    2.72
  -5  -2   0    9.98    3.00
  -5  -2   1   23.36    3.21
  -5  -2   1   23.07    3.40
  -5  -2   1   25.02    4.65
  -5  -2   2   19.20    3.92
  -5  -2   2   18.38    3.29
  -5  -2   2   11.76    2.17
  -5  -2   2   15.11    2.70
  -5  -2   2   17.85    2.79
  -5  -2   2   15.31    2.95
  -5  -2   3  396.11   16.24
  -5  -2   3  467.84   17.96
  -5  -2   3  390.01   14.50
  -5  -2   3  457.67   17.87
  -5  -2   4  254.69   10.82
  -5  -2   4  247.60   10.91
  -5  -2   4  246.27   10.62
  -5  -2   4  221.61   11.58
  -5  -2   5  182.84    9.09
  -5  -2   5  188.99    9.40
  -5  -2   5  185.86    8.91
  -5  -2   5  172.93    8.65
  -5  -2   5  190.68   10.66
  -5  -2   5  186.06    8.96
  -5  -2   6  239.32   10.49
  -5  -2   6  237.39   10.33
  -5  -2   6  242.00   10.34
  -5  -2   6  234.78   10.10
  -5  -2   7   96.76    6.15
  -5  -2   7  111.23    6.61
  -5  -2   7  111.71    6.83
  -5  -2   7  114.60    6.83
  -5  -2   7  104.70    6.26
  -5  -2   8   53.36    4.26
  -5  -2   8   50.77    4.32
  -5  -2   8   52.78    4.28
  -5  -2   9   59.27    4.22
  -5  -2   9   56.09    4.06
  -5  -2   9   59.68    4.19
  -5  -2  10   26.39    2.11
  -5  -2  10   29.13    2.44
  -5  -1  -1  114.53   10.92
  -5  -1   0   95.11    9.67
  -5  -1   0   74.40    6.60
  -5  -1   1   54.82    7.05
  -5  -1   1   40.87    4.80
  -5  -1   1   55.69    6.51
  -5  -1   2  221.96   13.35
  -5  -1   2  225.49   11.62
  -5  -1   3  373.69   15.28
  -5  -1   3  377.53   16.22
  -5  -1   4  301.29   13.33
  -5  -1   4  387.90   15.68
  -5  -1   5   74.61    5.53
  -5  -1   5   67.90    5.32
  -5  -1   5   66.06    5.18
  -5  -1   5   65.62    6.03
  -5  -1   5   69.68    5.59
  -5  -1   5   67.63    5.21
  -5  -1   6  313.27   12.22
  -5  -1   6  329.24   12.53
  -5  -1   6  320.28   12.31
  -5  -1   6  316.54   12.12
  -5  -1   7  260.76   10.74
  -5  -1   7  265.17   10.67
  -5  -1   7  260.56   10.76
  -5  -1   8  246.48    9.75
  -5  -1   8  247.75    9.91
  -5  -1   8  242.86    9.66
  -5  -1   9   48.90    3.62
  -5  -1   9   40.10    3.17
  -5  -1   9   44.02    3.43
  -5  -1  10    3.92    0.79
  -5   0  -1  112.25    8.80
  -5   0  -1  148.31   12.45
  -5   0  -1  132.55   11.04
  -5   0   0  316.51   16.52
  -5   0   0  305.32   16.96
  -5   0   0  322.99   17.88
  -5   0   1  153.38   11.17
  -5   0   1  127.31    8.49
  -5   0   1  154.78   11.40
  -5   0   2   93.59    7.05
  -5   0   2   98.58    8.42
  -5   0   2  100.73    7.62
  -5   0   2   93.34    8.33
  -5   0   3  173.75   10.73
  -5   0   3  151.04    8.99
  -5   0   4  133.02    8.92
  -5   0   5  181.64    8.93
  -5   0   5  189.23   10.39
  -5   0   5  194.29    9.20
  -5   0   5  174.92    8.98
  -5   0   5  186.82    9.04
  -5   0   6  133.40    7.41
  -5   0   6  144.72    7.74
  -5   0   6  129.10    7.37
  -5   0   7  162.31    7.99
  -5   0   7  157.75    7.83
  -5   0   7  150.82    7.63
  -5   0   8   11.78    1.84
  -5   0   8   10.71    1.87
  -5   0   8   13.02    1.97
  -5   0   9    8.49    1.41
  -5   0   9    9.95    1.50
  -5   1  -2  133.57   11.88
  -5   1  -1 1073.40   33.86
  -5   1  -1 1052.52   36.03
  -5   1  -1 1022.52   35.75
  -5   1   0  117.34    8.24
  -5   1   0  124.35   10.51
  -5   1   0  133.90    9.70
  -5   1   0  139.49   11.21
  -5   1   1   10.37    2.60
  -5   1   1   16.55    3.50
  -5   1   1   20.32    4.12
  -5   1   1   16.17    2.93
  -5   1   2   39.21    4.43
  -5   1   2   39.43    5.29
  -5   1   2   41.38    5.16
  -5   1   3  410.73   16.92
  -5   1   3  366.03   15.01
  -5   1   4  259.91   12.87
  -5   1   4  244.92   11.11
  -5   1   4  245.49   11.02
  -5   1   5    4.08    1.42
  -5   1   5    2.74    1.01
  -5   1   6  146.02    7.66
  -5   1   6  144.53    7.66
  -5   1   7  150.10    7.29
  -5   1   7  140.36    7.06
  -5   1   7  146.33    7.16
  -5   1   7  158.50    7.62
  -5   1   8   34.32    2.98
  -5   1   8   38.38    3.19
  -5   1   9    6.11    1.03
  -5   1   9    6.49    1.04
  -5   2  -2   30.42    4.95
  -5   2  -2   28.91    5.16
  -5   2  -2   26.21    5.10
  -5   2  -2   31.02    5.64
  -5   2  -1  177.71   12.90
  -5   2  -1  204.22   13.47
  -5   2  -1  200.89   13.93
  -5   2   0  120.58    9.64
  -5   2   0  105.75    7.69
  -5   2   0   85.98    8.42
  -5   2   0  103.84    9.51
  -5   2   0   97.99    9.03
  -5   2   1   45.57    6.13
  -5   2   1   41.98    5.63
  -5   2   1   37.50    4.44
  -5   2   1   42.82    5.53
  -5   2   2   58.07    6.71
  -5   2   2   52.08    5.25
  -5   2   2   64.93    5.98
  -5   2   2   53.62    6.12
  -5   2   3   90.07    6.65
  -5   2   3   85.28    7.78
  -5   2   3   91.38    7.22
  -5   2   3   71.99    6.16
  -5   2   3   80.02    7.24
  -5   2   4  273.58   11.65
  -5   2   4  289.91   12.12
  -5   2   5  180.30    8.77
  -5   2   5  192.98    9.13
  -5   2   5  166.14    8.16
  -5   2   6   49.49    4.08
  -5   2   6   51.10    4.17
  -5   2   6   50.62    4.20
  -5   2   7   10.39    1.71
  -5   2   7    9.32    1.64
  -5   2   8    2.67    0.85
  -5   2   8    1.98    0.65
  -5   3  -2   55.37    6.81
  -5   3  -2   76.68    8.76
  -5   3  -1   94.49    9.17
  -5   3  -1   84.71    8.20
  -5   3  -1   89.90    8.69
  -5   3   0  323.93   15.86
  -5   3   0  257.55   15.59
  -5   3   0  268.57   14.99
  -5   3   0  309.20   16.72
  -5   3   1  152.82   10.03
  -5   3   1  138.24   10.85
  -5   3   1  147.16   11.17
  -5   3   1  134.13    8.90
  -5   3   2   83.37    8.16
  -5   3   2   85.85    6.70
  -5   3   2   79.68    6.74
  -5   3   2   97.68    7.91
  -5   3   2   98.32    7.03
  -5   3   3   73.80    5.84
  -5   3   3   64.43    6.29
  -5   3   3   72.47    5.94
  -5   3   4  438.59   15.05
  -5   3   4  466.86   15.75
  -5   3   5    1.62    1.14
  -5   3   5    2.01    1.05
  -5   3   5    1.29    0.81
  -5   3   6    5.97    1.27
  -5   3   6    8.84    1.63
  -5   3   6   10.58    1.71
  -5   3   7    1.12    0.49
  -5   3   7    0.77    0.59
  -5   3   7    0.33    0.41
  -5   4  -2   19.55    4.27
  -5   4  -2   21.89    4.22
  -5   4  -1   41.83    6.06
  -5   4  -1   40.89    5.56
  -5   4  -1   34.03    5.09
  -5   4   0  225.36   11.41
  -5   4   0  217.06   14.08
  -5   4   0  224.26   13.05
  -5   4   1   86.78    7.78
  -5   4   1   79.91    6.46
  -5   4   1   73.70    7.94
  -5   4   2  253.37   12.05
  -5   4   2  224.34   12.93
  -5   4   2  264.65   11.87
  -5   4   3   14.67    3.13
  -5   4   3   15.48    2.67
  -5   4   3   14.48    2.55
  -5   4   4   33.90    3.55
  -5   4   4   33.35    3.54
  -5   4   4   33.86    3.30
  -5   4   5   77.10    4.92
  -5   4   5   68.28    4.48
  -5   4   5   73.35    4.59
  -5   4   6   27.17    2.55
  -5   4   6   25.67    2.35
  -5   4   7    6.96    1.03
  -5   5  -1  181.52   10.04
  -5   5   0  150.18    8.95
  -5   5   0  128.80    9.98
  -5   5   1   26.08    3.60
  -5   5   1   24.18    3.44
  -5   5   1   20.95    3.94
  -5   5   2   16.77    2.74
  -5   5   2   14.98    2.70
  -5   5   3   52.20    4.42
  -5   5   4    5.11    1.19
  -5   5   4    3.48    1.16
  -5   5   4    3.66    0.98
  -5   5   5    5.94    1.18
  -5   5   5    6.46    1.12
  -5   5   5    5.74    1.05
  -5   6  -2  102.03    6.92
  -5   6  -1    1.92    1.29
  -5   6   0    6.11    1.78
  -5   6   1   30.64    3.51
  -5   6   1   28.99    3.62
  -5   6   2   15.18    2.33
  -5   6   3   13.00    1.92
  -5   6   4    8.93    1.39
  -5   6   4    7.48    1.11
  -5   6   4    7.60    1.12
  -5   7  -3  122.61    6.88
  -5   7  -2   48.22    4.33
  -5   7  -1   28.85    3.25
  -5   7   0   18.58    2.54
  -5   7   0   16.58    2.49
  -5   7   1    7.00    1.51
  -5   7   2    7.79    1.39
  -5   7   3   29.10    2.27
  -5   8  -3   18.26    2.21
  -5   8  -2   16.03    2.18
  -5   8  -2   17.15    2.22
  -5   8  -1    0.57    0.55
  -5   8  -1    0.63    0.43
  -5   8   0    4.33    0.99
  -5   8   1    4.80    0.94
  -4  -8   2    7.91    1.02
  -4  -8   2    7.82    0.99
  -4  -8   3   12.79    1.50
  -4  -8   3   12.61    1.43
  -4  -8   3    9.90    1.23
  -4  -8   4    2.14    0.66
  -4  -8   4    2.35    0.75
  -4  -8   5    8.87    1.39
  -4  -8   5    9.31    1.40
  -4  -8   6   16.26    1.89
  -4  -8   7   34.12    2.83
  -4  -8   7   38.66    2.91
  -4  -8   8   34.48    2.78
  -4  -8   8   34.49    2.53
  -4  -7   1  102.36    4.45
  -4  -7   1  106.79    4.57
  -4  -7   1  108.49    4.77
  -4  -7   2   71.86    3.97
  -4  -7   2   67.00    3.79
  -4  -7   2   68.54    4.05
  -4  -7   2   65.50    3.89
  -4  -7   3  131.55    6.16
  -4  -7   3  136.59    5.94
  -4  -7   3  135.77    6.32
  -4  -7   4  261.95    9.54
  -4  -7   4  273.87    9.55
  -4  -7   4  266.96    9.05
  -4  -7   5  141.14    7.25
  -4  -7   5  153.69    6.76
  -4  -7   5  133.12    6.47
  -4  -7   6   10.63    1.97
  -4  -7   6    9.75    1.78
  -4  -7   6   11.66    1.83
  -4  -7   7   73.68    4.97
  -4  -7   7   75.21    4.86
  -4  -7   7   77.84    4.65
  -4  -7   7   76.40    5.00
  -4  -7   8   13.28    1.90
  -4  -7   8   12.71    1.88
  -4  -7   8   10.22    1.56
  -4  -7   8   10.24    1.76
  -4  -7   9   20.56    2.21
  -4  -7   9   18.95    2.12
  -4  -7  10   27.65    2.15
  -4  -6  -1    9.61    1.16
  -4  -6  -1   10.64    1.25
  -4  -6   0   90.99    4.48
  -4  -6   0   86.20    4.56
  -4  -6   1  167.28    7.11
  -4  -6   1  177.84    7.05
  -4  -6   1  152.16    6.81
  -4  -6   2  199.81    8.48
  -4  -6   2  220.14    8.36
  -4  -6   2  201.15    8.35
  -4  -6   3   61.30    4.49
  -4  -6   3   58.98    4.30
  -4  -6   3   65.69    4.36
  -4  -6   4  378.24   14.18
  -4  -6   4  392.09   12.86
  -4  -6   4  406.57   12.57
  -4  -6   4  420.20   13.18
  -4  -6   5  236.10   10.54
  -4  -6   5  230.38   10.20
  -4  -6   5  247.72    9.57
  -4  -6   5  235.15    9.41
  -4  -6   5  227.76    9.98
  -4  -6   6  165.87    7.60
  -4  -6   6  151.91    7.95
  -4  -6   6  165.43    8.62
  -4  -6   6  161.00    8.12
  -4  -6   7   16.07    2.41
  -4  -6   7   13.83    2.18
  -4  -6   7   13.74    2.00
  -4  -6   7   15.64    2.33
  -4  -6   7   11.13    2.06
  -4  -6   8   27.46    2.97
  -4  -6   8   27.34    3.05
  -4  -6   8   28.67    3.13
  -4  -6   9   31.91    3.05
  -4  -6   9   28.57    2.87
  -4  -6   9   29.77    2.87
  -4  -6   9   26.85    2.77
  -4  -6  10    4.93    1.03
  -4  -5  -2   27.01    2.07
  -4  -5  -2   22.00    1.84
  -4  -5  -1   23.89    2.38
  -4  -5  -1   24.27    2.38
  -4  -5   0   15.19    2.13
  -4  -5   0   17.98    2.25
  -4  -5   1   27.32    3.03
  -4  -5   1   22.17    2.63
  -4  -5   1   23.11    2.65
  -4  -5   2    5.75    1.39
  -4  -5   2    8.14    1.69
  -4  -5   2    9.65    1.86
  -4  -5   2    6.16    2.08
  -4  -5   2    8.84    1.75
  -4  -5   2    6.75    1.68
  -4  -5   3  103.21    6.10
  -4  -5   3  112.96    6.10
  -4  -5   3  102.34    6.77
  -4  -5   3  106.85    6.72
  -4  -5   3  103.05    6.05
  -4  -5   3  107.79    7.97
  -4  -5   4  241.45   10.63
  -4  -5   4  262.25   10.16
  -4  -5   4  227.89   10.17
  -4  -5   4  223.05   10.19
  -4  -5   4  261.65   12.43
  -4  -5   4  263.68   10.08
  -4  -5   4  253.53   10.89
  -4  -5   5  483.90   17.47
  -4  -5   5  449.57   15.19
  -4  -5   5  496.24   16.19
  -4  -5   5  446.67   15.08
  -4  -5   5  422.33   14.93
  -4  -5   5  485.83   16.12
  -4  -5   5  482.87   14.68
  -4  -5   6  111.97    6.68
  -4  -5   6  120.50    7.20
  -4  -5   6  120.59    6.90
  -4  -5   6  137.20    7.80
  -4  -5   6  117.34    7.01
  -4  -5   6  129.16    6.70
  -4  -5   7   82.11    5.61
  -4  -5   7   81.11    5.50
  -4  -5   7   75.58    5.59
  -4  -5   7   73.38    5.35
  -4  -5   8   66.44    4.97
  -4  -5   8   66.03    4.94
  -4  -5   8   68.41    5.11
  -4  -5   8   65.01    4.85
  -4  -5   9   98.29    5.61
  -4  -5   9   96.61    5.50
  -4  -5   9   99.96    5.75
  -4  -5   9  100.22    5.82
  -4  -5   9   93.71    5.45
  -4  -5  10   19.07    2.10
  -4  -5  10   18.42    2.05
  -4  -4  -3    7.27    1.07
  -4  -4  -2   13.30    1.91
  -4  -4  -2   14.58    1.86
  -4  -4   0   75.96    5.66
  -4  -4   0   80.14    5.57
  -4  -4   1   76.62    5.84
  -4  -4   1   86.37    7.54
  -4  -4   1   79.28    5.91
  -4  -4   1   91.95    6.05
  -4  -4   2   54.80    4.85
  -4  -4   2   64.89    6.19
  -4  -4   2   52.09    4.61
  -4  -4   2   52.82    4.41
  -4  -4   2   50.35    5.60
  -4  -4   3   40.82    4.74
  -4  -4   3   31.47    4.12
  -4  -4   3   30.02    3.50
  -4  -4   3   33.23    4.49
  -4  -4   3   31.65    3.29
  -4  -4   3   33.29    3.70
  -4  -4   4  229.61   12.08
  -4  -4   4  220.29   11.36
  -4  -4   4  225.62   10.17
  -4  -4   5  171.50    8.71
  -4  -4   5  163.84    8.15
  -4  -4   5  158.34    8.04
  -4  -4   5  167.14    7.82
  -4  -4   5  153.33    8.10
  -4  -4   5  176.99   10.58
  -4  -4   6   32.14    3.72
  -4  -4   6   26.48    3.12
  -4  -4   6   23.83    3.08
  -4  -4   6   27.43    3.12
  -4  -4   6   25.70    3.18
  -4  -4   7  182.38    8.59
  -4  -4   7  176.88    8.63
  -4  -4   7  165.62    8.45
  -4  -4   7  175.37    8.50
  -4  -4   8   11.63    2.01
  -4  -4   8   11.78    1.99
  -4  -4   8   11.32    2.07
  -4  -4   8   10.80    2.03
  -4  -4   9    7.90    1.54
  -4  -4   9    6.86    1.54
  -4  -4   9   10.07    1.82
  -4  -4  10   21.96    2.14
  -4  -4  10   23.22    2.35
  -4  -3  -4    2.84    0.62
  -4  -3  -2    0.05    0.77
  -4  -3  -1   11.27    2.45
  -4  -3  -1   12.85    3.30
  -4  -3  -1   12.57    2.43
  -4  -3   0  103.08    8.07
  -4  -3   0   87.75    6.30
  -4  -3   0  102.39    8.80
  -4  -3   0   87.53    6.16
  -4  -3   1  573.52   20.28
  -4  -3   1  679.54   23.34
  -4  -3   2  380.63   15.61
  -4  -3   2  330.71   13.88
  -4  -3   2  360.01   14.12
  -4  -3   3    8.37    2.20
  -4  -3   3   13.02    2.49
  -4  -3   3   11.14    2.22
  -4  -3   4  318.35   12.51
  -4  -3   4  284.78   12.94
  -4  -3   4  291.48   12.43
  -4  -3   5   79.58    6.56
  -4  -3   6  302.97   11.65
  -4  -3   6  302.20   11.75
  -4  -3   6  304.74   11.70
  -4  -3   6  277.22   11.45
  -4  -3   6  324.54   11.85
  -4  -3   7  134.67    7.30
  -4  -3   7  119.73    6.88
  -4  -3   7  126.74    7.21
  -4  -3   7  124.21    7.26
  -4  -3   7  117.32    6.83
  -4  -3   8    0.22    0.61
  -4  -3   8    1.83    0.98
  -4  -3   8    1.91    0.85
  -4  -3   9   83.53    5.31
  -4  -3   9   80.45    5.17
  -4  -3   9   68.18    4.51
  -4  -3  10   42.21    3.17
  -4  -2  -2  312.98   16.98
  -4  -2  -2  393.25   17.16
  -4  -2  -1   84.46    8.55
  -4  -2  -1   80.47    8.23
  -4  -2   0   19.41    3.93
  -4  -2   0   16.13    3.02
  -4  -2   0   15.55    3.38
  -4  -2   1   59.53    5.25
  -4  -2   1   73.47    6.04
  -4  -2   1   68.33    6.80
  -4  -2   2  491.47   18.09
  -4  -2   2  504.27   17.29
  -4  -2   2  448.70   15.74
  -4  -2   3   66.47    5.21
  -4  -2   3   69.76    5.62
  -4  -2   3   68.21    5.63
  -4  -2   4   14.50    2.55
  -4  -2   4   15.58    2.43
  -4  -2   4   13.88    2.24
  -4  -2   5  470.79   16.86
  -4  -2   5  492.70   16.82
  -4  -2   6  102.41    6.25
  -4  -2   6   92.42    6.93
  -4  -2   6   93.59    5.96
  -4  -2   7    8.21    1.78
  -4  -2   7    7.93    1.76
  -4  -2   7   11.42    2.11
  -4  -2   8    6.04    1.55
  -4  -2   8    6.50    1.41
  -4  -2   8    5.79    1.50
  -4  -2   9   72.27    4.84
  -4  -2   9   66.74    4.57
  -4  -2   9   67.19    4.60
  -4  -2  10   68.13    3.88
  -4  -1  -2  255.45   14.44
  -4  -1  -2  227.64   14.85
  -4  -1  -2  237.22   15.47
  -4  -1  -1  277.49   14.03
  -4  -1  -1  225.55   11.21
  -4  -1  -1  268.12   15.29
  -4  -1  -1  279.17   15.97
  -4  -1   0   36.45    5.06
  -4  -1   0   41.95    5.04
  -4  -1   0   43.72    5.44
  -4  -1   0   32.69    3.83
  -4  -1   0   37.41    4.10
  -4  -1   1   28.71    4.08
  -4  -1   1   22.81    3.77
  -4  -1   1   34.83    3.73
  -4  -1   1   29.83    4.13
  -4  -1   2  126.83    8.54
  -4  -1   2  150.01    8.89
  -4  -1   2  138.03    7.47
  -4  -1   3  225.59   10.50
  -4  -1   3  217.20   10.15
  -4  -1   3  194.02    8.95
  -4  -1   4  529.02   16.97
  -4  -1   4  452.10   14.77
  -4  -1   5  211.37    9.78
  -4  -1   5  228.17   10.47
  -4  -1   6   40.03    3.87
  -4  -1   6   39.14    3.84
  -4  -1   6   35.10    4.19
  -4  -1   6   37.88    3.77
  -4  -1   7   61.04    4.90
  -4  -1   7   68.69    5.07
  -4  -1   7   67.78    5.09
  -4  -1   8   98.77    6.04
  -4  -1   8   99.67    5.99
  -4  -1   8   88.38    5.74
  -4  -1   9  138.25    6.55
  -4  -1   9  130.50    6.42
  -4  -1  10   51.24    2.92
  -4   0  -3  121.56   11.02
  -4   0  -3  123.24   10.60
  -4   0  -2  127.66   10.10
  -4   0  -2  122.55   10.60
  -4   0  -2  105.40    7.99
  -4   0  -1   68.61    5.60
  -4   0  -1   75.45    7.48
  -4   0  -1   95.76    8.60
  -4   0  -1   85.93    7.53
  -4   0   0  331.56   15.65
  -4   0   0  360.19   14.75
  -4   0   0  340.67   15.69
  -4   0   0  314.33   12.53
  -4   0   1   78.86    5.51
  -4   0   1   86.03    6.38
  -4   0   1   81.13    6.81
  -4   0   1   76.45    6.77
  -4   0   1   81.36    5.98
  -4   0   2  412.20   16.04
  -4   0   2  432.61   15.26
  -4   0   2  452.12   16.54
  -4   0   2  415.30   13.96
  -4   0   3  338.72   13.79
  -4   0   3  337.53   13.05
  -4   0   3  331.38   11.95
  -4   0   4   53.79    4.27
  -4   0   4   63.65    5.25
  -4   0   5  130.86    7.70
  -4   0   5  133.53    7.69
  -4   0   6  323.58   12.01
  -4   0   6  320.23   12.15
  -4   0   6  316.28   11.90
  -4   0   7   89.14    5.83
  -4   0   7   84.91    5.62
  -4   0   7   94.91    5.99
  -4   0   7  100.44    6.17
  -4   0   8  108.25    6.10
  -4   0   8  103.30    5.94
  -4   0   9   30.23    2.75
  -4   0   9   34.59    2.90
  -4   1  -3   69.41    7.93
  -4   1  -3   49.63    6.79
  -4   1  -3   60.66    6.77
  -4   1  -2  612.23   24.02
  -4   1  -2  640.67   22.46
  -4   1  -2  574.81   23.45
  -4   1  -2  658.60   24.22
  -4   1  -1  953.42   26.14
  -4   1  -1  971.13   30.53
  -4   1   0 1777.33   43.90
  -4   1   0 1781.41   39.09
  -4   1   0 1756.46   42.91
  -4   1   0 1828.21   42.79
  -4   1   1  954.20   23.98
  -4   1   1  939.43   27.12
  -4   1   1  916.36   24.32
  -4   1   1  965.61   26.38
  -4   1   2  956.63   28.14
  -4   1   2 1002.57   27.36
  -4   1   2 1035.16   25.30
  -4   1   2 1026.44   26.27
  -4   1   2 1022.24   28.13
  -4   1   3  375.25   14.82
  -4   1   3  349.00   12.37
  -4   1   3  358.41   14.22
  -4   1   3  361.74   13.49
  -4   1   4  179.68    8.56
  -4   1   4  158.59    8.72
  -4   1   5  183.25    9.58
  -4   1   5  183.31    8.73
  -4   1   6   57.30    4.55
  -4   1   6   50.31    4.27
  -4   1   6   50.25    4.35
  -4   1   6   48.03    4.20
  -4   1   7  138.03    7.12
  -4   1   7  146.20    7.33
  -4   1   8   16.08    2.17
  -4   1   8   16.10    2.11
  -4   1   8   14.00    1.95
  -4   1   9   13.77    1.57
  -4   1   9   13.04    1.52
  -4   2  -4   31.83    5.19
  -4   2  -3  251.98   15.06
  -4   2  -3  255.31   14.59
  -4   2  -3  250.36   14.79
  -4   2  -2  761.64   24.78
  -4   2  -2  707.55   24.61
  -4   2  -2  765.45   26.12
  -4   2  -1  683.97   21.93
  -4   2  -1  591.30   18.81
  -4   2  -1  687.41   23.34
  -4   2  -1  652.03   22.07
  -4   2  -1  616.72   22.07
  -4   2   0  701.64   23.25
  -4   2   0  690.98   21.99
  -4   2   0  683.39   23.08
  -4   2   0  734.88   21.70
  -4   2   0  687.06   21.35
  -4   2   0  671.61   19.88
  -4   2   1  168.62    9.18
  -4   2   1  142.75    9.33
  -4   2   1  167.79    8.34
  -4   2   1  167.84    8.89
  -4   2   1  150.22    9.58
  -4   2   2    7.95    1.79
  -4   2   2    7.74    2.31
  -4   2   2    6.11    1.97
  -4   2   2    7.47    2.01
  -4   2   3  426.48   16.50
  -4   2   3  416.19   14.03
  -4   2   3  467.04   16.45
  -4   2   3  439.24   16.92
  -4   2   3  400.05   14.14
  -4   2   4  629.60   20.08
  -4   2   4  762.81   22.35
  -4   2   5  132.52    7.16
  -4   2   5  139.26    7.50
  -4   2   5  134.10    7.29
  -4   2   6   94.55    5.92
  -4   2   6   92.61    5.87
  -4   2   6   90.54    5.67
  -4   2   7   58.02    4.22
  -4   2   7   54.46    4.07
  -4   2   8   20.85    2.19
  -4   2   8   22.19    2.21
  -4   2   8   17.00    1.94
  -4   3  -4   68.29    7.46
  -4   3  -4   64.26    7.65
  -4   3  -3   77.13    7.40
  -4   3  -3   74.09    7.72
  -4   3  -3   66.13    6.92
  -4   3  -2  461.56   18.79
  -4   3  -2  411.97   17.81
  -4   3  -2  429.89   17.63
  -4   3  -1  104.98    8.06
  -4   3  -1   99.13    7.45
  -4   3  -1   91.40    6.57
  -4   3  -1  100.12    7.39
  -4   3  -1   92.15    7.75
  -4   3   0   60.76    5.72
  -4   3   0   44.60    5.32
  -4   3   0   49.44    4.90
  -4   3   0   47.81    4.68
  -4   3   0   53.76    5.65
  -4   3   1   23.45    3.69
  -4   3   1   23.14    3.54
  -4   3   1   28.80    3.56
  -4   3   2   30.28    4.51
  -4   3   2   22.52    3.77
  -4   3   2   23.56    3.18
  -4   3   2   28.26    3.96
  -4   3   3  645.46   20.48
  -4   3   3  629.27   22.47
  -4   3   4  266.57   10.83
  -4   3   4  269.21   10.72
  -4   3   4  269.53   11.21
  -4   3   4  259.33   10.40
  -4   3   4  266.67   12.90
  -4   3   5   24.08    2.98
  -4   3   5   28.47    3.14
  -4   3   5   27.17    3.15
  -4   3   6    2.41    0.89
  -4   3   6    0.75    0.55
  -4   3   6    2.15    0.91
  -4   3   7    3.33    0.84
  -4   3   7    2.61    0.87
  -4   3   8    6.76    1.00
  -4   4  -4  129.61   10.06
  -4   4  -4  129.09   10.65
  -4   4  -3  253.80   14.31
  -4   4  -3  219.98   12.88
  -4   4  -2  102.77    8.57
  -4   4  -2  102.04    7.98
  -4   4  -2  100.72    7.60
  -4   4  -2  116.30    9.00
  -4   4  -2  114.86    8.44
  -4   4  -1  130.56    9.51
  -4   4  -1  136.72    8.85
  -4   4  -1  142.37    9.44
  -4   4  -1  122.99    8.25
  -4   4  -1  146.77    9.83
  -4   4   0   49.65    5.72
  -4   4   0   42.25    5.40
  -4   4   0   49.15    5.52
  -4   4   1   44.53    5.24
  -4   4   1   39.82    5.14
  -4   4   1   40.88    5.45
  -4   4   2  362.33   14.05
  -4   4   2  364.87   12.84
  -4   4   2  301.03   15.74
  -4   4   2  382.74   16.35
  -4   4   2  326.63   14.11
  -4   4   3  489.57   15.69
  -4   4   3  506.39   15.82
  -4   4   3  525.81   17.02
  -4   4   3  485.75   15.89
  -4   4   3  505.48   19.36
  -4   4   4   13.54    2.14
  -4   4   4   13.55    2.22
  -4   4   4   16.75    2.53
  -4   4   4   15.69    2.40
  -4   4   4   11.37    2.62
  -4   4   5   55.18    4.35
  -4   4   5   63.14    4.50
  -4   4   5   66.61    4.64
  -4   4   6   12.62    1.77
  -4   4   6   11.54    1.68
  -4   4   6   12.37    1.78
  -4   4   7   12.18    1.41
  -4   5  -3  255.66   14.43
  -4   5  -2  327.51   15.95
  -4   5  -2  289.67   14.24
  -4   5  -2  311.68   15.25
  -4   5  -1  362.86   16.67
  -4   5  -1  348.87   16.48
  -4   5   0  230.83   13.54
  -4   5   0  243.37   11.64
  -4   5   1  747.62   20.71
  -4   5   1  770.63   26.23
  -4   5   1  740.87   22.51
  -4   5   2  193.69    9.20
  -4   5   2  201.59    9.06
  -4   5   2  171.13   11.11
  -4   5   2  184.22    9.50
  -4   5   2  188.54    8.79
  -4   5   3    8.80    1.89
  -4   5   3    7.65    1.82
  -4   5   3    8.52    1.71
  -4   5   3    8.22    1.73
  -4   5   4   37.22    3.41
  -4   5   4   41.11    3.70
  -4   5   4   37.01    3.47
  -4   5   4   37.70    3.39
  -4   5   5   46.34    3.44
  -4   5   5   45.33    3.35
  -4   5   5   42.46    3.29
  -4   5   6    9.38    1.23
  -4   5   6    8.05    1.17
  -4   6  -2  104.74    8.90
  -4   6  -1  205.42   10.41
  -4   6  -1  204.99   12.67
  -4   6   0  219.05   10.70
  -4   6   0  215.05   13.03
  -4   6   1   84.80    5.61
  -4   6   1   89.29    6.42
  -4   6   1   84.42    5.78
  -4   6   2   37.27    3.51
  -4   6   2   40.13    3.76
  -4   6   2   37.33    3.55
  -4   6   2   40.30    4.07
  -4   6   3    6.47    1.37
  -4   6   3    5.74    1.33
  -4   6   3    6.67    1.43
  -4   6   3    3.23    0.86
  -4   6   4   12.55    1.68
  -4   6   4   12.56    1.72
  -4   6   4   13.30    1.74
  -4   6   5    2.28    0.65
  -4   6   5    1.76    0.49
  -4   7  -2   48.37    4.63
  -4   7  -1   50.53    4.71
  -4   7   0  160.75    8.43
  -4   7   1    9.43    1.63
  -4   7   1   11.07    1.85
  -4   7   1   10.66    1.96
  -4   7   2    2.85    0.84
  -4   7   2    4.10    1.02
  -4   7   2    2.72    0.88
  -4   7   2    3.34    0.98
  -4   7   3    3.36    0.83
  -4   7   3    3.72    0.90
  -4   7   3    3.56    0.82
  -4   8  -5   15.97    2.37
  -4   8  -4   12.05    2.13
  -4   8  -3   74.41    5.27
  -4   8  -2    3.85    1.28
  -4   8  -1    4.61    1.23
  -4   8   0    0.80    0.52
  -4   8   0    1.02    0.70
  -4   8   1   10.82    1.43
  -4   8   1   11.07    1.58
  -4   8   1   11.06    1.44
  -4   9  -4   12.92    1.83
  -4   9  -3    7.76    1.41
  -4   9  -3    6.25    1.19
  -4   9  -2    9.53    1.52
  -4   9  -1    1.22    0.50
  -3  -9   3    5.23    0.83
  -3  -9   3    5.02    0.85
  -3  -9   4   10.62    1.27
  -3  -9   4   14.45    1.60
  -3  -9   4   13.11    1.45
  -3  -9   5   11.05    1.42
  -3  -9   5    8.63    1.20
  -3  -9   5    9.68    1.34
  -3  -9   6   14.34    1.53
  -3  -9   6   17.25    1.83
  -3  -9   7   13.99    1.61
  -3  -9   8    3.52    0.74
  -3  -8   1   14.81    1.48
  -3  -8   1   14.78    1.43
  -3  -8   1   15.44    1.54
  -3  -8   2   29.75    2.51
  -3  -8   2   28.11    2.25
  -3  -8   2   29.09    2.37
  -3  -8   3   22.78    2.32
  -3  -8   3   21.95    2.22
  -3  -8   3   22.31    2.29
  -3  -8   4   48.81    3.41
  -3  -8   4   50.98    3.71
  -3  -8   4   49.11    3.53
  -3  -8   5   20.23    2.27
  -3  -8   5   20.58    2.17
  -3  -8   5   21.65    2.41
  -3  -8   6    3.46    0.98
  -3  -8   6    3.27    1.05
  -3  -8   6    2.76    0.91
  -3  -8   7    0.85    0.64
  -3  -8   7    1.93    0.64
  -3  -8   8    7.03    1.25
  -3  -8   8    8.36    1.43
  -3  -8   8    6.90    1.24
  -3  -8   9   10.53    1.26
  -3  -8   9   14.19    1.67
  -3  -7  -1   16.60    1.45
  -3  -7   0   17.73    1.74
  -3  -7   0   16.17    1.79
  -3  -7   0   17.53    1.83
  -3  -7   0   19.61    1.92
  -3  -7   1  180.73    7.02
  -3  -7   1  163.64    6.61
  -3  -7   1  166.85    6.97
  -3  -7   2  248.54    9.22
  -3  -7   2  280.81    9.50
  -3  -7   2  264.16    9.10
  -3  -7   2  231.70    9.03
  -3  -7   3  294.07   10.39
  -3  -7   3  296.03   10.65
  -3  -7   3  310.37   10.27
  -3  -7   4  226.56    9.17
  -3  -7   4  237.30    9.22
  -3  -7   4  244.99    9.06
  -3  -7   5   85.47    5.84
  -3  -7   5   89.69    5.37
  -3  -7   5   95.02    5.54
  -3  -7   5   91.51    5.23
  -3  -7   5   82.86    5.62
  -3  -7   6  214.39    8.72
  -3  -7   6  203.84    9.26
  -3  -7   6  199.29    9.11
  -3  -7   7   81.89    5.42
  -3  -7   7   68.75    5.07
  -3  -7   7   87.97    5.23
  -3  -7   7   78.10    5.23
  -3  -7   8   15.99    2.21
  -3  -7   8   14.28    1.92
  -3  -7   8   18.76    2.37
  -3  -7   9   66.63    4.31
  -3  -7   9   60.36    4.10
  -3  -7  10   29.86    2.41
  -3  -6  -2   13.17    1.30
  -3  -6  -2   16.36    1.58
  -3  -6  -2   14.81    1.46
  -3  -6  -1    6.02    1.07
  -3  -6  -1    8.12    1.33
  -3  -6  -1    8.51    1.40
  -3  -6  -1    9.05    1.45
  -3  -6   0    5.30    1.15
  -3  -6   0    6.14    1.30
  -3  -6   0    6.26    1.42
  -3  -6   1   87.51    5.31
  -3  -6   1   84.88    5.01
  -3  -6   1   79.73    5.11
  -3  -6   2  271.56   10.03
  -3  -6   2  289.49   10.11
  -3  -6   3  787.32   24.34
  -3  -6   3  824.03   20.82
  -3  -6   3  832.91   20.43
  -3  -6   3  764.70   20.69
  -3  -6   4  484.77   16.04
  -3  -6   4  526.62   14.92
  -3  -6   4  518.59   15.25
  -3  -6   4  491.53   14.91
  -3  -6   4  491.16   16.25
  -3  -6   5  124.31    7.14
  -3  -6   5  124.25    7.18
  -3  -6   5  142.92    6.98
  -3  -6   5  131.50    6.81
  -3  -6   6  121.39    7.05
  -3  -6   6  142.38    7.03
  -3  -6   6  130.93    7.24
  -3  -6   6  119.40    6.94
  -3  -6   7  214.53    9.50
  -3  -6   7  229.91    9.29
  -3  -6   7  220.64    9.77
  -3  -6   7  233.26    9.94
  -3  -6   8  243.89   10.04
  -3  -6   8  238.02    9.69
  -3  -6   8  228.61    9.69
  -3  -6   8  209.16    9.14
  -3  -6   9   24.37    2.69
  -3  -6   9   21.05    2.51
  -3  -6   9   21.16    2.54
  -3  -6  10    5.65    1.11
  -3  -5  -3   35.37    2.38
  -3  -5  -3   35.29    2.42
  -3  -5  -2   22.64    2.32
  -3  -5  -1   40.80    3.49
  -3  -5  -1   38.26    3.46
  -3  -5   0  130.60    6.85
  -3  -5   0  132.04    8.72
  -3  -5   0  128.44    6.56
  -3  -5   1   53.79    5.47
  -3  -5   1   50.88    4.00
  -3  -5   1   45.91    3.88
  -3  -5   1   47.94    4.08
  -3  -5   2   57.10    4.78
  -3  -5   2   64.06    4.44
  -3  -5   2   51.47    4.08
  -3  -5   2   59.51    4.50
  -3  -5   2   52.52    5.39
  -3  -5   2   54.79    4.87
  -3  -5   3   23.28    3.59
  -3  -5   3   31.44    3.88
  -3  -5   4  329.05   14.58
  -3  -5   4  392.72   14.53
  -3  -5   5   18.82    2.68
  -3  -5   5   21.91    3.20
  -3  -5   5   18.15    2.57
  -3  -5   5   20.81    2.75
  -3  -5   5   15.83    2.36
  -3  -5   5   26.74    2.87
  -3  -5   5   23.85    3.61
  -3  -5   6   59.26    4.89
  -3  -5   6   53.74    4.40
  -3  -5   6   58.35    4.71
  -3  -5   6   63.00    4.54
  -3  -5   6   58.97    4.66
  -3  -5   6   64.10    5.25
  -3  -5   7   80.86    5.63
  -3  -5   7   71.14    5.36
  -3  -5   7   78.97    5.55
  -3  -5   7   79.29    5.46
  -3  -5   8  229.40    9.78
  -3  -5   8  237.73   10.02
  -3  -5   8  211.16    9.60
  -3  -5   8  248.74   10.33
  -3  -5   9  105.04    6.04
  -3  -5   9  115.76    6.19
  -3  -5   9  111.04    6.08
  -3  -5  10   12.91    1.70
  -3  -4  -4    0.20    0.30
  -3  -4  -3   24.20    2.42
  -3  -4  -2   10.48    2.65
  -3  -4  -2    5.30    1.20
  -3  -4  -1  208.67   11.71
  -3  -4   0   50.28    4.29
  -3  -4   0   61.28    5.82
  -3  -4   0   55.37    5.67
  -3  -4   0   45.81    4.39
  -3  -4   1   10.04    2.23
  -3  -4   1   12.12    2.62
  -3  -4   1   10.90    2.26
  -3  -4   1   11.90    2.39
  -3  -4   2  136.98    7.96
  -3  -4   2  110.69    7.17
  -3  -4   2  125.27    7.80
  -3  -4   3  319.18   12.29
  -3  -4   3  316.02   12.79
  -3  -4   4  176.53    9.41
  -3  -4   4  193.13    8.99
  -3  -4   5    7.70    1.85
  -3  -4   5    5.95    1.82
  -3  -4   6   46.72    4.58
  -3  -4   6   47.35    5.02
  -3  -4   7   14.49    2.24
  -3  -4   7   14.27    2.38
  -3  -4   7   15.09    2.22
  -3  -4   7   11.83    2.14
  -3  -4   7    8.74    1.84
  -3  -4   8  157.38    7.29
  -3  -4   8  153.73    7.92
  -3  -4   8  151.33    7.78
  -3  -4   8  152.50    7.87
  -3  -4   9   87.12    5.51
  -3  -4   9   86.90    4.97
  -3  -4   9   83.83    5.23
  -3  -4   9   92.93    5.81
  -3  -3  -4   39.14    3.01
  -3  -3  -3   57.65    5.97
  -3  -3  -2   80.38    7.24
  -3  -3  -1  150.73    9.84
  -3  -3  -1  162.68    9.82
  -3  -3  -1  129.71    8.46
  -3  -3   0  256.86   13.04
  -3  -3   0  273.48   12.19
  -3  -3   0  266.57   12.86
  -3  -3   0  276.77   11.91
  -3  -3   1  405.23   15.18
  -3  -3   1  397.84   13.95
  -3  -3   1  366.40   12.69
  -3  -3   1  404.90   14.32
  -3  -3   2 1754.49   38.52
  -3  -3   2 1617.39   36.76
  -3  -3   2 1688.36   36.83
  -3  -3   3  741.48   20.48
  -3  -3   3  767.01   20.47
  -3  -3   4  256.24   10.04
  -3  -3   4  275.90   11.20
  -3  -3   5   94.22    5.76
  -3  -3   5   89.15    6.17
  -3  -3   6   75.23    5.48
  -3  -3   6   79.34    6.20
  -3  -3   7   86.25    5.76
  -3  -3   7   95.38    6.06
  -3  -3   7   85.07    5.79
  -3  -3   7   95.74    5.59
  -3  -3   7   95.09    6.04
  -3  -3   8   66.52    5.04
  -3  -3   8   70.91    5.27
  -3  -3   8   80.47    5.04
  -3  -3   8   79.60    5.51
  -3  -3   9  128.89    6.18
  -3  -3   9  132.03    6.83
  -3  -3   9  129.22    6.87
  -3  -3  10    9.66    1.44
  -3  -2  -4   19.53    3.40
  -3  -2  -3  284.45   14.18
  -3  -2  -2   90.41    8.34
  -3  -2  -2   70.65    7.22
  -3  -2  -1  235.50   12.31
  -3  -2  -1  197.96    9.78
  -3  -2  -1  217.38   12.44
  -3  -2   0  541.96   16.77
  -3  -2   0  543.36   19.61
  -3  -2   1  723.28   19.50
  -3  -2   1  779.30   20.91
  -3  -2   1  725.89   22.30
  -3  -2   2   72.90    5.46
  -3  -2   2   76.50    5.08
  -3  -2   2   69.58    4.50
  -3  -2   3  960.66   23.57
  -3  -2   3  926.87   22.28
  -3  -2   4    6.19    1.47
  -3  -2   4    5.29    1.23
  -3  -2   4    8.54    1.48
  -3  -2   4    7.93    1.49
  -3  -2   5  137.87    6.58
  -3  -2   5  146.64    7.48
  -3  -2   5  150.67    7.61
  -3  -2   6  105.60    6.99
  -3  -2   7   40.33    3.88
  -3  -2   7   42.20    3.91
  -3  -2   7   39.48    3.86
  -3  -2   7   43.75    3.69
  -3  -2   8   62.80    4.45
  -3  -2   8   60.17    4.72
  -3  -2   8   57.75    4.72
  -3  -2   8   65.94    4.98
  -3  -2   9   96.56    5.61
  -3  -2   9   96.63    5.15
  -3  -2  10    1.11    0.48
  -3  -1  -4   44.14    5.17
  -3  -1  -3   52.30    6.31
  -3  -1  -3   49.75    6.37
  -3  -1  -3   44.64    6.15
  -3  -1  -2   46.72    5.87
  -3  -1  -2   39.29    3.95
  -3  -1  -2   48.43    5.29
  -3  -1  -2   42.12    5.37
  -3  -1  -1   49.92    5.56
  -3  -1  -1   55.98    5.62
  -3  -1  -1   55.58    4.84
  -3  -1  -1   46.74    4.09
  -3  -1   0  967.09   27.07
  -3  -1   0  921.95   23.17
  -3  -1   0  967.82   26.31
  -3  -1   1 1918.52   44.58
  -3  -1   1 2094.03   44.39
  -3  -1   1 2112.09   43.03
  -3  -1   1 1945.24   40.39
  -3  -1   1 2006.82   40.11
  -3  -1   2  755.42   19.83
  -3  -1   2  756.95   20.14
  -3  -1   2  731.82   17.52
  -3  -1   3  534.43   13.92
  -3  -1   3  572.24   14.72
  -3  -1   3  570.04   15.54
  -3  -1   4  510.69   14.94
  -3  -1   4  481.17   13.95
  -3  -1   5   75.14    5.22
  -3  -1   6   51.98    4.85
  -3  -1   7   38.73    3.83
  -3  -1   7   47.75    4.16
  -3  -1   7   40.32    3.77
  -3  -1   7   40.42    3.56
  -3  -1   7   43.90    4.10
  -3  -1   8   63.21    4.37
  -3  -1   8   54.32    4.45
  -3  -1   8   54.44    4.46
  -3  -1   9   23.02    2.57
  -3  -1   9   20.37    2.41
  -3  -1   9   22.47    2.26
  -3  -1  10   17.77    1.51
  -3   0  -5    2.87    1.16
  -3   0  -4  186.58   12.77
  -3   0  -3   15.01    2.91
  -3   0  -3   16.49    3.45
  -3   0  -3   24.83    4.41
  -3   0  -2   82.97    7.27
  -3   0  -2   74.15    7.06
  -3   0  -2   78.52    6.60
  -3   0  -2   76.35    5.22
  -3   0  -1  540.67   18.51
  -3   0  -1  524.27   18.67
  -3   0  -1  548.97   15.81
  -3   0  -1  560.27   19.10
  -3   0   0  163.24    8.82
  -3   0   0  167.08    7.12
  -3   0   0  176.36    8.27
  -3   0   0  186.93    9.23
  -3   0   0  180.93    9.32
  -3   0   1  621.10   19.17
  -3   0   1  692.46   16.75
  -3   0   1  646.66   16.26
  -3   0   1  687.44   18.70
  -3   0   1  711.38   19.47
  -3   0   2 2021.36   42.01
  -3   0   2 2090.99   39.44
  -3   0   2 2057.36   43.47
  -3   0   2 1969.18   40.09
  -3   0   2 2047.57   41.60
  -3   0   3  774.49   18.53
  -3   0   3  787.77   20.09
  -3   0   3  821.02   18.98
  -3   0   3  811.22   20.69
  -3   0   4  175.32    7.87
  -3   0   4  174.72    7.57
  -3   0   5   21.64    2.81
  -3   0   6  137.69    7.26
  -3   0   6  125.16    6.67
  -3   0   6  137.01    8.28
  -3   0   7  115.84    6.71
  -3   0   7  119.15    6.59
  -3   0   7  119.19    6.33
  -3   0   8   32.72    3.21
  -3   0   8   34.52    3.37
  -3   0   8   32.25    2.96
  -3   0   8   36.06    3.49
  -3   0   9   72.33    4.20
  -3   0   9   80.71    4.03
  -3   1  -4  167.07   11.06
  -3   1  -4  166.07   10.00
  -3   1  -4  162.71   11.64
  -3   1  -4  171.36   11.72
  -3   1  -3   45.02    4.99
  -3   1  -3   48.94    5.64
  -3   1  -3   49.67    5.73
  -3   1  -2   83.06    6.57
  -3   1  -2   85.32    6.73
  -3   1  -2   97.42    6.88
  -3   1  -1  491.14   15.46
  -3   1  -1  464.54   14.95
  -3   1  -1  476.23   15.48
  -3   1  -1  483.35   16.12
  -3   1   0  199.72    8.44
  -3   1   0  169.15    7.10
  -3   1   0  181.43    8.36
  -3   1   0  177.72    8.43
  -3   1   0  182.47    8.85
  -3   1   0  171.00    7.61
  -3   1   1 4980.84   93.74
  -3   1   1 5226.50   93.38
  -3   1   1 5036.27   93.69
  -3   1   1 4885.44   88.71
  -3   1   1 5324.57   91.97
  -3   1   1 5250.39   95.83
  -3   1   1 4925.69   94.86
  -3   1   2 4509.28   82.65
  -3   1   2 4391.71   84.35
  -3   1   2 4629.15   87.08
  -3   1   2 4721.56   86.03
  -3   1   2 4638.79   83.61
  -3   1   2 4748.88   87.94
  -3   1   3  864.65   20.93
  -3   1   3  915.32   23.06
  -3   1   3  880.36   22.85
  -3   1   3  872.81   22.52
  -3   1   3  843.44   20.26
  -3   1   4    2.88    0.84
  -3   1   4    5.39    1.23
  -3   1   5   10.55    2.13
  -3   1   6   34.10    3.43
  -3   1   6   27.70    3.16
  -3   1   6   32.39    3.24
  -3   1   7   95.00    5.72
  -3   1   7  105.65    6.03
  -3   1   7  103.52    5.72
  -3   1   7  103.87    6.15
  -3   1   8   23.09    2.49
  -3   1   8   19.47    2.33
  -3   1   8   22.71    2.55
  -3   1   8   19.21    2.09
  -3   2  -4  136.84    9.89
  -3   2  -4  134.03    9.54
  -3   2  -3  288.53   13.32
  -3   2  -3  320.56   13.95
  -3   2  -2  324.39   12.70
  -3   2  -2  327.66   12.29
  -3   2  -2  341.30   13.23
  -3   2  -1  641.68   18.22
  -3   2  -1  625.19   18.61
  -3   2  -1  611.10   17.25
  -3   2  -1  653.79   18.16
  -3   2   0  670.52   19.22
  -3   2   0  707.85   19.63
  -3   2   0  692.62   18.33
  -3   2   0  670.34   18.87
  -3   2   1 2265.48   43.81
  -3   2   1 2266.85   44.96
  -3   2   1 2220.10   47.02
  -3   2   1 2261.37   47.44
  -3   2   1 2118.21   47.30
  -3   2   2 2342.47   50.47
  -3   2   2 2417.96   50.21
  -3   2   2 2450.06   47.76
  -3   2   2 2303.92   50.84
  -3   2   3 1545.44   33.63
  -3   2   3 1626.87   35.69
  -3   2   3 1610.78   37.38
  -3   2   4  110.89    6.86
  -3   2   4  116.96    7.36
  -3   2   4  105.40    6.17
  -3   2   5  104.08    6.39
  -3   2   5  102.20    6.12
  -3   2   5  106.17    6.26
  -3   2   5  106.44    6.12
  -3   2   5   96.68    6.56
  -3   2   5  107.86    6.24
  -3   2   6   69.61    4.81
  -3   2   6   64.05    4.84
  -3   2   6   69.75    4.92
  -3   2   7   33.63    3.21
  -3   2   7   35.81    3.26
  -3   2   7   32.29    3.08
  -3   2   8   10.33    1.54
  -3   2   8    9.05    1.41
  -3   3  -5   72.01    7.23
  -3   3  -5   75.54    7.44
  -3   3  -4  116.10    8.58
  -3   3  -4  138.76    9.55
  -3   3  -3   45.22    4.89
  -3   3  -3   35.28    3.62
  -3   3  -3   40.34    4.33
  -3   3  -2  251.58   10.81
  -3   3  -2  245.19   10.30
  -3   3  -2  223.18    9.72
  -3   3  -1  199.92    9.34
  -3   3  -1  196.62    9.10
  -3   3  -1  221.29    9.75
  -3   3   0 1303.88   32.22
  -3   3   0 1324.97   32.18
  -3   3   1   19.53    2.87
  -3   3   1   14.04    2.40
  -3   3   1   18.49    2.49
  -3   3   1   20.97    3.12
  -3   3   2    4.70    1.71
  -3   3   2   16.86    2.51
  -3   3   3  306.43   11.04
  -3   3   3  321.09   12.77
  -3   3   3  295.19   12.77
  -3   3   4   32.92    3.57
  -3   3   4   32.26    3.32
  -3   3   4   34.86    3.47
  -3   3   4   28.28    3.70
  -3   3   4   31.00    3.95
  -3   3   4   33.31    3.46
  -3   3   4   29.78    3.46
  -3   3   5    6.71    1.61
  -3   3   5    3.89    1.28
  -3   3   5    5.55    1.40
  -3   3   5    7.13    1.63
  -3   3   5    6.29    1.39
  -3   3   6   60.05    4.29
  -3   3   6   61.88    4.50
  -3   3   6   60.66    4.39
  -3   3   7    9.44    1.54
  -3   3   7    7.86    1.38
  -3   4  -5   12.63    3.06
  -3   4  -4   -0.86    1.40
  -3   4  -4    1.52    1.32
  -3   4  -3   59.14    5.26
  -3   4  -3   64.99    5.89
  -3   4  -3   53.87    5.24
  -3   4  -3   44.89    4.54
  -3   4  -2  346.41   13.28
  -3   4  -2  307.35   12.95
  -3   4  -2  342.37   13.70
  -3   4  -1  472.88   16.61
  -3   4  -1  509.14   16.88
  -3   4  -1  489.11   16.67
  -3   4   0   62.25    5.72
  -3   4   0   69.45    5.58
  -3   4   0   66.53    5.71
  -3   4   1  119.03    8.07
  -3   4   1  112.15    8.24
  -3   4   1  117.07    7.26
  -3   4   2   57.95    5.23
  -3   4   2   58.67    5.72
  -3   4   2   46.83    5.28
  -3   4   3  111.63    7.07
  -3   4   3  112.17    6.58
  -3   4   3  114.74    6.80
  -3   4   3  114.54    6.50
  -3   4   3  124.57    8.47
  -3   4   4   42.51    4.10
  -3   4   4   45.67    4.08
  -3   4   4   39.29    3.72
  -3   4   4   42.26    3.82
  -3   4   4   35.88    4.39
  -3   4   5   17.95    2.41
  -3   4   5   21.78    2.57
  -3   4   5   17.82    2.38
  -3   4   5   20.98    2.52
  -3   4   5   18.51    2.35
  -3   4   6    9.31    1.52
  -3   4   6    7.61    1.42
  -3   4   7   27.72    2.18
  -3   5  -5  189.21   12.54
  -3   5  -4   40.78    5.25
  -3   5  -4   39.85    4.75
  -3   5  -3  153.82    9.31
  -3   5  -3  134.45    8.96
  -3   5  -2  930.82   26.43
  -3   5  -2  901.36   25.84
  -3   5  -1  774.76   23.31
  -3   5  -1  762.72   23.59
  -3   5   0  207.85   12.08
  -3   5   0  243.70   12.40
  -3   5   1   38.62    3.79
  -3   5   1   38.93    5.08
  -3   5   1   32.52    4.24
  -3   5   1   37.17    4.16
  -3   5   2  498.36   15.76
  -3   5   2  486.08   15.92
  -3   5   2  438.42   18.43
  -3   5   2  491.49   15.42
  -3   5   2  463.16   16.49
  -3   5   3   52.95    4.28
  -3   5   3   54.27    4.42
  -3   5   3   54.41    4.46
  -3   5   3   58.72    4.91
  -3   5   4   21.37    2.63
  -3   5   4   25.08    2.78
  -3   5   4   18.64    2.41
  -3   5   4   20.39    2.66
  -3   5   5    0.89    0.54
  -3   5   5    0.24    0.48
  -3   5   5    0.71    0.43
  -3   5   6   10.44    1.35
  -3   5   6   10.43    1.34
  -3   6  -4   72.13    7.19
  -3   6  -4   67.35    6.64
  -3   6  -3    3.68    1.54
  -3   6  -3    2.35    1.19
  -3   6  -2  146.65    9.78
  -3   6  -2  146.82    9.63
  -3   6  -1  230.69   12.80
  -3   6  -1  228.20   10.35
  -3   6   0  898.09   29.16
  -3   6   0  879.40   23.62
  -3   6   0  897.64   24.49
  -3   6   0  922.66   23.90
  -3   6   0  922.34   25.65
  -3   6   1  300.57   11.86
  -3   6   1  284.62   12.29
  -3   6   1  276.95   11.17
  -3   6   1  289.25   11.24
  -3   6   2  156.12    8.01
  -3   6   2  151.63    8.33
  -3   6   2  166.34    8.03
  -3   6   2  162.57    7.85
  -3   6   3   53.00    4.16
  -3   6   3   52.67    4.05
  -3   6   3   54.65    4.31
  -3   6   3   52.35    4.07
  -3   6   4   18.09    2.13
  -3   6   4   17.43    2.06
  -3   6   4   14.60    1.86
  -3   6   5    3.64    0.78
  -3   6   5    4.74    0.95
  -3   7  -2  249.02   10.67
  -3   7  -2  210.39   12.71
  -3   7  -1  115.02    6.95
  -3   7  -1  107.05    7.18
  -3   7   0    6.22    1.53
  -3   7   0    8.47    1.93
  -3   7   0    6.13    1.57
  -3   7   0    6.04    1.58
  -3   7   1   78.89    5.17
  -3   7   1   84.08    5.37
  -3   7   1   76.88    5.28
  -3   7   1   83.50    5.84
  -3   7   2   47.61    3.70
  -3   7   2   56.66    3.98
  -3   7   2   53.69    3.96
  -3   7   2   48.56    3.90
  -3   7   3   22.32    2.19
  -3   7   3   26.12    2.43
  -3   7   3   23.70    2.27
  -3   7   4    4.81    0.84
  -3   7   4    3.37    0.70
  -3   8  -3  117.62    6.54
  -3   8  -2   35.70    3.49
  -3   8  -2   35.59    3.84
  -3   8  -1   25.21    2.71
  -3   8  -1   22.41    2.67
  -3   8  -1   26.83    3.26
  -3   8   0    7.84    1.43
  -3   8   0   11.53    2.04
  -3   8   0   10.49    1.75
  -3   8   0    9.76    1.68
  -3   8   1    1.26    0.55
  -3   8   1    1.46    0.55
  -3   8   1    1.59    0.74
  -3   8   1    2.32    0.76
  -3   8   2    2.07    0.64
  -3   8   2    1.73    0.59
  -3   9  -6    2.24    0.87
  -3   9  -4   24.33    2.78
  -3   9  -3    2.74    1.11
  -3   9  -3    1.11    0.45
  -3   9  -2   32.46    2.74
  -3   9  -2   29.87    3.00
  -3   9  -1    3.12    0.72
  -3   9  -1    4.49    0.97
  -3   9  -1    3.91    0.98
  -3   9   0    2.56    0.67
  -3   9   0    2.66    0.60
  -3   9   0    1.39    0.46
  -2  -9   2    2.19    0.67
  -2  -9   2    1.26    0.44
  -2  -9   2    1.60    0.47
  -2  -9   3    9.71    1.41
  -2  -9   3    8.48    1.27
  -2  -9   4   22.49    2.16
  -2  -9   4   21.08    2.14
  -2  -9   4   17.12    1.86
  -2  -9   5   11.06    1.57
  -2  -9   5   13.00    1.64
  -2  -9   5   12.75    1.70
  -2  -9   6   10.75    1.48
  -2  -9   6   11.06    1.57
  -2  -9   6    9.63    1.45
  -2  -9   7    5.13    1.04
  -2  -9   8   20.76    1.97
  -2  -8   0   21.23    1.82
  -2  -8   0   14.82    1.44
  -2  -8   0   17.68    1.53
  -2  -8   0   17.60    1.63
  -2  -8   1    2.60    0.82
  -2  -8   1    3.06    0.76
  -2  -8   1    2.99    0.76
  -2  -8   1    2.29    0.65
  -2  -8   2   21.01    2.21
  -2  -8   2   24.75    2.37
  -2  -8   2   22.13    2.34
  -2  -8   3   44.95    3.36
  -2  -8   3   45.49    3.38
  -2  -8   3   41.39    3.38
  -2  -8   3   46.54    3.51
  -2  -8   4   59.83    4.03
  -2  -8   4   60.64    4.29
  -2  -8   4   60.75    4.18
  -2  -8   5    7.24    1.37
  -2  -8   5    8.73    1.45
  -2  -8   5    6.78    1.48
  -2  -8   6   31.72    3.00
  -2  -8   6   25.57    2.90
  -2  -8   6   29.10    2.90
  -2  -8   6   30.25    2.84
  -2  -8   7   19.30    2.31
  -2  -8   7   21.62    2.59
  -2  -8   7   21.79    2.44
  -2  -8   8    2.33    0.79
  -2  -8   8    0.96    0.61
  -2  -8   9   23.77    2.28
  -2  -7  -2    3.41    0.62
  -2  -7  -2    3.65    0.62
  -2  -7  -1   20.57    2.01
  -2  -7  -1   22.70    2.05
  -2  -7  -1   20.77    1.95
  -2  -7   0   58.85    3.84
  -2  -7   0   53.11    3.74
  -2  -7   0   58.59    3.74
  -2  -7   0   54.00    3.61
  -2  -7   1  356.31   10.97
  -2  -7   1  354.76   11.16
  -2  -7   1  324.52   11.08
  -2  -7   1  323.38   10.65
  -2  -7   2   94.52    5.42
  -2  -7   2  111.49    5.81
  -2  -7   2   92.67    5.53
  -2  -7   2   99.25    5.33
  -2  -7   3  131.44    6.55
  -2  -7   3  130.79    6.34
  -2  -7   3  125.82    6.60
  -2  -7   4  359.64   11.60
  -2  -7   4  335.39   11.74
  -2  -7   4  350.59   11.78
  -2  -7   5  406.31   14.16
  -2  -7   5  430.34   14.65
  -2  -7   5  455.71   13.91
  -2  -7   5  408.19   13.22
  -2  -7   5  451.11   13.57
  -2  -7   6  265.12   10.75
  -2  -7   6  249.99   10.30
  -2  -7   6  261.16   10.65
  -2  -7   6  271.52   10.12
  -2  -7   7   61.77    4.69
  -2  -7   7   63.75    4.53
  -2  -7   7   58.99    4.61
  -2  -7   8  162.48    7.64
  -2  -7   8  167.37    7.80
  -2  -7   8  169.95    7.31
  -2  -7   9   18.17    2.27
  -2  -7  10    9.88    1.38
  -2  -6  -3    3.03    0.67
  -2  -6  -3    2.97    0.60
  -2  -6  -2   42.43    3.06
  -2  -6  -2   35.62    2.72
  -2  -6  -2   42.19    3.06
  -2  -6  -1   21.33    2.42
  -2  -6  -1   21.74    2.40
  -2  -6  -1   24.91    2.61
  -2  -6  -1   26.74    2.72
  -2  -6   0  320.28   10.83
  -2  -6   0  314.48   13.22
  -2  -6   0  311.13   11.16
  -2  -6   0  353.03   11.42
  -2  -6   1   63.89    4.39
  -2  -6   1   55.46    4.00
  -2  -6   1   58.61    4.29
  -2  -6   2  148.45    6.99
  -2  -6   2  161.95    7.10
  -2  -6   2  149.64    7.26
  -2  -6   3    2.44    1.47
  -2  -6   3    1.58    0.39
  -2  -6   3    1.56    0.92
  -2  -6   3    2.79    0.94
  -2  -6   3    0.69    0.64
  -2  -6   4  263.32    9.79
  -2  -6   4  236.41   10.19
  -2  -6   4  259.49   11.87
  -2  -6   4  252.61    9.55
  -2  -6   4  265.93    9.54
  -2  -6   5  533.36   16.55
  -2  -6   5  515.73   16.38
  -2  -6   5  556.89   16.04
  -2  -6   5  567.28   15.95
  -2  -6   6  773.12   21.21
  -2  -6   6  799.13   21.77
  -2  -6   6  763.98   21.16
  -2  -6   7  200.71    9.08
  -2  -6   7  223.66    9.70
  -2  -6   7  214.37    9.33
  -2  -6   7  205.04    9.39
  -2  -6   7  235.36    9.37
  -2  -6   8   61.23    4.67
  -2  -6   8   56.50    4.53
  -2  -6   8   53.16    4.32
  -2  -6   9  174.27    7.64
  -2  -6  10   30.41    2.63
  -2  -5  -4   12.31    1.25
  -2  -5  -4   14.12    1.43
  -2  -5  -3   18.64    2.11
  -2  -5  -2   17.75    3.24
  -2  -5  -2   22.73    2.56
  -2  -5  -1  523.77   15.81
  -2  -5  -1  544.29   15.74
  -2  -5   0   83.55    5.14
  -2  -5   0   97.42    6.85
  -2  -5   0   82.45    5.32
  -2  -5   1    5.61    1.57
  -2  -5   1    5.59    1.61
  -2  -5   2  160.07    8.98
  -2  -5   2  184.10    8.93
  -2  -5   3  391.85   14.50
  -2  -5   3  354.86   13.01
  -2  -5   4  356.37   13.24
  -2  -5   4  368.88   14.13
  -2  -5   5   59.20    5.04
  -2  -5   5   53.47    5.13
  -2  -5   6  250.86   10.44
  -2  -5   6  249.64   10.08
  -2  -5   6  241.62   11.92
  -2  -5   6  255.54   10.35
  -2  -5   6  260.22   11.89
  -2  -5   6  268.03   10.63
  -2  -5   7  390.62   13.74
  -2  -5   7  409.52   14.07
  -2  -5   7  414.91   13.97
  -2  -5   7  439.99   14.54
  -2  -5   8  256.89   10.40
  -2  -5   8  252.23   10.13
  -2  -5   8  249.11   10.37
  -2  -5   8  246.30    9.25
  -2  -5   9   40.65    3.55
  -2  -5  10   27.15    2.51
  -2  -4  -5   19.58    1.62
  -2  -4  -3   32.17    4.29
  -2  -4  -3   28.87    2.98
  -2  -4  -2   99.27    7.69
  -2  -4  -1   96.81    7.14
  -2  -4  -1   75.29    6.08
  -2  -4   0  330.21   13.02
  -2  -4   0  332.37   12.96
  -2  -4   1  267.68   10.69
  -2  -4   1  245.11   10.28
  -2  -4   1  264.27   10.68
  -2  -4   2  573.57   17.04
  -2  -4   2  599.42   16.89
  -2  -4   3  142.42    7.29
  -2  -4   3  155.34    7.16
  -2  -4   4  899.88   22.55
  -2  -4   4  886.87   23.40
  -2  -4   4  925.75   22.24
  -2  -4   5 1098.52   27.92
  -2  -4   5 1110.44   27.01
  -2  -4   6   31.59    3.65
  -2  -4   6   28.27    3.55
  -2  -4   7  110.99    6.54
  -2  -4   7  100.30    6.22
  -2  -4   7   98.52    6.31
  -2  -4   7  105.25    5.77
  -2  -4   7   98.55    6.23
  -2  -4   8  128.65    7.19
  -2  -4   8  136.53    7.43
  -2  -4   8  133.00    6.51
  -2  -4   8  133.19    7.25
  -2  -4   8  131.46    7.00
  -2  -4   9   31.60    2.86
  -2  -4   9   33.34    3.22
  -2  -4  10    1.15    0.66
  -2  -3  -4   10.38    2.61
  -2  -3  -3  391.20   16.56
  -2  -3  -2    5.83    1.58
  -2  -3  -2   15.04    2.98
  -2  -3  -1  210.44   10.24
  -2  -3  -1  226.24   10.45
  -2  -3   0  477.05   15.18
  -2  -3   0  479.84   14.65
  -2  -3   0  449.62   15.22
  -2  -3   0  485.69   14.25
  -2  -3   1  356.33   11.25
  -2  -3   1  328.38   11.73
  -2  -3   1  331.23   11.33
  -2  -3   1  345.67   11.26
  -2  -3   2 1988.27   39.10
  -2  -3   2 1953.46   38.74
  -2  -3   3  183.91    7.19
  -2  -3   3  197.27    7.89
  -2  -3   4 3445.94   64.96
  -2  -3   4 3394.62   65.90
  -2  -3   4 3528.07   64.70
  -2  -3   5  752.10   20.11
  -2  -3   5  721.74   19.09
  -2  -3   5  753.83   19.90
  -2  -3   6  281.89   11.71
  -2  -3   6  257.05   10.52
  -2  -3   7    6.85    1.57
  -2  -3   7    7.49    1.65
  -2  -3   7    7.31    1.42
  -2  -3   7    8.76    1.81
  -2  -3   8    6.73    1.46
  -2  -3   8   10.38    2.08
  -2  -3   8    6.48    1.41
  -2  -3   9  153.32    6.72
  -2  -3  10    1.13    0.53
  -2  -2  -4  742.32   24.72
  -2  -2  -3  171.03   11.49
  -2  -2  -3  190.65   10.56
  -2  -2  -2    6.69    2.29
  -2  -2  -2    2.86    1.54
  -2  -2  -1 1332.45   29.91
  -2  -2  -1 1247.18   32.89
  -2  -2   0  116.56    5.51
  -2  -2   0  126.76    5.87
  -2  -2   0  118.41    6.99
  -2  -2   1   56.30    3.68
  -2  -2   1   57.91    3.47
  -2  -2   1   51.02    4.12
  -2  -2   2  506.61   12.60
  -2  -2   2  493.91   13.10
  -2  -2   2  495.57   13.70
  -2  -2   3   20.87    2.15
  -2  -2   3   20.15    1.95
  -2  -2   3   22.93    1.99
  -2  -2   3   21.68    1.99
  -2  -2   4  214.43    7.37
  -2  -2   4  216.64    7.90
  -2  -2   4  218.47    7.91
  -2  -2   5  776.56   19.84
  -2  -2   5  730.01   18.35
  -2  -2   6  537.33   17.11
  -2  -2   7  145.89    7.67
  -2  -2   7  151.37    7.13
  -2  -2   7  141.78    7.48
  -2  -2   7  147.83    7.75
  -2  -2   8   36.24    3.66
  -2  -2   8   45.39    3.68
  -2  -2   9   14.36    1.92
  -2  -2  10    0.12    0.37
  -2  -1  -5  205.27   11.75
  -2  -1  -4  628.75   21.69
  -2  -1  -4  621.29   24.09
  -2  -1  -3  929.64   29.24
  -2  -1  -3  867.90   28.12
  -2  -1  -2  959.36   27.61
  -2  -1  -2  960.63   27.01
  -2  -1  -2  950.68   22.85
  -2  -1  -1 1424.07   33.92
  -2  -1  -1 1446.24   33.07
  -2  -1  -1 1519.38   31.16
  -2  -1  -1 1426.44   29.59
  -2  -1   0  589.21   17.07
  -2  -1   0  607.87   14.71
  -2  -1   0  596.95   13.12
  -2  -1   0  601.80   16.52
  -2  -1   1 1191.21   25.99
  -2  -1   1 1184.21   25.29
  -2  -1   1 1186.25   23.97
  -2  -1   1 1150.12   23.58
  -2  -1   1 1155.47   26.46
  -2  -1   2 2582.15   44.77
  -2  -1   2 2457.30   46.38
  -2  -1   2 2553.12   43.89
  -2  -1   3  674.07   16.19
  -2  -1   3  657.74   14.35
  -2  -1   3  644.29   15.10
  -2  -1   3  667.56   14.52
  -2  -1   4  598.23   15.28
  -2  -1   4  580.68   13.95
  -2  -1   4  604.31   14.52
  -2  -1   5  271.23   10.19
  -2  -1   6   94.48    6.36
  -2  -1   7   61.56    4.82
  -2  -1   7   71.50    5.01
  -2  -1   7   74.82    5.39
  -2  -1   7   73.77    4.87
  -2  -1   8   23.84    2.88
  -2  -1   8   26.39    2.82
  -2  -1   9    1.88    0.82
  -2  -1  10    2.55    0.57
  -2   0  -6   23.94    3.80
  -2   0  -5  222.50   13.74
  -2   0  -4  261.74   13.95
  -2   0  -4  288.87   13.93
  -2   0  -3 1332.49   35.36
  -2   0  -3 1390.81   33.02
  -2   0  -3 1336.94   34.87
  -2   0  -2 1635.04   35.84
  -2   0  -2 1633.35   35.84
  -2   0  -2 1519.82   32.53
  -2   0  -2 1673.11   37.04
  -2   0  -2 1637.88   37.27
  -2   0  -1  229.66    9.08
  -2   0  -1  242.42    9.23
  -2   0  -1  213.95    7.54
  -2   0  -1  225.23    9.13
  -2   0   0 3819.16   69.57
  -2   0   0 4001.94   70.44
  -2   0   0 3793.30   68.18
  -2   0   1 2718.04   48.86
  -2   0   1 2841.61   52.81
  -2   0   1 2709.02   51.42
  -2   0   1 2794.99   53.14
  -2   0   2 1190.28   25.56
  -2   0   2 1236.19   24.66
  -2   0   2 1228.45   26.17
  -2   0   2 1319.23   24.74
  -2   0   2 1378.78   27.87
  -2   0   3  195.48    6.78
  -2   0   3  202.12    5.49
  -2   0   3  197.34    5.80
  -2   0   3  208.96    7.30
  -2   0   3  195.63    6.55
  -2   0   4  356.27   11.16
  -2   0   4  365.11   10.84
  -2   0   5  105.15    6.18
  -2   0   5  112.50    6.13
  -2   0   6  497.56   17.11
  -2   0   7   32.71    3.30
  -2   0   7   28.72    3.23
  -2   0   7   32.15    3.23
  -2   0   8    4.62    1.23
  -2   0   8    6.61    1.33
  -2   0   9   12.77    1.58
  -2   1  -6   25.40    3.87
  -2   1  -5   33.68    4.85
  -2   1  -5   37.77    4.93
  -2   1  -4  181.87   10.12
  -2   1  -4  181.55   10.35
  -2   1  -4  181.90   10.17
  -2   1  -3 1808.81   41.20
  -2   1  -3 1916.34   40.85
  -2   1  -2  584.92   14.02
  -2   1  -2  568.24   14.85
  -2   1  -1 1621.92   30.78
  -2   1  -1 1618.53   32.24
  -2   1  -1 1438.77   29.60
  -2   1  -1 1482.12   30.27
  -2   1   0 1628.34   32.98
  -2   1   0 1733.94   33.50
  -2   1   1 1699.70   34.86
  -2   1   1 1697.87   32.80
  -2   1   1 1734.42   32.47
  -2   1   1 1638.14   34.39
  -2   1   2  122.63    4.57
  -2   1   2  122.47    5.15
  -2   1   2  121.20    5.79
  -2   1   2  123.33    5.98
  -2   1   2  129.67    6.22
  -2   1   3 2708.08   51.96
  -2   1   3 2841.45   53.55
  -2   1   3 2635.35   49.60
  -2   1   3 2866.29   52.63
  -2   1   3 2633.21   50.79
  -2   1   3 2694.82   50.92
  -2   1   4  433.69   12.99
  -2   1   4  424.69   13.38
  -2   1   5  420.12   14.09
  -2   1   5  441.41   14.89
  -2   1   6   98.76    5.89
  -2   1   6   96.49    5.85
  -2   1   6   85.19    5.76
  -2   1   6   96.86    5.72
  -2   1   6   94.65    5.77
  -2   1   7   10.15    1.79
  -2   1   7   11.17    1.87
  -2   1   7   10.71    1.84
  -2   1   8   17.33    2.17
  -2   1   8   21.97    2.28
  -2   1   9    7.69    0.99
  -2   2  -5   76.82    6.64
  -2   2  -5   90.55    7.19
  -2   2  -5   80.77    7.02
  -2   2  -4    6.16    1.54
  -2   2  -3  655.48   16.81
  -2   2  -3  605.10   15.94
  -2   2  -3  630.28   15.77
  -2   2  -2 2977.91   55.88
  -2   2  -2 2982.56   55.08
  -2   2  -2 2891.47   55.31
  -2   2  -1 1596.59   32.31
  -2   2  -1 1599.03   32.20
  -2   2   0 1787.24   35.23
  -2   2   0 1831.70   35.58
  -2   2   1  367.39   11.47
  -2   2   1  358.87   10.87
  -2   2   1  347.65    8.80
  -2   2   2  554.94   13.52
  -2   2   2  560.68   14.73
  -2   2   2  570.88   16.14
  -2   2   2  538.78   15.75
  -2   2   3   72.07    5.09
  -2   2   3   69.10    4.36
  -2   2   3   68.23    4.71
  -2   2   3   65.82    4.50
  -2   2   4 1288.59   29.84
  -2   2   4 1261.66   30.52
  -2   2   5  119.86    6.52
  -2   2   5  115.45    6.59
  -2   2   5  111.21    6.34
  -2   2   5  112.28    7.36
  -2   2   5  109.57    7.01
  -2   2   5  125.75    6.70
  -2   2   6  189.34    8.41
  -2   2   6  189.46    8.45
  -2   2   6  202.26    8.67
  -2   2   6  188.37    8.29
  -2   2   7   75.37    4.80
  -2   2   7   78.97    4.79
  -2   2   7   80.70    4.75
  -2   2   8    2.98    0.76
  -2   3  -6   85.87    7.32
  -2   3  -5  794.36   24.80
  -2   3  -4  155.65    8.17
  -2   3  -4  158.27    7.88
  -2   3  -4  163.30    7.90
  -2   3  -3  674.35   18.13
  -2   3  -3  655.63   17.36
  -2   3  -3  647.16   17.62
  -2   3  -2 1318.09   29.34
  -2   3  -2 1400.47   29.29
  -2   3  -2 1336.70   29.38
  -2   3  -1  175.75    7.10
  -2   3  -1  176.18    7.34
  -2   3   0  170.09    6.98
  -2   3   0  149.44    6.80
  -2   3   0  148.78    6.92
  -2   3   1 1349.94   29.35
  -2   3   1 1337.81   30.72
  -2   3   1 1254.92   30.02
  -2   3   1 1307.41   26.86
  -2   3   2  318.90   10.33
  -2   3   2  323.03   12.32
  -2   3   2  323.81   11.61
  -2   3   2  291.41   11.62
  -2   3   3  119.15    6.51
  -2   3   3  114.40    6.95
  -2   3   3  115.28    7.16
  -2   3   4   74.67    5.09
  -2   3   4   61.29    5.42
  -2   3   4   64.84    5.24
  -2   3   5   26.10    2.96
  -2   3   5   29.32    3.13
  -2   3   5   26.81    3.02
  -2   3   5   25.57    2.93
  -2   3   5   30.09    3.24
  -2   3   6   81.84    5.03
  -2   3   6   77.15    5.01
  -2   3   6   79.21    5.01
  -2   3   6   76.48    4.77
  -2   3   7    5.19    1.09
  -2   3   7    5.81    1.07
  -2   4  -5   84.70    6.47
  -2   4  -5   93.35    6.81
  -2   4  -4  675.56   20.55
  -2   4  -4  687.43   20.10
  -2   4  -4  723.97   20.45
  -2   4  -3  243.14   10.16
  -2   4  -3  253.16   10.15
  -2   4  -3  243.79    9.96
  -2   4  -2  401.95   13.25
  -2   4  -2  444.44   13.74
  -2   4  -1  296.88   10.97
  -2   4  -1  299.28   10.87
  -2   4   0  275.29   11.05
  -2   4   0  304.33   10.95
  -2   4   0  302.18   11.60
  -2   4   1  278.86    9.75
  -2   4   1  292.74   12.40
  -2   4   2    3.46    1.28
  -2   4   2    5.39    1.50
  -2   4   2    2.18    0.90
  -2   4   3   69.04    4.93
  -2   4   3   66.99    4.98
  -2   4   3   70.76    5.94
  -2   4   3   76.46    5.24
  -2   4   3   70.04    6.06
  -2   4   3   65.76    5.31
  -2   4   4    4.57    1.25
  -2   4   4    4.62    1.22
  -2   4   4    5.53    1.34
  -2   4   4    4.48    1.38
  -2   4   5   83.16    5.23
  -2   4   5   85.77    5.26
  -2   4   5   80.19    4.91
  -2   4   5   83.83    5.26
  -2   4   5   82.19    5.11
  -2   4   6    3.37    0.89
  -2   4   6    3.21    0.87
  -2   4   6    3.23    0.81
  -2   4   6    5.51    1.17
  -2   4   7   12.58    1.32
  -2   5  -5  242.61   12.18
  -2   5  -5  281.42   12.97
  -2   5  -4   91.18    6.85
  -2   5  -4   97.75    6.81
  -2   5  -3  224.80   10.23
  -2   5  -3  210.47   10.04
  -2   5  -2   52.35    4.64
  -2   5  -2   50.75    4.60
  -2   5  -1  133.22    7.83
  -2   5  -1  138.81    8.15
  -2   5   0  398.37   15.39
  -2   5   0  349.44   14.61
  -2   5   1  245.92   12.32
  -2   5   1  225.51   11.31
  -2   5   2   62.81    4.81
  -2   5   2   60.78    4.68
  -2   5   2   59.47    4.79
  -2   5   2   56.01    5.12
  -2   5   2   61.69    6.03
  -2   5   2   62.54    4.72
  -2   5   3   61.44    4.62
  -2   5   3   56.45    4.47
  -2   5   3   56.91    4.54
  -2   5   3   58.04    4.59
  -2   5   4  128.95    6.65
  -2   5   4  127.61    6.52
  -2   5   4  127.34    6.59
  -2   5   4  123.29    6.51
  -2   5   5   11.50    1.70
  -2   5   5   11.67    1.68
  -2   5   5   12.01    1.72
  -2   5   5   11.89    1.73
  -2   5   6    4.08    0.79
  -2   5   6    2.66    0.64
  -2   6  -5  364.15   15.89
  -2   6  -4   35.03    4.38
  -2   6  -3    5.67    1.79
  -2   6  -3    3.94    1.08
  -2   6  -2   49.66    5.20
  -2   6  -2   59.71    5.61
  -2   6  -1    6.95    1.73
  -2   6  -1   10.69    2.58
  -2   6   0   51.83    4.46
  -2   6   0   56.80    4.85
  -2   6   0   45.51    4.68
  -2   6   0   55.54    4.53
  -2   6   0   44.07    5.40
  -2   6   1  160.87    8.03
  -2   6   1  152.29    7.72
  -2   6   1  158.75    8.20
  -2   6   1  150.11    8.72
  -2   6   1  147.62   10.08
  -2   6   2  193.65    8.58
  -2   6   2  187.23    8.43
  -2   6   2  175.37    8.39
  -2   6   2  183.80    8.38
  -2   6   3  170.85    7.67
  -2   6   3  179.52    7.94
  -2   6   3  173.08    7.80
  -2   6   3  172.96    7.63
  -2   6   4   60.53    3.87
  -2   6   4   58.40    3.84
  -2   6   4   63.17    3.88
  -2   6   4   58.95    3.83
  -2   6   5   24.74    1.95
  -2   6   5   25.40    1.94
  -2   7  -4   87.43    7.39
  -2   7  -3   10.44    2.43
  -2   7  -3   12.11    2.71
  -2   7  -2  143.59    7.70
  -2   7  -2  149.66    8.11
  -2   7  -2  139.62    9.85
  -2   7  -1  221.19    9.69
  -2   7  -1  215.76    9.58
  -2   7  -1  208.31    9.70
  -2   7  -1  183.66   11.80
  -2   7   0  317.01   11.65
  -2   7   0  306.19   11.60
  -2   7   0  303.11   11.83
  -2   7   0  285.37   12.47
  -2   7   1  140.70    7.06
  -2   7   1  130.84    6.92
  -2   7   1  131.17    7.03
  -2   7   2   19.54    2.35
  -2   7   2   17.53    2.17
  -2   7   2   17.07    2.22
  -2   7   3   52.34    3.45
  -2   7   3   49.72    3.36
  -2   7   3   47.58    3.29
  -2   7   3   44.02    2.91
  -2   7   4   15.57    1.43
  -2   7   4   12.66    1.28
  -2   8  -5   38.30    3.73
  -2   8  -4    5.78    1.49
  -2   8  -3   -0.08    0.80
  -2   8  -3    0.07    0.57
  -2   8  -2   56.66    5.03
  -2   8  -2   55.49    4.38
  -2   8  -2   57.00    4.50
  -2   8  -2   59.56    4.73
  -2   8  -1   30.17    3.16
  -2   8  -1   25.73    3.01
  -2   8  -1   26.13    3.31
  -2   8  -1   27.25    2.99
  -2   8   0   25.72    2.73
  -2   8   0   27.91    2.84
  -2   8   0   22.12    2.58
  -2   8   1   55.01    3.74
  -2   8   1   59.58    3.88
  -2   8   1   58.27    3.89
  -2   8   2   12.07    1.47
  -2   8   2   12.98    1.53
  -2   8   2   11.64    1.47
  -2   9  -5    5.33    1.33
  -2   9  -4   35.34    3.28
  -2   9  -3    7.78    1.49
  -2   9  -3    8.73    1.77
  -2   9  -3   10.95    1.79
  -2   9  -2    3.86    1.01
  -2   9  -2    3.46    1.07
  -2   9  -2    3.24    1.09
  -2   9  -2    5.03    1.16
  -2   9  -1    9.46    1.50
  -2   9  -1    9.90    1.49
  -2   9  -1   10.47    1.49
  -2   9   0   24.81    2.12
  -2   9   0   23.61    2.08
  -2   9   0   24.52    2.17
  -2  10  -5   14.00    1.80
  -2  10  -4   21.74    1.94
  -2  10  -4   15.65    1.78
  -2  10  -3   33.30    2.38
  -1 -10   4   11.94    1.32
  -1 -10   4   13.92    1.39
  -1 -10   5   46.12    2.76
  -1 -10   5   49.49    2.79
  -1 -10   6   34.77    2.23
  -1 -10   6   33.43    2.16
  -1 -10   6   37.69    2.38
  -1  -9   1   16.96    1.60
  -1  -9   1   15.43    1.51
  -1  -9   1   14.19    1.41
  -1  -9   2   23.14    2.11
  -1  -9   2   29.82    2.47
  -1  -9   2   26.41    2.26
  -1  -9   3    7.36    1.26
  -1  -9   3    9.04    1.44
  -1  -9   3    9.21    1.40
  -1  -9   4   14.85    1.90
  -1  -9   4   16.57    1.99
  -1  -9   4   17.21    1.96
  -1  -9   5   26.75    2.58
  -1  -9   5   29.81    2.67
  -1  -9   5   30.46    2.74
  -1  -9   6    3.90    1.10
  -1  -9   6    6.64    1.36
  -1  -9   6    5.40    1.10
  -1  -9   7   14.79    1.84
  -1  -8  -1   51.45    2.85
  -1  -8  -1   49.73    2.70
  -1  -8   0   26.50    2.31
  -1  -8   0   32.48    2.47
  -1  -8   0   29.73    2.47
  -1  -8   0   28.25    2.38
  -1  -8   1   13.01    1.81
  -1  -8   1   14.94    1.85
  -1  -8   1   17.09    1.96
  -1  -8   1   14.38    1.83
  -1  -8   2   99.40    5.19
  -1  -8   2   91.68    5.16
  -1  -8   2   83.45    4.77
  -1  -8   2   98.28    5.08
  -1  -8   3  193.42    7.80
  -1  -8   3  174.91    7.51
  -1  -8   3  186.84    7.51
  -1  -8   3  164.94    7.51
  -1  -8   4  116.69    6.04
  -1  -8   4  104.80    5.88
  -1  -8   4  113.20    5.82
  -1  -8   5   12.89    1.94
  -1  -8   5   11.68    1.88
  -1  -8   5   12.40    1.88
  -1  -8   6    5.10    1.19
  -1  -8   6    4.47    1.12
  -1  -8   6    3.75    1.00
  -1  -8   7    5.66    1.28
  -1  -8   7    5.28    1.27
  -1  -8   8   39.74    3.15
  -1  -8   8   37.62    3.18
  -1  -8   9   25.23    2.31
  -1  -7  -2    8.92    1.28
  -1  -7  -2   12.00    1.45
  -1  -7  -1   38.20    2.98
  -1  -7  -1   37.91    2.93
  -1  -7  -1   33.06    2.73
  -1  -7   0   33.38    3.11
  -1  -7   0   31.81    2.88
  -1  -7   0   34.06    2.98
  -1  -7   0   28.24    2.69
  -1  -7   1    1.27    0.74
  -1  -7   1   -0.07    0.42
  -1  -7   1    0.82    0.60
  -1  -7   1    0.78    0.55
  -1  -7   2  476.53   13.75
  -1  -7   2  418.49   13.26
  -1  -7   2  478.22   13.76
  -1  -7   2  426.94   12.92
  -1  -7   3  419.65   12.93
  -1  -7   3  428.47   13.19
  -1  -7   3  425.23   12.73
  -1  -7   4  259.54    9.79
  -1  -7   4  265.00    9.63
  -1  -7   4  232.11    9.40
  -1  -7   5   26.74    3.14
  -1  -7   5   30.88    3.10
  -1  -7   5   36.16    3.34
  -1  -7   5   30.63    3.18
  -1  -7   6   75.79    5.27
  -1  -7   6   80.47    5.50
  -1  -7   6   83.24    5.17
  -1  -7   6   80.70    5.12
  -1  -7   7  114.49    6.51
  -1  -7   7  115.06    6.55
  -1  -7   8  185.68    8.11
  -1  -7   8  185.80    7.75
  -1  -7   9   75.19    4.50
  -1  -7  10    9.50    1.32
  -1  -6  -4    4.78    0.75
  -1  -6  -3   35.26    2.65
  -1  -6  -3   36.46    2.68
  -1  -6  -2   34.11    2.97
  -1  -6  -2   34.88    2.98
  -1  -6  -2   29.95    2.68
  -1  -6  -1   29.03    3.03
  -1  -6  -1   28.50    2.86
  -1  -6  -1   28.05    2.81
  -1  -6  -1   33.19    3.88
  -1  -6  -1   33.17    3.06
  -1  -6   0   24.37    2.75
  -1  -6   0   25.45    2.72
  -1  -6   0   25.02    2.67
  -1  -6   0   24.56    3.36
  -1  -6   0   24.56    2.60
  -1  -6   1  174.09    7.79
  -1  -6   1  197.67    8.05
  -1  -6   1  184.71    7.64
  -1  -6   1  196.24    8.11
  -1  -6   2  450.94   13.64
  -1  -6   2  470.82   16.97
  -1  -6   3  406.43   14.59
  -1  -6   3  421.73   15.66
  -1  -6   4   55.53    4.99
  -1  -6   4   58.94    5.39
  -1  -6   5  198.11    8.95
  -1  -6   5  203.19    8.99
  -1  -6   5  218.71   10.75
  -1  -6   5  214.16    8.61
  -1  -6   5  198.44   10.47
  -1  -6   6  462.34   14.83
  -1  -6   6  491.18   14.71
  -1  -6   6  468.43   14.94
  -1  -6   7  492.31   15.31
  -1  -6   7  465.07   14.89
  -1  -6   7  491.49   14.82
  -1  -6   8  147.58    7.29
  -1  -6   8  150.58    7.06
  -1  -6   9   74.15    4.68
  -1  -6  10   66.43    3.80
  -1  -5  -4   11.08    1.46
  -1  -5  -4   10.99    1.55
  -1  -5  -3   61.58    4.25
  -1  -5  -2  128.39    8.13
  -1  -5  -2  111.67    6.00
  -1  -5  -1  202.66    8.60
  -1  -5  -1  205.71    8.48
  -1  -5   0  530.34   16.32
  -1  -5   0  465.57   15.49
  -1  -5   1  304.67   12.13
  -1  -5   1  310.46   11.57
  -1  -5   2  501.59   14.95
  -1  -5   2  544.39   15.02
  -1  -5   2  488.76   15.99
  -1  -5   2  514.37   15.31
  -1  -5   3  411.58   13.20
  -1  -5   3  397.12   13.88
  -1  -5   4  117.64    6.71
  -1  -5   4  120.86    7.13
  -1  -5   5   98.58    6.57
  -1  -5   5  141.54    7.92
  -1  -5   6   16.49    2.69
  -1  -5   6   18.83    2.91
  -1  -5   7  750.35   20.35
  -1  -5   7  778.75   20.95
  -1  -5   7  782.01   19.63
  -1  -5   8   27.35    3.06
  -1  -5   8   25.84    2.72
  -1  -5   9   93.85    4.98
  -1  -5   9   99.92    5.54
  -1  -5  10   51.33    3.24
  -1  -4  -5    4.16    0.96
  -1  -4  -3  435.76   16.47
  -1  -4  -3  349.68   14.14
  -1  -4  -2  269.94   12.01
  -1  -4  -2  235.85    9.49
  -1  -4  -1  259.93   10.80
  -1  -4  -1  225.16    9.94
  -1  -4   0   10.86    1.79
  -1  -4   0   13.33    2.10
  -1  -4   1  398.87   11.65
  -1  -4   1  444.84   13.54
  -1  -4   1  523.04   13.87
  -1  -4   1  471.58   13.45
  -1  -4   2 1191.25   24.83
  -1  -4   2 1156.15   26.24
  -1  -4   2 1101.11   25.28
  -1  -4   3  868.20   20.09
  -1  -4   3  823.99   18.24
  -1  -4   3  836.70   20.74
  -1  -4   4 1551.94   32.79
  -1  -4   4 1593.10   33.71
  -1  -4   5 2251.77   44.95
  -1  -4   5 2188.66   44.98
  -1  -4   6  248.82   10.77
  -1  -4   7  289.79   11.09
  -1  -4   7  289.40   11.35
  -1  -4   7  323.73   10.70
  -1  -4   7  297.29   11.48
  -1  -4   8  321.71   11.77
  -1  -4   8  337.71   11.11
  -1  -4   9   39.66    3.39
  -1  -4   9   42.23    3.27
  -1  -4  10    5.10    1.03
  -1  -3  -6    5.67    1.00
  -1  -3  -4  464.53   17.90
  -1  -3  -3  294.42   13.05
  -1  -3  -3  253.09   11.78
  -1  -3  -2  313.30   11.96
  -1  -3  -2  307.52   12.37
  -1  -3  -1  276.09   10.69
  -1  -3  -1  272.98    9.98
  -1  -3   0  278.57    9.47
  -1  -3   0  270.67    9.76
  -1  -3   0  299.16    9.18
  -1  -3   1   90.72    4.46
  -1  -3   1   89.03    4.53
  -1  -3   1   78.71    4.39
  -1  -3   2 2824.51   54.68
  -1  -3   2 3062.82   54.68
  -1  -3   3 1502.74   29.03
  -1  -3   3 1527.51   30.45
  -1  -3   3 1564.74   31.29
  -1  -3   4 3058.00   57.34
  -1  -3   4 3033.15   55.81
  -1  -3   4 3009.10   57.52
  -1  -3   5  392.64   12.34
  -1  -3   5  420.59   12.46
  -1  -3   5  384.36   12.64
  -1  -3   6   82.59    5.61
  -1  -3   6   95.10    6.34
  -1  -3   7   91.16    5.20
  -1  -3   7   79.00    5.34
  -1  -3   7   81.96    5.64
  -1  -3   8  284.62   10.01
  -1  -3   9   37.15    3.04
  -1  -3  10   17.61    1.75
  -1  -2  -5   82.86    7.04
  -1  -2  -4  408.58   15.41
  -1  -2  -4  510.70   18.38
  -1  -2  -3  241.75   12.47
  -1  -2  -3  245.73   11.21
  -1  -2  -3  237.79   10.35
  -1  -2  -2  299.87   12.11
  -1  -2  -2  290.24   10.97
  -1  -2  -1  271.56    8.66
  -1  -2  -1  271.08    9.54
  -1  -2  -1  261.05    7.78
  -1  -2  -1  244.88    9.51
  -1  -2   0  773.77   16.91
  -1  -2   0  726.45   17.93
  -1  -2   0  723.28   17.59
  -1  -2   1  507.49   11.93
  -1  -2   2 2013.26   37.27
  -1  -2   2 2043.64   35.83
  -1  -2   2 1992.28   37.84
  -1  -2   3 3010.20   54.28
  -1  -2   3 2964.54   53.09
  -1  -2   3 2996.69   54.65
  -1  -2   3 2958.18   54.56
  -1  -2   4  503.48   12.85
  -1  -2   4  464.46   11.88
  -1  -2   4  475.77   12.94
  -1  -2   5  121.35    6.19
  -1  -2   5  111.10    5.62
  -1  -2   6   75.56    5.55
  -1  -2   7  179.62    8.59
  -1  -2   7  189.74    7.95
  -1  -2   8  169.09    7.35
  -1  -2   9   62.41    3.89
  -1  -2  10   24.30    1.90
  -1  -1  -5 1200.82   33.29
  -1  -1  -4  605.73   21.82
  -1  -1  -4  606.93   19.83
  -1  -1  -4  569.18   18.23
  -1  -1  -3 1877.12   45.51
  -1  -1  -3 2248.65   46.67
  -1  -1  -2 1661.18   36.29
  -1  -1  -2 1611.93   32.27
  -1  -1  -1 3934.29   71.95
  -1  -1  -1 3841.73   69.04
  -1  -1   0 2869.23   47.41
  -1  -1   0 2367.22   46.91
  -1  -1   1 6934.46  118.45
  -1  -1   2 3480.01   61.05
  -1  -1   2 3571.35   60.84
  -1  -1   2 3497.36   61.61
  -1  -1   3 3330.68   62.04
  -1  -1   3 3444.70   61.26
  -1  -1   3 3425.28   61.49
  -1  -1   4 1553.72   30.62
  -1  -1   4 1526.89   31.47
  -1  -1   4 1558.96   31.08
  -1  -1   5  607.94   16.86
  -1  -1   5  608.30   16.27
  -1  -1   6  174.34    8.87
  -1  -1   7  179.61    7.77
  -1  -1   7  168.49    8.04
  -1  -1   7  157.75    8.05
  -1  -1   8   33.11    3.07
  -1  -1   9   31.13    2.56
  -1   0  -5   45.05    5.61
  -1   0  -5   37.89    4.17
  -1   0  -4 1264.78   33.80
  -1   0  -4 1446.43   34.75
  -1   0  -3 5597.61  104.50
  -1   0  -3 5688.49  104.22
  -1   0  -3 5593.38  105.74
  -1   0  -3 5791.46  103.96
  -1   0  -2 8089.87  136.29
  -1   0  -2 8159.58  136.11
  -1   0  -2 7857.95  133.09
  -1   0  -1 9682.92  164.10
  -1   0  -1 9346.67  165.75
  -1   0  -1 9511.53  166.44
  -1   0  -1 9944.54  165.01
  -1   0   0 2580.99   45.76
  -1   0   1 4093.26   70.13
  -1   0   1 4039.93   70.18
  -1   0   2 5077.82   87.25
  -1   0   2 4926.99   85.89
  -1   0   2 5058.84   85.58
  -1   0   3 1515.90   27.87
  -1   0   3 1725.38   29.92
  -1   0   3 1660.44   29.98
  -1   0   4  400.51   11.55
  -1   0   4  378.93   11.50
  -1   0   5  496.35   15.46
  -1   0   5  521.39   15.21
  -1   0   6  111.41    7.01
  -1   0   6  111.37    7.34
  -1   0   6  119.79    6.58
  -1   0   6  121.76    6.30
  -1   0   6  134.05    6.75
  -1   0   7   43.63    3.63
  -1   0   7   40.20    3.73
  -1   0   8   60.10    3.95
  -1   0   9    2.28    0.73
  -1   1  -5  238.61   12.01
  -1   1  -5  274.06   12.78
  -1   1  -3 2926.66   52.84
  -1   1  -2 1819.01   33.75
  -1   1  -1 1119.31   21.37
  -1   1  -1 1090.91   20.85
  -1   1   0 4362.06   74.13
  -1   1   1 3839.25   67.24
  -1   1   1 3669.96   65.36
  -1   1   2 3185.85   58.83
  -1   1   2 3236.64   58.29
  -1   1   2 3239.79   59.94
  -1   1   2 3259.80   58.64
  -1   1   3 1190.04   25.75
  -1   1   3 1175.68   25.15
  -1   1   3 1199.00   25.96
  -1   1   4  631.27   16.92
  -1   1   4  623.16   17.14
  -1   1   5   85.37    5.94
  -1   1   5   91.18    5.98
  -1   1   6  118.66    6.65
  -1   1   6  121.52    6.71
  -1   1   6  120.10    6.35
  -1   1   6  130.82    6.72
  -1   1   7   50.23    4.03
  -1   1   7   53.36    3.98
  -1   1   8    2.48    0.78
  -1   1   9    1.15    0.35
  -1   2  -6   31.62    3.87
  -1   2  -2  149.99    4.50
  -1   2  -2  156.83    4.63
  -1   2  -2  150.93    4.85
  -1   2  -2  156.69    4.56
  -1   2  -2  147.25    5.36
  -1   2  -1  504.78    9.48
  -1   2   0 2626.37   47.02
  -1   2   0 2546.32   45.91
  -1   2   1  734.43   16.69
  -1   2   1  753.17   15.68
  -1   2   1  722.24   17.44
  -1   2   2 4978.14   90.09
  -1   2   2 4792.16   88.80
  -1   2   2 4984.49   87.97
  -1   2   2 4864.71   87.94
  -1   2   3  111.57    6.03
  -1   2   3  112.38    6.08
  -1   2   3  113.26    5.79
  -1   2   4  114.59    6.85
  -1   2   4  114.75    6.56
  -1   2   5  184.32    8.41
  -1   2   5  183.78    8.39
  -1   2   5  184.73    8.13
  -1   2   5  188.12    8.23
  -1   2   6   15.45    2.27
  -1   2   6   17.61    2.39
  -1   2   6   15.48    2.20
  -1   2   6   19.45    2.46
  -1   2   7    9.86    1.62
  -1   2   7   12.66    1.79
  -1   2   8   30.31    2.20
  -1   3  -6  150.75    8.49
  -1   3  -6  191.49   10.47
  -1   3  -5  355.56   13.46
  -1   3  -5  317.64   11.41
  -1   3  -5  316.84   11.49
  -1   3  -5  318.14   11.33
  -1   3  -4  963.10   21.22
  -1   3  -4  923.80   21.54
  -1   3  -4  927.45   21.06
  -1   3  -4  920.39   20.90
  -1   3  -3  694.56   15.16
  -1   3  -3  700.28   16.27
  -1   3  -3  693.07   15.27
  -1   3  -3  690.55   15.52
  -1   3  -3  707.07   16.94
  -1   3  -2 1326.84   26.39
  -1   3  -2 1308.62   26.96
  -1   3  -2 1359.35   27.29
  -1   3  -1  908.96   19.52
  -1   3  -1  850.93   17.70
  -1   3  -1  914.34   19.83
  -1   3   0  860.30   19.03
  -1   3   0  862.08   20.00
  -1   3   0  851.80   18.39
  -1   3   1  865.17   19.45
  -1   3   1  889.42   21.56
  -1   3   2 1000.35   25.37
  -1   3   2 1013.82   24.88
  -1   3   2 1057.09   23.98
  -1   3   3    8.77    1.89
  -1   3   3    7.00    1.63
  -1   3   3    9.55    1.93
  -1   3   4   16.11    2.33
  -1   3   4   16.20    2.38
  -1   3   4   15.89    2.35
  -1   3   4   15.74    2.26
  -1   3   4   14.51    2.41
  -1   3   4   15.16    2.59
  -1   3   5  119.14    6.53
  -1   3   5  116.56    6.50
  -1   3   5  122.73    6.47
  -1   3   5  124.28    6.58
  -1   3   6   98.02    5.46
  -1   3   6   94.27    5.21
  -1   3   6   99.23    5.41
  -1   3   6   88.36    5.14
  -1   3   7    7.57    1.18
  -1   3   7    8.26    1.28
  -1   4  -6  580.32   19.92
  -1   4  -6  527.82   20.08
  -1   4  -5  454.80   16.29
  -1   4  -5  399.76   13.67
  -1   4  -5  437.40   15.06
  -1   4  -4  194.07    7.50
  -1   4  -4  212.35    9.40
  -1   4  -4  202.95    8.15
  -1   4  -4  205.28    8.71
  -1   4  -3  619.76   16.26
  -1   4  -3  575.89   16.12
  -1   4  -3  613.29   16.65
  -1   4  -2 1679.68   35.31
  -1   4  -2 1685.23   35.32
  -1   4  -2 1767.38   35.57
  -1   4  -1 1422.88   30.14
  -1   4  -1 1462.30   31.36
  -1   4  -1 1428.35   28.85
  -1   4   0 1259.52   26.61
  -1   4   0 1273.39   28.94
  -1   4   1  474.66   14.09
  -1   4   1  472.09   15.82
  -1   4   2  428.01   15.46
  -1   4   2  438.04   15.57
  -1   4   2  459.91   14.75
  -1   4   3  148.06    7.47
  -1   4   3  159.38    7.81
  -1   4   3  154.66    7.76
  -1   4   3  134.66    8.01
  -1   4   3  149.29    7.45
  -1   4   4   21.17    2.73
  -1   4   4   20.07    2.68
  -1   4   4   20.37    2.64
  -1   4   4   18.37    2.49
  -1   4   5   11.03    1.81
  -1   4   5    9.20    1.67
  -1   4   5    9.22    1.59
  -1   4   5   10.51    1.74
  -1   4   6   28.28    2.45
  -1   4   6   33.82    2.65
  -1   4   6   24.35    2.22
  -1   4   6   33.21    2.73
  -1   5  -7   64.43    6.71
  -1   5  -6  236.05   12.30
  -1   5  -6  270.76   13.18
  -1   5  -5  536.19   17.94
  -1   5  -5  519.78   18.66
  -1   5  -5  503.46   16.61
  -1   5  -4  143.22    8.11
  -1   5  -4  167.22    8.30
  -1   5  -4  143.98    7.79
  -1   5  -3  227.67    9.76
  -1   5  -3  239.85    9.89
  -1   5  -3  222.26    9.54
  -1   5  -2    5.18    1.30
  -1   5  -2    0.92    0.65
  -1   5  -1  220.43    9.32
  -1   5  -1  235.69   10.13
  -1   5   0   89.82    5.48
  -1   5   0   99.47    6.87
  -1   5   1   39.49    4.55
  -1   5   1   35.19    4.15
  -1   5   1   36.12    3.75
  -1   5   2  217.71    9.43
  -1   5   2  206.95    9.19
  -1   5   2  218.64    9.67
  -1   5   2  227.45    9.57
  -1   5   3    2.65    1.01
  -1   5   3    1.69    0.98
  -1   5   3    0.51    0.82
  -1   5   3    1.32    0.61
  -1   5   4    1.88    0.84
  -1   5   4    1.51    0.83
  -1   5   4    0.89    0.57
  -1   5   4    1.81    0.95
  -1   5   5   20.03    2.07
  -1   5   5   21.11    2.16
  -1   5   5   24.06    2.26
  -1   5   5   26.56    2.46
  -1   6  -6  292.38   14.11
  -1   6  -5   95.31    7.25
  -1   6  -5  108.35    7.63
  -1   6  -4  127.38    8.11
  -1   6  -4  142.25    8.36
  -1   6  -3   95.29    6.67
  -1   6  -3  111.05    7.20
  -1   6  -2  132.57    7.99
  -1   6  -2  176.22    9.43
  -1   6  -1  282.98   13.16
  -1   6   0   49.70    4.24
  -1   6   0   49.66    4.25
  -1   6   0   51.98    4.52
  -1   6   0   46.26    5.32
  -1   6   0   48.94    4.21
  -1   6   1   14.49    2.27
  -1   6   1   15.89    2.44
  -1   6   1   16.11    2.40
  -1   6   1   12.14    2.08
  -1   6   2   30.03    3.22
  -1   6   2   24.80    2.93
  -1   6   2   28.65    3.22
  -1   6   2   25.31    2.96
  -1   6   3  105.70    5.73
  -1   6   3  104.10    5.73
  -1   6   3  108.86    5.82
  -1   6   3  103.60    5.72
  -1   6   4   15.50    1.77
  -1   6   4   14.58    1.76
  -1   6   4   16.01    1.83
  -1   6   4   15.28    1.72
  -1   6   4   20.14    2.13
  -1   7  -5  234.16   12.21
  -1   7  -4  187.41   10.69
  -1   7  -3   33.23    3.48
  -1   7  -3   38.18    4.77
  -1   7  -2    1.34    0.87
  -1   7  -2    2.30    1.01
  -1   7  -2    0.48    0.54
  -1   7  -2    3.05    1.53
  -1   7  -1   97.42    6.16
  -1   7  -1   99.70    6.18
  -1   7  -1  106.81    6.55
  -1   7  -1  100.38    6.20
  -1   7   0   46.46    4.09
  -1   7   0   52.22    4.50
  -1   7   0   54.97    4.40
  -1   7   0   51.43    4.26
  -1   7   1   78.05    5.10
  -1   7   1   84.03    5.35
  -1   7   1   78.72    5.28
  -1   7   1   72.04    4.89
  -1   7   2   71.83    4.47
  -1   7   2   72.15    4.56
  -1   7   2   68.50    4.41
  -1   7   2   67.68    4.43
  -1   7   3   46.23    3.08
  -1   7   3   50.01    3.21
  -1   7   3   46.83    3.10
  -1   7   3   40.81    2.61
  -1   7   3   54.17    3.28
  -1   8  -5  110.24    6.41
  -1   8  -4  237.43    9.95
  -1   8  -3  100.03    6.14
  -1   8  -3  106.62    6.42
  -1   8  -3   93.47    6.03
  -1   8  -2   17.69    2.50
  -1   8  -2   22.15    2.76
  -1   8  -2   18.65    2.63
  -1   8  -2   17.45    2.91
  -1   8  -1   30.03    3.16
  -1   8  -1   31.56    3.35
  -1   8  -1   27.05    2.97
  -1   8  -1   24.87    2.74
  -1   8   0   15.23    2.04
  -1   8   0   12.79    1.93
  -1   8   0   13.12    2.02
  -1   8   0   11.18    1.74
  -1   8   1   15.64    1.96
  -1   8   1   15.63    1.92
  -1   8   1   14.07    1.90
  -1   8   1   14.27    1.74
  -1   8   2   14.02    1.50
  -1   8   2   12.92    1.47
  -1   8   2   13.41    1.47
  -1   8   2   11.01    1.23
  -1   9  -7    1.43    0.81
  -1   9  -6    9.12    1.63
  -1   9  -5   24.93    2.75
  -1   9  -5   32.03    3.17
  -1   9  -4   11.14    1.89
  -1   9  -4    7.81    1.53
  -1   9  -3   12.83    1.98
  -1   9  -3    9.97    1.61
  -1   9  -3    8.37    1.78
  -1   9  -3   10.07    1.70
  -1   9  -2   28.52    2.77
  -1   9  -2   24.57    2.54
  -1   9  -2   24.06    2.64
  -1   9  -1    2.97    0.79
  -1   9  -1    3.15    0.86
  -1   9  -1    2.75    0.85
  -1   9   0   11.85    1.47
  -1   9   0   13.42    1.57
  -1   9   0    9.97    1.35
  -1  10  -6   17.15    1.90
  -1  10  -6   11.54    1.64
  -1  10  -5    5.64    1.09
  -1  10  -5    9.73    1.47
  -1  10  -4    5.82    1.06
  -1  10  -4    5.99    1.13
  -1  10  -3    0.57    0.29
  -1  10  -3    0.38    0.32
  -1  10  -2   10.79    1.26
   0 -10   3   13.27    1.39
   0 -10   3   12.91    1.37
   0 -10   4   52.57    3.03
   0 -10   4   49.64    2.89
   0 -10   5   13.19    1.50
   0 -10   5   15.32    1.61
   0 -10   6   39.17    2.47
   0 -10   6   39.44    2.49
   0  -9   0   16.21    1.48
   0  -9   0   14.12    1.32
   0  -9   1   26.15    2.18
   0  -9   1   26.67    2.18
   0  -9   1   29.27    2.32
   0  -9   1   26.34    2.13
   0  -9   2    2.19    0.77
   0  -9   2    1.97    0.62
   0  -9   2    2.88    0.87
   0  -9   2    1.72    0.61
   0  -9   3    2.00    0.77
   0  -9   3    3.00    0.84
   0  -9   3    2.74    0.79
   0  -9   4    6.16    1.29
   0  -9   4    7.61    1.34
   0  -9   4    7.09    1.34
   0  -9   5    1.81    0.78
   0  -9   5    2.98    0.92
   0  -9   5    3.18    0.95
   0  -9   6   34.75    2.91
   0  -9   6   32.70    2.79
   0  -9   6   38.61    3.07
   0  -9   7   13.28    1.58
   0  -8  -2    9.58    1.04
   0  -8  -1    2.48    0.66
   0  -8  -1    3.85    0.88
   0  -8  -1    4.59    0.90
   0  -8   0   59.86    3.71
   0  -8   0   56.79    3.71
   0  -8   0   61.91    3.69
   0  -8   0   58.38    3.66
   0  -8   1  217.50    8.41
   0  -8   1  217.08    8.08
   0  -8   1  207.93    7.95
   0  -8   1  227.17    8.11
   0  -8   2  194.26    8.11
   0  -8   2  209.73    8.14
   0  -8   2  193.45    7.87
   0  -8   3   56.54    4.06
   0  -8   3   61.33    4.25
   0  -8   3   53.47    3.88
   0  -8   3   50.21    4.00
   0  -8   3   60.99    4.22
   0  -8   4   14.25    2.00
   0  -8   4   12.21    1.89
   0  -8   4   11.91    1.86
   0  -8   5  217.62    8.62
   0  -8   5  223.73    8.89
   0  -8   6  102.54    5.68
   0  -8   6  104.38    5.64
   0  -8   6   89.20    5.30
   0  -8   7   23.91    2.59
   0  -8   7   20.09    2.25
   0  -8   7   21.73    2.42
   0  -8   8   13.78    1.84
   0  -8   9   20.20    1.98
   0  -7  -3    6.18    0.97
   0  -7  -3    5.35    0.86
   0  -7  -3    7.31    1.03
   0  -7  -2    0.75    0.60
   0  -7  -2   -0.13    0.59
   0  -7  -2    0.75    0.50
   0  -7  -1   15.48    2.00
   0  -7  -1   17.92    2.09
   0  -7  -1   16.33    2.00
   0  -7   0    5.81    1.24
   0  -7   0    6.68    1.31
   0  -7   0    7.24    1.40
   0  -7   0    4.40    1.37
   0  -7   0    7.00    1.35
   0  -7   1  279.14   10.26
   0  -7   1  283.90    9.91
   0  -7   1  283.23   11.82
   0  -7   1  265.50    9.66
   0  -7   1  295.30    9.97
   0  -7   2  116.03    6.17
   0  -7   2  138.78    6.53
   0  -7   2  135.56    7.77
   0  -7   2  138.15    6.54
   0  -7   2  125.58    6.15
   0  -7   3   86.66    5.11
   0  -7   3   85.24    5.21
   0  -7   3   83.35    4.91
   0  -7   3   73.39    4.94
   0  -7   4  176.36    7.83
   0  -7   4  177.61    7.70
   0  -7   4  171.54    7.76
   0  -7   5  215.49    9.00
   0  -7   5  230.94    9.04
   0  -7   5  202.53    8.58
   0  -7   6  179.39    8.37
   0  -7   6  208.17    8.79
   0  -7   6  188.27    8.23
   0  -7   6  194.94    8.35
   0  -7   7   18.50    2.35
   0  -7   7   14.22    2.17
   0  -7   8   65.37    4.44
   0  -7   9   30.86    2.73
   0  -7  10    6.80    0.95
   0  -6  -4   47.48    2.86
   0  -6  -4   48.99    2.85
   0  -6  -4   45.76    2.77
   0  -6  -3    8.00    1.35
   0  -6  -3    7.09    1.27
   0  -6  -2   23.28    2.57
   0  -6  -2   24.65    3.34
   0  -6  -2   23.04    2.41
   0  -6  -1   12.18    1.86
   0  -6  -1   11.09    1.72
   0  -6  -1   10.19    2.15
   0  -6  -1    9.52    1.63
   0  -6   0   36.51    3.36
   0  -6   0   47.90    3.63
   0  -6   0   44.47    3.51
   0  -6   0   53.82    4.69
   0  -6   0   43.63    3.49
   0  -6   1   12.90    1.81
   0  -6   1   15.52    2.33
   0  -6   2  285.69   10.59
   0  -6   2  231.63   10.91
   0  -6   3  205.57    9.41
   0  -6   3  209.91   10.13
   0  -6   3  196.75    8.90
   0  -6   4  132.02    7.70
   0  -6   4  124.21    7.03
   0  -6   4  129.91    7.81
   0  -6   5   12.62    2.09
   0  -6   5   10.44    2.19
   0  -6   5   12.79    2.05
   0  -6   5   13.67    1.99
   0  -6   5   11.45    1.77
   0  -6   6  325.00   11.83
   0  -6   6  332.31   11.95
   0  -6   6  363.58   12.05
   0  -6   7  483.65   15.00
   0  -6   7  508.99   14.99
   0  -6   8  122.26    6.39
   0  -6   9  230.51    8.52
   0  -6  10    3.37    0.70
   0  -5  -5   26.12    2.00
   0  -5  -4    3.70    0.92
   0  -5  -4    2.91    0.88
   0  -5  -3    6.91    1.47
   0  -5  -3    7.61    1.73
   0  -5  -3    8.30    1.53
   0  -5  -2   46.14    3.76
   0  -5  -2   47.32    4.58
   0  -5  -1  302.36   11.42
   0  -5  -1  236.02   10.18
   0  -5   0   49.92    4.05
   0  -5   1  466.01   13.60
   0  -5   1  412.68   13.88
   0  -5   2 1034.57   24.71
   0  -5   2 1064.78   26.06
   0  -5   3   49.78    3.94
   0  -5   3   44.48    3.98
   0  -5   3   55.86    3.90
   0  -5   4  320.52   11.72
   0  -5   4  302.42   10.74
   0  -5   4  323.15   11.91
   0  -5   5  224.74    9.73
   0  -5   5  228.29   10.34
   0  -5   5  243.89   10.54
   0  -5   6  396.97   13.02
   0  -5   6  423.44   13.62
   0  -5   6  410.02   12.44
   0  -5   6  391.78   14.99
   0  -5   6  360.06   13.86
   0  -5   6  430.43   13.29
   0  -5   6  373.79   14.69
   0  -5   7  230.45    9.42
   0  -5   7  226.19    8.77
   0  -5   7  221.56    9.11
   0  -5   8   59.90    4.50
   0  -5   8   60.38    4.10
   0  -5   9   38.86    3.22
   0  -5   9   40.40    2.99
   0  -4  -5  103.77    5.21
   0  -4  -4   19.82    2.46
   0  -4  -4   21.43    3.35
   0  -4  -3   66.98    5.62
   0  -4  -3   53.94    4.80
   0  -4  -2   94.29    6.09
   0  -4  -2   83.97    5.82
   0  -4  -2   87.84    5.55
   0  -4  -1  957.56   22.55
   0  -4  -1  820.70   21.30
   0  -4   0 2098.57   42.42
   0  -4   0 2159.31   43.40
   0  -4   1  332.71    9.65
   0  -4   1  331.55    9.00
   0  -4   1  350.86   10.90
   0  -4   2 1028.96   22.30
   0  -4   2 1045.62   23.70
   0  -4   2 1071.57   22.84
   0  -4   3 1855.08   36.34
   0  -4   3 1709.04   34.75
   0  -4   3 1770.82   35.03
   0  -4   3 1810.71   36.71
   0  -4   4 1349.17   29.59
   0  -4   4 1308.72   28.48
   0  -4   4 1343.19   29.81
   0  -4   5  132.07    7.01
   0  -4   5  129.73    6.72
   0  -4   5  124.26    6.74
   0  -4   6  475.86   16.24
   0  -4   6  490.87   15.96
   0  -4   7  498.15   15.51
   0  -4   7  528.44   14.81
   0  -4   8   -0.21    0.67
   0  -4   8    1.32    0.57
   0  -4   9   53.74    3.47
   0  -4   9   44.99    3.41
   0  -3  -5   26.76    3.74
   0  -3  -4  316.02   13.57
   0  -3  -4  303.30   12.63
   0  -3  -3  107.40    6.86
   0  -3  -3   93.94    5.77
   0  -3  -3  106.78    6.65
   0  -3  -2   53.43    3.59
   0  -3  -2   57.31    4.52
   0  -3  -2   53.49    4.07
   0  -3  -1 1025.65   20.88
   0  -3  -1 1032.26   23.27
   0  -3  -1 1012.67   22.28
   0  -3  -1  958.31   21.51
   0  -3   0  620.22   15.11
   0  -3   0  575.02   12.06
   0  -3   0  613.01   13.86
   0  -3   0  593.05   14.04
   0  -3   1 1593.14   27.80
   0  -3   1 1492.97   28.14
   0  -3   1 1530.85   26.56
   0  -3   1 1572.79   28.92
   0  -3   1 1469.52   28.18
   0  -3   2  992.80   19.55
   0  -3   2  970.25   20.19
   0  -3   3 4886.04   89.62
   0  -3   3 5036.33   87.74
   0  -3   3 5124.58   88.93
   0  -3   3 5018.19   89.96
   0  -3   4   51.14    3.59
   0  -3   4   55.32    3.31
   0  -3   4   46.80    3.27
   0  -3   4   54.03    3.58
   0  -3   5  357.99   12.00
   0  -3   5  331.68   11.27
   0  -3   5  339.74   11.22
   0  -3   6  218.54   10.08
   0  -3   6  215.58    9.64
   0  -3   7   14.57    2.03
   0  -3   7   11.64    2.02
   0  -3   8   33.94    3.06
   0  -3   9    1.49    0.62
   0  -3  10   23.15    1.70
   0  -2  -5  440.48   16.97
   0  -2  -5  438.64   15.98
   0  -2  -4   46.08    4.20
   0  -2  -4   52.47    5.02
   0  -2  -4   47.74    4.54
   0  -2  -3  412.23   12.75
   0  -2  -3  390.82   13.80
   0  -2  -2  450.76   13.53
   0  -2  -2  497.12   13.07
   0  -2  -1  243.81    7.18
   0  -2  -1  252.29    6.32
   0  -2   0 1199.09   24.01
   0  -2   0 1246.18   24.17
   0  -2   1 2622.12   47.86
   0  -2   1 2706.61   46.03
   0  -2   1 2710.70   46.49
   0  -2   2 7440.88  130.85
   0  -2   2 7824.10  131.55
   0  -2   2 7860.78  132.55
   0  -2   3  568.85   12.78
   0  -2   3  541.31   12.90
   0  -2   3  581.75   13.61
   0  -2   3  569.25   13.20
   0  -2   3  564.56   13.33
   0  -2   4  391.89   10.94
   0  -2   4  369.78   10.98
   0  -2   4  390.11   10.67
   0  -2   4  385.05   11.26
   0  -2   5   27.79    3.00
   0  -2   5   29.47    2.90
   0  -2   5   30.95    3.02
   0  -2   6    2.30    0.90
   0  -2   7   84.09    5.10
   0  -2   8   54.51    3.91
   0  -2   9  183.76    6.76
   0  -1  -6   56.75    5.36
   0  -1  -5  456.34   15.86
   0  -1  -5  470.46   17.15
   0  -1  -5  450.01   15.93
   0  -1  -4   97.65    7.16
   0  -1  -4  106.96    6.10
   0  -1  -4  100.41    6.68
   0  -1  -4  102.14    6.10
   0  -1  -3 1008.32   25.16
   0  -1  -3  965.42   23.90
   0  -1  -3 1038.79   23.14
   0  -1  -2 1364.14   29.47
   0  -1  -2 1657.67   30.77
   0  -1  -2 1200.86   27.26
   0  -1  -2 1435.06   29.16
   0  -1  -2 1533.26   28.31
   0  -1  -1 7238.74  122.77
   0  -1   0 2432.08   42.42
   0  -1   1 2498.01   42.99
   0  -1   2 5716.38  101.74
   0  -1   2 5894.34  101.55
   0  -1   2 5781.98  101.28
   0  -1   2 6006.17  101.05
   0  -1   2 6008.38  101.63
   0  -1   3 2946.43   53.96
   0  -1   3 3093.16   53.73
   0  -1   3 2958.62   54.11
   0  -1   3 3056.10   54.17
   0  -1   3 2859.69   53.93
   0  -1   3 2930.90   52.82
   0  -1   4 1291.33   27.68
   0  -1   4 1355.61   27.43
   0  -1   4 1339.79   28.08
   0  -1   4 1398.47   28.34
   0  -1   4 1258.42   27.55
   0  -1   5  549.15   15.17
   0  -1   5  525.34   15.37
   0  -1   5  527.25   15.18
   0  -1   6  225.83   10.37
   0  -1   6  219.98    9.74
   0  -1   7   81.58    5.17
   0  -1   7   76.03    4.89
   0  -1   8  173.20    7.18
   0  -1   9   15.37    1.65
   0   0  -6  412.74   15.32
   0   0  -5  485.06   18.29
   0   0  -5  495.95   15.71
   0   0  -5  457.57   16.47
   0   0  -5  473.07   15.46
   0   0  -4  692.43   19.37
   0   0  -4  651.41   17.01
   0   0  -3 1027.81   23.37
   0   0  -3 1130.74   23.57
   0   0  -3 1152.32   25.26
   0   0  -3 1264.59   26.00
   0   0  -3 1164.35   24.00
   0   0  -2 4902.57   87.22
   0   0  -2 4996.23   87.00
   0   0  -1 3443.50   58.38
   0   0   1 3357.40   55.54
   0   0   1 3171.87   54.74
   0   0   2 5032.66   83.02
   0   0   2 4920.93   83.21
   0   0   3 1196.01   23.93
   0   0   3 1133.44   23.14
   0   0   3 1150.45   23.59
   0   0   3 1118.63   23.67
   0   0   4  561.60   15.19
   0   0   4  613.51   15.70
   0   0   5  457.30   14.47
   0   0   5  431.22   14.34
   0   0   6  427.54   13.05
   0   0   6  398.45   12.69
   0   0   6  393.82   13.06
   0   0   7  248.23    9.39
   0   0   7  265.71    9.83
   0   0   8   61.41    3.79
   0   0   9    9.28    1.07
   0   1  -7   58.90    5.53
   0   1  -6  273.20   11.83
   0   1  -5  614.64   19.14
   0   1  -5  587.07   17.11
   0   1  -5  567.46   16.25
   0   1  -4 1405.43   30.48
   0   1  -4 1411.47   29.18
   0   1  -3 2862.77   49.90
   0   1  -3 2748.51   51.24
   0   1  -2 5782.11   98.61
   0   1  -1 2411.14   41.75
   0   1   0 2435.75   42.09
   0   1   1 7512.91  127.44
   0   1   1 7339.35  125.32
   0   1   2 1709.29   31.72
   0   1   2 1749.69   31.97
   0   1   3 1004.70   22.56
   0   1   3 1025.61   22.74
   0   1   4   93.14    5.51
   0   1   4  101.10    5.81
   0   1   5  361.18   13.59
   0   1   5  399.82   14.20
   0   1   6   51.02    4.30
   0   1   6   52.09    4.04
   0   1   6   62.78    4.56
   0   1   7   37.32    3.15
   0   1   8   11.39    1.45
   0   2  -6   11.23    2.02
   0   2  -6    3.44    1.23
   0   2  -5   35.53    3.36
   0   2  -4  401.53   11.57
   0   2  -3  514.42   12.30
   0   2  -3  523.46   10.84
   0   2  -2 7687.55  131.12
   0   2  -2 7789.84  131.31
   0   2  -2 7769.41  131.53
   0   2  -2 7530.05  130.65
   0   2  -2 7557.66  131.37
   0   2  -1 2840.77   49.32
   0   2  -1 2683.95   49.47
   0   2   0 1271.57   23.86
   0   2   0 1251.33   24.99
   0   2   1  227.60    7.64
   0   2   1  223.61    5.94
   0   2   2  506.26   13.39
   0   2   2  513.25   13.71
   0   2   2  476.04   13.09
   0   2   3  418.68   13.17
   0   2   3  402.00   12.80
   0   2   4   40.25    3.93
   0   2   4   42.65    4.09
   0   2   5  429.43   13.52
   0   2   5  384.82   13.34
   0   2   5  377.81   12.54
   0   2   5  431.01   13.54
   0   2   6   66.67    4.44
   0   2   6   77.01    4.90
   0   2   7   45.36    3.14
   0   2   8   17.16    1.38
   0   3  -7    9.93    2.32
   0   3  -7    7.87    1.96
   0   3  -6  230.88   10.24
   0   3  -6  212.21    9.65
   0   3  -5  342.40   11.55
   0   3  -5  358.20   11.58
   0   3  -5  331.53   11.11
   0   3  -4   46.16    3.16
   0   3  -4   55.93    3.46
   0   3  -4   54.51    3.39
   0   3  -4   47.69    3.11
   0   3  -3 5129.95   89.87
   0   3  -3 5246.52   89.50
   0   3  -3 5134.58   88.33
   0   3  -3 5084.15   89.19
   0   3  -3 5109.44   89.74
   0   3  -2  986.52   20.71
   0   3  -2 1027.11   20.93
   0   3  -1 1546.71   29.16
   0   3  -1 1447.07   29.71
   0   3  -1 1495.45   29.95
   0   3   0  590.58   13.26
   0   3   0  592.86   14.83
   0   3   0  624.14   14.63
   0   3   1  964.45   23.48
   0   3   1 1054.11   23.10
   0   3   2   55.79    4.15
   0   3   2   50.51    4.12
   0   3   3   87.82    6.12
   0   3   3   94.32    6.13
   0   3   4  277.69   10.87
   0   3   4  286.20   10.85
   0   3   4  270.84   10.83
   0   3   4  291.75   10.75
   0   3   5   26.49    2.92
   0   3   5   24.81    2.69
   0   3   5   26.12    2.84
   0   3   6   19.03    2.15
   0   3   6   18.01    2.13
   0   3   7   30.99    2.18
   0   4  -7  393.30   15.33
   0   4  -7  382.24   15.93
   0   4  -6  473.76   15.45
   0   4  -6  489.84   16.29
   0   4  -6  469.67   15.12
   0   4  -6  427.90   14.42
   0   4  -5  132.42    6.52
   0   4  -5  120.91    6.53
   0   4  -5  119.76    6.11
   0   4  -5  118.84    5.96
   0   4  -4 1274.72   27.23
   0   4  -4 1197.65   27.85
   0   4  -4 1254.31   27.39
   0   4  -3 1731.87   35.68
   0   4  -3 1727.61   35.87
   0   4  -2 1068.25   23.63
   0   4  -2 1057.38   23.79
   0   4  -2 1085.92   24.06
   0   4  -1  331.61   10.05
   0   4  -1  315.97    9.55
   0   4  -1  323.04   10.39
   0   4   0 2259.94   44.00
   0   4   0 2072.72   44.22
   0   4   1  875.51   22.17
   0   4   1  827.14   22.49
   0   4   2   77.36    5.67
   0   4   2   73.77    5.74
   0   4   3   50.77    4.33
   0   4   3   51.65    4.34
   0   4   3   47.27    4.21
   0   4   3   55.12    4.41
   0   4   3   56.22    4.50
   0   4   3   51.35    4.14
   0   4   4   19.99    2.59
   0   4   4   17.67    2.50
   0   4   4   18.62    2.39
   0   4   4   20.13    2.63
   0   4   5  102.03    5.26
   0   4   5  102.83    5.38
   0   4   6   49.38    2.97
   0   5  -7  178.06   10.34
   0   5  -6  406.67   14.65
   0   5  -6  437.26   15.61
   0   5  -6  411.21   16.01
   0   5  -5  222.67    9.81
   0   5  -5  228.52   10.23
   0   5  -4  315.48   11.57
   0   5  -3   44.95    3.87
   0   5  -3   54.13    4.23
   0   5  -3   53.53    4.13
   0   5  -2  969.82   23.78
   0   5  -2 1005.35   23.63
   0   5  -1  391.40   13.08
   0   5  -1  415.17   14.00
   0   5   0   44.55    4.14
   0   5   1  231.18   10.55
   0   5   1  212.34   10.84
   0   5   2   52.82    4.41
   0   5   2   45.62    4.09
   0   5   2   43.56    3.94
   0   5   2   42.86    4.04
   0   5   2   46.22    4.09
   0   5   2   41.68    3.81
   0   5   3    7.82    1.58
   0   5   3    7.61    1.57
   0   5   3    9.16    1.77
   0   5   3    5.68    1.45
   0   5   3    7.38    1.56
   0   5   4    3.59    0.76
   0   5   4    2.50    0.85
   0   5   4    3.36    1.08
   0   5   5   24.87    2.11
   0   5   5   27.61    2.30
   0   6  -7  449.48   19.00
   0   6  -6  346.89   15.01
   0   6  -5   12.87    2.62
   0   6  -5   13.67    2.57
   0   6  -5   12.74    2.50
   0   6  -4  127.89    7.90
   0   6  -4  138.81    8.14
   0   6  -4  153.50    8.42
   0   6  -3  190.70    9.38
   0   6  -3  227.71   10.29
   0   6  -2  241.69   11.20
   0   6  -1   12.14    2.07
   0   6  -1    9.73    1.86
   0   6   0   45.65    4.05
   0   6   0   46.37    4.31
   0   6   0   45.75    4.08
   0   6   1   10.56    1.99
   0   6   1    9.74    1.90
   0   6   1    9.44    1.88
   0   6   1    8.46    1.70
   0   6   2   27.38    2.97
   0   6   2   28.55    3.05
   0   6   2   28.07    3.07
   0   6   2   26.62    2.92
   0   6   3    5.61    1.22
   0   6   3    6.23    1.32
   0   6   3    7.34    1.39
   0   6   3    8.27    1.47
   0   6   4   43.62    2.81
   0   6   4   49.91    3.09
   0   7  -6  168.27   10.27
   0   7  -5  215.96   11.39
   0   7  -4  169.67    8.57
   0   7  -4  169.02    9.87
   0   7  -4  161.48    7.91
   0   7  -3   79.38    5.55
   0   7  -3   73.56    6.64
   0   7  -3   79.19    5.46
   0   7  -2  116.60    6.62
   0   7  -2  128.21    7.05
   0   7  -2  128.69    7.35
   0   7  -2  125.98    7.06
   0   7  -1  271.72   10.69
   0   7  -1  281.83   10.94
   0   7  -1  286.59   11.50
   0   7  -1  272.52   10.87
   0   7   0    7.51    1.65
   0   7   0    4.40    1.21
   0   7   0    7.38    1.75
   0   7   0    4.58    1.18
   0   7   1   15.85    2.22
   0   7   1   17.70    2.34
   0   7   1   16.01    2.28
   0   7   1   15.89    2.24
   0   7   2    0.89    0.45
   0   7   2    1.44    0.67
   0   7   2    1.33    0.65
   0   7   2    0.97    0.39
   0   7   3    4.78    0.86
   0   7   3    5.71    0.95
   0   8  -5  187.87    8.47
   0   8  -4   10.95    2.09
   0   8  -4   12.93    2.13
   0   8  -4   10.81    1.87
   0   8  -3   52.12    4.27
   0   8  -3   57.70    4.60
   0   8  -3   55.73    4.57
   0   8  -3   55.50    4.43
   0   8  -2  201.12    8.79
   0   8  -2  209.60    8.95
   0   8  -2  202.85    9.20
   0   8  -2  195.95    8.70
   0   8  -1  226.83    9.06
   0   8  -1  212.61    9.12
   0   8  -1  207.99    8.66
   0   8  -1  206.91    8.63
   0   8   0   59.35    4.13
   0   8   0   56.40    3.99
   0   8   0   63.80    4.31
   0   8   0   63.54    4.18
   0   8   1    2.19    0.74
   0   8   1    1.84    0.69
   0   8   1    2.63    0.69
   0   8   1    2.54    0.67
   0   9  -7   13.63    1.98
   0   9  -6   33.66    3.18
   0   9  -5    1.53    0.94
   0   9  -5    2.59    0.97
   0   9  -4    9.19    1.73
   0   9  -4   10.42    1.80
   0   9  -4    9.74    1.74
   0   9  -4    8.49    1.53
   0   9  -3    1.26    0.46
   0   9  -3    2.47    1.02
   0   9  -3    2.46    0.96
   0   9  -3    2.46    0.80
   0   9  -2    2.82    0.94
   0   9  -2    2.97    0.95
   0   9  -2    3.18    0.98
   0   9  -2    1.54    0.71
   0   9  -1   26.46    2.40
   0   9  -1   27.34    2.43
   0   9  -1   25.53    2.42
   0   9  -1   25.89    2.23
   0   9   0   15.67    1.51
   0   9   0   17.26    1.64
   0  10  -7   47.24    3.13
   0  10  -6   41.25    2.86
   0  10  -6   42.27    3.08
   0  10  -5   14.33    1.73
   0  10  -5   14.73    1.82
   0  10  -4   50.89    3.20
   0  10  -4   42.60    2.79
   0  10  -4   51.61    3.34
   0  10  -3   14.19    1.55
   0  10  -3   12.05    1.35
   0  10  -3   12.10    1.45
   1 -10   3    0.51    0.28
   1 -10   3    1.18    0.48
   1 -10   4    6.57    1.05
   1 -10   4    6.53    1.00
   1 -10   5    8.39    1.17
   1 -10   5    8.77    1.20
   1 -10   6   16.15    1.51
   1 -10   6   17.53    1.59
   1  -9   0   11.86    1.39
   1  -9   0   11.10    1.30
   1  -9   1    2.39    0.73
   1  -9   1    3.64    0.86
   1  -9   1    2.75    0.70
   1  -9   1    3.22    0.88
   1  -9   2   26.02    2.39
   1  -9   2   29.63    2.62
   1  -9   2   22.42    2.20
   1  -9   2   27.27    2.41
   1  -9   3   10.93    1.62
   1  -9   3   12.89    1.72
   1  -9   3   12.36    1.71
   1  -9   3   12.12    1.65
   1  -9   4   10.04    1.57
   1  -9   4    8.99    1.43
   1  -9   4   10.26    1.56
   1  -9   5   27.40    2.57
   1  -9   5   27.28    2.56
   1  -9   6    9.76    1.46
   1  -9   6    8.11    1.35
   1  -9   7    1.76    0.62
   1  -8  -2   13.77    1.41
   1  -8  -2   13.35    1.33
   1  -8  -2   16.78    1.57
   1  -8  -1   14.99    1.65
   1  -8  -1   16.74    1.87
   1  -8  -1   20.22    1.94
   1  -8   0   12.96    1.66
   1  -8   0   12.63    1.72
   1  -8   0   11.95    1.64
   1  -8   0   14.01    1.77
   1  -8   1   26.11    2.59
   1  -8   1   27.30    2.78
   1  -8   1   27.04    2.67
   1  -8   1   28.21    2.69
   1  -8   2   17.12    2.24
   1  -8   2   17.59    2.19
   1  -8   2   19.24    2.31
   1  -8   2   21.08    2.42
   1  -8   3   95.66    5.40
   1  -8   3  109.32    5.79
   1  -8   3   96.96    5.40
   1  -8   3   88.56    5.35
   1  -8   3  113.45    5.87
   1  -8   4  268.22    9.70
   1  -8   4  253.99    9.62
   1  -8   4  259.94    9.46
   1  -8   4  234.61    9.33
   1  -8   5  116.54    6.12
   1  -8   5  118.54    6.13
   1  -8   5  112.80    5.97
   1  -8   6   77.62    4.78
   1  -8   6   81.89    4.83
   1  -8   6   71.89    4.54
   1  -8   7   22.35    2.40
   1  -8   7   20.97    2.28
   1  -8   7   20.62    2.21
   1  -8   8    8.84    1.42
   1  -8   9    7.92    1.06
   1  -7  -3   51.85    3.07
   1  -7  -3   46.95    2.90
   1  -7  -3   48.46    2.84
   1  -7  -3   54.57    3.12
   1  -7  -2   74.18    4.29
   1  -7  -2   68.18    3.89
   1  -7  -2   77.23    4.22
   1  -7  -2   72.40    4.08
   1  -7  -1   78.09    4.62
   1  -7  -1   80.29    4.59
   1  -7  -1   67.24    4.17
   1  -7   0   50.15    3.95
   1  -7   0   56.63    3.96
   1  -7   0   52.15    3.77
   1  -7   0   51.41    4.71
   1  -7   0   54.06    3.83
   1  -7   0   49.84    3.81
   1  -7   1   96.47    5.66
   1  -7   1  102.90    5.50
   1  -7   1  113.36    7.13
   1  -7   1  102.06    5.56
   1  -7   1  109.34    5.65
   1  -7   2    1.91    0.75
   1  -7   2    1.71    0.77
   1  -7   2    1.44    0.79
   1  -7   2    1.38    0.70
   1  -7   2    1.72    0.69
   1  -7   3   39.02    3.45
   1  -7   3   34.77    3.18
   1  -7   3   41.53    4.27
   1  -7   3   34.51    3.12
   1  -7   3   34.91    3.33
   1  -7   3   39.73    3.48
   1  -7   4  213.72    8.77
   1  -7   4  215.19    8.62
   1  -7   4  193.81    8.43
   1  -7   5  272.04   10.13
   1  -7   5  232.16    9.76
   1  -7   5  267.10    9.87
   1  -7   5  238.54    9.40
   1  -7   6   14.33    2.17
   1  -7   6   14.37    2.09
   1  -7   6   13.36    1.99
   1  -7   6   11.83    1.99
   1  -7   7   86.62    5.28
   1  -7   7   90.84    5.10
   1  -7   8   25.70    2.57
   1  -7   9   19.82    1.96
   1  -6  -4   18.78    1.89
   1  -6  -4   18.62    1.86
   1  -6  -4   18.68    1.91
   1  -6  -3  107.06    5.44
   1  -6  -3  112.47    5.35
   1  -6  -3  109.92    5.36
   1  -6  -2   25.51    2.71
   1  -6  -2   23.65    3.15
   1  -6  -2   25.20    2.56
   1  -6  -1   15.01    2.07
   1  -6  -1   16.75    2.14
   1  -6  -1   12.66    2.40
   1  -6  -1   13.25    1.87
   1  -6   0   46.95    3.81
   1  -6   0   52.05    3.75
   1  -6   0   48.36    3.64
   1  -6   0   53.66    3.76
   1  -6   1  311.75   11.55
   1  -6   2  191.25    8.54
   1  -6   2  158.49    8.77
   1  -6   3  117.09    6.63
   1  -6   3   91.06    6.02
   1  -6   3  103.36    6.90
   1  -6   3  104.20    6.54
   1  -6   4  116.55    7.26
   1  -6   4  126.61    7.53
   1  -6   4  123.47    7.81
   1  -6   5  109.08    6.12
   1  -6   5   87.95    5.61
   1  -6   5  104.24    5.80
   1  -6   5  100.54    5.72
   1  -6   6  298.46   11.09
   1  -6   6  300.79   10.92
   1  -6   6  327.31   11.23
   1  -6   7   26.67    2.93
   1  -6   8   30.34    2.92
   1  -6   9   35.61    2.78
   1  -5  -6   10.92    1.09
   1  -5  -5   23.87    2.10
   1  -5  -5   28.87    2.44
   1  -5  -4    2.45    0.81
   1  -5  -3    0.86    0.58
   1  -5  -3    1.28    0.69
   1  -5  -3    2.11    1.02
   1  -5  -2  200.62    8.28
   1  -5  -2  208.23    8.19
   1  -5  -1   43.90    3.88
   1  -5  -1   37.02    3.47
   1  -5   0  113.80    5.99
   1  -5   1  263.05    9.33
   1  -5   1  226.45    9.59
   1  -5   2    3.80    1.02
   1  -5   2    3.43    1.02
   1  -5   2    2.83    0.95
   1  -5   3  230.42    9.26
   1  -5   3  249.51    9.19
   1  -5   3  229.21    9.62
   1  -5   3  223.63    9.03
   1  -5   4  147.77    7.67
   1  -5   4  136.70    7.24
   1  -5   4  152.90    8.01
   1  -5   5  515.69   17.01
   1  -5   5  501.79   16.75
   1  -5   5  543.28   17.80
   1  -5   6  241.44    9.53
   1  -5   6  242.63    9.46
   1  -5   7   93.57    5.63
   1  -5   7   85.31    4.99
   1  -5   8   24.08    2.63
   1  -5   8   20.93    2.23
   1  -5   9   12.34    1.63
   1  -4  -6   34.97    2.63
   1  -4  -5    9.61    1.60
   1  -4  -4   16.61    2.25
   1  -4  -4   18.41    2.90
   1  -4  -4   17.42    2.70
   1  -4  -3  132.52    6.56
   1  -4  -3  145.31    6.79
   1  -4  -3  134.36    7.77
   1  -4  -3  154.99    7.90
   1  -4  -2  499.20   14.86
   1  -4  -2  461.40   14.49
   1  -4  -2  473.57   14.07
   1  -4  -1  506.69   13.85
   1  -4  -1  449.60   13.05
   1  -4   0 1356.18   27.53
   1  -4   0 1288.14   27.74
   1  -4   1 1531.17   29.58
   1  -4   1 1482.21   30.38
   1  -4   2 1746.22   35.24
   1  -4   2 1784.56   35.14
   1  -4   2 1722.80   35.93
   1  -4   3  639.19   16.48
   1  -4   3  617.20   16.57
   1  -4   3  600.65   15.66
   1  -4   4  214.82    9.02
   1  -4   4  220.58    8.84
   1  -4   4  229.28    9.37
   1  -4   5  423.16   14.81
   1  -4   5  426.92   14.45
   1  -4   5  446.12   15.04
   1  -4   6  597.50   16.90
   1  -4   6  565.70   15.72
   1  -4   7  153.13    7.51
   1  -4   7  153.14    6.88
   1  -4   8   30.23    2.98
   1  -4   8   29.12    2.63
   1  -4   9   10.13    1.32
   1  -3  -5  123.57    7.74
   1  -3  -5  123.30    7.79
   1  -3  -4   15.69    2.69
   1  -3  -4   15.04    2.54
   1  -3  -4   14.87    2.48
   1  -3  -3    9.69    1.73
   1  -3  -3    7.56    1.63
   1  -3  -3   10.89    1.96
   1  -3  -3    9.29    1.70
   1  -3  -2 1047.56   23.58
   1  -3  -2 1010.64   23.04
   1  -3  -2 1070.77   22.88
   1  -3  -1  833.85   19.48
   1  -3  -1  871.99   19.03
   1  -3  -1  893.38   19.16
   1  -3  -1  871.30   18.95
   1  -3   0  812.65   16.80
   1  -3   0  826.68   18.21
   1  -3   0  848.55   17.33
   1  -3   0  867.94   18.58
   1  -3   0  807.31   17.04
   1  -3   1  934.94   18.60
   1  -3   1  878.89   18.62
   1  -3   1  888.57   19.24
   1  -3   2 1328.28   27.49
   1  -3   2 1409.82   26.62
   1  -3   2 1301.14   27.16
   1  -3   2 1413.35   28.00
   1  -3   2 1340.96   26.97
   1  -3   3  770.52   17.33
   1  -3   3  755.19   18.08
   1  -3   3  727.60   17.46
   1  -3   3  782.02   18.32
   1  -3   4 1045.44   24.70
   1  -3   4 1039.81   24.19
   1  -3   4 1022.99   24.19
   1  -3   4 1108.69   24.99
   1  -3   5  350.99   12.51
   1  -3   5  342.14   12.45
   1  -3   6  193.90    8.64
   1  -3   6  189.68    9.78
   1  -3   6  199.76    8.11
   1  -3   6  178.87    9.31
   1  -3   7   19.12    2.55
   1  -3   7   14.74    2.12
   1  -3   8   12.43    1.72
   1  -3   9    4.42    0.87
   1  -2  -8   19.49    1.64
   1  -2  -6   14.12    2.66
   1  -2  -5  214.68   10.19
   1  -2  -5  218.06   10.11
   1  -2  -4  125.48    6.64
   1  -2  -4  126.03    7.08
   1  -2  -4  115.41    6.61
   1  -2  -4  120.48    6.63
   1  -2  -3  107.66    5.25
   1  -2  -3  114.65    6.06
   1  -2  -3  115.67    5.67
   1  -2  -2 4891.87   84.74
   1  -2  -2 4571.59   86.28
   1  -2  -2 4681.94   85.33
   1  -2  -2 4957.74   85.53
   1  -2  -1  668.12   15.60
   1  -2  -1  742.10   15.33
   1  -2  -1  753.71   15.29
   1  -2  -1  690.62   15.19
   1  -2   0 2541.30   43.84
   1  -2   0 2439.82   44.10
   1  -2   0 2561.09   45.19
   1  -2   0 2393.38   43.94
   1  -2   1  556.31   11.98
   1  -2   1  580.49   11.56
   1  -2   2  156.48    5.60
   1  -2   2  165.78    5.39
   1  -2   2  151.38    5.21
   1  -2   3 2605.45   50.69
   1  -2   3 2697.04   50.28
   1  -2   4 1535.88   32.72
   1  -2   4 1583.23   32.46
   1  -2   4 1454.66   31.78
   1  -2   4 1461.58   31.04
   1  -2   5  245.41   10.38
   1  -2   5  240.76   10.01
   1  -2   5  220.18    9.50
   1  -2   6   34.14    3.25
   1  -2   6   34.64    3.25
   1  -2   7    1.76    0.63
   1  -2   7    0.06    0.84
   1  -2   8    7.78    1.47
   1  -2   8    7.73    1.36
   1  -2   9   27.03    1.97
   1  -1  -6  131.61    8.02
   1  -1  -5   97.79    6.31
   1  -1  -5   91.33    6.10
   1  -1  -5  104.96    6.38
   1  -1  -4  647.66   17.16
   1  -1  -4  619.02   17.72
   1  -1  -4  626.36   16.91
   1  -1  -3 1270.11   25.06
   1  -1  -3 1210.12   25.22
   1  -1  -3 1214.50   25.21
   1  -1  -2 3107.46   53.97
   1  -1  -2 2928.31   54.01
   1  -1  -2 2955.45   54.20
   1  -1   0 4484.24   77.08
   1  -1   1 1052.76   18.24
   1  -1   2 1994.27   36.97
   1  -1   2 1986.91   35.07
   1  -1   2 1933.46   36.48
   1  -1   2 1883.58   36.26
   1  -1   2 1925.49   35.39
   1  -1   3 3095.34   57.81
   1  -1   3 3172.25   59.45
   1  -1   3 3339.66   58.04
   1  -1   3 3282.57   59.51
   1  -1   3 3123.57   58.92
   1  -1   4  158.39    6.38
   1  -1   4  167.29    7.29
   1  -1   4  160.01    7.03
   1  -1   4  146.63    6.23
   1  -1   5  252.90   10.67
   1  -1   6   61.88    4.44
   1  -1   6   65.88    4.57
   1  -1   7  188.94    8.07
   1  -1   7  184.59    7.78
   1  -1   8  101.00    4.86
   1   0  -7   37.37    4.30
   1   0  -6  121.89    7.52
   1   0  -6  149.54    8.18
   1   0  -5  534.35   15.90
   1   0  -5  546.16   15.75
   1   0  -5  552.79   16.11
   1   0  -4  382.05   11.16
   1   0  -4  407.51   11.27
   1   0  -4  393.24   11.38
   1   0  -3 1716.19   33.00
   1   0  -3 1766.98   32.92
   1   0  -3 1657.27   33.08
   1   0  -2 4973.59   86.22
   1   0  -1 4171.50   71.30
   1   0   0 2666.31   46.40
   1   0   0 2679.93   46.04
   1   0   1 9345.12  165.49
   1   0   1 9999.00  164.48
   1   0   1 9779.44  165.92
   1   0   1 9584.12  164.74
   1   0   2 7517.18  133.75
   1   0   2 7833.66  132.84
   1   0   2 7626.11  134.49
   1   0   2 7940.50  134.28
   1   0   3 5678.66   99.16
   1   0   3 5753.94  100.91
   1   0   3 5442.40   99.97
   1   0   4 1258.87   28.58
   1   0   4 1194.36   27.63
   1   0   6   91.11    5.44
   1   0   6   88.76    5.35
   1   0   7  193.80    7.75
   1   0   7  193.82    7.97
   1   0   8   19.38    1.88
   1   1  -7  173.53    9.35
   1   1  -6  204.70    9.60
   1   1  -6  214.04    9.65
   1   1  -5  651.00   17.44
   1   1  -5  667.54   17.42
   1   1  -4 1512.47   31.96
   1   1  -4 1561.17   32.20
   1   1  -4 1627.07   32.26
   1   1  -4 1591.94   31.20
   1   1  -4 1678.72   32.54
   1   1  -3 3441.74   61.03
   1   1  -3 3264.47   59.79
   1   1  -3 3352.33   61.01
   1   1  -3 3520.75   60.03
   1   1  -3 3425.57   61.02
   1   1  -2 3407.80   63.16
   1   1  -2 3691.70   61.90
   1   1  -1 7377.84  125.66
   1   1   0 2677.08   47.27
   1   1   0 2629.05   46.48
   1   1   1 3864.44   69.01
   1   1   1 3845.22   69.39
   1   1   1 3996.02   68.60
   1   1   1 3855.19   68.90
   1   1   2 1630.85   33.17
   1   1   2 1724.52   33.66
   1   1   2 1706.96   32.68
   1   1   3 2014.97   39.37
   1   1   3 1958.61   39.17
   1   1   4  538.10   16.60
   1   1   5 1200.74   27.53
   1   1   5 1232.27   28.42
   1   1   5 1191.96   27.75
   1   1   5 1190.55   28.44
   1   1   6  241.38    9.30
   1   1   6  230.55    8.92
   1   1   6  224.34    9.11
   1   1   7    8.02    1.36
   1   1   8    4.58    0.72
   1   2  -7  185.13    9.87
   1   2  -6   78.52    5.49
   1   2  -6   69.39    5.04
   1   2  -6   77.15    5.25
   1   2  -5  127.92    6.22
   1   2  -5  113.08    5.71
   1   2  -5  130.85    6.06
   1   2  -4  489.34   12.85
   1   2  -4  469.80   12.69
   1   2  -4  541.57   13.12
   1   2  -4  466.99   12.43
   1   2  -4  539.08   12.79
   1   2  -3 3032.23   52.96
   1   2  -3 2902.38   52.73
   1   2  -3 2914.58   52.73
   1   2  -3 2925.49   52.34
   1   2  -2 1960.99   36.72
   1   2  -2 1982.09   36.35
   1   2  -1  465.97    8.74
   1   2  -1  485.10   10.07
   1   2   0  793.58   14.89
   1   2   0  858.00   16.90
   1   2   1  272.05    8.76
   1   2   1  276.95    8.09
   1   2   1  296.54    8.83
   1   2   2  303.63   10.31
   1   2   2  292.37    9.66
   1   2   3  231.95    9.77
   1   2   4  452.46   13.89
   1   2   4  475.18   14.33
   1   2   4  481.44   14.64
   1   2   4  464.26   14.50
   1   2   5   99.85    5.85
   1   2   5  105.39    5.80
   1   2   5  107.58    5.98
   1   2   5   97.56    5.82
   1   2   6   58.44    3.88
   1   2   6   59.85    4.05
   1   2   7    2.99    0.69
   1   3  -7   84.47    6.51
   1   3  -7   79.93    6.14
   1   3  -7   78.37    5.94
   1   3  -6   91.82    6.00
   1   3  -6   98.40    6.03
   1   3  -6   90.26    5.63
   1   3  -5  387.70   12.15
   1   3  -5  390.04   12.06
   1   3  -5  414.19   12.11
   1   3  -4 3064.50   56.74
   1   3  -4 2939.58   55.91
   1   3  -4 3000.61   56.14
   1   3  -4 3015.49   55.72
   1   3  -3 1543.68   30.71
   1   3  -3 1482.10   30.06
   1   3  -3 1511.74   30.07
   1   3  -2 3058.27   55.42
   1   3  -2 3031.99   54.84
   1   3  -2 2951.22   56.06
   1   3  -1   83.85    4.32
   1   3  -1   75.24    3.63
   1   3   0  273.63    8.99
   1   3   0  291.22    9.57
   1   3   1  268.83    9.77
   1   3   1  282.77   10.05
   1   3   2  291.53   11.25
   1   3   3  267.52   10.23
   1   3   3  246.71    9.84
   1   3   3  265.34   10.13
   1   3   3  258.82   10.13
   1   3   3  239.19   10.99
   1   3   4  438.10   13.81
   1   3   4  427.91   13.75
   1   3   5   84.80    4.93
   1   3   5   88.70    5.13
   1   3   6    7.68    1.27
   1   4  -7  289.09   12.54
   1   4  -7  289.27   13.07
   1   4  -7  285.34   12.17
   1   4  -6  275.98   11.02
   1   4  -6  271.70   11.21
   1   4  -6  259.37   10.57
   1   4  -5 2221.60   44.34
   1   4  -5 2108.39   44.21
   1   4  -4 1476.08   32.10
   1   4  -4 1598.36   33.64
   1   4  -3  881.20   20.19
   1   4  -3  820.09   19.60
   1   4  -3  847.46   20.80
   1   4  -2 1154.94   24.46
   1   4  -2 1073.64   25.54
   1   4  -2 1112.46   24.59
   1   4  -1  413.76   13.02
   1   4   0   13.10    2.06
   1   4   1  213.65    9.65
   1   4   1  190.20    9.26
   1   4   2  249.40   11.45
   1   4   2  293.52   10.61
   1   4   2  273.51   10.54
   1   4   2  281.53   10.65
   1   4   2  282.13   10.64
   1   4   3  417.77   13.57
   1   4   3  412.52   13.50
   1   4   3  402.44   13.30
   1   4   4   21.89    2.62
   1   4   4   20.52    2.53
   1   4   5    5.74    1.05
   1   4   5    4.72    1.03
   1   5  -7  680.49   21.65
   1   5  -7  683.20   21.98
   1   5  -6   23.32    3.24
   1   5  -6   21.85    3.21
   1   5  -5   95.28    6.07
   1   5  -5  100.93    6.40
   1   5  -4  109.84    6.29
   1   5  -4  116.08    6.94
   1   5  -3  392.43   12.86
   1   5  -3  420.69   14.17
   1   5  -3  396.94   13.02
   1   5  -2  476.49   14.69
   1   5  -2  475.62   15.59
   1   5  -1  287.29   11.36
   1   5   0  443.73   15.71
   1   5   1  213.24    9.50
   1   5   1  223.09    9.66
   1   5   1  210.00    9.27
   1   5   1  219.07    9.41
   1   5   1  215.20    9.14
   1   5   2  118.38    6.74
   1   5   2  119.22    6.69
   1   5   2  126.21    6.83
   1   5   2  121.07    6.55
   1   5   3   57.09    4.27
   1   5   3   55.79    4.13
   1   5   4   12.07    1.58
   1   5   4   10.51    1.56
   1   5   5   23.16    1.68
   1   6  -6  438.55   16.75
   1   6  -5  195.18   10.02
   1   6  -4   42.52    4.37
   1   6  -4   52.71    4.87
   1   6  -4   60.95    5.18
   1   6  -4   51.90    5.25
   1   6  -3  430.40   15.25
   1   6  -2  444.73   14.18
   1   6  -2  454.11   16.16
   1   6  -1  180.35    8.45
   1   6  -1  188.33    8.57
   1   6  -1  170.97    8.84
   1   6  -1  175.41    8.26
   1   6   0   25.42    3.06
   1   6   0   23.79    2.93
   1   6   0   23.96    2.93
   1   6   0   24.61    3.20
   1   6   0   23.62    2.90
   1   6   0   22.25    2.73
   1   6   1   32.66    3.37
   1   6   1   29.51    3.18
   1   6   1   31.45    3.28
   1   6   1   35.45    3.48
   1   6   1   31.35    3.22
   1   6   2   30.68    3.00
   1   6   2   32.88    3.11
   1   6   2   33.43    3.12
   1   6   3   31.80    2.67
   1   6   4    4.15    0.71
   1   6   4    5.25    0.81
   1   7  -6   76.32    6.71
   1   7  -5   28.33    3.41
   1   7  -5   24.45    3.61
   1   7  -4  236.99   10.19
   1   7  -4  238.05    9.88
   1   7  -3  384.82   13.35
   1   7  -3  398.92   13.47
   1   7  -2  457.51   14.51
   1   7  -2  414.62   13.86
   1   7  -2  436.24   15.01
   1   7  -2  428.33   14.22
   1   7  -1    1.33    0.90
   1   7  -1    2.85    1.27
   1   7  -1    2.05    0.95
   1   7   0   35.35    3.43
   1   7   0   26.82    2.91
   1   7   0   30.72    3.26
   1   7   0   27.59    2.98
   1   7   1   32.15    2.93
   1   7   1   38.62    3.28
   1   7   1   34.49    3.07
   1   7   2   11.75    1.56
   1   8  -7    2.95    1.06
   1   8  -6    3.98    1.21
   1   8  -5    8.64    1.80
   1   8  -5   12.23    2.04
   1   8  -4  111.24    6.53
   1   8  -4  105.06    6.22
   1   8  -3  195.54    8.54
   1   8  -3  179.78    8.35
   1   8  -3  194.54    9.00
   1   8  -3  183.78    8.40
   1   8  -2  103.06    5.91
   1   8  -2   86.29    5.37
   1   8  -2  102.04    6.13
   1   8  -2   89.92    5.52
   1   8  -1   13.35    1.97
   1   8  -1   13.86    2.02
   1   8  -1   13.80    2.06
   1   8  -1   14.64    2.07
   1   8   0   29.70    2.63
   1   8   0   28.25    2.61
   1   8   0   27.97    2.57
   1   8   1   40.25    2.49
   1   8   1   52.74    2.99
   1   9  -7   13.01    1.81
   1   9  -6    5.47    1.35
   1   9  -6    4.66    1.13
   1   9  -5   29.96    2.93
   1   9  -5   32.56    3.17
   1   9  -5   30.01    3.07
   1   9  -5   30.50    2.92
   1   9  -4   16.52    2.16
   1   9  -4   17.77    2.26
   1   9  -4   14.45    2.09
   1   9  -4   14.49    2.01
   1   9  -3    7.40    1.47
   1   9  -3    7.90    1.46
   1   9  -3    7.03    1.45
   1   9  -3    9.10    1.54
   1   9  -2   27.13    2.49
   1   9  -2   25.05    2.37
   1   9  -2   23.65    2.30
   1   9  -2   23.54    2.31
   1   9  -1   15.14    1.57
   1   9  -1   16.58    1.73
   1   9  -1   15.82    1.64
   1  10  -7   16.33    1.77
   1  10  -6   41.68    2.85
   1  10  -6   34.76    2.68
   1  10  -5   50.93    3.19
   1  10  -5   45.71    3.05
   1  10  -4   14.71    1.57
   1  10  -4   11.67    1.38
   2 -10   3   29.37    1.97
   2 -10   4   20.69    1.74
   2 -10   5   17.20    1.58
   2 -10   5   15.39    1.46
   2  -9   0   25.85    2.09
   2  -9   0   25.79    2.01
   2  -9   1    8.78    1.31
   2  -9   1   10.91    1.47
   2  -9   1    7.56    1.13
   2  -9   1   10.53    1.42
   2  -9   2    2.90    0.81
   2  -9   2    3.33    0.90
   2  -9   2    3.06    0.86
   2  -9   2    3.56    0.92
   2  -9   3    7.50    1.34
   2  -9   3    9.20    1.44
   2  -9   3    9.91    1.53
   2  -9   3   10.63    1.56
   2  -9   4   31.61    2.67
   2  -9   4   37.12    2.96
   2  -9   4   35.71    2.90
   2  -9   4   38.46    2.92
   2  -9   5    6.04    1.17
   2  -9   6    4.12    0.89
   2  -9   6    6.02    1.09
   2  -9   7    5.69    0.90
   2  -8  -2   13.12    1.43
   2  -8  -2   14.12    1.46
   2  -8  -2   13.19    1.42
   2  -8  -1   59.43    3.62
   2  -8  -1   58.49    3.46
   2  -8  -1   59.39    3.51
   2  -8   0   28.32    2.50
   2  -8   0   27.32    2.54
   2  -8   0   25.85    2.39
   2  -8   1   29.63    2.86
   2  -8   1   28.01    2.64
   2  -8   1   26.12    2.63
   2  -8   1   28.94    2.69
   2  -8   2   56.44    4.08
   2  -8   2   58.52    4.07
   2  -8   2   55.04    3.95
   2  -8   2   63.20    4.19
   2  -8   3    0.89    0.80
   2  -8   3    1.03    0.61
   2  -8   3    0.81    0.67
   2  -8   3    1.84    0.83
   2  -8   4    9.31    1.63
   2  -8   4    8.42    1.60
   2  -8   4    8.94    1.52
   2  -8   4    8.42    1.55
   2  -8   5   37.55    3.23
   2  -8   5   38.95    3.29
   2  -8   6   60.22    4.06
   2  -8   6   52.64    3.70
   2  -8   6   58.75    3.89
   2  -8   7   46.62    3.26
   2  -8   7   42.95    3.06
   2  -8   8   13.06    1.46
   2  -7  -4   15.88    1.40
   2  -7  -3   46.61    2.98
   2  -7  -3   47.08    2.93
   2  -7  -3   51.72    3.16
   2  -7  -3   52.52    3.18
   2  -7  -2   20.03    2.25
   2  -7  -2   18.85    2.03
   2  -7  -2   18.89    2.06
   2  -7  -2   18.20    2.05
   2  -7  -1  139.45    6.21
   2  -7  -1  128.05    6.18
   2  -7  -1  141.38    6.26
   2  -7  -1  128.32    5.96
   2  -7   0  315.25   10.38
   2  -7   0  282.73    9.94
   2  -7   0  288.27   12.17
   2  -7   0  300.62   10.82
   2  -7   0  288.61   10.26
   2  -7   0  288.21    9.82
   2  -7   1  207.22    8.74
   2  -7   1  207.29    8.27
   2  -7   1  210.96   10.31
   2  -7   1  223.10    8.70
   2  -7   1  200.32    8.36
   2  -7   1  217.37    8.36
   2  -7   2  153.50    7.26
   2  -7   2  163.76    7.31
   2  -7   2  167.65    9.08
   2  -7   2  155.88    7.18
   2  -7   2  162.13    7.24
   2  -7   3    8.93    1.59
   2  -7   3   11.60    1.86
   2  -7   3   10.11    1.71
   2  -7   3    8.97    1.75
   2  -7   3   13.02    1.98
   2  -7   4   98.96    5.73
   2  -7   4  103.79    5.94
   2  -7   4  104.37    5.72
   2  -7   4   98.87    5.74
   2  -7   4  108.85    5.97
   2  -7   5   35.26    3.30
   2  -7   5   30.11    3.14
   2  -7   5   28.12    2.94
   2  -7   6   14.40    2.09
   2  -7   6   14.37    2.02
   2  -7   6   13.16    2.05
   2  -7   7   15.23    2.01
   2  -7   7   14.74    1.98
   2  -7   8   48.24    3.25
   2  -6  -5   30.28    2.05
   2  -6  -5   28.95    1.99
   2  -6  -4   68.42    3.86
   2  -6  -4   69.14    3.79
   2  -6  -4   59.78    3.56
   2  -6  -3  187.80    7.32
   2  -6  -3  178.02    7.45
   2  -6  -3  189.62    7.31
   2  -6  -3  184.15    7.35
   2  -6  -2  186.64    7.50
   2  -6  -2  179.83    7.72
   2  -6  -2  185.80    7.48
   2  -6  -2  171.29    8.96
   2  -6  -2  171.24    7.27
   2  -6  -1  158.52    6.96
   2  -6  -1  151.68    6.95
   2  -6  -1  164.37    7.07
   2  -6  -1  150.32    6.70
   2  -6  -1  162.54    8.43
   2  -6   0   48.16    3.92
   2  -6   0   53.69    3.87
   2  -6   0   46.55    3.59
   2  -6   0   51.16    3.84
   2  -6   0   57.96    4.79
   2  -6   0   44.05    3.58
   2  -6   0   47.25    3.51
   2  -6   1    8.91    1.67
   2  -6   1    8.13    1.45
   2  -6   1   10.90    2.01
   2  -6   1    7.86    1.50
   2  -6   1   10.13    2.34
   2  -6   1    8.58    1.51
   2  -6   2   46.86    3.76
   2  -6   2   64.02    4.97
   2  -6   2   54.13    5.22
   2  -6   2   48.52    4.59
   2  -6   3    1.67    0.41
   2  -6   3    5.06    1.18
   2  -6   3    3.48    1.04
   2  -6   3    4.23    1.13
   2  -6   3    2.48    1.07
   2  -6   3    4.09    1.37
   2  -6   3    5.70    1.20
   2  -6   4   33.86    3.25
   2  -6   4   31.76    3.25
   2  -6   4   31.21    3.09
   2  -6   4   29.37    2.94
   2  -6   4   26.68    2.88
   2  -6   4   32.04    3.13
   2  -6   5  386.19   12.68
   2  -6   5  368.76   12.73
   2  -6   5  394.21   12.63
   2  -6   6  108.46    6.08
   2  -6   6  113.23    6.27
   2  -6   7    2.42    0.89
   2  -6   7    4.05    1.12
   2  -6   8   13.82    1.82
   2  -6   9   75.33    3.47
   2  -5  -6    2.31    0.53
   2  -5  -6    3.67    0.73
   2  -5  -5   11.25    1.59
   2  -5  -5   13.90    1.72
   2  -5  -4  126.71    6.17
   2  -5  -4  137.97    6.20
   2  -5  -4  123.96    5.98
   2  -5  -3   59.19    4.27
   2  -5  -3   60.78    4.15
   2  -5  -3   62.33    5.18
   2  -5  -2   58.70    4.18
   2  -5  -2   68.80    5.18
   2  -5  -2   64.38    4.21
   2  -5  -1  278.17   10.22
   2  -5  -1  216.53    9.05
   2  -5   0  431.28   13.44
   2  -5   1  153.76    7.19
   2  -5   1  150.20    8.04
   2  -5   2   47.79    3.95
   2  -5   2   55.14    4.24
   2  -5   2   52.31    4.61
   2  -5   2   58.04    4.42
   2  -5   3  203.28    9.26
   2  -5   3  217.51   10.11
   2  -5   3  205.54    9.18
   2  -5   4   89.59    6.30
   2  -5   4   80.46    5.86
   2  -5   5  253.40    9.93
   2  -5   5  265.60    9.91
   2  -5   5  263.99   10.25
   2  -5   6  162.66    7.57
   2  -5   6  154.30    7.46
   2  -5   7   22.13    2.56
   2  -5   8   54.25    3.74
   2  -4  -7   15.24    1.40
   2  -4  -6    4.19    0.95
   2  -4  -6    4.87    1.10
   2  -4  -5   94.54    5.31
   2  -4  -4    4.92    1.36
   2  -4  -4    4.66    1.42
   2  -4  -4    3.78    1.01
   2  -4  -3   87.36    5.73
   2  -4  -3   78.48    5.37
   2  -4  -2    4.16    1.23
   2  -4  -2    2.13    0.69
   2  -4  -2    2.71    0.96
   2  -4  -1  357.63   11.28
   2  -4  -1  326.66   10.52
   2  -4  -1  362.02   10.75
   2  -4   0  282.44    9.27
   2  -4   0  295.55   10.41
   2  -4   1  286.35    9.36
   2  -4   1  331.00   10.23
   2  -4   1  316.26    9.61
   2  -4   1  270.19    8.44
   2  -4   1  337.00   11.32
   2  -4   2  421.77   12.72
   2  -4   2  414.53   12.13
   2  -4   2  403.41   12.32
   2  -4   3  249.27    9.92
   2  -4   3  231.84    9.02
   2  -4   3  262.72   10.49
   2  -4   3  251.35    9.52
   2  -4   4  650.67   19.20
   2  -4   4  660.52   18.76
   2  -4   4  640.57   18.76
   2  -4   5   79.10    5.14
   2  -4   5   80.00    6.17
   2  -4   5   74.61    5.84
   2  -4   6   47.21    4.01
   2  -4   6   45.27    3.80
   2  -4   6   42.98    3.77
   2  -4   7   29.89    3.08
   2  -4   7   32.26    3.08
   2  -4   8   65.73    4.06
   2  -3  -7    6.65    1.25
   2  -3  -6   85.44    4.96
   2  -3  -5   29.17    3.60
   2  -3  -4   87.85    5.78
   2  -3  -4   71.63    5.36
   2  -3  -4   81.72    5.59
   2  -3  -3  123.41    6.30
   2  -3  -3  119.27    6.25
   2  -3  -3  122.81    6.23
   2  -3  -2  345.15   10.82
   2  -3  -2  324.83   10.33
   2  -3  -2  362.07   10.61
   2  -3  -1 1307.55   27.56
   2  -3  -1 1272.79   26.78
   2  -3   0  137.40    4.89
   2  -3   0  137.52    5.55
   2  -3   0  136.32    4.98
   2  -3   0  134.42    5.01
   2  -3   1  183.73    6.61
   2  -3   1  184.03    6.65
   2  -3   1  194.83    7.38
   2  -3   2 1407.94   29.33
   2  -3   2 1339.87   28.26
   2  -3   2 1462.37   30.12
   2  -3   2 1282.82   28.04
   2  -3   3  674.04   17.60
   2  -3   3  616.75   16.62
   2  -3   3  639.05   16.96
   2  -3   4  167.43    8.26
   2  -3   4  161.55    7.96
   2  -3   4  159.02    7.88
   2  -3   5  703.01   20.76
   2  -3   5  668.37   20.35
   2  -3   6  140.36    7.29
   2  -3   6  140.73    6.92
   2  -3   7   70.13    4.78
   2  -3   7   65.67    4.45
   2  -3   8   24.02    2.33
   2  -2  -8    1.48    0.54
   2  -2  -6  178.73    9.51
   2  -2  -5  116.98    7.14
   2  -2  -5  133.72    7.53
   2  -2  -4 1360.04   29.95
   2  -2  -4 1295.66   29.89
   2  -2  -4 1316.61   30.01
   2  -2  -3   74.53    4.34
   2  -2  -3   75.24    4.35
   2  -2  -3   70.55    4.26
   2  -2  -2  530.30   13.51
   2  -2  -2  523.52   13.05
   2  -2  -2  561.45   13.52
   2  -2  -1  345.94    9.45
   2  -2  -1  344.39    9.01
   2  -2  -1  363.66    9.23
   2  -2   0 1532.07   30.56
   2  -2   0 1590.20   29.53
   2  -2   0 1555.99   29.61
   2  -2   1 1547.86   30.92
   2  -2   1 1515.85   30.35
   2  -2   1 1494.01   30.25
   2  -2   2 2922.61   54.44
   2  -2   2 2880.56   53.98
   2  -2   2 2846.71   53.88
   2  -2   3  619.92   16.54
   2  -2   3  644.30   16.70
   2  -2   4    7.02    1.66
   2  -2   4    6.87    1.48
   2  -2   5   84.99    6.23
   2  -2   5   86.78    6.29
   2  -2   6    3.89    1.14
   2  -2   7   42.01    3.41
   2  -2   8   32.47    2.60
   2  -1  -6  118.58    7.36
   2  -1  -5  443.70   14.61
   2  -1  -5  491.63   14.99
   2  -1  -4  468.99   13.17
   2  -1  -4  426.98   12.84
   2  -1  -3 2748.44   50.12
   2  -1  -3 2817.43   50.45
   2  -1  -2  114.16    4.48
   2  -1  -2  121.16    4.47
   2  -1  -2  127.83    4.73
   2  -1  -1 1568.66   27.87
   2  -1  -1 1611.57   29.91
   2  -1   0 1525.74   28.92
   2  -1   1 1405.96   26.11
   2  -1   1 1394.98   25.67
   2  -1   1 1559.84   28.69
   2  -1   1 1527.10   28.10
   2  -1   2  581.43   14.40
   2  -1   2  561.10   14.21
   2  -1   3 1702.49   35.80
   2  -1   3 1694.94   35.38
   2  -1   4  190.07    8.95
   2  -1   5   45.45    3.72
   2  -1   5   38.68    3.52
   2  -1   6   25.44    2.74
   2  -1   6   23.95    2.71
   2  -1   7   13.19    1.85
   2  -1   7   12.12    1.68
   2   0  -7   35.87    4.16
   2   0  -6  493.41   16.23
   2   0  -6  503.59   16.12
   2   0  -5  113.92    6.80
   2   0  -5  119.94    6.06
   2   0  -5  121.57    6.32
   2   0  -4  388.51   10.96
   2   0  -4  379.31   11.34
   2   0  -3  191.94    6.22
   2   0  -3  210.88    6.47
   2   0  -3  200.89    6.79
   2   0  -2 1304.74   24.17
   2   0  -2 1257.98   23.76
   2   0  -2 1258.77   24.44
   2   0  -2 1271.74   24.84
   2   0  -1 3078.52   52.05
   2   0  -1 2801.91   50.16
   2   0   0 3995.19   71.27
   2   0   0 4135.02   71.95
   2   0   0 4082.14   70.81
   2   0   1  212.91    6.01
   2   0   1  219.52    7.06
   2   0   1  232.13    6.57
   2   0   1  228.16    6.78
   2   0   2 1499.70   32.00
   2   0   2 1555.35   31.75
   2   0   3 1397.69   30.53
   2   0   3 1260.60   28.33
   2   0   4  255.64   10.97
   2   0   5  331.81   11.42
   2   0   5  333.66   11.75
   2   0   6   38.97    3.35
   2   0   6   44.39    3.56
   2   0   7   75.90    4.34
   2   0   7   66.74    3.76
   2   1  -7   60.95    5.36
   2   1  -7   75.63    5.92
   2   1  -6   96.89    6.02
   2   1  -6  117.62    6.69
   2   1  -5  291.83   11.17
   2   1  -5  280.09    9.72
   2   1  -5  287.31    9.28
   2   1  -5  313.83   10.53
   2   1  -4  596.18   16.03
   2   1  -4  630.11   15.19
   2   1  -4  560.85   14.53
   2   1  -4  661.08   14.57
   2   1  -4  657.99   15.62
   2   1  -3  684.35   16.09
   2   1  -3  721.65   15.33
   2   1  -3  675.29   14.92
   2   1  -3  696.58   14.72
   2   1  -3  676.37   15.54
   2   1  -2 2727.97   48.02
   2   1  -2 2626.49   46.78
   2   1  -1 1202.72   23.13
   2   1  -1 1100.99   22.73
   2   1   0  645.76   13.66
   2   1   0  639.67   13.55
   2   1   1 1390.18   28.95
   2   1   1 1475.29   29.17
   2   1   1 1432.75   28.62
   2   1   2  982.09   22.88
   2   1   2  941.26   22.27
   2   1   3  941.64   23.65
   2   1   3  887.56   23.03
   2   1   4  598.98   17.06
   2   1   4  570.92   16.81
   2   1   4  667.05   18.10
   2   1   4  653.65   18.24
   2   1   4  652.25   17.78
   2   1   5  244.77    9.56
   2   1   5  266.84   10.24
   2   1   5  257.21    9.78
   2   1   6  246.91    8.82
   2   1   6  209.13    8.00
   2   1   7   57.91    3.00
   2   2  -7  149.51    8.32
   2   2  -7  133.02    7.71
   2   2  -6  569.57   16.80
   2   2  -6  539.10   16.28
   2   2  -5  812.28   21.09
   2   2  -5  805.11   19.60
   2   2  -5  761.46   19.09
   2   2  -5  829.58   19.57
   2   2  -4  229.71    7.75
   2   2  -4  220.39    7.50
   2   2  -4  214.72    7.28
   2   2  -4  219.34    7.25
   2   2  -3   28.10    2.18
   2   2  -3   25.00    1.84
   2   2  -2  509.07   12.38
   2   2  -2  490.10   11.38
   2   2  -1   58.46    3.45
   2   2  -1   59.41    2.74
   2   2   0  126.88    4.97
   2   2   0  131.31    5.66
   2   2   1 1289.29   27.25
   2   2   1 1283.31   28.17
   2   2   1 1240.72   27.72
   2   2   2    4.44    1.26
   2   2   2    4.00    1.21
   2   2   3  167.24    7.73
   2   2   3  153.04    8.39
   2   2   4  813.51   20.89
   2   2   4  747.03   20.09
   2   2   4  812.84   20.86
   2   2   4  791.60   20.90
   2   2   4  801.05   21.10
   2   2   5   33.65    3.16
   2   2   5   29.83    2.89
   2   2   5   38.54    3.38
   2   2   6    2.35    0.76
   2   3  -7    5.32    1.52
   2   3  -7    5.75    1.45
   2   3  -7    7.52    1.76
   2   3  -6  292.03   11.17
   2   3  -6  296.86   11.07
   2   3  -6  272.15   10.48
   2   3  -5  734.61   20.17
   2   3  -5  759.72   18.91
   2   3  -5  745.22   18.96
   2   3  -4 3553.39   66.70
   2   3  -4 3619.31   65.64
   2   3  -4 3397.08   65.15
   2   3  -3  195.34    7.55
   2   3  -3  190.22    6.87
   2   3  -2 1881.80   37.02
   2   3  -2 1780.78   34.33
   2   3  -1  333.84   10.92
   2   3   0  437.10   13.41
   2   3   0  468.72   14.04
   2   3   1  202.99    9.15
   2   3   2   10.06    2.06
   2   3   3  409.16   13.52
   2   3   3  395.27   12.82
   2   3   3  397.77   13.07
   2   3   3  394.95   13.18
   2   3   3  402.97   13.44
   2   3   3  388.32   13.28
   2   3   4    9.54    1.67
   2   3   4   10.56    1.83
   2   3   4   10.51    1.78
   2   3   5   21.72    2.18
   2   3   5   21.74    2.20
   2   3   6   24.93    1.71
   2   4  -7  109.62    7.27
   2   4  -7  106.59    7.36
   2   4  -6   64.18    4.99
   2   4  -6   41.29    4.06
   2   4  -5 1077.14   28.14
   2   4  -5 1101.95   26.50
   2   4  -4  909.74   23.37
   2   4  -4  888.10   21.69
   2   4  -3  134.33    5.97
   2   4  -3  144.94    7.30
   2   4  -2  539.52   16.13
   2   4  -1  234.91   10.01
   2   4   0  272.44   11.23
   2   4   1   88.13    5.46
   2   4   1   81.83    5.28
   2   4   1   73.04    4.99
   2   4   1   76.62    5.20
   2   4   1   78.22    6.10
   2   4   2   99.77    5.76
   2   4   2   92.61    5.67
   2   4   2   90.26    5.57
   2   4   2   97.97    6.00
   2   4   2   89.12    5.66
   2   4   3   29.58    3.06
   2   4   3   32.91    3.24
   2   4   3   32.12    3.19
   2   4   4   21.60    2.32
   2   4   4   18.28    2.06
   2   4   4   18.82    2.10
   2   4   5   22.43    1.80
   2   5  -7  395.62   15.55
   2   5  -6  289.23   12.18
   2   5  -5   60.04    4.92
   2   5  -5   56.94    5.37
   2   5  -5   67.74    5.22
   2   5  -4  351.99   13.74
   2   5  -3  305.18   12.43
   2   5  -2  164.17    8.91
   2   5  -1    6.54    1.64
   2   5  -1    6.23    1.83
   2   5   0   84.69    5.71
   2   5   0   82.52    5.50
   2   5   0   88.11    5.66
   2   5   0   84.61    5.50
   2   5   1  535.07   16.20
   2   5   1  550.59   16.30
   2   5   1  550.23   16.25
   2   5   2   22.52    2.67
   2   5   2   23.41    2.75
   2   5   2   28.41    2.95
   2   5   3   19.58    2.23
   2   5   3   16.76    1.98
   2   5   4   13.75    1.45
   2   5   4   10.95    1.25
   2   6  -6  641.48   21.06
   2   6  -4  245.04    9.95
   2   6  -4  222.94    9.51
   2   6  -4  261.19   12.64
   2   6  -3    0.80    0.73
   2   6  -3   -0.23    0.61
   2   6  -3    1.19    0.65
   2   6  -2  149.92    7.58
   2   6  -2  144.25    7.52
   2   6  -2  144.66    7.40
   2   6  -2  156.10    7.65
   2   6  -1   54.07    4.54
   2   6  -1   57.03    4.56
   2   6  -1   53.66    4.42
   2   6  -1   55.62    4.46
   2   6  -1   59.18    4.61
   2   6   0  320.61   11.73
   2   6   0  304.29   11.45
   2   6   0  319.02   11.68
   2   6   0  313.63   11.43
   2   6   1   25.41    2.80
   2   6   1   24.52    2.77
   2   6   1   24.63    2.72
   2   6   2   41.13    3.21
   2   6   2   39.58    3.10
   2   6   3    2.54    0.65
   2   6   3    2.54    0.63
   2   7  -6  255.34   10.96
   2   7  -5  416.78   14.28
   2   7  -4  323.79   11.98
   2   7  -4  329.24   11.83
   2   7  -3  124.71    6.80
   2   7  -3  127.85    7.42
   2   7  -3  121.95    6.73
   2   7  -2   97.04    6.04
   2   7  -2   97.24    5.99
   2   7  -2   89.53    5.69
   2   7  -2   99.37    5.99
   2   7  -1  328.69   11.72
   2   7  -1  337.84   11.75
   2   7  -1  308.52   11.21
   2   7  -1  331.08   11.46
   2   7  -1  335.78   11.61
   2   7   0   52.81    3.94
   2   7   0   52.28    3.82
   2   7   0   53.83    3.90
   2   7   0   52.83    3.89
   2   7   1   19.92    2.04
   2   7   1   21.17    2.16
   2   7   2    4.50    0.75
   2   8  -7   19.76    2.50
   2   8  -6   34.75    3.57
   2   8  -6   29.15    3.10
   2   8  -5    7.97    1.65
   2   8  -5    7.67    1.65
   2   8  -4   53.27    4.21
   2   8  -4   53.90    4.26
   2   8  -4   58.10    4.62
   2   8  -4   55.28    4.28
   2   8  -3   44.47    3.78
   2   8  -3   48.08    3.86
   2   8  -3   40.88    3.76
   2   8  -3   45.44    3.78
   2   8  -2   22.12    2.55
   2   8  -2   22.50    2.56
   2   8  -2   21.79    2.48
   2   8  -1    3.63    0.88
   2   8  -1    3.70    0.98
   2   8   0   16.26    1.61
   2   8   0   20.37    1.93
   2   9  -8   20.33    2.15
   2   9  -7    5.59    1.19
   2   9  -6    9.42    1.61
   2   9  -6   12.00    1.85
   2   9  -6   13.07    1.92
   2   9  -6    9.97    1.63
   2   9  -5    9.82    1.62
   2   9  -5   10.24    1.70
   2   9  -5    9.57    1.66
   2   9  -5   11.74    1.80
   2   9  -4   21.41    2.31
   2   9  -4   20.60    2.31
   2   9  -4   15.84    1.99
   2   9  -4   20.92    2.29
   2   9  -3    9.27    1.50
   2   9  -3    8.45    1.38
   2   9  -3    9.94    1.51
   2   9  -2    1.41    0.55
   2   9  -2    1.46    0.60
   3  -9   0    2.60    0.63
   3  -9   0    2.97    0.69
   3  -9   1    3.83    0.91
   3  -9   1    3.67    0.79
   3  -9   2   28.60    2.33
   3  -9   2   36.31    2.69
   3  -9   2   33.30    2.58
   3  -9   3    2.34    0.72
   3  -9   3    2.59    0.78
   3  -9   3    2.22    0.72
   3  -9   4   26.42    2.38
   3  -9   4   22.48    2.07
   3  -9   4   23.90    2.17
   3  -9   4   23.26    2.13
   3  -9   5    2.36    0.73
   3  -9   6    3.64    0.75
   3  -8  -2    2.53    0.64
   3  -8  -2    1.96    0.58
   3  -8  -2    2.73    0.60
   3  -8  -2    2.60    0.63
   3  -8  -1    1.95    0.66
   3  -8  -1    3.04    0.86
   3  -8  -1    2.01    0.57
   3  -8  -1    1.57    0.60
   3  -8   0   10.90    1.55
   3  -8   0   13.26    1.77
   3  -8   0   10.55    1.50
   3  -8   1   24.62    2.56
   3  -8   1   25.04    2.45
   3  -8   1   20.51    2.23
   3  -8   1   25.99    2.56
   3  -8   2   30.50    2.88
   3  -8   2   35.10    3.04
   3  -8   2   35.07    3.06
   3  -8   2   34.39    2.99
   3  -8   3  124.29    6.06
   3  -8   3  137.87    6.40
   3  -8   3  125.58    6.13
   3  -8   3  143.33    6.47
   3  -8   4   52.79    3.76
   3  -8   4   53.99    3.72
   3  -8   4   52.02    3.73
   3  -8   5   12.92    1.82
   3  -8   5   10.49    1.54
   3  -8   5   11.74    1.67
   3  -8   6    1.76    0.59
   3  -8   6    2.60    0.82
   3  -8   7    9.96    1.21
   3  -7  -4    3.45    0.66
   3  -7  -4    3.56    0.66
   3  -7  -3   21.45    2.00
   3  -7  -3   21.52    1.96
   3  -7  -3   22.48    2.02
   3  -7  -2   50.85    3.38
   3  -7  -2   50.10    3.55
   3  -7  -2   48.77    3.31
   3  -7  -2   49.09    3.39
   3  -7  -1   77.66    4.52
   3  -7  -1   80.45    4.78
   3  -7  -1   85.63    4.77
   3  -7  -1   84.50    4.72
   3  -7   0    2.76    0.86
   3  -7   0    5.04    1.27
   3  -7   0    3.45    0.96
   3  -7   0    5.85    1.36
   3  -7   0    1.37    0.38
   3  -7   0    3.19    0.89
   3  -7   1  106.23    6.00
   3  -7   1  108.76    5.71
   3  -7   1  112.40    7.39
   3  -7   1  119.44    6.12
   3  -7   1  106.91    5.86
   3  -7   1  113.89    5.81
   3  -7   2  230.60    9.31
   3  -7   2  271.54    9.77
   3  -7   2  238.22    9.37
   3  -7   2  270.17    9.72
   3  -7   3  156.69    7.28
   3  -7   3  173.79    7.68
   3  -7   3  157.29    7.34
   3  -7   3  180.89    7.76
   3  -7   4  146.42    6.96
   3  -7   4  134.94    6.59
   3  -7   4  153.90    7.08
   3  -7   5   16.02    2.25
   3  -7   5   15.21    2.14
   3  -7   5   14.24    2.02
   3  -7   5   18.08    2.24
   3  -7   6   20.69    2.38
   3  -7   6   18.52    2.18
   3  -7   7   49.82    3.34
   3  -7   7   44.53    3.01
   3  -6  -5    3.68    0.76
   3  -6  -5    3.65    0.72
   3  -6  -4   16.84    1.87
   3  -6  -4   15.51    1.72
   3  -6  -4   14.28    1.66
   3  -6  -3   47.37    3.40
   3  -6  -3   50.72    3.70
   3  -6  -3   51.62    3.53
   3  -6  -3   52.37    3.62
   3  -6  -2  164.00    6.98
   3  -6  -2  154.50    7.17
   3  -6  -2  165.92    7.00
   3  -6  -2  155.35    8.54
   3  -6  -2  161.41    7.01
   3  -6  -1  282.02    9.79
   3  -6  -1  272.21   10.03
   3  -6  -1  297.98    9.99
   3  -6  -1  298.47   12.16
   3  -6  -1  265.73    9.64
   3  -6   0  863.59   22.59
   3  -6   0  944.23   22.19
   3  -6   0  883.74   21.97
   3  -6   0  950.36   22.37
   3  -6   0  992.28   25.29
   3  -6   0  868.07   21.62
   3  -6   1  226.58    9.31
   3  -6   1  243.25    9.29
   3  -6   1  244.04    9.09
   3  -6   1  237.73    9.30
   3  -6   1  260.71   11.19
   3  -6   1  220.70    9.02
   3  -6   1  229.22    8.78
   3  -6   2  144.66    7.07
   3  -6   2  152.87    7.10
   3  -6   2  139.20    6.93
   3  -6   2  152.91    7.06
   3  -6   3    3.89    1.10
   3  -6   3    2.11    0.65
   3  -6   3    1.86    0.88
   3  -6   3    4.17    1.15
   3  -6   4   74.66    5.15
   3  -6   4   67.18    4.75
   3  -6   4   74.07    4.79
   3  -6   4   65.42    4.56
   3  -6   5  241.29    9.66
   3  -6   5  263.54    9.92
   3  -6   5  245.76    9.37
   3  -6   6   20.21    2.39
   3  -6   6   19.02    2.32
   3  -6   7   25.02    2.48
   3  -6   7   24.82    2.37
   3  -5  -6    9.57    1.15
   3  -5  -6   10.56    1.27
   3  -5  -6    9.95    1.14
   3  -5  -5    0.52    0.43
   3  -5  -5    0.38    0.48
   3  -5  -4   21.03    2.40
   3  -5  -4   19.76    2.22
   3  -5  -3   53.46    3.85
   3  -5  -3   55.88    3.81
   3  -5  -3   52.03    4.71
   3  -5  -3   50.63    3.80
   3  -5  -2  460.55   13.38
   3  -5  -2  439.22   13.82
   3  -5  -2  489.42   13.59
   3  -5  -2  450.83   13.53
   3  -5  -1   37.91    3.13
   3  -5  -1   37.12    3.30
   3  -5  -1   36.63    3.10
   3  -5  -1   39.47    3.75
   3  -5  -1   29.54    3.20
   3  -5  -1   36.14    3.13
   3  -5   0  246.00   10.07
   3  -5   1  764.29   20.81
   3  -5   2  775.22   21.82
   3  -5   3  145.49    6.97
   3  -5   3  131.63    6.67
   3  -5   3  134.67    6.69
   3  -5   3  134.31    8.00
   3  -5   3  142.27    6.80
   3  -5   4   41.22    3.75
   3  -5   4   41.24    3.72
   3  -5   4   40.25    3.59
   3  -5   4   44.92    3.70
   3  -5   4   43.92    3.67
   3  -5   5  180.66    8.11
   3  -5   5  183.36    8.16
   3  -5   5  190.02    8.29
   3  -5   5  175.29    7.72
   3  -5   6   29.00    2.99
   3  -5   6   33.61    3.12
   3  -5   6   32.75    3.12
   3  -5   7   53.13    3.74
   3  -5   7   52.54    3.51
   3  -5   7   47.00    3.34
   3  -4  -7   28.95    2.01
   3  -4  -6    9.99    1.45
   3  -4  -6   10.56    1.53
   3  -4  -5   21.79    2.45
   3  -4  -5   23.54    2.46
   3  -4  -4   41.19    3.46
   3  -4  -4   41.17    3.35
   3  -4  -4   43.59    4.23
   3  -4  -4   38.72    3.96
   3  -4  -3  110.73    5.69
   3  -4  -3  108.96    5.51
   3  -4  -3  130.45    7.15
   3  -4  -3  116.09    6.59
   3  -4  -2   63.56    4.67
   3  -4  -2   51.17    4.06
   3  -4  -2   57.35    4.23
   3  -4  -1  131.46    6.53
   3  -4  -1  111.74    5.87
   3  -4  -1  121.66    5.94
   3  -4   0   66.70    4.46
   3  -4   0   53.48    3.81
   3  -4   1  471.61   14.55
   3  -4   1  440.83   13.83
   3  -4   2  303.01   11.32
   3  -4   2  291.12   10.95
   3  -4   3   43.11    4.12
   3  -4   3   46.50    4.33
   3  -4   4    1.07    0.73
   3  -4   4    2.23    0.69
   3  -4   4    1.16    0.51
   3  -4   4    0.62    0.56
   3  -4   4    0.88    0.65
   3  -4   4    0.03    0.48
   3  -4   5   15.44    2.23
   3  -4   5   14.63    2.21
   3  -4   6   18.15    2.37
   3  -4   6   18.76    2.34
   3  -4   6   14.42    2.10
   3  -4   7   39.54    3.08
   3  -4   7   43.88    3.43
   3  -4   8   12.53    1.33
   3  -3  -7   10.79    1.51
   3  -3  -6   67.72    4.37
   3  -3  -5    4.85    1.21
   3  -3  -5    6.67    1.39
   3  -3  -5    4.86    1.62
   3  -3  -4   33.75    3.08
   3  -3  -4   41.36    3.89
   3  -3  -4   27.38    3.21
   3  -3  -4   37.61    3.69
   3  -3  -3  350.52   11.81
   3  -3  -3  345.85   11.40
   3  -3  -2    4.24    1.05
   3  -3  -2    2.32    0.72
   3  -3  -1   20.28    2.29
   3  -3  -1   18.78    2.06
   3  -3  -1   17.67    1.98
   3  -3   0 1318.49   28.51
   3  -3   0 1283.22   27.43
   3  -3   1  184.46    7.49
   3  -3   1  186.08    7.51
   3  -3   2  234.89    9.33
   3  -3   2  231.48    9.17
   3  -3   3   44.86    4.11
   3  -3   3   39.16    3.84
   3  -3   4  110.48    6.26
   3  -3   4  125.15    7.80
   3  -3   4  106.21    7.08
   3  -3   5  106.77    6.21
   3  -3   5   94.82    5.57
   3  -3   5   95.92    5.71
   3  -3   6   50.77    4.13
   3  -3   6   49.92    3.84
   3  -3   6   46.69    3.75
   3  -3   7   10.09    1.56
   3  -3   8    5.97    0.93
   3  -2  -7   34.58    3.02
   3  -2  -6   72.28    5.77
   3  -2  -5  118.52    7.03
   3  -2  -4  106.68    6.03
   3  -2  -4  116.63    6.35
   3  -2  -3 1633.34   34.31
   3  -2  -3 1579.75   34.06
   3  -2  -2 2465.45   46.88
   3  -2  -2 2343.46   45.82
   3  -2  -2 2395.83   46.13
   3  -2  -1 2349.41   44.32
   3  -2  -1 2280.33   43.16
   3  -2   0  612.20   15.08
   3  -2   0  619.89   14.88
   3  -2   1  588.41   15.56
   3  -2   1  577.42   14.88
   3  -2   2  283.75   10.39
   3  -2   2  305.69   10.51
   3  -2   3  247.93   10.47
   3  -2   3  265.25   10.56
   3  -2   4  111.43    5.99
   3  -2   4  117.15    6.31
   3  -2   4  110.87    7.42
   3  -2   4  113.05    7.23
   3  -2   5   25.09    3.00
   3  -2   5   28.01    3.01
   3  -2   5   23.92    2.69
   3  -2   6   26.13    2.71
   3  -2   6   21.62    2.44
   3  -2   7   30.71    2.64
   3  -1  -6   41.04    4.17
   3  -1  -5   10.17    1.91
   3  -1  -5    8.96    1.85
   3  -1  -4    5.47    1.07
   3  -1  -4    8.23    1.46
   3  -1  -4    7.43    1.42
   3  -1  -3  828.32   18.50
   3  -1  -3  863.19   19.61
   3  -1  -3  877.61   19.83
   3  -1  -2 4463.81   81.48
   3  -1  -2 4479.36   80.88
   3  -1  -2 4601.91   81.03
   3  -1  -1 5336.11   93.69
   3  -1  -1 5183.24   93.06
   3  -1   0  177.69    6.17
   3  -1   0  168.86    5.98
   3  -1   0  180.60    6.63
   3  -1   1  406.28   12.02
   3  -1   1  412.40   11.55
   3  -1   2   72.74    4.84
   3  -1   2   85.59    5.02
   3  -1   3   45.21    4.23
   3  -1   3   44.45    4.11
   3  -1   4  174.38    7.88
   3  -1   4  190.13    8.53
   3  -1   5    6.20    1.29
   3  -1   5    5.90    1.28
   3  -1   6   43.80    3.42
   3  -1   6   33.81    2.98
   3  -1   7   34.88    2.67
   3   0  -7  118.38    7.58
   3   0  -6  131.56    8.75
   3   0  -6  138.41    7.61
   3   0  -6  134.55    7.20
   3   0  -5   21.10    2.91
   3   0  -5   21.84    2.53
   3   0  -5   19.75    2.27
   3   0  -5   18.41    2.33
   3   0  -5   21.10    2.67
   3   0  -4  182.14    8.19
   3   0  -4  176.47    6.91
   3   0  -4  165.25    6.41
   3   0  -4  195.37    7.32
   3   0  -4  192.91    7.46
   3   0  -3  771.10   19.17
   3   0  -3  797.33   17.41
   3   0  -3  816.56   18.27
   3   0  -3  815.77   18.35
   3   0  -2 1985.99   38.09
   3   0  -2 1884.37   35.11
   3   0  -2 1886.91   36.75
   3   0  -1  693.79   15.81
   3   0  -1  627.65   15.29
   3   0   0  166.09    5.96
   3   0   0  180.02    6.76
   3   0   0  164.74    5.62
   3   0   1  523.62   14.45
   3   0   1  504.11   13.28
   3   0   2   88.81    5.60
   3   0   3   18.03    2.77
   3   0   4  227.32    9.22
   3   0   4  225.37    9.18
   3   0   4  253.61    9.89
   3   0   5    5.66    1.39
   3   0   5    5.86    1.31
   3   0   6   47.77    3.46
   3   1  -7   36.95    4.05
   3   1  -7   46.03    4.56
   3   1  -6   58.90    5.60
   3   1  -6   62.05    4.78
   3   1  -6   62.51    4.65
   3   1  -6   61.17    4.81
   3   1  -5   82.55    5.85
   3   1  -5   78.76    4.83
   3   1  -5   80.58    4.69
   3   1  -5   75.20    4.52
   3   1  -5   85.92    5.09
   3   1  -4  503.11   14.77
   3   1  -4  490.36   13.17
   3   1  -4  476.49   12.79
   3   1  -4  471.90   12.81
   3   1  -4  482.95   13.18
   3   1  -3  577.36   15.23
   3   1  -3  575.39   13.73
   3   1  -3  566.96   14.10
   3   1  -2  717.31   17.33
   3   1  -2  713.76   16.62
   3   1  -1 1989.27   38.95
   3   1  -1 1902.58   39.07
   3   1   0  941.54   21.31
   3   1   0  951.63   21.68
   3   1   1   51.43    3.77
   3   1   1   51.13    3.94
   3   1   2   34.65    3.70
   3   1   3   49.43    4.07
   3   1   3   54.11    4.17
   3   1   3   57.66    4.53
   3   1   3   41.80    4.44
   3   1   3   55.25    4.23
   3   1   3   50.32    4.10
   3   1   4   55.35    4.29
   3   1   4   49.43    3.97
   3   1   4   53.92    4.34
   3   1   4   48.49    4.00
   3   1   5  293.91   10.16
   3   1   5  271.97    9.55
   3   2  -7   37.46    4.14
   3   2  -7   39.38    4.08
   3   2  -6  112.00    7.68
   3   2  -6  116.63    6.76
   3   2  -6  121.90    6.80
   3   2  -6  103.70    6.12
   3   2  -6  117.63    6.42
   3   2  -5  163.14    8.32
   3   2  -5  149.59    7.01
   3   2  -5  171.28    7.33
   3   2  -5  149.46    6.76
   3   2  -4   12.63    2.04
   3   2  -4    8.78    1.47
   3   2  -4   14.41    1.81
   3   2  -3  984.92   22.89
   3   2  -3  974.74   21.12
   3   2  -3  982.52   21.68
   3   2  -2   68.46    4.34
   3   2  -2   67.98    3.72
   3   2  -1  709.07   17.92
   3   2  -1  678.50   16.47
   3   2   0  472.85   13.61
   3   2   0  508.02   14.70
   3   2   1  192.48    8.86
   3   2   1  191.86    8.62
   3   2   2   80.46    5.06
   3   2   2   61.37    5.23
   3   2   2   79.49    5.24
   3   2   2   75.02    4.94
   3   2   2   77.32    5.07
   3   2   3  289.33   10.96
   3   2   3  295.85   10.67
   3   2   3  298.30   11.04
   3   2   3  308.90   11.28
   3   2   3  275.76   10.48
   3   2   4   21.53    2.64
   3   2   4   20.28    2.46
   3   2   4   21.47    2.54
   3   2   4   19.81    2.37
   3   2   5   20.61    2.04
   3   2   5   16.05    1.76
   3   3  -7  100.71    6.82
   3   3  -7   94.23    6.53
   3   3  -6   71.75    6.15
   3   3  -6   89.48    5.94
   3   3  -5   99.59    5.81
   3   3  -5   96.09    5.67
   3   3  -5   96.36    6.42
   3   3  -4  268.66   10.60
   3   3  -4  259.65    9.21
   3   3  -3  775.85   20.33
   3   3  -2 1698.41   36.95
   3   3  -1  379.07   13.21
   3   3   0  223.63    9.85
   3   3   0  223.51   10.15
   3   3   1  142.33    7.01
   3   3   1  137.39    7.00
   3   3   1  142.04    7.06
   3   3   1  130.85    6.86
   3   3   1  130.02    6.81
   3   3   1  126.27    7.78
   3   3   2   88.37    5.43
   3   3   2   87.77    5.46
   3   3   2   85.42    5.46
   3   3   2   82.76    5.42
   3   3   2   82.28    5.30
   3   3   3   72.48    4.92
   3   3   3   65.98    4.54
   3   3   3   68.45    4.70
   3   3   3   67.06    4.71
   3   3   3   65.86    4.69
   3   3   4   49.25    3.44
   3   3   4   48.21    3.54
   3   3   4   46.68    3.27
   3   4  -7   16.30    2.75
   3   4  -7   14.16    2.59
   3   4  -6   48.02    5.29
   3   4  -6   53.90    4.77
   3   4  -5    5.33    1.58
   3   4  -5    5.30    1.42
   3   4  -4  166.70    8.85
   3   4  -3  302.02   12.17
   3   4  -2  120.45    7.43
   3   4  -1    8.87    1.97
   3   4  -1    7.04    1.65
   3   4   0   49.17    4.17
   3   4   0   47.57    3.94
   3   4   0   52.49    4.13
   3   4   0   47.98    4.05
   3   4   0   54.19    4.34
   3   4   0   45.34    4.04
   3   4   1  200.67    8.56
   3   4   1  183.92    8.31
   3   4   1  192.87    8.47
   3   4   1  206.42    8.98
   3   4   1  200.34    8.86
   3   4   1  191.38    8.78
   3   4   2    7.17    1.54
   3   4   2    8.34    1.66
   3   4   2    9.33    1.68
   3   4   2   11.59    2.03
   3   4   2    9.44    1.76
   3   4   3   29.97    2.80
   3   4   3   26.80    2.66
   3   4   4    0.18    0.21
   3   5  -6   63.81    5.51
   3   5  -5   21.10    3.55
   3   5  -4  323.08   14.06
   3   5  -3   22.88    3.45
   3   5  -2   54.23    4.40
   3   5  -2   52.28    4.29
   3   5  -2   54.01    4.31
   3   5  -2   55.22    4.43
   3   5  -2   56.36    5.60
   3   5  -1   47.01    4.16
   3   5  -1   52.23    4.22
   3   5  -1   48.46    4.12
   3   5  -1   51.92    4.28
   3   5  -1   43.27    3.98
   3   5   0  125.19    6.74
   3   5   0  124.24    6.70
   3   5   0  119.56    6.70
   3   5   0  136.11    7.19
   3   5   0  135.66    7.08
   3   5   1   41.03    3.59
   3   5   1   39.49    3.51
   3   5   1   43.43    3.74
   3   5   1   41.85    3.64
   3   5   2   24.75    2.49
   3   5   2   23.26    2.49
   3   5   2   21.29    2.27
   3   5   3   36.04    2.62
   3   5   3   32.44    2.30
   3   6 -10    3.87    0.91
   3   6  -6  125.34    6.97
   3   6  -5  123.72    6.93
   3   6  -5  117.82    6.74
   3   6  -4  511.73   15.64
   3   6  -4  504.93   15.83
   3   6  -4  485.61   15.54
   3   6  -4  527.07   15.80
   3   6  -3  800.50   21.30
   3   6  -3  789.27   21.33
   3   6  -3  766.23   21.06
   3   6  -3  828.96   21.52
   3   6  -2  257.78   10.39
   3   6  -2  267.89   10.58
   3   6  -2  257.13   10.46
   3   6  -2  276.22   10.71
   3   6  -1   80.88    5.43
   3   6  -1   82.87    5.42
   3   6  -1   85.29    5.45
   3   6  -1   86.35    5.53
   3   6   0    7.28    1.56
   3   6   0    6.21    1.48
   3   6   0    6.73    1.37
   3   6   1    9.60    1.56
   3   6   1   10.73    1.63
   3   6   1    8.35    1.44
   3   6   2   16.36    1.69
   3   6   2   14.31    1.46
   3   7  -8   15.95    2.46
   3   7  -8   17.15    2.29
   3   7  -7   86.23    5.87
   3   7  -7   71.98    4.96
   3   7  -6  209.79    9.39
   3   7  -6  207.39    9.03
   3   7  -5   85.67    5.58
   3   7  -5   82.63    5.48
   3   7  -5   85.19    5.53
   3   7  -4  212.69    9.15
   3   7  -4  219.66    9.38
   3   7  -4  204.98    9.00
   3   7  -4  238.55    9.67
   3   7  -3  297.08   11.12
   3   7  -3  294.73   11.00
   3   7  -3  295.53   11.01
   3   7  -3  277.22   10.63
   3   7  -3  291.68   10.97
   3   7  -2  251.72    9.77
   3   7  -2  251.01    9.74
   3   7  -2  243.15    9.56
   3   7  -2  268.05   10.02
   3   7  -1  154.88    6.99
   3   7  -1  167.94    7.25
   3   7  -1  167.30    7.22
   3   7  -1  167.64    7.24
   3   7   0   16.20    1.88
   3   7   0   20.59    2.14
   3   7   0   17.00    1.90
   3   8  -9   15.62    1.90
   3   8  -8    8.23    1.59
   3   8  -8    9.60    1.64
   3   8  -7    4.00    1.20
   3   8  -7    0.91    0.61
   3   8  -6    3.75    1.24
   3   8  -6    2.34    0.97
   3   8  -5   21.87    2.61
   3   8  -5   25.26    2.78
   3   8  -4   48.07    3.83
   3   8  -4   54.52    4.04
   3   8  -4   48.45    3.65
   3   8  -4   52.74    3.96
   3   8  -3   19.43    2.31
   3   8  -3   19.35    2.19
   3   8  -3   20.55    2.39
   3   8  -2   26.47    2.52
   3   8  -2   26.69    2.35
   3   8  -2   26.03    2.26
   3   8  -2   30.49    2.68
   3   8  -1   15.64    1.61
   3   9  -8    4.28    0.96
   3   9  -7   13.84    1.75
   3   9  -7   15.51    1.88
   3   9  -7   14.85    1.75
   3   9  -6   17.01    1.95
   3   9  -6   22.42    2.28
   3   9  -6   18.11    2.02
   3   9  -5   10.87    1.52
   3   9  -5   10.15    1.53
   3   9  -5   10.15    1.49
   3   9  -4   11.76    1.40
   3   9  -4   16.61    1.84
   3   9  -4   12.81    1.60
   3   9  -3    5.33    0.91
   3   9  -3    4.46    0.80
   4  -9   1    1.85    0.51
   4  -9   1    1.15    0.43
   4  -9   2    7.54    1.07
   4  -9   2    8.27    1.15
   4  -9   2    9.53    1.22
   4  -9   3    8.17    1.13
   4  -9   3    7.83    1.11
   4  -9   3    8.77    1.21
   4  -9   4   11.58    1.33
   4  -9   4   11.06    1.20
   4  -8  -2   21.38    1.70
   4  -8  -1   12.29    1.49
   4  -8  -1   11.03    1.36
   4  -8  -1   11.19    1.40
   4  -8  -1   11.81    1.47
   4  -8   0    1.41    0.67
   4  -8   0    2.81    0.76
   4  -8   0    1.00    0.54
   4  -8   0    1.14    0.54
   4  -8   1    3.28    0.88
   4  -8   1    4.29    1.02
   4  -8   1    3.12    0.84
   4  -8   2    3.53    0.93
   4  -8   2    5.53    1.16
   4  -8   2    5.76    1.14
   4  -8   3   68.96    4.20
   4  -8   3   69.58    4.12
   4  -8   3   71.15    4.09
   4  -8   3   75.64    4.28
   4  -8   4   11.25    1.61
   4  -8   4   10.38    1.47
   4  -8   5   19.69    1.96
   4  -8   6    3.20    0.71
   4  -7  -3    3.52    0.76
   4  -7  -3    3.53    0.75
   4  -7  -3    3.42    0.73
   4  -7  -2    2.66    0.77
   4  -7  -2    3.09    0.86
   4  -7  -2    4.49    0.97
   4  -7  -2    3.35    0.89
   4  -7  -1    9.51    1.50
   4  -7  -1    9.12    1.54
   4  -7  -1    8.81    1.45
   4  -7  -1   11.86    1.71
   4  -7   0  175.07    7.23
   4  -7   0  160.14    7.08
   4  -7   0  172.97    7.25
   4  -7   0  166.54    7.09
   4  -7   1   49.44    3.74
   4  -7   1   51.33    3.89
   4  -7   1   53.68    3.96
   4  -7   1   50.17    3.80
   4  -7   1   50.63    3.75
   4  -7   2   46.18    3.63
   4  -7   2   41.80    3.48
   4  -7   2   46.85    3.63
   4  -7   3   89.28    5.33
   4  -7   3   97.64    5.39
   4  -7   3   92.71    5.21
   4  -7   3   94.16    5.32
   4  -7   4   16.38    2.13
   4  -7   4   14.61    1.97
   4  -7   4   13.63    1.82
   4  -7   4   16.11    2.05
   4  -7   5   15.12    1.90
   4  -7   6    3.74    0.83
   4  -6  -5    2.71    0.62
   4  -6  -5    2.50    0.64
   4  -6  -4   14.68    1.71
   4  -6  -4   12.33    1.61
   4  -6  -3    6.47    1.25
   4  -6  -3    5.79    1.21
   4  -6  -3    6.08    1.16
   4  -6  -2   37.99    3.14
   4  -6  -2   37.32    3.31
   4  -6  -2   41.50    3.23
   4  -6  -2   33.51    3.90
   4  -6  -2   37.47    3.18
   4  -6  -1   82.38    4.90
   4  -6  -1   87.18    5.26
   4  -6  -1   93.30    5.19
   4  -6  -1   88.28    6.48
   4  -6  -1   81.60    4.96
   4  -6   0  261.45    9.52
   4  -6   0  242.23    9.40
   4  -6   0  258.74    9.55
   4  -6   0  250.39    9.42
   4  -6   1  239.35    9.20
   4  -6   1  207.68    8.55
   4  -6   1  237.33    9.24
   4  -6   1  202.73    8.71
   4  -6   1  214.13    8.62
   4  -6   2  121.83    6.50
   4  -6   2  126.61    6.42
   4  -6   2  127.31    6.69
   4  -6   2  118.82    6.39
   4  -6   2  120.84    6.20
   4  -6   3  361.54   12.27
   4  -6   3  354.99   11.87
   4  -6   3  348.08   11.77
   4  -6   3  365.50   11.87
   4  -6   3  361.13   12.46
   4  -6   4  302.80   10.74
   4  -6   4  283.62   10.33
   4  -6   4  290.18   10.19
   4  -6   4  295.58   10.76
   4  -6   5    7.77    1.55
   4  -6   5    5.05    1.12
   4  -6   5    4.84    1.23
   4  -6   6   15.40    1.78
   4  -6   6   13.88    1.77
   4  -6   7   24.63    1.85
   4  -5  -6    6.50    0.91
   4  -5  -6    6.47    0.92
   4  -5  -6    8.61    1.11
   4  -5  -5   46.41    3.23
   4  -5  -5   47.62    3.18
   4  -5  -5   41.03    2.91
   4  -5  -4   35.21    3.02
   4  -5  -4   34.84    2.90
   4  -5  -4   38.25    3.05
   4  -5  -3    7.43    1.40
   4  -5  -3    7.36    1.31
   4  -5  -3    5.83    1.56
   4  -5  -2  177.07    7.45
   4  -5  -2  176.96    8.01
   4  -5  -2  185.58    7.56
   4  -5  -2  202.70    9.84
   4  -5  -2  178.45    7.81
   4  -5  -1  786.41   19.72
   4  -5  -1  768.41   20.31
   4  -5  -1  805.57   19.80
   4  -5  -1  751.34   19.92
   4  -5   0  256.14    9.79
   4  -5   0  263.77    9.66
   4  -5   0  265.87    9.70
   4  -5   0  257.35    9.74
   4  -5   1  340.82   11.47
   4  -5   1  322.83   11.15
   4  -5   1  325.87   11.26
   4  -5   1  302.82   11.20
   4  -5   1  332.59   11.26
   4  -5   2  316.34   11.22
   4  -5   2  316.19   11.01
   4  -5   2  313.45   11.21
   4  -5   2  293.80   10.91
   4  -5   2  292.34   10.55
   4  -5   2  318.04   11.70
   4  -5   3  274.71   10.68
   4  -5   3  276.85   10.49
   4  -5   3  276.81   10.16
   4  -5   3  266.83   10.27
   4  -5   3  258.21    9.81
   4  -5   4  377.37   12.54
   4  -5   4  369.86   12.37
   4  -5   4  374.81   12.32
   4  -5   4  344.18   11.90
   4  -5   4  365.43   11.91
   4  -5   5  394.50   12.43
   4  -5   5  404.65   12.69
   4  -5   5  402.12   12.59
   4  -5   6   60.41    3.86
   4  -5   6   61.13    3.89
   4  -5   7   11.02    1.27
   4  -5   7    8.80    1.14
   4  -4  -7   10.96    1.18
   4  -4  -7   12.24    1.32
   4  -4  -6   10.65    1.52
   4  -4  -6   13.47    1.69
   4  -4  -6   15.65    1.83
   4  -4  -5   56.43    4.00
   4  -4  -5   64.34    4.09
   4  -4  -4   18.67    2.31
   4  -4  -4   15.41    2.04
   4  -4  -4   11.32    2.12
   4  -4  -3  497.57   14.32
   4  -4  -3  477.11   13.75
   4  -4  -3  528.66   16.84
   4  -4  -3  452.71   15.21
   4  -4  -3  489.08   14.29
   4  -4  -2  351.16   11.34
   4  -4  -2  340.28   11.42
   4  -4  -2  351.76   11.01
   4  -4  -2  312.04   12.11
   4  -4  -2  356.94   12.54
   4  -4  -1   45.64    4.26
   4  -4  -1   40.85    3.78
   4  -4   0   42.78    4.29
   4  -4   0   37.55    3.82
   4  -4   1  120.94    7.53
   4  -4   1  118.94    7.17
   4  -4   2  102.89    6.11
   4  -4   2   92.17    5.51
   4  -4   2   94.11    5.85
   4  -4   2   93.34    5.45
   4  -4   2   93.02    5.52
   4  -4   2   86.44    6.48
   4  -4   2   91.87    6.53
   4  -4   2   90.75    5.34
   4  -4   3  212.45    9.08
   4  -4   3  203.93    8.74
   4  -4   3  215.97    8.90
   4  -4   3  203.31    8.87
   4  -4   3  211.36    8.60
   4  -4   4  150.14    7.32
   4  -4   4  144.03    7.08
   4  -4   4  149.08    7.24
   4  -4   4  136.08    6.86
   4  -4   5    2.31    1.05
   4  -4   5    1.03    0.69
   4  -4   5    1.07    0.79
   4  -4   6   16.28    2.00
   4  -4   6   16.65    2.02
   4  -4   7   15.10    1.57
   4  -4   7   12.14    1.32
   4  -3  -8    8.99    1.10
   4  -3  -7    3.06    0.77
   4  -3  -6    2.98    0.92
   4  -3  -5   27.39    2.85
   4  -3  -5   29.86    2.89
   4  -3  -5   24.13    3.16
   4  -3  -4  259.45    9.72
   4  -3  -4  259.24    9.43
   4  -3  -4  258.11   10.63
   4  -3  -3  782.64   20.60
   4  -3  -3  712.52   19.23
   4  -3  -2   25.49    2.98
   4  -3  -2   22.11    2.68
   4  -3  -2   29.00    2.97
   4  -3  -1   26.15    2.81
   4  -3   0   50.53    4.12
   4  -3   0   44.07    3.80
   4  -3   1   94.35    6.25
   4  -3   1   86.45    5.69
   4  -3   2  374.19   14.06
   4  -3   2  347.46   13.36
   4  -3   3   73.92    5.04
   4  -3   3   64.76    4.57
   4  -3   3   62.53    4.52
   4  -3   3   67.49    4.79
   4  -3   3   63.74    4.49
   4  -3   3   62.09    4.35
   4  -3   4   80.60    5.09
   4  -3   4   88.19    5.42
   4  -3   4   76.08    4.94
   4  -3   4   92.09    5.75
   4  -3   5   62.93    4.31
   4  -3   5   66.21    4.50
   4  -3   6   10.70    1.59
   4  -3   6    9.02    1.46
   4  -3   7   42.41    2.69
   4  -2  -6   88.87    5.18
   4  -2  -6   77.87    5.90
   4  -2  -5  137.02    6.60
   4  -2  -5  141.76    7.71
   4  -2  -4  645.10   19.03
   4  -2  -4  745.33   19.44
   4  -2  -3  407.32   13.15
   4  -2  -3  434.04   13.09
   4  -2  -2    8.45    1.45
   4  -2  -1  164.00    7.45
   4  -2  -1  156.06    6.92
   4  -2   0  634.56   17.25
   4  -2   0  680.31   18.08
   4  -2   1  624.26   18.09
   4  -2   1  581.31   16.96
   4  -2   2  619.37   19.08
   4  -2   3  227.89    9.26
   4  -2   3  253.91    9.80
   4  -2   3  234.21    9.17
   4  -2   3  231.17    9.57
   4  -2   3  262.72   10.35
   4  -2   4   30.82    3.03
   4  -2   4   40.92    3.68
   4  -2   5   25.13    2.63
   4  -2   5   25.51    2.68
   4  -2   6    2.82    0.86
   4  -2   6    2.58    0.78
   4  -2   7    6.62    0.97
   4  -1  -9   15.45    1.60
   4  -1  -6   52.07    4.72
   4  -1  -5  190.94   10.32
   4  -1  -5  182.23    8.97
   4  -1  -4  165.24    8.70
   4  -1  -4  163.80    7.73
   4  -1  -4  173.24    7.63
   4  -1  -3  356.17   12.61
   4  -1  -3  342.86   11.37
   4  -1  -3  331.72   10.87
   4  -1  -2  981.89   24.15
   4  -1  -2 1011.05   22.88
   4  -1  -1  928.37   22.41
   4  -1  -1  940.91   22.09
   4  -1   0 1872.32   39.82
   4  -1   1  974.92   24.86
   4  -1   2  521.73   17.37
   4  -1   3   68.50    4.75
   4  -1   3   71.98    4.91
   4  -1   3   59.90    4.68
   4  -1   3   67.76    4.75
   4  -1   4   23.68    2.70
   4  -1   4   28.93    3.04
   4  -1   4   28.35    3.08
   4  -1   5   95.71    5.31
   4  -1   5   96.43    5.25
   4  -1   6   17.79    1.91
   4  -1   6   12.75    1.54
   4   0  -9   30.37    2.54
   4   0  -7   93.62    6.67
   4   0  -6  350.80   13.16
   4   0  -5  125.71    7.96
   4   0  -5  121.67    6.83
   4   0  -5  137.13    7.04
   4   0  -4   61.14    4.97
   4   0  -4   55.14    4.04
   4   0  -3  334.82   12.04
   4   0  -3  319.41   10.46
   4   0  -2  386.34   12.64
   4   0  -2  384.65   11.75
   4   0  -1   72.58    4.60
   4   0  -1   80.26    4.98
   4   0  -1   72.68    4.64
   4   0   0  320.32   11.57
   4   0   1   71.66    5.33
   4   0   2  102.74    5.92
   4   0   2  102.04    7.05
   4   0   2   97.34    5.68
   4   0   3  143.38    7.26
   4   0   3  143.16    7.12
   4   0   3  146.69    7.36
   4   0   3  143.90    7.33
   4   0   4   22.59    2.67
   4   0   4   20.19    2.47
   4   0   4   24.67    2.80
   4   0   5   12.18    1.73
   4   0   5    9.59    1.52
   4   0   6    9.20    1.26
   4   1  -7   48.33    4.70
   4   1  -7   64.47    5.35
   4   1  -6   41.49    4.84
   4   1  -6   40.24    3.96
   4   1  -6   34.25    3.63
   4   1  -5  247.41   11.37
   4   1  -5  220.36    9.11
   4   1  -5  242.55    9.70
   4   1  -4  513.14   16.61
   4   1  -4  522.23   14.94
   4   1  -3  208.87    9.16
   4   1  -3  210.61    8.31
   4   1  -2  123.54    6.51
   4   1  -2  127.06    6.37
   4   1  -1   26.50    2.86
   4   1  -1   23.76    2.75
   4   1   0   31.78    3.34
   4   1   1  233.64   10.60
   4   1   2  218.86    9.34
   4   1   2  226.91    9.25
   4   1   2  241.63    9.56
   4   1   2  232.36    9.46
   4   1   2  226.74    9.29
   4   1   3  199.68    8.72
   4   1   3  195.20    8.46
   4   1   3  202.68    8.64
   4   1   3  203.14    8.70
   4   1   4   24.80    2.70
   4   1   4   24.84    2.64
   4   1   5   19.67    2.08
   4   1   5   15.01    1.70
   4   2  -7    6.16    1.69
   4   2  -6  104.23    7.85
   4   2  -6  106.45    6.63
   4   2  -5  488.26   17.02
   4   2  -5  464.78   14.86
   4   2  -5  493.48   14.99
   4   2  -4   12.71    2.24
   4   2  -4   13.58    2.09
   4   2  -3   66.96    5.09
   4   2  -3   67.36    4.73
   4   2  -2  448.78   14.75
   4   2  -1   59.54    4.94
   4   2   0   11.92    2.19
   4   2   1   71.14    4.97
   4   2   1   76.55    5.26
   4   2   1   73.84    5.11
   4   2   1   71.43    4.83
   4   2   1   75.16    4.99
   4   2   1   73.28    5.07
   4   2   2  427.89   13.45
   4   2   2  435.43   13.95
   4   2   2  416.88   13.71
   4   2   2  421.30   13.37
   4   2   2  408.41   13.37
   4   2   3   68.45    4.71
   4   2   3   68.34    4.57
   4   2   3   66.29    4.58
   4   2   3   64.30    4.53
   4   2   3   66.39    4.53
   4   2   4   36.91    2.95
   4   2   4   33.94    2.78
   4   2   4   29.68    2.58
   4   3  -7  121.08    7.73
   4   3  -7  104.39    7.18
   4   3  -6  303.94   14.12
   4   3  -5   88.03    6.75
   4   3  -4  256.28   11.52
   4   3  -3   11.84    2.22
   4   3  -2  338.77   13.57
   4   3  -1  562.69   18.74
   4   3   0   94.20    5.93
   4   3   0   90.63    5.65
   4   3   0   93.86    5.71
   4   3   0   92.42    5.71
   4   3   0   90.17    5.63
   4   3   0   91.24    5.71
   4   3   1   13.81    2.15
   4   3   1   13.54    2.16
   4   3   1   10.49    1.82
   4   3   1    8.63    1.60
   4   3   1   16.18    2.27
   4   3   2    2.97    1.10
   4   3   2    1.06    0.43
   4   3   2   -0.03    0.65
   4   3   2    2.26    0.96
   4   3   3  116.46    5.57
   4   3   3  108.47    5.43
   4   3   3  111.77    5.52
   4   4  -9    8.10    1.56
   4   4  -8    9.30    1.79
   4   4  -7  183.89    8.44
   4   4  -6   29.42    3.16
   4   4  -5  187.07   10.73
   4   4  -4  233.96   11.72
   4   4  -4  236.07    9.35
   4   4  -4  219.42    9.20
   4   4  -3   30.31    4.03
   4   4  -3   30.27    3.18
   4   4  -3   31.28    3.18
   4   4  -2   51.90    4.62
   4   4  -2   51.78    4.17
   4   4  -2   49.10    4.02
   4   4  -2   46.39    4.01
   4   4  -2   49.61    4.19
   4   4  -2   48.17    5.17
   4   4  -1   80.78    5.72
   4   4  -1   86.64    5.52
   4   4  -1   81.28    5.31
   4   4  -1   79.00    5.40
   4   4  -1   79.25    5.41
   4   4   0   82.30    5.41
   4   4   0   73.79    5.05
   4   4   0   80.69    5.24
   4   4   0   75.29    5.22
   4   4   0   77.44    5.26
   4   4   1   17.32    2.30
   4   4   1   19.65    2.43
   4   4   1   18.47    2.34
   4   4   1   17.14    2.32
   4   4   1   18.35    2.43
   4   4   2   13.96    1.85
   4   4   2   17.10    2.10
   4   4   2   16.16    2.04
   4   4   2   16.31    2.10
   4   4   3    8.48    1.22
   4   5  -7   95.13    5.97
   4   5  -6  132.76    7.03
   4   5  -6  132.68    7.16
   4   5  -5  492.78   15.22
   4   5  -5  477.66   15.21
   4   5  -4  247.12   10.00
   4   5  -4  245.71   10.03
   4   5  -4  248.02   10.22
   4   5  -3   93.30    5.80
   4   5  -3   95.69    5.88
   4   5  -3   97.08    6.13
   4   5  -2    7.85    1.63
   4   5  -2    6.07    1.48
   4   5  -2    8.94    1.70
   4   5  -2    9.67    1.88
   4   5  -2    7.54    1.60
   4   5  -2    7.47    1.56
   4   5  -1   22.71    2.73
   4   5  -1   23.59    2.78
   4   5  -1   20.86    2.65
   4   5  -1   24.00    2.89
   4   5   0   18.38    2.32
   4   5   0   19.85    2.43
   4   5   0   15.93    2.25
   4   5   1   22.54    2.40
   4   5   1   24.70    2.51
   4   5   1   24.62    2.49
   4   5   2   27.69    2.27
   4   6 -10    6.42    1.16
   4   6  -9   29.87    2.90
   4   6  -8   30.01    3.10
   4   6  -8   32.07    3.13
   4   6  -7   12.40    2.13
   4   6  -7   14.42    2.15
   4   6  -6  155.89    7.73
   4   6  -6  153.36    7.73
   4   6  -5  249.16   10.14
   4   6  -5  246.81   10.17
   4   6  -5  252.28   10.17
   4   6  -4  396.72   13.41
   4   6  -4  383.66   13.25
   4   6  -4  380.89   13.24
   4   6  -4  417.93   13.75
   4   6  -3   61.42    4.64
   4   6  -3   53.44    4.30
   4   6  -3   55.03    4.35
   4   6  -3   54.16    4.42
   4   6  -2  192.70    8.52
   4   6  -2  189.13    8.34
   4   6  -2  191.23    8.42
   4   6  -2  199.30    8.56
   4   6  -1  161.06    7.15
   4   6  -1  162.78    7.21
   4   6  -1  148.64    6.86
   4   6   0   90.51    4.77
   4   6   0   87.69    4.73
   4   6   1   11.77    1.38
   4   6   1   11.11    1.37
   4   7  -9   16.62    2.11
   4   7  -9   19.92    2.12
   4   7  -8   11.71    1.97
   4   7  -8   10.66    1.73
   4   7  -7   85.27    5.43
   4   7  -7   79.93    5.04
   4   7  -7   73.14    4.80
   4   7  -6   10.62    1.93
   4   7  -6   11.36    1.79
   4   7  -6   10.39    1.79
   4   7  -6   10.72    1.88
   4   7  -5  141.77    7.04
   4   7  -5  142.11    7.07
   4   7  -5  131.22    6.71
   4   7  -5  143.03    7.10
   4   7  -4  266.83   10.07
   4   7  -4  255.43    9.90
   4   7  -4  271.86   10.03
   4   7  -4  287.18   10.38
   4   7  -3  131.20    6.47
   4   7  -3  128.56    6.41
   4   7  -3  137.60    6.58
   4   7  -3  127.83    6.39
   4   7  -2   58.20    3.89
   4   7  -2   61.49    4.07
   4   7  -2   65.50    4.16
   4   7  -2   64.47    4.08
   4   7  -1  105.53    4.83
   4   7  -1  105.67    4.82
   4   8  -9   37.88    2.62
   4   8  -8   34.50    2.94
   4   8  -8   37.42    2.92
   4   8  -7   41.14    3.33
   4   8  -7   32.21    2.70
   4   8  -7   39.03    3.15
   4   8  -6   17.20    2.04
   4   8  -6   14.86    1.97
   4   8  -6   15.16    1.87
   4   8  -6   14.68    1.98
   4   8  -5    8.11    1.50
   4   8  -5    8.57    1.42
   4   8  -5    8.84    1.56
   4   8  -4    2.51    0.72
   4   8  -4    0.96    0.45
   4   8  -4    0.71    0.41
   4   8  -4    2.41    0.73
   4   8  -3   13.60    1.62
   4   8  -3   13.63    1.59
   4   8  -3   12.68    1.47
   4   8  -3   13.33    1.58
   5  -8  -1    4.17    0.74
   5  -8  -1    3.44    0.63
   5  -8  -1    4.28    0.75
   5  -8   0    3.30    0.74
   5  -8   0    3.05    0.70
   5  -8   0    2.03    0.54
   5  -8   0    3.43    0.80
   5  -8   1    0.40    0.28
   5  -8   1    0.76    0.31
   5  -8   1    0.09    0.29
   5  -8   2   14.32    1.56
   5  -8   2   17.05    1.78
   5  -8   2   16.26    1.74
   5  -8   3   15.24    1.61
   5  -8   3   19.33    1.82
   5  -8   4    2.53    0.59
   5  -7  -3   30.02    2.16
   5  -7  -3   31.64    2.18
   5  -7  -2    8.80    1.31
   5  -7  -2    7.29    1.10
   5  -7  -2   10.10    1.39
   5  -7  -2    7.62    1.14
   5  -7  -1    6.81    1.16
   5  -7  -1    5.78    1.15
   5  -7  -1    4.91    0.93
   5  -7  -1    4.98    1.06
   5  -7   0   18.26    2.05
   5  -7   0   16.04    1.98
   5  -7   0   15.96    1.95
   5  -7   0   18.64    2.10
   5  -7   1   24.23    2.44
   5  -7   1   25.19    2.45
   5  -7   1   26.16    2.50
   5  -7   1   23.87    2.43
   5  -7   1   23.79    2.38
   5  -7   2   52.22    3.61
   5  -7   2   51.46    3.61
   5  -7   2   49.81    3.50
   5  -7   2   52.83    3.62
   5  -7   2   54.85    3.63
   5  -7   3  129.49    5.96
   5  -7   3  132.11    5.89
   5  -7   3  129.86    5.71
   5  -7   4    4.32    0.92
   5  -7   4    4.01    0.97
   5  -7   5    1.13    0.35
   5  -7   5    1.54    0.49
   5  -6  -4   11.59    1.47
   5  -6  -4    8.64    1.22
   5  -6  -3   13.05    1.70
   5  -6  -3   11.63    1.60
   5  -6  -2   16.84    2.00
   5  -6  -2   16.29    2.06
   5  -6  -2   16.17    1.99
   5  -6  -2   15.41    1.93
   5  -6  -1   26.90    2.62
   5  -6  -1   27.31    2.80
   5  -6  -1   30.43    2.85
   5  -6  -1   27.69    2.74
   5  -6   0    4.68    1.19
   5  -6   0    6.61    1.39
   5  -6   0    3.96    1.09
   5  -6   0    6.98    1.42
   5  -6   1    2.10    0.72
   5  -6   1    1.97    0.69
   5  -6   1    0.95    0.77
   5  -6   1    1.46    0.67
   5  -6   1    1.92    0.53
   5  -6   2  122.21    6.21
   5  -6   2  123.51    6.36
   5  -6   2  121.51    6.04
   5  -6   2  122.83    6.26
   5  -6   2  123.44    6.14
   5  -6   3   43.31    3.54
   5  -6   3   37.26    3.29
   5  -6   3   36.69    3.18
   5  -6   3   37.46    3.11
   5  -6   4   21.26    2.26
   5  -6   4   22.31    2.33
   5  -6   5   33.11    2.58
   5  -6   5   37.07    2.73
   5  -6   6    3.03    0.65
   5  -5  -5    7.01    1.18
   5  -5  -5    6.32    1.09
   5  -5  -5    6.20    1.06
   5  -5  -4    3.82    0.99
   5  -5  -4    3.41    0.99
   5  -5  -4    3.69    0.89
   5  -5  -3   52.13    3.77
   5  -5  -3   53.02    3.73
   5  -5  -3   50.80    3.69
   5  -5  -2   14.56    2.00
   5  -5  -2   14.92    2.18
   5  -5  -2   15.82    2.07
   5  -5  -2   13.91    2.05
   5  -5  -1   24.17    2.65
   5  -5  -1   21.57    2.66
   5  -5  -1   27.82    2.85
   5  -5  -1   22.49    2.62
   5  -5   0  154.72    7.18
   5  -5   0  152.03    7.33
   5  -5   0  158.31    7.27
   5  -5   0  147.03    7.19
   5  -5   1  195.87    8.39
   5  -5   1  195.47    8.75
   5  -5   1  191.92    8.26
   5  -5   1  206.37    8.57
   5  -5   1  197.47    8.39
   5  -5   2  262.36    9.82
   5  -5   2  258.23   10.09
   5  -5   2  248.93    9.49
   5  -5   2  258.29    9.81
   5  -5   2  238.62    9.38
   5  -5   3  345.20   11.49
   5  -5   3  320.23   10.93
   5  -5   3  314.17   11.12
   5  -5   3  328.19   11.08
   5  -5   3  308.79   10.62
   5  -5   4  124.35    6.02
   5  -5   4  111.96    5.72
   5  -5   4  106.92    5.56
   5  -5   5  226.36    7.93
   5  -5   5  219.79    7.85
   5  -5   6   90.16    3.89
   5  -5   6   89.74    3.90
   5  -4  -7    6.52    0.91
   5  -4  -6   27.52    2.31
   5  -4  -6   26.42    2.26
   5  -4  -5   81.90    4.50
   5  -4  -5   79.30    4.65
   5  -4  -5   78.78    4.49
   5  -4  -4   31.78    3.08
   5  -4  -4   34.86    3.11
   5  -4  -4   33.05    2.99
   5  -4  -3   17.32    2.22
   5  -4  -3   14.99    2.08
   5  -4  -3   17.48    2.19
   5  -4  -3   12.88    2.27
   5  -4  -2  238.42    9.25
   5  -4  -2  249.15    9.46
   5  -4  -2  242.82    9.74
   5  -4  -2  238.33    9.03
   5  -4  -2  208.68   10.18
   5  -4  -1   80.37    5.00
   5  -4  -1   81.33    5.35
   5  -4  -1   76.92    4.82
   5  -4  -1   72.74    5.82
   5  -4  -1   79.15    5.22
   5  -4  -1   89.51    5.49
   5  -4   0  255.61    9.68
   5  -4   0  244.26    9.77
   5  -4   0  248.95    9.52
   5  -4   0  241.46    9.81
   5  -4   1   45.45    3.81
   5  -4   1   47.29    4.17
   5  -4   1   41.79    3.70
   5  -4   1   51.54    4.06
   5  -4   1   43.22    3.80
   5  -4   2   16.44    2.28
   5  -4   2   20.47    2.61
   5  -4   2   19.42    2.42
   5  -4   2   23.96    2.71
   5  -4   3  204.94    8.57
   5  -4   3  203.14    8.42
   5  -4   3  205.08    8.73
   5  -4   3  206.64    8.48
   5  -4   4  280.46    9.75
   5  -4   4  252.99    9.46
   5  -4   5   55.13    3.64
   5  -4   5   51.95    3.52
   5  -4   6   38.19    2.51
   5  -4   6   35.50    2.38
   5  -3  -7    0.82    0.46
   5  -3  -6    9.75    1.57
   5  -3  -6   11.65    1.70
   5  -3  -5    2.62    0.96
   5  -3  -5    4.15    1.14
   5  -3  -5    1.91    0.90
   5  -3  -4  429.42   13.62
   5  -3  -4  443.10   13.31
   5  -3  -4  443.44   13.08
   5  -3  -3   62.32    4.56
   5  -3  -3   66.71    4.56
   5  -3  -3   71.10    4.60
   5  -3  -3   65.99    5.14
   5  -3  -2   87.98    5.35
   5  -3  -2   70.63    5.96
   5  -3  -2   89.86    5.31
   5  -3  -2   87.38    6.04
   5  -3  -2   93.40    5.41
   5  -3  -1  131.73    6.75
   5  -3  -1  138.37    7.13
   5  -3  -1  135.25    6.76
   5  -3  -1  140.98    8.45
   5  -3  -1  159.06    8.43
   5  -3  -1  149.32    7.19
   5  -3   0  313.34   10.93
   5  -3   0  293.31   11.01
   5  -3   0  291.31   10.55
   5  -3   0  300.88   11.10
   5  -3   0  306.76   11.20
   5  -3   1   85.45    5.31
   5  -3   1   80.76    5.52
   5  -3   1   83.39    5.22
   5  -3   1   82.81    5.38
   5  -3   1   86.93    5.58
   5  -3   2   67.21    4.80
   5  -3   2   63.04    4.56
   5  -3   2   66.79    4.91
   5  -3   2   66.28    4.61
   5  -3   2   64.19    4.77
   5  -3   3  274.16   10.23
   5  -3   3  277.15   10.45
   5  -3   3  267.79    9.94
   5  -3   3  280.36   10.55
   5  -3   4    6.64    1.35
   5  -3   4    7.55    1.47
   5  -3   5   -0.09    0.54
   5  -3   5    0.03    0.66
   5  -3   6   19.38    1.72
   5  -3   6   16.42    1.53
   5  -2  -8    3.00    0.77
   5  -2  -7    9.30    1.47
   5  -2  -6   53.16    3.87
   5  -2  -5  171.99    7.63
   5  -2  -5  156.72    8.46
   5  -2  -5  178.54    7.54
   5  -2  -4  262.55   10.19
   5  -2  -4  265.27    9.92
   5  -2  -4  266.61   11.06
   5  -2  -4  271.40    9.75
   5  -2  -3   74.68    6.17
   5  -2  -3   87.16    5.26
   5  -2  -3   80.75    5.60
   5  -2  -3   87.40    5.10
   5  -2  -2   51.74    4.89
   5  -2  -2   57.65    4.70
   5  -2  -1   43.40    4.39
   5  -2  -1   44.20    4.24
   5  -2   0   98.92    5.75
   5  -2   0  105.82    7.21
   5  -2   1  185.43    8.14
   5  -2   1  186.50    8.69
   5  -2   1  172.35    7.90
   5  -2   1  194.67    8.54
   5  -2   2   37.10    3.57
   5  -2   2   28.25    3.22
   5  -2   2   31.65    3.10
   5  -2   2   33.39    3.33
   5  -2   3  214.91    9.03
   5  -2   3  228.87    9.34
   5  -2   3  240.08    9.45
   5  -2   4   19.17    2.31
   5  -2   4   23.21    2.60
   5  -2   5   19.45    2.07
   5  -2   5   15.69    1.84
   5  -2   6    3.11    0.68
   5  -1  -9    5.71    0.89
   5  -1  -8   45.55    3.27
   5  -1  -7  166.57    7.25
   5  -1  -6  131.16    7.86
   5  -1  -6  154.58    7.06
   5  -1  -5    6.95    1.65
   5  -1  -5    3.85    1.15
   5  -1  -4  233.93   11.79
   5  -1  -4  231.36    9.01
   5  -1  -4  253.79   10.48
   5  -1  -3  397.03   15.33
   5  -1  -3  408.65   13.79
   5  -1  -2   32.99    3.79
   5  -1  -2   37.34    3.70
   5  -1  -1   10.92    2.09
   5  -1  -1   12.24    2.21
   5  -1   0  115.04    7.51
   5  -1   1  953.37   23.99
   5  -1   1  894.10   22.83
   5  -1   1  990.48   24.45
   5  -1   1  950.68   23.47
   5  -1   1  940.41   23.48
   5  -1   2  128.88    6.98
   5  -1   2  138.52    7.20
   5  -1   2  133.48    6.81
   5  -1   2  148.92    7.21
   5  -1   3  103.73    5.93
   5  -1   3  111.54    6.10
   5  -1   3  110.00    6.06
   5  -1   4    8.16    1.49
   5  -1   4    9.30    1.60
   5  -1   5   23.60    2.18
   5  -1   5   23.77    2.16
   5   0  -9    8.91    1.28
   5   0  -8   13.06    1.87
   5   0  -7  172.04    7.70
   5   0  -6  138.43    8.03
   5   0  -6  135.89    6.86
   5   0  -5  196.50    9.46
   5   0  -5  196.98    8.40
   5   0  -4  126.79    8.30
   5   0  -4  134.09    7.35
   5   0  -3  152.15    8.74
   5   0  -3  158.13    8.09
   5   0  -2   99.00    6.54
   5   0  -2  109.08    6.67
   5   0  -1  127.80    7.75
   5   0   0  246.82    9.85
   5   0   0  249.38   11.56
   5   0   0  245.90    9.79
   5   0   0  241.67    9.70
   5   0   0  239.88    9.59
   5   0   1  125.40    6.91
   5   0   1  148.96    7.61
   5   0   1  138.66    7.08
   5   0   1  141.48    7.17
   5   0   1  139.01    7.13
   5   0   1  126.57    6.67
   5   0   2  140.36    7.25
   5   0   2  147.85    7.38
   5   0   2  149.31    7.39
   5   0   2  152.10    7.42
   5   0   2  141.29    6.99
   5   0   3   32.12    3.21
   5   0   3   36.06    3.30
   5   0   3   38.27    3.40
   5   0   4   15.66    1.92
   5   0   4   18.66    2.10
   5   0   5   20.75    1.77
   5   0   5   20.83    1.74
   5   1 -10    4.27    0.87
   5   1  -9   47.04    3.32
   5   1  -8  263.92    9.56
   5   1  -7  201.05   10.34
   5   1  -7  271.37   10.05
   5   1  -6  321.27   13.06
   5   1  -6  341.83   11.91
   5   1  -5   72.59    4.91
   5   1  -5   81.01    5.91
   5   1  -5   78.11    5.17
   5   1  -4  336.10   14.37
   5   1  -4  398.52   13.95
   5   1  -3  365.02   14.55
   5   1  -3  438.70   14.94
   5   1  -2  206.40   10.15
   5   1  -2  214.49   10.16
   5   1  -1   32.14    3.85
   5   1  -1   37.09    3.43
   5   1  -1   38.17    3.48
   5   1   0   80.82    5.50
   5   1   0   79.11    5.18
   5   1   0   75.85    5.10
   5   1   0   78.45    5.28
   5   1   1  126.21    6.82
   5   1   1  126.32    6.64
   5   1   1  117.27    6.43
   5   1   1  119.19    6.52
   5   1   2  117.93    6.44
   5   1   2  131.89    6.76
   5   1   2  123.91    6.49
   5   1   2  123.93    6.49
   5   1   3    5.99    1.28
   5   1   3    7.02    1.39
   5   1   3    7.13    1.43
   5   1   4   20.30    1.95
   5   1   4   24.68    2.20
   5   2 -10   31.06    2.35
   5   2  -9   59.71    3.91
   5   2  -8   58.27    4.31
   5   2  -7  125.90    6.79
   5   2  -6  256.58    9.91
   5   2  -6  263.92   10.36
   5   2  -5  184.02    8.15
   5   2  -5  190.54    8.60
   5   2  -5  194.55    9.73
   5   2  -4  242.35   11.98
   5   2  -4  246.57    9.62
   5   2  -4  250.17    9.97
   5   2  -3  400.67   15.59
   5   2  -3  368.16   12.44
   5   2  -3  394.70   12.96
   5   2  -2   14.00    2.65
   5   2  -2   12.05    2.00
   5   2  -2   12.95    2.05
   5   2  -1   26.46    3.14
   5   2  -1   22.37    2.75
   5   2  -1   21.08    2.66
   5   2  -1   21.67    2.62
   5   2  -1   21.53    2.65
   5   2  -1   22.64    2.90
   5   2   0   20.57    2.81
   5   2   0   19.07    2.56
   5   2   0   16.32    2.43
   5   2   0   14.08    2.11
   5   2   0   15.36    2.24
   5   2   0   16.34    2.43
   5   2   1  203.54    8.71
   5   2   1  192.48    8.54
   5   2   1  190.41    8.50
   5   2   1  192.70    8.33
   5   2   1  191.10    8.38
   5   2   2   72.88    4.68
   5   2   2   73.76    4.64
   5   2   2   80.99    4.93
   5   2   3   10.58    1.58
   5   3 -10    2.97    0.77
   5   3  -9    2.58    0.95
   5   3  -8   30.18    3.05
   5   3  -8   35.32    3.32
   5   3  -7   89.25    5.62
   5   3  -7   91.83    5.83
   5   3  -6  363.93   12.58
   5   3  -6  356.95   12.75
   5   3  -5  205.94    8.95
   5   3  -5  198.74    9.05
   5   3  -4  298.36   11.04
   5   3  -4  297.77   10.94
   5   3  -4  291.48   11.07
   5   3  -4  283.49   11.14
   5   3  -3   88.15    5.66
   5   3  -3   86.19    5.46
   5   3  -3   86.15    5.54
   5   3  -3   77.59    5.42
   5   3  -2   10.76    1.95
   5   3  -2   10.39    1.84
   5   3  -2    7.92    1.67
   5   3  -2    9.48    1.86
   5   3  -1   73.09    5.26
   5   3  -1   67.27    4.83
   5   3  -1   69.22    4.86
   5   3  -1   64.69    4.71
   5   3  -1   63.59    4.69
   5   3  -1   61.74    4.78
   5   3   0  133.10    7.01
   5   3   0  125.20    6.70
   5   3   0  121.32    6.60
   5   3   0  128.53    6.70
   5   3   0  113.89    6.31
   5   3   1   77.37    4.92
   5   3   1   73.10    4.71
   5   3   1   75.98    4.80
   5   3   1   74.37    4.75
   5   3   1   79.65    4.89
   5   3   2   66.81    4.02
   5   3   2   52.40    3.50
   5   3   2   56.71    3.64
   5   3   2   60.88    3.87
   5   4  -9   42.80    3.33
   5   4  -8    6.75    1.50
   5   4  -7   17.47    2.47
   5   4  -6  150.51    7.44
   5   4  -6  142.78    7.26
   5   4  -6  147.13    7.58
   5   4  -6  142.32    7.55
   5   4  -5  165.52    7.88
   5   4  -5  158.66    7.71
   5   4  -5  165.23    8.14
   5   4  -5  159.38    8.09
   5   4  -4    4.96    1.35
   5   4  -4    5.52    1.41
   5   4  -4    4.51    1.28
   5   4  -4    4.86    1.47
   5   4  -3   12.12    2.12
   5   4  -3    9.65    1.85
   5   4  -3   11.64    1.97
   5   4  -3   14.16    2.29
   5   4  -2    5.42    1.50
   5   4  -2    5.11    1.16
   5   4  -2    5.27    1.32
   5   4  -2    4.22    1.33
   5   4  -2    3.05    1.13
   5   4  -1   85.70    5.56
   5   4  -1   85.42    5.35
   5   4  -1   86.53    5.37
   5   4  -1   76.93    5.20
   5   4  -1   78.13    5.24
   5   4   0   14.70    2.07
   5   4   0   13.94    1.96
   5   4   0   11.66    1.86
   5   4   0   13.60    2.01
   5   4   0   15.09    2.14
   5   4   1   30.81    2.70
   5   4   1   31.14    2.72
   5   4   1   34.28    2.92
   5   4   2    1.64    0.48
   5   5 -10    3.16    0.81
   5   5 -10    1.64    0.57
   5   5  -9    5.04    1.20
   5   5  -9    2.41    0.93
   5   5  -8   75.01    4.75
   5   5  -8   73.15    4.81
   5   5  -7  117.03    6.34
   5   5  -7  125.00    6.71
   5   5  -6  248.14    9.92
   5   5  -6  253.65   10.14
   5   5  -5  125.14    6.77
   5   5  -5  116.28    6.53
   5   5  -5  119.82    6.73
   5   5  -4    2.57    0.98
   5   5  -4    3.46    1.27
   5   5  -4    2.17    0.98
   5   5  -4    1.62    0.89
   5   5  -3   71.28    5.04
   5   5  -3   75.70    5.04
   5   5  -3   76.38    5.08
   5   5  -3   71.86    5.04
   5   5  -3   71.74    5.05
   5   5  -2  165.32    7.60
   5   5  -2  168.91    7.62
   5   5  -2  160.26    7.59
   5   5  -2  163.68    7.69
   5   5  -1   65.86    4.36
   5   5  -1   68.08    4.43
   5   5  -1   64.82    4.36
   5   5  -1   72.35    4.66
   5   5   0    8.06    1.38
   5   5   0    6.04    1.21
   5   5   0    6.67    1.23
   5   5   1    5.78    0.91
   5   5   1    7.02    1.03
   5   6 -10    5.10    0.93
   5   6  -9    3.08    0.94
   5   6  -9    0.83    0.50
   5   6  -8   22.77    2.54
   5   6  -8   21.09    2.37
   5   6  -7   46.03    3.77
   5   6  -7   45.17    3.73
   5   6  -7   45.71    3.72
   5   6  -6   85.98    5.33
   5   6  -6   89.51    5.46
   5   6  -6   89.19    5.35
   5   6  -5   62.62    4.58
   5   6  -5   66.24    4.66
   5   6  -5   66.76    4.68
   5   6  -5   60.66    4.45
   5   6  -4    3.55    1.12
   5   6  -4    4.63    1.26
   5   6  -4    6.03    1.22
   5   6  -3  101.28    5.60
   5   6  -3  112.12    5.83
   5   6  -3  109.69    5.84
   5   6  -2  103.30    5.34
   5   6  -2  110.19    5.51
   5   6  -1   27.22    2.40
   5   6  -1   27.89    2.43
   5   7  -9   10.06    1.39
   5   7  -9   10.08    1.33
   5   7  -9    7.73    1.12
   5   7  -8   26.38    2.55
   5   7  -8   25.37    2.39
   5   7  -8   23.27    2.29
   5   7  -7   17.32    2.15
   5   7  -7   16.68    2.08
   5   7  -7   16.19    1.97
   5   7  -7   17.02    2.05
   5   7  -6    2.29    0.93
   5   7  -6    1.41    0.57
   5   7  -6    1.92    0.68
   5   7  -6    0.81    0.37
   5   7  -5   19.72    2.30
   5   7  -5   18.59    2.19
   5   7  -5   22.05    2.38
   5   7  -5   20.38    2.24
   5   7  -4    2.95    0.99
   5   7  -4    1.70    0.70
   5   7  -4    2.29    0.74
   5   7  -3   24.90    2.31
   5   7  -3   24.59    2.28
   5   7  -2   42.30    2.65
   5   7  -2   46.39    2.77
   5   8  -7    6.37    1.07
   5   8  -6   15.01    1.65
   5   8  -6   15.26    1.58
   5   8  -5   12.79    1.44
   5   8  -5   12.44    1.36
   6  -7  -2   22.67    1.78
   6  -7  -2   21.22    1.71
   6  -7  -1    7.07    1.12
   6  -7  -1    7.34    1.10
   6  -7  -1    7.14    1.00
   6  -7   0    9.56    1.32
   6  -7   0    9.62    1.31
   6  -7   0    7.91    1.16
   6  -7   1   23.56    2.06
   6  -7   1   25.74    2.15
   6  -7   1   24.94    2.09
   6  -7   2   34.59    2.52
   6  -7   2   25.81    1.98
   6  -7   2   26.02    1.96
   6  -7   2   28.22    2.11
   6  -7   2   35.11    2.41
   6  -7   3   12.29    1.33
   6  -7   3   12.24    1.28
   6  -6  -4   13.83    1.36
   6  -6  -4   15.01    1.43
   6  -6  -3    4.90    1.04
   6  -6  -3    2.74    0.68
   6  -6  -2    4.98    1.05
   6  -6  -2    5.07    1.03
   6  -6  -1   32.22    2.72
   6  -6  -1   33.88    2.80
   6  -6  -1   36.53    2.91
   6  -6  -1   31.61    2.63
   6  -6   0   15.13    1.90
   6  -6   0   11.52    1.65
   6  -6   0   16.26    1.97
   6  -6   0   14.00    1.80
   6  -6   1   26.78    2.57
   6  -6   1   24.14    2.44
   6  -6   1   29.06    2.56
   6  -6   2   63.28    3.93
   6  -6   2   55.65    3.56
   6  -6   2   52.66    3.46
   6  -6   2   59.02    3.67
   6  -6   2   59.32    3.64
   6  -6   3    0.26    0.35
   6  -6   3    0.61    0.31
   6  -6   3    0.46    0.40
   6  -6   4    3.90    0.76
   6  -6   4    3.90    0.76
   6  -5  -5    0.34    0.23
   6  -5  -5   -0.02    0.35
   6  -5  -5    0.61    0.32
   6  -5  -4    4.02    0.91
   6  -5  -4    3.23    0.86
   6  -5  -4    3.27    0.77
   6  -5  -3    2.49    0.85
   6  -5  -3    1.30    0.56
   6  -5  -3    2.60    0.80
   6  -5  -2    9.64    1.61
   6  -5  -2    8.13    1.52
   6  -5  -1   14.25    1.97
   6  -5  -1   13.55    1.97
   6  -5  -1   13.29    1.91
   6  -5  -1   11.64    1.77
   6  -5   0    2.31    0.86
   6  -5   0    0.22    0.62
   6  -5   0    0.94    0.67
   6  -5   1   63.33    4.27
   6  -5   1   56.77    4.03
   6  -5   1   65.70    4.32
   6  -5   1   65.32    4.27
   6  -5   2   14.38    1.92
   6  -5   2   13.62    1.86
   6  -5   2   15.42    2.00
   6  -5   2   16.55    2.09
   6  -5   3   15.33    1.91
   6  -5   3   14.12    1.81
   6  -5   3   12.70    1.69
   6  -5   4   17.98    1.85
   6  -5   4   16.35    1.75
   6  -4  -6    0.98    0.44
   6  -4  -6    0.36    0.36
   6  -4  -5    5.30    1.10
   6  -4  -5    4.96    1.06
   6  -4  -5    4.28    0.95
   6  -4  -4   16.82    2.11
   6  -4  -4   15.60    1.97
   6  -4  -4   14.55    1.90
   6  -4  -3   33.94    3.10
   6  -4  -3   31.62    3.00
   6  -4  -3   32.68    3.01
   6  -4  -2   70.09    4.70
   6  -4  -2   69.65    4.57
   6  -4  -2   66.58    4.54
   6  -4  -1   72.42    4.77
   6  -4  -1   66.27    4.56
   6  -4  -1   73.15    4.94
   6  -4   0   40.07    3.50
   6  -4   0   44.76    3.62
   6  -4   0   39.76    3.55
   6  -4   0   40.70    3.68
   6  -4   1   72.75    4.75
   6  -4   1   70.02    4.76
   6  -4   1   71.14    4.65
   6  -4   1   70.88    4.70
   6  -4   2    9.18    1.68
   6  -4   2    9.15    1.60
   6  -4   2    8.21    1.59
   6  -4   2    8.47    1.52
   6  -4   3   14.14    1.90
   6  -4   3    9.26    1.55
   6  -4   3   10.11    1.59
   6  -4   4   75.39    4.01
   6  -4   4   82.80    4.20
   6  -4   5   17.94    1.52
   6  -3  -7    2.93    0.66
   6  -3  -7    3.09    0.70
   6  -3  -6   19.41    2.02
   6  -3  -6   19.95    2.08
   6  -3  -5   13.34    1.87
   6  -3  -5   12.23    1.71
   6  -3  -5   12.57    1.73
   6  -3  -4   40.87    3.60
   6  -3  -4   34.91    3.25
   6  -3  -4   35.90    3.14
   6  -3  -4   36.40    3.19
   6  -3  -3    5.84    1.42
   6  -3  -3    6.94    1.41
   6  -3  -3    7.04    1.50
   6  -3  -2   45.57    3.90
   6  -3  -2   47.94    3.97
   6  -3  -2   39.57    4.45
   6  -3  -2   47.54    3.86
   6  -3  -1  243.85    9.75
   6  -3  -1  260.99    9.99
   6  -3  -1  257.12    9.95
   6  -3   0   23.68    2.75
   6  -3   0   25.43    2.87
   6  -3   0   26.83    2.96
   6  -3   0   30.19    3.19
   6  -3   1   53.68    4.30
   6  -3   1   60.57    4.31
   6  -3   1   55.74    4.35
   6  -3   1   54.95    4.14
   6  -3   1   59.60    4.46
   6  -3   2   15.97    2.19
   6  -3   2   17.14    2.31
   6  -3   2   17.43    2.21
   6  -3   2   17.28    2.29
   6  -3   3   18.93    2.21
   6  -3   3   22.50    2.43
   6  -3   4    7.79    1.29
   6  -3   4    7.18    1.15
   6  -2  -8    0.39    0.27
   6  -2  -8   -0.07    0.33
   6  -2  -7    5.28    1.04
   6  -2  -7    8.75    1.35
   6  -2  -7    8.51    1.33
   6  -2  -6    3.76    0.97
   6  -2  -6    5.39    1.24
   6  -2  -5  137.79    6.50
   6  -2  -5  141.76    6.60
   6  -2  -4   83.28    5.43
   6  -2  -4   77.60    5.12
   6  -2  -4   78.29    4.94
   6  -2  -4   70.09    5.80
   6  -2  -4   78.59    4.90
   6  -2  -3   14.93    2.30
   6  -2  -3   15.15    2.29
   6  -2  -3   13.63    2.09
   6  -2  -3   15.28    2.67
   6  -2  -3   14.04    2.06
   6  -2  -2    3.94    1.15
   6  -2  -2    7.73    1.62
   6  -2  -2    5.66    1.69
   6  -2  -2    3.91    1.12
   6  -2  -1   47.09    4.04
   6  -2  -1   48.48    4.08
   6  -2  -1   47.82    4.02
   6  -2   0   26.76    2.95
   6  -2   0   24.52    2.86
   6  -2   0   22.99    2.77
   6  -2   1   52.99    4.29
   6  -2   1   52.87    4.32
   6  -2   1   52.94    4.15
   6  -2   1   58.50    4.41
   6  -2   2   85.69    5.26
   6  -2   2   93.90    5.54
   6  -2   2   85.51    5.05
   6  -2   2   88.16    5.23
   6  -2   3   -0.03    0.41
   6  -2   3    0.76    0.50
   6  -2   4   11.89    1.48
   6  -2   4   12.38    1.53
   6  -1  -8   15.00    1.67
   6  -1  -8   15.89    1.79
   6  -1  -8   15.28    1.76
   6  -1  -7    6.14    1.21
   6  -1  -7    5.40    1.17
   6  -1  -7    4.53    1.00
   6  -1  -6   81.62    4.81
   6  -1  -6   85.58    5.01
   6  -1  -6   79.14    4.91
   6  -1  -5  146.32    6.90
   6  -1  -5  160.34    7.22
   6  -1  -5  147.98    7.05
   6  -1  -4   74.05    4.88
   6  -1  -4   78.00    4.99
   6  -1  -4   73.01    5.97
   6  -1  -4   75.88    4.96
   6  -1  -3   31.54    3.41
   6  -1  -3   33.93    3.27
   6  -1  -3   32.27    3.22
   6  -1  -3   31.54    3.91
   6  -1  -3   29.34    3.12
   6  -1  -2   47.31    4.20
   6  -1  -2   44.58    4.01
   6  -1  -2   41.84    3.77
   6  -1  -2   42.78    3.79
   6  -1  -2   42.37    3.74
   6  -1  -1   36.29    3.55
   6  -1  -1   37.80    3.65
   6  -1  -1   32.40    3.36
   6  -1  -1   35.08    3.40
   6  -1   0  235.75    9.97
   6  -1   0  229.45    9.52
   6  -1   0  247.02   10.04
   6  -1   0  242.59    9.85
   6  -1   0  241.50    9.63
   6  -1   1   65.48    4.75
   6  -1   1   65.65    4.82
   6  -1   1   58.18    4.38
   6  -1   1   63.71    4.56
   6  -1   2   15.83    2.15
   6  -1   2   19.14    2.40
   6  -1   2   20.05    2.38
   6  -1   3   35.89    2.98
   6  -1   3   39.56    3.14
   6  -1   4   40.01    2.52
   6  -1   4   40.23    2.63
   6   0  -9   11.92    1.38
   6   0  -9   11.05    1.35
   6   0  -8    4.97    1.13
   6   0  -8    4.31    1.03
   6   0  -8    3.61    0.83
   6   0  -7   33.34    3.00
   6   0  -7   33.37    3.09
   6   0  -7   34.91    3.19
   6   0  -6    7.08    1.54
   6   0  -6    4.44    1.27
   6   0  -6    4.01    1.01
   6   0  -5    5.86    1.37
   6   0  -5    6.45    1.53
   6   0  -5    4.35    1.55
   6   0  -5    7.14    1.52
   6   0  -4  136.84    6.84
   6   0  -4  146.44    7.13
   6   0  -4  138.24    8.59
   6   0  -4  146.48    7.38
   6   0  -3  202.12    8.73
   6   0  -3  217.65    9.00
   6   0  -3  213.57   10.94
   6   0  -3  212.36    9.17
   6   0  -2  345.07   12.45
   6   0  -2  329.86   11.84
   6   0  -2  358.53   12.22
   6   0  -2  354.08   12.38
   6   0  -1   83.96    5.46
   6   0  -1   89.77    5.63
   6   0  -1   91.08    5.73
   6   0   0  104.18    6.18
   6   0   0  100.87    6.00
   6   0   0   99.94    5.92
   6   0   0  101.08    5.94
   6   0   0   96.18    5.78
   6   0   1   30.90    3.15
   6   0   1   24.37    2.76
   6   0   1   28.59    2.98
   6   0   1   22.99    2.65
   6   0   2    2.24    0.85
   6   0   2    2.04    0.80
   6   0   2    0.47    0.35
   6   0   2    2.35    0.76
   6   0   3   19.10    1.92
   6   0   3   24.89    2.31
   6   1  -9    8.82    1.31
   6   1  -9    9.39    1.36
   6   1  -8   52.82    3.67
   6   1  -8   59.38    4.00
   6   1  -8   57.76    3.80
   6   1  -7   83.08    4.96
   6   1  -7   75.42    4.85
   6   1  -7   71.55    4.78
   6   1  -6  182.94    7.94
   6   1  -6  174.56    7.94
   6   1  -6  175.43    8.20
   6   1  -5  253.03    9.68
   6   1  -5  237.67    9.55
   6   1  -5  265.31   10.45
   6   1  -4  158.98    7.67
   6   1  -4  152.26    7.39
   6   1  -4  167.74    7.79
   6   1  -4  150.55    9.30
   6   1  -4  160.80    8.10
   6   1  -3   28.08    3.01
   6   1  -3   28.27    3.07
   6   1  -3   36.35    3.66
   6   1  -2  144.90    7.27
   6   1  -2  141.04    7.22
   6   1  -2  144.84    7.56
   6   1  -1  417.63   13.51
   6   1  -1  422.54   13.68
   6   1  -1  428.03   14.08
   6   1   0   60.39    4.61
   6   1   0   56.26    4.30
   6   1   0   56.71    4.31
   6   1   0   59.59    4.51
   6   1   1   16.39    2.30
   6   1   1   10.56    1.75
   6   1   1   13.82    1.94
   6   1   1   12.29    1.85
   6   1   2   11.65    1.74
   6   1   2    8.18    1.38
   6   1   3    4.51    0.92
   6   2  -9   18.97    1.99
   6   2  -9   17.07    1.87
   6   2  -8   28.91    2.77
   6   2  -8   27.33    2.75
   6   2  -7   36.17    3.34
   6   2  -7   39.08    3.57
   6   2  -6   44.44    3.77
   6   2  -6   41.39    3.76
   6   2  -5  152.84    7.49
   6   2  -5  160.83    7.59
   6   2  -5  144.91    7.23
   6   2  -5  163.21    7.87
   6   2  -4  221.66    9.24
   6   2  -4  221.61    9.11
   6   2  -4  222.96    9.35
   6   2  -4  221.77    9.79
   6   2  -3  355.80   12.22
   6   2  -3  355.73   12.01
   6   2  -3  345.89   12.64
   6   2  -2  237.13    9.70
   6   2  -2  237.60    9.57
   6   2  -2  242.01    9.71
   6   2  -2  229.68    9.92
   6   2  -1   84.60    5.45
   6   2  -1   75.35    5.01
   6   2  -1   76.54    5.06
   6   2  -1   77.27    5.30
   6   2   0  111.54    6.07
   6   2   0  103.09    5.68
   6   2   0  105.16    5.73
   6   2   0   98.17    5.73
   6   2   1   50.58    3.66
   6   2   1   40.85    3.25
   6   2   1   42.24    3.31
   6   2   2    1.19    0.50
   6   2   2    1.03    0.50
   6   3 -10   10.17    1.29
   6   3  -9    8.57    1.36
   6   3  -8   12.68    1.92
   6   3  -8   12.72    1.86
   6   3  -7   19.44    2.45
   6   3  -7   21.98    2.70
   6   3  -7   21.02    2.65
   6   3  -6   22.64    2.61
   6   3  -6   21.30    2.68
   6   3  -6   23.31    2.77
   6   3  -6   21.68    2.83
   6   3  -5   89.05    5.58
   6   3  -5   92.71    5.68
   6   3  -5   93.14    5.79
   6   3  -5   95.15    5.98
   6   3  -4  191.12    8.56
   6   3  -4  194.61    8.55
   6   3  -4  179.00    8.34
   6   3  -4  182.62    8.56
   6   3  -3  131.38    6.98
   6   3  -3  137.88    7.12
   6   3  -3  146.69    7.28
   6   3  -3  145.96    7.40
   6   3  -2   65.74    4.66
   6   3  -2   66.96    4.67
   6   3  -2   66.20    4.73
   6   3  -2   61.87    4.58
   6   3  -1   24.14    2.69
   6   3  -1   19.55    2.39
   6   3  -1   20.46    2.45
   6   3  -1   21.97    2.53
   6   3  -1   21.51    2.54
   6   3   0   27.06    2.68
   6   3   0   23.25    2.39
   6   3   0   25.28    2.58
   6   3   0   24.49    2.52
   6   3   1   21.03    2.06
   6   3   1   22.58    2.14
   6   4 -10   13.43    1.38
   6   4  -9   17.11    1.92
   6   4  -9   17.04    1.97
   6   4  -9   16.12    1.85
   6   4  -8   12.47    1.84
   6   4  -8   11.40    1.72
   6   4  -8   11.83    1.79
   6   4  -7   29.40    2.91
   6   4  -7   31.82    3.07
   6   4  -7   29.97    3.05
   6   4  -7   28.46    2.97
   6   4  -6  133.50    6.84
   6   4  -6  139.22    6.94
   6   4  -6  137.23    7.05
   6   4  -6  132.96    6.98
   6   4  -5    2.77    0.98
   6   4  -5    4.22    1.24
   6   4  -5    4.70    1.28
   6   4  -5    3.26    1.20
   6   4  -4   32.44    3.26
   6   4  -4   35.96    3.40
   6   4  -4   35.38    3.46
   6   4  -4   35.55    3.52
   6   4  -3   31.32    3.12
   6   4  -3   34.60    3.29
   6   4  -3   28.85    3.07
   6   4  -3   37.02    3.53
   6   4  -2   57.20    4.02
   6   4  -2   53.24    3.95
   6   4  -2   53.81    4.04
   6   4  -2   54.19    4.05
   6   4  -1   32.12    2.85
   6   4  -1   35.34    2.97
   6   4  -1   37.22    3.08
   6   4  -1   38.63    3.22
   6   4   0    1.47    0.50
   6   4   0    1.25    0.59
   6   4   0    0.59    0.38
   6   5  -9   10.94    1.51
   6   5  -9    8.32    1.30
   6   5  -8    2.43    0.85
   6   5  -8    2.62    0.80
   6   5  -7    2.07    0.87
   6   5  -7    5.21    1.23
   6   5  -7    3.84    0.99
   6   5  -6   10.36    1.77
   6   5  -6   10.26    1.70
   6   5  -6   10.83    1.75
   6   5  -5  140.93    6.76
   6   5  -5  137.17    6.63
   6   5  -5  142.98    6.82
   6   5  -5  133.20    6.61
   6   5  -4   58.17    4.16
   6   5  -4   66.54    4.43
   6   5  -4   70.20    4.58
   6   5  -4   68.59    4.54
   6   5  -4   67.00    4.48
   6   5  -3   22.82    2.48
   6   5  -3   26.79    2.73
   6   5  -3   25.73    2.64
   6   5  -3   25.33    2.58
   6   5  -2   21.47    2.25
   6   5  -2   20.89    2.22
   6   5  -2   25.63    2.42
   6   5  -2   23.61    2.38
   6   5  -1    2.68    0.66
   6   5  -1    2.92    0.76
   6   5  -1    2.00    0.61
   6   6  -9    0.10    0.31
   6   6  -9    0.49    0.29
   6   6  -8    9.57    1.42
   6   6  -8    9.87    1.38
   6   6  -7    3.04    0.92
   6   6  -7    3.30    0.94
   6   6  -7    3.87    1.02
   6   6  -6   11.09    1.69
   6   6  -6   12.07    1.74
   6   6  -6   11.56    1.71
   6   6  -5   12.27    1.72
   6   6  -5   12.05    1.74
   6   6  -5   12.58    1.76
   6   6  -4   18.18    2.04
   6   6  -4   21.03    2.23
   6   6  -3   64.22    3.67
   6   6  -3   68.70    3.79
   6   6  -2   23.02    1.83
   6   7  -7    2.88    0.71
   6   7  -7    2.38    0.65
   6   7  -6   11.96    1.41
   6   7  -6   14.64    1.60
   6   7  -6   15.96    1.61
   6   7  -5    7.32    1.07
   6   7  -5    5.98    0.93
   7  -6  -2   10.80    1.22
   7  -6  -2   12.78    1.34
   7  -6  -1    8.89    1.18
   7  -6  -1    9.79    1.24
   7  -6   0   13.71    1.46
   7  -6   0   10.89    1.32
   7  -6   1    1.58    0.49
   7  -6   1    1.74    0.51
   7  -6   2    3.62    0.67
   7  -5  -4   14.71    1.41
   7  -5  -4   18.25    1.60
   7  -5  -3    2.69    0.69
   7  -5  -3    2.94    0.80
   7  -5  -2    4.81    0.99
   7  -5  -2    4.73    0.97
   7  -5  -1    0.95    0.44
   7  -5  -1    0.49    0.36
   7  -5   0    0.96    0.37
   7  -5   0    2.02    0.69
   7  -5   1    0.69    0.36
   7  -5   1    0.63    0.41
   7  -5   1    0.59    0.29
   7  -5   2    5.94    1.01
   7  -5   2    4.27    0.82
   7  -4  -5   22.72    1.83
   7  -4  -5   25.57    1.99
   7  -4  -4   12.74    1.64
   7  -4  -4   15.67    1.79
   7  -4  -4   13.47    1.62
   7  -4  -3    0.55    0.44
   7  -4  -3    0.00    0.39
   7  -4  -3    0.19    0.46
   7  -4  -2    9.49    1.53
   7  -4  -2    8.56    1.46
   7  -4  -2    9.50    1.48
   7  -4  -1   31.91    2.84
   7  -4  -1   32.08    2.87
   7  -4  -1   31.80    2.83
   7  -4   0    5.11    1.13
   7  -4   0    4.85    1.08
   7  -4   0    4.20    0.95
   7  -4   0    3.15    0.92
   7  -4   1   24.88    2.43
   7  -4   1   26.24    2.36
   7  -4   2    9.50    1.37
   7  -4   2    9.61    1.30
   7  -4   3   -0.08    0.24
   7  -3  -6    8.36    1.06
   7  -3  -6   12.34    1.44
   7  -3  -5    5.37    1.12
   7  -3  -4   15.42    1.95
   7  -3  -4   16.59    2.01
   7  -3  -4   15.12    1.93
   7  -3  -3    2.08    0.67
   7  -3  -3    2.51    0.95
   7  -3  -3    1.69    0.75
   7  -3  -2   23.53    2.59
   7  -3  -2   20.62    2.43
   7  -3  -2   20.28    2.35
   7  -3  -1    2.98    0.88
   7  -3  -1    4.30    1.11
   7  -3  -1    2.13    0.78
   7  -3   0   24.02    2.57
   7  -3   0   21.62    2.35
   7  -3   0   20.48    2.36
   7  -3   0   21.69    2.39
   7  -3   1   11.16    1.60
   7  -3   1   10.12    1.55
   7  -3   1   11.68    1.65
   7  -3   2    9.53    1.35
   7  -3   2   10.43    1.40
   7  -3   3   13.94    1.38
   7  -3   3   15.46    1.42
   7  -2  -7    9.40    1.19
   7  -2  -7    9.36    1.23
   7  -2  -6    3.66    0.88
   7  -2  -6    5.07    1.09
   7  -2  -5    9.43    1.54
   7  -2  -5    9.64    1.53
   7  -2  -4    4.47    1.05
   7  -2  -4    6.14    1.32
   7  -2  -3   36.20    3.38
   7  -2  -3   39.44    3.46
   7  -2  -3   33.58    3.06
   7  -2  -3   38.34    3.33
   7  -2  -2   41.84    3.66
   7  -2  -2   37.31    3.42
   7  -2  -2   40.76    3.51
   7  -2  -1   29.22    2.98
   7  -2  -1   27.94    2.89
   7  -2  -1   31.09    3.06
   7  -2  -1   28.24    2.90
   7  -2   0   27.87    2.80
   7  -2   0   26.11    2.68
   7  -2   0   27.60    2.75
   7  -2   1   13.03    1.76
   7  -2   1    9.64    1.45
   7  -2   1   13.54    1.81
   7  -2   2   11.36    1.45
   7  -2   2   10.67    1.42
   7  -1  -8    0.61    0.20
   7  -1  -8    0.15    0.28
   7  -1  -7    0.32    0.27
   7  -1  -7    1.27    0.51
   7  -1  -7    1.58    0.64
   7  -1  -6    5.07    1.06
   7  -1  -6    6.58    1.24
   7  -1  -6    5.88    1.23
   7  -1  -5    7.97    1.42
   7  -1  -5    9.88    1.59
   7  -1  -5   10.49    1.74
   7  -1  -4    7.88    1.50
   7  -1  -4    9.94    1.68
   7  -1  -4    9.64    1.72
   7  -1  -3   15.37    2.25
   7  -1  -3   11.42    1.80
   7  -1  -3   12.20    1.87
   7  -1  -3   11.17    1.89
   7  -1  -2   19.47    2.47
   7  -1  -2   19.69    2.52
   7  -1  -2   19.23    2.40
   7  -1  -2   16.22    2.22
   7  -1  -1   44.57    3.69
   7  -1  -1   45.37    3.64
   7  -1  -1   47.31    3.83
   7  -1   0  105.47    5.61
   7  -1   1   11.37    1.64
   7  -1   1   11.88    1.71
   7  -1   2   11.85    1.46
   7   0  -8    3.13    0.67
   7   0  -8    2.24    0.59
   7   0  -8    3.64    0.86
   7   0  -8    3.34    0.76
   7   0  -7    2.03    0.74
   7   0  -7    3.56    0.93
   7   0  -7    1.83    0.70
   7   0  -6    1.21    0.56
   7   0  -6    2.96    1.06
   7   0  -6    2.39    0.84
   7   0  -5    3.69    0.95
   7   0  -5    4.37    1.18
   7   0  -5    4.05    1.21
   7   0  -4    3.54    0.94
   7   0  -4    3.56    1.17
   7   0  -4    2.96    1.09
   7   0  -3    4.47    1.22
   7   0  -3    5.41    1.27
   7   0  -3    5.49    1.34
   7   0  -2   43.23    3.65
   7   0  -2   45.30    3.75
   7   0  -2   45.85    3.91
   7   0  -1  163.90    7.26
   7   0  -1  176.46    7.55
   7   0  -1  163.38    7.45
   7   0   0  123.24    5.88
   7   0   0  118.50    5.80
   7   0   0  136.73    6.27
   7   0   1   41.45    2.98
   7   0   1   34.91    2.65
   7   0   2    8.88    1.18
   7   1  -8    9.17    1.32
   7   1  -8    8.48    1.31
   7   1  -8   11.17    1.52
   7   1  -7    0.56    0.52
   7   1  -7    1.33    0.70
   7   1  -7    1.72    0.69
   7   1  -7    2.17    0.71
   7   1  -6   15.34    2.02
   7   1  -6   15.44    1.95
   7   1  -6   15.23    2.09
   7   1  -6   17.97    2.29
   7   1  -5   41.85    3.45
   7   1  -5   44.25    3.59
   7   1  -5   46.77    3.76
   7   1  -5   43.47    3.81
   7   1  -4  139.09    6.74
   7   1  -4  133.15    6.77
   7   1  -4  142.90    7.27
   7   1  -3  146.55    6.98
   7   1  -3  142.79    7.02
   7   1  -3  142.66    7.26
   7   1  -2   23.96    2.66
   7   1  -2   18.78    2.37
   7   1  -2   22.59    2.68
   7   1  -1   14.16    1.96
   7   1  -1   12.90    1.89
   7   1  -1    9.92    1.71
   7   1   0   33.60    2.73
   7   1   0   32.21    2.75
   7   1   0   34.79    2.86
   7   1   0   35.59    2.96
   7   1   1   60.15    3.30
   7   1   1   54.37    3.16
   7   2  -9   20.82    1.75
   7   2  -9   23.47    1.88
   7   2  -8   15.87    1.83
   7   2  -8   21.44    2.12
   7   2  -8   18.63    2.01
   7   2  -7   13.12    1.81
   7   2  -7   14.81    1.95
   7   2  -7   16.64    2.07
   7   2  -6   12.51    1.89
   7   2  -6   11.13    1.77
   7   2  -6   10.28    1.72
   7   2  -5   28.08    2.86
   7   2  -5   29.06    2.92
   7   2  -5   29.39    3.03
   7   2  -4   21.65    2.50
   7   2  -4   22.20    2.60
   7   2  -4   24.94    2.79
   7   2  -4   18.49    2.41
   7   2  -3  198.11    8.11
   7   2  -3  199.63    8.25
   7   2  -3  185.54    8.14
   7   2  -2  153.81    6.96
   7   2  -2  162.68    7.15
   7   2  -2  171.73    7.43
   7   2  -1   92.32    4.93
   7   2  -1   93.26    4.97
   7   2  -1   94.15    5.03
   7   2   0   41.19    2.71
   7   2   0   46.20    3.08
   7   2   0   47.46    3.12
   7   3  -9    4.74    0.83
   7   3  -9    7.15    1.02
   7   3  -8    7.58    1.16
   7   3  -8    8.47    1.35
   7   3  -8    8.82    1.37
   7   3  -8    8.45    1.29
   7   3  -7   32.33    2.72
   7   3  -7   36.48    2.98
   7   3  -7   36.12    3.03
   7   3  -7   37.01    3.11
   7   3  -6   53.36    3.71
   7   3  -6   61.83    4.11
   7   3  -6   63.51    4.24
   7   3  -6   61.22    4.26
   7   3  -5    1.72    0.78
   7   3  -5    1.64    0.49
   7   3  -5    0.60    0.48
   7   3  -5    2.25    1.03
   7   3  -4   60.93    4.14
   7   3  -4   59.03    4.13
   7   3  -4   66.14    4.47
   7   3  -3   56.91    3.89
   7   3  -3   67.91    4.34
   7   3  -3   65.63    4.33
   7   3  -2   13.15    1.66
   7   3  -2   17.38    2.03
   7   3  -2   14.46    1.90
   7   3  -1    5.01    1.03
   7   3  -1    6.12    1.16
   7   3   0   10.88    1.23
   7   4  -8    7.19    1.13
   7   4  -8    8.61    1.28
   7   4  -8    7.54    1.18
   7   4  -7   69.17    3.99
   7   4  -7   77.35    4.35
   7   4  -7   80.48    4.42
   7   4  -7   72.37    4.11
   7   4  -6   44.58    3.31
   7   4  -6   47.72    3.46
   7   4  -6   46.06    3.50
   7   4  -6   48.66    3.55
   7   4  -5   19.02    2.14
   7   4  -5   20.77    2.29
   7   4  -5   19.56    2.27
   7   4  -5   21.07    2.37
   7   4  -4   21.13    2.17
   7   4  -4   23.21    2.37
   7   4  -4   25.79    2.57
   7   4  -4   24.22    2.51
   7   4  -3    9.86    1.37
   7   4  -3   14.60    1.76
   7   4  -3   14.29    1.81
   7   4  -3   15.28    1.89
   7   4  -2    2.85    0.65
   7   4  -2    3.59    0.84
   7   4  -2    4.04    0.92
   7   5  -8   18.72    1.65
   7   5  -8   18.47    1.74
   7   5  -7   36.02    2.65
   7   5  -7   34.02    2.51
   7   5  -7   38.40    2.73
   7   5  -6   15.93    1.75
   7   5  -6   16.64    1.80
   7   5  -6   20.45    2.04
   7   5  -6   19.85    1.92
   7   5  -5   18.21    1.87
   7   5  -5   17.53    1.91
   7   5  -5   17.61    1.81
   7   5  -5   15.64    1.70
   7   5  -4    5.94    0.96
   7   5  -4    6.91    1.14
   7   5  -4    6.34    1.03
   7   5  -4    5.59    1.00
   8  -4  -2   11.97    1.33
   8  -4  -2   10.83    1.25
   8  -4  -1    5.66    0.93
   8  -3  -5    6.50    0.92
   8  -3  -4    0.24    0.23
   8  -3  -3    2.85    0.72
   8  -3  -3    3.31    0.75
   8  -3  -3    2.60    0.71
   8  -3  -2    8.96    1.27
   8  -3  -2    8.98    1.29
   8  -3  -1    6.63    1.07
   8  -3  -1    7.10    1.10
   8  -3   0   10.03    1.16
   8  -2  -6    2.20    0.53
   8  -2  -5   15.09    1.45
   8  -2  -5   20.75    1.90
   8  -2  -4    2.83    0.81
   8  -2  -3    1.41    0.67
   8  -2  -2    2.27    0.72
   8  -2  -2    1.86    0.63
   8  -2  -1    9.72    1.41
   8  -2   0    0.24    0.33
   8  -1  -6    5.68    0.92
   8  -1  -6    6.20    1.03
   8  -1  -5   10.09    1.41
   8  -1  -5   11.27    1.53
   8  -1  -4    1.04    0.44
   8  -1  -4    1.43    0.55
   8  -1  -3    1.75    0.65
   8  -1  -3    1.58    0.53
   8  -1  -2    4.45    0.99
   8  -1  -1   25.57    2.28
   8  -1   0    3.46    0.73
   8   0  -7   21.48    1.80
   8   0  -6   21.76    1.93
   8   0  -6   19.49    1.95
   8   0  -6   23.41    2.13
   8   0  -5   16.51    1.81
   8   0  -5   18.49    2.01
   8   0  -5   19.72    2.13
   8   0  -4   23.13    2.21
   8   0  -4   25.29    2.36
   8   0  -4   28.95    2.64
   8   0  -3   -0.14    0.30
   8   0  -3    0.10    0.34
   8   0  -2    4.90    0.96
   8   0  -2    4.71    0.93
   8   0  -2    5.41    1.10
   8   0  -1    9.75    1.35
   8   1  -7    6.61    1.02
   8   1  -7    7.58    1.14
   8   1  -6    0.00    0.49
   8   1  -6    0.64    0.41
   8   1  -6   -0.57    0.45
   8   1  -5   12.20    1.62
   8   1  -5   16.93    1.95
   8   1  -5   12.52    1.62
   8   1  -4    4.11    1.00
   8   1  -4    4.92    1.06
   8   1  -4    6.00    1.21
   8   1  -3    3.03    0.82
   8   1  -3    3.26    0.92
   8   1  -3    2.66    0.77
   8   1  -2   22.06    2.02
   8   1  -2   20.97    1.99
   8   1  -2   18.81    1.93
   8   2  -7   27.65    2.14
   8   2  -7   29.06    2.23
   8   2  -6   22.51    2.12
   8   2  -6   23.25    2.19
   8   2  -5   14.67    1.76
   8   2  -5   13.96    1.72
   8   2  -4    0.80    0.53
   8   2  -4    3.15    0.91
   8   2  -3    4.10    0.83
   8   2  -3    4.40    0.92
   8   2  -2   14.31    1.47
   8   2  -2   13.08    1.41
   8   3  -7   62.28    3.14
   8   3  -6   33.92    2.45
   8   3  -6   34.22    2.47
   8   3  -5   28.47    2.28
   8   3  -5   28.83    2.32
   8   3  -4    9.91    1.30
   8   3  -4   11.78    1.41
   8   3  -3    9.21    1.14
   8   3  -3    9.51    1.17

TITL fxm-bz-2-ph-2 in P1
REM P1 (#1 in standard setting)
CELL 1.54184   7.066273   8.362365   8.904771 115.4423 109.8478  92.5913
ZERR    2.00   0.000380   0.000483   0.000659   0.0066   0.0059   0.0045
LATT -1
SFAC C H N O
UNIT 22.00 20.00 2.00 2.00
TREF
HKLF 4
END
_computing_structure_solution     'SHELXT 2014/4 (Sheldrick, 2014)'
;
_shelx_hkl_checksum              55817
_shelx_shelxl_version_number     2014/7
_olex2_date_sample_data_collection 2015-07-09
_olex2_submission_special_instructions 'No special instructions were received'
loop_
_space_group_symop_operation_xyz
'x, y, z'
loop_
_atom_site_label
_atom_site_type_symbol
_atom_site_fract_x
_atom_site_fract_y
_atom_site_fract_z
_atom_site_U_iso_or_equiv
_atom_site_adp_type
_atom_site_occupancy
_atom_site_site_symmetry_order
_atom_site_calc_flag
_atom_site_refinement_flags_posn
O001 O 0.8441(4) 0.5566(3) 0.5029(4) 0.0680(7) Uani 1 1 d .
O002 O 0.2555(4) 0.2917(3) 0.3067(4) 0.0721(7) Uani 1 1 d .
N003 N 0.3899(4) 0.5557(3) 0.3324(4) 0.0583(6) Uani 1 1 d .
H003 H 0.4854 0.6533 0.4045 0.070 Uiso 1 1 calc R
C004 C 0.6772(4) 0.2254(3) 0.5983(3) 0.0452(5) Uani 1 1 d .
C005 C 0.8014(3) 0.2909(3) 0.5369(3) 0.0431(5) Uani 1 1 d .
C006 C 0.3828(4) 0.4332(3) 0.3900(4) 0.0463(5) Uani 1 1 d .
C007 C 0.5576(4) 0.4850(3) 0.5757(4) 0.0452(5) Uani 1 1 d .
C008 C 0.7531(3) 0.4572(3) 0.5336(4) 0.0454(5) Uani 1 1 d .
C009 C 0.5293(4) 0.3435(4) 0.6401(5) 0.0547(7) Uani 1 1 d .
H00A H 0.5612 0.4035 0.7691 0.066 Uiso 1 1 calc R
H00B H 0.3885 0.2719 0.5758 0.066 Uiso 1 1 calc R
C00A C 0.5773(4) 0.6762(4) 0.7201(4) 0.0483(5) Uani 1 1 d .
C00B C 0.7036(5) 0.0709(4) 0.6179(5) 0.0598(7) Uani 1 1 d .
H00C H 0.6223 0.0262 0.6606 0.072 Uiso 1 1 calc R
C00C C 0.9509(4) 0.2032(4) 0.4883(4) 0.0529(6) Uani 1 1 d .
H00D H 1.0317 0.2472 0.4448 0.064 Uiso 1 1 calc R
C00D C 0.7669(5) 0.7875(5) 0.8503(5) 0.0633(7) Uani 1 1 d .
H00E H 0.8870 0.7495 0.8443 0.076 Uiso 1 1 calc R
C00E C 0.7807(7) 0.9546(6) 0.9894(5) 0.0848(11) Uani 1 1 d .
H00F H 0.9093 1.0272 1.0769 0.102 Uiso 1 1 calc R
C00F C 0.4001(5) 0.7376(5) 0.7313(5) 0.0615(7) Uani 1 1 d .
H00G H 0.2709 0.6656 0.6444 0.074 Uiso 1 1 calc R
C00G C 0.8526(6) -0.0144(4) 0.5728(6) 0.0718(9) Uani 1 1 d .
H00H H 0.8727 -0.1173 0.5865 0.086 Uiso 1 1 calc R
C00H C 0.2517(5) 0.5417(5) 0.1584(4) 0.0641(7) Uani 1 1 d .
C00I C 0.9748(5) 0.0500(4) 0.5067(5) 0.0680(9) Uani 1 1 d .
H00I H 1.0729 -0.0116 0.4751 0.082 Uiso 1 1 calc R
C00J C 0.6046(9) 1.0130(6) 0.9981(6) 0.0906(13) Uani 1 1 d .
H00J H 0.6137 1.1261 1.0903 0.109 Uiso 1 1 calc R
C00K C 0.4146(7) 0.9038(6) 0.8700(6) 0.0793(10) Uani 1 1 d .
H00K H 0.2952 0.9426 0.8771 0.095 Uiso 1 1 calc R
C00L C 0.2651(11) 0.3756(9) 0.0035(6) 0.115(2) Uani 1 1 d .
H00L H 0.4059 0.3830 0.0156 0.172 Uiso 1 1 calc GR
H00M H 0.1811 0.3702 -0.1096 0.172 Uiso 1 1 calc GR
H00N H 0.2167 0.2682 0.0064 0.172 Uiso 1 1 calc GR
C00M C 0.0293(7) 0.5230(9) 0.1452(8) 0.0986(14) Uani 1 1 d .
H00O H -0.0155 0.4095 0.1392 0.148 Uiso 1 1 calc GR
H00P H -0.0591 0.5263 0.0380 0.148 Uiso 1 1 calc GR
H00Q H 0.0230 0.6213 0.2500 0.148 Uiso 1 1 calc GR
C00N C 0.3178(10) 0.7155(9) 0.1608(9) 0.120(2) Uani 1 1 d .
H00R H 0.3091 0.8160 0.2628 0.181 Uiso 1 1 calc GR
H00S H 0.2291 0.7138 0.0509 0.181 Uiso 1 1 calc GR
H00T H 0.4577 0.7283 0.1701 0.181 Uiso 1 1 calc GR
loop_
_atom_site_aniso_label
_atom_site_aniso_U_11
_atom_site_aniso_U_22
_atom_site_aniso_U_33
_atom_site_aniso_U_23
_atom_site_aniso_U_13
_atom_site_aniso_U_12
O001 0.0678(12) 0.0677(12) 0.109(2) 0.0615(13) 0.0528(13) 0.0232(9)
O002 0.0691(13) 0.0613(11) 0.0639(14) 0.0284(10) 0.0069(11) -0.0120(9)
N003 0.0602(13) 0.0548(12) 0.0466(13) 0.0277(10) 0.0030(10) -0.0004(9)
C004 0.0438(11) 0.0445(10) 0.0425(13) 0.0237(9) 0.0088(10) 0.0003(8)
C005 0.0399(10) 0.0420(10) 0.0415(13) 0.0205(9) 0.0092(9) 0.0032(8)
C006 0.0452(11) 0.0467(10) 0.0461(13) 0.0220(10) 0.0173(10) 0.0080(9)
C007 0.0418(11) 0.0517(11) 0.0542(15) 0.0347(11) 0.0198(10) 0.0106(9)
C008 0.0416(11) 0.0495(11) 0.0551(15) 0.0328(10) 0.0197(10) 0.0096(8)
C009 0.0502(13) 0.0655(14) 0.0726(19) 0.0492(14) 0.0296(13) 0.0147(11)
C00A 0.0508(13) 0.0555(12) 0.0422(14) 0.0294(11) 0.0143(11) 0.0112(10)
C00B 0.0640(16) 0.0509(12) 0.0622(18) 0.0342(12) 0.0143(14) 0.0009(11)
C00C 0.0504(13) 0.0509(12) 0.0531(16) 0.0207(10) 0.0207(12) 0.0111(10)
C00D 0.0587(16) 0.0707(16) 0.0512(17) 0.0327(14) 0.0071(13) 0.0102(13)
C00E 0.091(3) 0.078(2) 0.0466(19) 0.0188(16) 0.0001(17) -0.0003(19)
C00F 0.0597(16) 0.0676(15) 0.0605(19) 0.0306(14) 0.0265(14) 0.0187(13)
C00G 0.0767(19) 0.0442(12) 0.090(2) 0.0360(14) 0.0223(18) 0.0145(13)
C00H 0.0680(18) 0.0696(16) 0.0421(15) 0.0274(13) 0.0068(13) 0.0126(14)
C00I 0.0687(18) 0.0519(14) 0.076(2) 0.0252(14) 0.0259(17) 0.0212(13)
C00J 0.128(4) 0.077(2) 0.052(2) 0.0199(17) 0.032(2) 0.032(2)
C00K 0.095(3) 0.080(2) 0.068(2) 0.0317(19) 0.041(2) 0.035(2)
C00L 0.149(5) 0.137(4) 0.051(2) 0.036(3) 0.039(3) 0.059(4)
C00M 0.072(2) 0.127(4) 0.092(3) 0.062(3) 0.012(2) 0.033(2)
C00N 0.123(4) 0.125(4) 0.094(4) 0.085(4) -0.016(3) -0.013(3)
loop_
_atom_type_symbol
_atom_type_description
_atom_type_scat_dispersion_real
_atom_type_scat_dispersion_imag
_atom_type_scat_source
C C 0.0181 0.0091 'International Tables Vol C Tables 4.2.6.8 and 6.1.1.4'
H H 0.0000 0.0000 'International Tables Vol C Tables 4.2.6.8 and 6.1.1.4'
N N 0.0311 0.0180 'International Tables Vol C Tables 4.2.6.8 and 6.1.1.4'
O O 0.0492 0.0322 'International Tables Vol C Tables 4.2.6.8 and 6.1.1.4'
loop_
_geom_angle_atom_site_label_1
_geom_angle_atom_site_label_2
_geom_angle_atom_site_label_3
_geom_angle
C006 N003 H003 116.5
C006 N003 C00H 127.0(2)
C00H N003 H003 116.5
C005 C004 C009 111.3(2)
C005 C004 C00B 119.9(2)
C00B C004 C009 128.8(2)
C004 C005 C008 110.7(2)
C004 C005 C00C 121.9(2)
C00C C005 C008 127.4(2)
O002 C006 N003 124.5(3)
O002 C006 C007 121.3(3)
N003 C006 C007 114.2(2)
C006 C007 C008 104.2(2)
C006 C007 C009 111.1(2)
C008 C007 C009 103.69(19)
C00A C007 C006 112.6(2)
C00A C007 C008 114.0(2)
C00A C007 C009 110.8(2)
O001 C008 C005 127.5(2)
O001 C008 C007 124.9(2)
C005 C008 C007 107.62(19)
C004 C009 C007 105.41(19)
C004 C009 H00A 110.7
C004 C009 H00B 110.7
C007 C009 H00A 110.7
C007 C009 H00B 110.7
H00A C009 H00B 108.8
C00D C00A C007 121.9(2)
C00D C00A C00F 118.2(3)
C00F C00A C007 119.7(2)
C004 C00B H00C 120.8
C00G C00B C004 118.4(3)
C00G C00B H00C 120.8
C005 C00C H00D 121.1
C00I C00C C005 117.8(3)
C00I C00C H00D 121.1
C00A C00D H00E 119.5
C00A C00D C00E 121.0(3)
C00E C00D H00E 119.5
C00D C00E H00F 120.0
C00J C00E C00D 120.0(4)
C00J C00E H00F 120.0
C00A C00F H00G 119.7
C00K C00F C00A 120.5(3)
C00K C00F H00G 119.7
C00B C00G H00H 119.2
C00B C00G C00I 121.5(3)
C00I C00G H00H 119.2
N003 C00H C00L 109.5(3)
N003 C00H C00M 109.2(3)
N003 C00H C00N 106.6(3)
C00L C00H C00M 109.2(4)
C00N C00H C00L 113.1(5)
C00N C00H C00M 109.2(5)
C00C C00I C00G 120.4(3)
C00C C00I H00I 119.8
C00G C00I H00I 119.8
C00E C00J H00J 120.1
C00E C00J C00K 119.8(3)
C00K C00J H00J 120.1
C00F C00K H00K 119.8
C00J C00K C00F 120.4(4)
C00J C00K H00K 119.8
C00H C00L H00L 109.5
C00H C00L H00M 109.5
C00H C00L H00N 109.5
H00L C00L H00M 109.5
H00L C00L H00N 109.5
H00M C00L H00N 109.5
C00H C00M H00O 109.5
C00H C00M H00P 109.5
C00H C00M H00Q 109.5
H00O C00M H00P 109.5
H00O C00M H00Q 109.5
H00P C00M H00Q 109.5
C00H C00N H00R 109.5
C00H C00N H00S 109.5
C00H C00N H00T 109.5
H00R C00N H00S 109.5
H00R C00N H00T 109.5
H00S C00N H00T 109.5
loop_
_geom_bond_atom_site_label_1
_geom_bond_atom_site_label_2
_geom_bond_distance
O001 C008 1.203(3)
O002 C006 1.207(3)
N003 H003 0.8600
N003 C006 1.333(4)
N003 C00H 1.475(4)
C004 C005 1.382(3)
C004 C009 1.499(4)
C004 C00B 1.389(4)
C005 C008 1.456(3)
C005 C00C 1.397(3)
C006 C007 1.548(4)
C007 C008 1.552(3)
C007 C009 1.553(3)
C007 C00A 1.523(4)
C009 H00A 0.9700
C009 H00B 0.9700
C00A C00D 1.382(4)
C00A C00F 1.393(4)
C00B H00C 0.9300
C00B C00G 1.374(5)
C00C H00D 0.9300
C00C C00I 1.370(5)
C00D H00E 0.9300
C00D C00E 1.384(5)
C00E H00F 0.9300
C00E C00J 1.371(7)
C00F H00G 0.9300
C00F C00K 1.376(5)
C00G H00H 0.9300
C00G C00I 1.399(6)
C00H C00L 1.515(6)
C00H C00M 1.531(6)
C00H C00N 1.495(6)
C00I H00I 0.9300
C00J H00J 0.9300
C00J C00K 1.376(7)
C00K H00K 0.9300
C00L H00L 0.9600
C00L H00M 0.9600
C00L H00N 0.9600
C00M H00O 0.9600
C00M H00P 0.9600
C00M H00Q 0.9600
C00N H00R 0.9600
C00N H00S 0.9600
C00N H00T 0.9600
loop_
_geom_torsion_atom_site_label_1
_geom_torsion_atom_site_label_2
_geom_torsion_atom_site_label_3
_geom_torsion_atom_site_label_4
_geom_torsion
O002 C006 C007 C008 105.6(3)
O002 C006 C007 C009 -5.5(4)
O002 C006 C007 C00A -130.4(3)
N003 C006 C007 C008 -73.3(3)
N003 C006 C007 C009 175.7(2)
N003 C006 C007 C00A 50.8(3)
C004 C005 C008 O001 172.8(3)
C004 C005 C008 C007 -7.7(3)
C004 C005 C00C C00I -1.3(4)
C004 C00B C00G C00I -0.6(5)
C005 C004 C009 C007 6.4(3)
C005 C004 C00B C00G -0.8(4)
C005 C00C C00I C00G -0.2(5)
C006 N003 C00H C00L -59.3(5)
C006 N003 C00H C00M 60.2(4)
C006 N003 C00H C00N 178.1(4)
C006 C007 C008 O001 74.2(3)
C006 C007 C008 C005 -105.3(2)
C006 C007 C009 C004 101.1(2)
C006 C007 C00A C00D -143.4(3)
C006 C007 C00A C00F 41.4(3)
C007 C00A C00D C00E -174.5(3)
C007 C00A C00F C00K 174.6(3)
C008 C005 C00C C00I 178.1(3)
C008 C007 C009 C004 -10.3(3)
C008 C007 C00A C00D -25.0(4)
C008 C007 C00A C00F 159.8(3)
C009 C004 C005 C008 0.8(3)
C009 C004 C005 C00C -179.7(3)
C009 C004 C00B C00G -179.1(3)
C009 C007 C008 O001 -169.5(3)
C009 C007 C008 C005 11.1(3)
C009 C007 C00A C00D 91.5(3)
C009 C007 C00A C00F -83.7(3)
C00A C007 C008 O001 -49.0(4)
C00A C007 C008 C005 131.6(2)
C00A C007 C009 C004 -133.0(2)
C00A C00D C00E C00J -0.9(6)
C00A C00F C00K C00J 1.0(6)
C00B C004 C005 C008 -177.7(2)
C00B C004 C005 C00C 1.8(4)
C00B C004 C009 C007 -175.3(3)
C00B C00G C00I C00C 1.2(6)
C00C C005 C008 O001 -6.6(5)
C00C C005 C008 C007 172.8(3)
C00D C00A C00F C00K -0.8(5)
C00D C00E C00J C00K 1.1(7)
C00E C00J C00K C00F -1.1(7)
C00F C00A C00D C00E 0.7(5)
C00H N003 C006 O002 -1.8(5)
C00H N003 C006 C007 177.0(3)
