#------------------------------------------------------------------------------
#$Date: 2019-12-18 08:41:30 +0200 (Wed, 18 Dec 2019) $
#$Revision: 245315 $
#$URL: file:///home/coder/svn-repositories/cod/cif/1/55/66/1556639.cif $
#------------------------------------------------------------------------------
#
# This file is available in the Crystallography Open Database (COD),
# http://www.crystallography.net/. The original data for this entry
# were provided by IUCr Journals, http://journals.iucr.org/.
#
# The file may be used within the scientific community so long as
# proper attribution is given to the journal article from which the
# data were obtained.
#
data_1556639
loop_
_publ_author_name
'Loke, Shiva Krishna'
'Pagadala, Eswar'
'Kottalanka, Ravi K.'
_publ_section_title
;
 5,5'-(1-Phenylethane-1,1-diyl)bis(1<i>H</i>-pyrrole-2-carboxaldehyde)
;
_journal_coeditor_code           HB4326
_journal_issue                   12
_journal_name_full               IUCrData
_journal_page_first              x191660
_journal_paper_doi               10.1107/S2414314619016602
_journal_volume                  4
_journal_year                    2019
_chemical_formula_iupac          'C18 H16 N2 O2'
_chemical_formula_moiety         'C18 H16 N2 O2'
_chemical_formula_sum            'C18 H16 N2 O2'
_chemical_formula_weight         292.33
_chemical_name_systematic
;
5,5'-(1-Phenylethane-1,1-diyl)bis(1<i>H</i>-pyrrole-2-carboxaldehyde)
;
_space_group_crystal_system      triclinic
_space_group_IT_number           2
_space_group_name_Hall           '-P 1'
_space_group_name_H-M_alt        'P -1'
_atom_sites_solution_hydrogens   geom
_atom_sites_solution_primary     dual
_audit_creation_method           SHELXL-2018/3
_cell_angle_alpha                101.560(3)
_cell_angle_beta                 93.302(3)
_cell_angle_gamma                111.270(4)
_cell_formula_units_Z            2
_cell_length_a                   7.0679(2)
_cell_length_b                   9.6856(4)
_cell_length_c                   12.1510(5)
_cell_measurement_reflns_used    5094
_cell_measurement_temperature    293(2)
_cell_measurement_theta_max      29.9190
_cell_measurement_theta_min      3.6760
_cell_volume                     751.66(5)
_computing_cell_refinement
;
CrysalisPro (Rigaku OD, 2015)
;
_computing_data_collection
;
CrysalisPro (Rigaku OD, 2015)
;
_computing_data_reduction
;
CrysalisPro (Rigaku OD, 2015)
;
_computing_molecular_graphics
;
ORTEP-3 for Windows (Farrugia, 2012) and Mercury (Macrae et al., 2008)
;
_computing_publication_material
;
<i>SHELXL2018/3</i> (Sheldrick, 2015b)
;
_computing_structure_refinement
;
<i>SHELXL2018/3</i> (Sheldrick, 2015b)
;
_computing_structure_solution
;
<i>SHELXT2014/5</i> (Sheldrick, 2015a)
;
_diffrn_ambient_temperature      293(2)
_diffrn_measured_fraction_theta_full 0.999
_diffrn_measured_fraction_theta_max 0.873
_diffrn_measurement_device_type  'XtaLAB Pro: Kappa dual offset/far'
_diffrn_measurement_method       '\w scans'
_diffrn_radiation_type           MoK\a
_diffrn_radiation_wavelength     0.71073
_diffrn_reflns_av_R_equivalents  0.0219
_diffrn_reflns_av_unetI/netI     0.0247
_diffrn_reflns_limit_h_max       10
_diffrn_reflns_limit_h_min       -9
_diffrn_reflns_limit_k_max       13
_diffrn_reflns_limit_k_min       -13
_diffrn_reflns_limit_l_max       17
_diffrn_reflns_limit_l_min       -17
_diffrn_reflns_number            13274
_diffrn_reflns_theta_full        25.242
_diffrn_reflns_theta_max         31.083
_diffrn_reflns_theta_min         3.125
_diffrn_source                   'fine-focus sealed X-ray tube'
_diffrn_standards_decay_%        0
_diffrn_standards_interval_count none
_diffrn_standards_interval_time  none
_diffrn_standards_number         'see text'
_exptl_absorpt_coefficient_mu    0.085
_exptl_absorpt_correction_T_max  1.00000
_exptl_absorpt_correction_T_min  0.90102
_exptl_absorpt_correction_type   multi-scan
_exptl_absorpt_process_details
;
(CrysAlisPro; Rigaku OD, 2015)
;
_exptl_crystal_colour            colourless
_exptl_crystal_density_diffrn    1.292
_exptl_crystal_description       cube
_exptl_crystal_F_000             308
_exptl_crystal_size_max          0.180
_exptl_crystal_size_mid          0.150
_exptl_crystal_size_min          0.130
_refine_diff_density_max         0.318
_refine_diff_density_min         -0.190
_refine_ls_extinction_method     none
_refine_ls_goodness_of_fit_ref   1.032
_refine_ls_hydrogen_treatment    constr
_refine_ls_matrix_type           full
_refine_ls_number_parameters     200
_refine_ls_number_reflns         4208
_refine_ls_number_restraints     0
_refine_ls_restrained_S_all      1.032
_refine_ls_R_factor_all          0.0642
_refine_ls_R_factor_gt           0.0498
_refine_ls_shift/su_max          0.000
_refine_ls_shift/su_mean         0.000
_refine_ls_structure_factor_coef Fsqd
_refine_ls_weighting_details
'w=1/[\s^2^(Fo^2^)+(0.0767P)^2^+0.1364P] where P=(Fo^2^+2Fc^2^)/3'
_refine_ls_weighting_scheme      calc
_refine_ls_wR_factor_gt          0.1320
_refine_ls_wR_factor_ref         0.1422
_reflns_number_gt                3307
_reflns_number_total             4208
_reflns_threshold_expression     'I > 2\s(I)'
_cod_data_source_file            hb4326sup1.cif
_cod_data_source_block           I
_cod_database_code               1556639
_shelx_space_group_comment
;
The symmetry employed for this shelxl refinement is uniquely defined
by the following loop, which should always be used as a source of
symmetry information in preference to the above space-group names.
They are only intended as comments.
;
_shelx_estimated_absorpt_t_min   0.985
_shelx_estimated_absorpt_t_max   0.989
_shelx_hkl_file
;
   0   0  -2  213.85    5.65
   0   0   3 1283.82   35.04
   0   0  -3 1366.06   35.00
   0   0  -4   21.04    0.70
   0   0   4   18.09    0.82
   0   0   5  184.93    5.16
   0   0  -5  192.57    5.08
   0   0   6  550.96   14.63
   0   0  -6  550.20   14.54
   0   0  -7   59.21    1.72
   0   0   7   56.37    1.83
   0   0  -8    8.42    0.50
   0   0  -8    7.96    0.59
   0   0   8    6.94    0.72
   0   0   9  102.94    3.04
   0   0  -9  102.05    2.88
   0   0  -9  100.50    2.81
   0   0 -10   60.71    2.05
   0   0 -10   59.90    1.79
   0   0 -10   62.07    1.87
   0   0  10   65.06    2.09
   0   0 -11    1.66    0.80
   0   0 -11    1.11    0.58
   0   0  11    1.31    0.79
   0   0 -11    1.44    0.47
   0   0  12  117.71    3.60
   0   0 -12  118.09    3.57
   0   0 -12  118.55    3.26
   0   0 -12  116.74    3.36
   0   0  13    0.99    0.90
   0   0 -13    1.45    0.63
   0   0 -13    0.26    0.90
   0   0 -14    2.52    0.98
   0   0 -14    3.36    0.67
   0   0  15    2.09    0.64
   0   0 -15    3.49    1.05
   0  -1 -15    0.14    0.99
   0  -1 -14    0.51    0.70
   0  -1 -14    0.59    0.95
   0   1  13    0.35    0.86
   0  -1 -13    1.39    0.53
   0  -1 -13    0.67    0.69
   0  -1 -13    0.22    0.82
   0  -1 -13    1.96    0.90
   0  -1 -12   19.40    0.84
   0  -1 -12   19.44    1.20
   0  -1 -12   18.86    1.15
   0  -1 -12   18.03    0.98
   0   1  12   19.25    1.16
   0   1  11    1.24    0.80
   0  -1 -11    0.25    0.67
   0  -1 -11    1.46    0.52
   0  -1 -11    0.75    0.74
   0   1  10    4.65    0.83
   0  -1 -10    4.28    0.66
   0   1   9   91.53    2.88
   0  -1  -9   97.76    2.77
   0  -1  -8    1.97    0.56
   0   1   8    1.40    0.24
   0   1   8    1.72    0.64
   0   1   7    2.43    0.62
   0   1   7    2.21    0.27
   0  -1  -7    2.70    0.55
   0  -1  -7    3.14    0.30
   0  -1  -6   87.66    2.51
   0  -1  -6   88.04    2.39
   0  -1  -5   37.28    1.09
   0  -1  -5   36.72    1.21
   0  -1  -4  178.21    4.88
   0  -1  -4  182.30    4.81
   0  -1  -3  544.66   14.33
   0  -1  -2 1226.17   32.04
   0   1   2 1216.17   32.04
   0   1   1 2828.56   74.12
   0  -1   2  779.09   20.53
   0  -1   2  787.43   20.56
   0   1  -2  792.15   20.53
   0  -1   2  767.34   20.56
   0  -1   3    0.09    0.37
   0  -1   3    0.31    0.26
   0   1  -3   -0.10    0.19
   0  -1   3   -0.01    0.41
   0   1  -3   -0.07    0.22
   0   1  -4  252.17    6.45
   0  -1   4  242.71    6.45
   0  -1   4  233.59    6.50
   0  -1   4  242.94    6.45
   0  -1   4  244.43    6.53
   0   1  -5  292.88    7.54
   0   1  -5  281.34    7.63
   0  -1   5  281.03    7.63
   0  -1   5  277.12    7.59
   0  -1   6   79.68    2.41
   0   1  -6   84.13    2.28
   0  -1   6   82.66    2.36
   0   1  -6   84.58    2.27
   0   1  -6   80.09    2.41
   0  -1   7   26.64    1.09
   0   1  -7   27.91    0.90
   0   1  -7   28.85    0.87
   0  -1   7   26.60    0.99
   0   1  -7   26.96    1.08
   0  -1   8  486.87   13.11
   0  -1   8  497.35   13.20
   0   1  -8  497.24   13.17
   0   1  -8  499.57   13.02
   0   1  -8  485.62   13.04
   0  -1   9    0.17    0.48
   0   1  -9   -0.58    0.47
   0   1  -9    0.04    0.68
   0  -1   9    0.55    0.66
   0  -1  10  179.24    5.01
   0   1 -10  176.64    4.82
   0   1 -10  175.83    5.00
   0   1 -11    5.06    0.57
   0   1 -11    3.65    0.83
   0  -1  11    4.34    0.81
   0   1 -12    7.58    0.64
   0   1 -12    7.46    0.94
   0  -1  12    6.28    0.92
   0   1 -13    9.10    0.69
   0   1 -13   10.39    1.03
   0  -1  13    8.57    1.02
   0  -1  14    7.43    1.04
   0   1 -14    6.64    1.01
   0   1 -14    6.77    0.66
   0  -1  15   25.09    1.16
   0   1 -15   29.19    1.49
   0   1 -16    1.47    1.04
   0  -2 -14    0.82    0.77
   0  -2 -14    0.38    0.88
   0  -2 -13    2.25    0.60
   0  -2 -13    2.99    0.79
   0  -2 -13    2.26    0.89
   0  -2 -12   28.48    1.36
   0   2  12   28.22    1.42
   0  -2 -12   29.07    1.26
   0  -2 -11    1.09    0.82
   0   2  11    1.83    0.87
   0  -2 -11    1.48    0.75
   0   2  10    0.18    0.31
   0  -2 -10    0.05    0.69
   0  -2 -10   -0.41    0.76
   0  -2  -9  237.08    6.36
   0  -2  -9  233.04    6.31
   0   2   9  226.36    6.15
   0  -2  -8    3.80    0.44
   0  -2  -8    2.06    0.67
   0   2   8    3.52    0.42
   0  -2  -8    4.23    0.64
   0  -2  -7    0.02    0.57
   0  -2  -7    0.10    0.61
   0  -2  -7    0.96    0.41
   0  -2  -6  375.58    9.86
   0  -2  -6  369.81    9.95
   0  -2  -6  367.16    9.95
   0  -2  -5  130.84    3.54
   0  -2  -5  130.67    3.47
   0  -2  -5  118.29    3.55
   0  -2  -4  315.99    8.26
   0  -2  -4  323.48    8.30
   0  -2  -3   56.86    1.61
   0   2   3   52.80    1.58
   0  -2  -3   54.06    1.66
   0  -2  -3   55.06    1.59
   0  -2  -2   54.13    1.61
   0  -2  -2   59.70    1.59
   0  -2  -2   53.59    1.63
   0   2   2   55.07    1.62
   0   2   2   55.05    1.59
   0  -2  -1 2035.27   53.12
   0  -2  -1 1986.44   53.12
   0   2   1 2018.61   53.11
   0   2   1 2052.86   53.13
   0   2   1 2017.67   53.10
   0   2   1 2045.90   53.12
   0  -2   0  324.71    8.37
   0   2   0  318.52    8.39
   0   2   0  313.80    8.37
   0   2   0  311.29    8.40
   0  -2   1   30.67    0.98
   0   2  -1   31.80    0.92
   0  -2   2    3.41    0.42
   0   2  -2    3.53    0.43
   0  -2   2    4.08    0.42
   0  -2   3  386.52   10.43
   0  -2   3  395.73   10.40
   0   2  -3  396.16   10.42
   0  -2   3  396.21   10.42
   0   2  -3  394.47   10.40
   0  -2   4  158.04    4.22
   0   2  -4  160.49    4.29
   0  -2   4  158.85    4.19
   0  -2   4  156.60    4.29
   0   2  -4  161.53    4.29
   0   2  -4  157.55    4.22
   0  -2   4  154.75    4.29
   0  -2   5   29.80    1.07
   0  -2   5   31.68    0.95
   0   2  -5   32.52    0.92
   0  -2   5   30.99    0.90
   0  -2   5   29.49    1.07
   0   2  -5   31.75    1.08
   0  -2   6  124.78    3.34
   0  -2   6  123.68    3.43
   0   2  -6  125.52    3.46
   0  -2   6  129.10    3.48
   0  -2   6  121.30    3.32
   0   2  -7   50.38    1.61
   0  -2   7   46.57    1.53
   0   2  -7   52.18    1.41
   0  -2   7   47.14    1.60
   0  -2   8   53.95    1.78
   0   2  -8   56.91    1.57
   0   2  -8   54.91    1.77
   0  -2   8   52.94    1.69
   0  -2   9   16.15    0.91
   0   2  -9   14.63    0.91
   0   2  -9   15.80    0.62
   0   2 -10   39.66    1.22
   0  -2  10   42.11    1.54
   0   2 -10   38.35    1.50
   0   2 -11  102.40    2.88
   0   2 -11  101.11    3.13
   0  -2  11  111.35    3.18
   0  -2  12    5.81    0.91
   0   2 -12    7.34    0.53
   0   2 -12    7.34    0.93
   0   2 -13   19.66    0.81
   0  -2  13   21.00    1.23
   0   2 -13   22.15    1.24
   0  -2  14   33.89    1.56
   0   2 -14   34.16    1.55
   0  -2  14   32.89    1.34
   0   2 -15   15.28    1.21
   0  -2  15   13.83    0.92
   0   2 -16    1.07    1.03
   0  -3 -14    1.20    0.84
   0  -3 -13    5.25    0.90
   0  -3 -12    0.92    0.79
   0   3  12    1.04    0.63
   0  -3 -12    0.33    0.83
   0   3  11   14.34    0.84
   0  -3 -11   15.17    1.05
   0   3  11   13.65    0.65
   0  -3 -11   13.81    1.01
   0   3  10   29.36    1.04
   0  -3 -10   30.52    1.30
   0  -3 -10   32.45    1.35
   0  -3  -9   52.27    1.96
   0   3   9   60.15    1.78
   0  -3  -9   63.07    2.00
   0  -3  -9   61.45    1.98
   0  -3  -8   65.17    1.94
   0  -3  -8   67.43    2.12
   0  -3  -8   64.83    2.10
   0  -3  -7   25.25    0.94
   0  -3  -7   24.39    1.05
   0   3   7   24.64    0.94
   0  -3  -7   24.43    1.09
   0  -3  -6    0.26    0.56
   0  -3  -6    0.54    0.51
   0  -3  -6   -0.47    0.64
   0   3   6   -0.01    0.46
   0  -3  -5  301.84    7.96
   0   3   5  290.72    7.96
   0  -3  -5  300.42    7.99
   0   3   4  253.10    7.05
   0  -3  -4  267.64    7.07
   0  -3  -4  268.30    7.11
   0  -3  -4  267.52    7.07
   0  -3  -4  261.63    7.12
   0  -3  -3   45.95    1.42
   0   3   3   44.96    1.40
   0  -3  -3   45.36    1.45
   0  -3  -3   46.49    1.38
   0  -3  -3   44.02    1.43
   0   3   2    0.35    0.43
   0  -3  -2    0.74    0.52
   0   3   2    1.07    0.45
   0  -3  -2    0.95    0.51
   0   3   2    0.88    0.52
   0  -3  -2    0.84    0.53
   0   3   1   37.14    1.15
   0   3   1   36.57    1.25
   0  -3  -1   40.05    1.22
   0   3   1   36.94    1.21
   0   3   1   38.95    1.21
   0  -3  -1   39.54    1.21
   0  -3  -1   38.92    1.14
   0   3   0   41.12    1.20
   0  -3   0   39.01    1.27
   0   3   0   39.26    1.27
   0   3   0   41.69    1.25
   0  -3   0   43.37    1.20
   0  -3   1  514.49   12.93
   0   3  -1  481.14   12.93
   0  -3   1  480.80   12.99
   0   3  -1  479.07   12.98
   0   3  -2   83.85    2.33
   0  -3   2   86.35    2.39
   0   3  -2   84.12    2.38
   0  -3   3  946.49   24.64
   0  -3   3  934.76   24.66
   0  -3   3  912.27   24.63
   0   3  -3  952.34   24.63
   0   3  -4  459.00   12.23
   0  -3   4  466.36   12.24
   0  -3   4  464.34   12.22
   0  -3   4  457.57   12.25
   0   3  -4  449.66   12.25
   0   3  -4  471.04   12.21
   0  -3   5   38.05    1.29
   0  -3   5   38.89    1.20
   0   3  -5   39.74    1.30
   0  -3   5   39.48    1.27
   0   3  -5   40.09    1.21
   0   3  -5   42.18    1.29
   0   3  -6    0.66    0.35
   0  -3   6   -0.18    0.49
   0   3  -6    0.24    0.51
   0  -3   6   -0.44    0.44
   0   3  -6    0.21    0.53
   0  -3   6    0.17    0.22
   0  -3   7   71.81    1.97
   0   3  -7   76.24    2.18
   0  -3   7   72.11    2.14
   0  -3   7   71.06    2.16
   0  -3   7   72.45    2.03
   0  -3   8    0.50    0.35
   0   3  -8    0.08    0.61
   0  -3   8    0.65    0.59
   0  -3   9  112.29    3.32
   0   3  -9  115.81    3.32
   0   3 -10   -0.36    0.74
   0  -3  10    0.81    0.70
   0   3 -11   15.59    1.05
   0  -3  11   16.71    1.05
   0  -3  12   24.90    1.28
   0   3 -12   22.67    1.26
   0  -3  13    4.46    0.94
   0   3 -13    3.71    0.96
   0  -3  13    3.66    0.75
   0   3 -14    0.20    0.91
   0  -3  14    0.92    0.74
   0  -3  14    0.37    0.89
   0  -3  15    1.20    0.73
   0   3 -15   -0.19    0.98
   0   3 -16    3.06    1.04
   0  -3  16    3.40    0.78
   0  -4 -13    3.04    0.94
   0  -4 -13    4.31    1.07
   0  -4 -13    3.54    0.93
   0  -4 -12    0.85    0.83
   0  -4 -12    0.25    0.93
   0  -4 -12   -0.40    0.87
   0  -4 -12    0.81    0.84
   0  -4 -11    1.44    0.84
   0   4  11    0.05    0.63
   0  -4 -11   -0.61    0.88
   0   4  11    0.26    0.52
   0  -4 -11   -0.28    0.84
   0  -4 -11    1.09    0.81
   0  -4 -10   52.45    1.92
   0   4  10   52.17    1.68
   0  -4 -10   54.91    1.97
   0  -4 -10   51.87    1.90
   0  -4 -10   54.98    1.89
   0   4  10   53.60    1.75
   0  -4  -9   90.84    2.65
   0   4   9   89.28    2.69
   0  -4  -9   90.07    2.82
   0  -4  -9   93.45    2.87
   0  -4  -9   93.01    2.79
   0  -4  -9   90.38    2.86
   0  -4  -8   28.16    1.23
   0  -4  -8   28.37    1.31
   0  -4  -8   29.05    1.12
   0   4   8   29.62    1.13
   0  -4  -8   28.04    1.31
   0  -4  -8   30.75    1.31
   0   4   7    3.05    0.59
   0  -4  -7    3.11    0.67
   0  -4  -7    2.61    0.78
   0  -4  -7    2.81    0.61
   0  -4  -7    0.57    0.83
   0   4   6    0.42    0.53
   0  -4  -6   -0.51    0.71
   0  -4  -6    0.51    0.55
   0  -4  -6   -0.05    0.58
   0  -4  -5   12.82    0.81
   0  -4  -5   13.65    0.72
   0   4   5   12.32    0.70
   0  -4  -5   13.72    0.78
   0   4   4   14.17    0.73
   0  -4  -4   15.53    0.83
   0  -4  -4   14.82    0.78
   0   4   3   60.34    1.84
   0  -4  -3   59.35    1.87
   0  -4  -3   64.41    1.90
   0  -4  -3   63.02    1.89
   0  -4  -2  495.33   13.00
   0   4   2  480.02   13.03
   0  -4  -2  495.90   13.02
   0   4   2  487.63   12.96
   0   4   2  483.56   12.99
   0  -4  -2  496.54   12.95
   0  -4  -2  469.19   13.01
   0  -4  -2  504.49   13.00
   0  -4  -1   90.35    2.45
   0   4   1   88.25    2.56
   0   4   1   85.84    2.50
   0   4   1   86.38    2.45
   0   4   1   85.85    2.51
   0  -4  -1   93.23    2.53
   0   4   0  466.04   12.40
   0  -4   0  470.77   12.40
   0  -4   0  473.62   12.32
   0   4   0  454.20   12.37
   0   4  -1   16.58    0.74
   0   4  -1   15.48    0.62
   0  -4   1   16.59    0.78
   0  -4   1   15.59    0.61
   0  -4   2  760.97   19.82
   0   4  -2  742.24   19.75
   0   4  -2  752.21   19.82
   0  -4   3  166.71    4.50
   0   4  -3  157.68    4.44
   0   4  -3  172.36    4.51
   0  -4   4   94.04    2.60
   0  -4   4   90.60    2.60
   0   4  -4   93.16    2.61
   0  -4   4   89.25    2.62
   0  -4   5  146.89    4.04
   0  -4   5  147.71    4.02
   0   4  -5  146.57    4.03
   0   4  -5  146.60    4.07
   0  -4   5  146.37    4.07
   0  -4   6  159.51    4.43
   0   4  -6  168.33    4.43
   0   4  -6  163.50    4.48
   0   4  -6  164.28    4.51
   0  -4   6  158.56    4.48
   0  -4   7  231.86    6.22
   0  -4   7  222.80    6.04
   0   4  -7  233.85    6.22
   0   4  -7  239.76    6.23
   0  -4   8  149.40    3.93
   0   4  -8  153.44    4.06
   0  -4   8  147.64    4.06
   0  -4   8  138.82    3.82
   0  -4   9   -0.07    0.40
   0   4  -9    0.28    0.67
   0  -4   9   -0.45    0.65
   0  -4  10   66.90    2.22
   0   4 -10   71.76    2.23
   0  -4  10   69.43    2.00
   0   4 -11   48.38    1.75
   0  -4  11   47.94    1.75
   0  -4  12   85.08    2.70
   0   4 -12   83.07    2.67
   0  -4  13   19.96    1.21
   0   4 -13   17.36    1.15
   0  -4  13   17.77    1.04
   0  -4  14    0.20    0.73
   0   4 -14    1.24    0.90
   0  -4  14   -1.32    0.93
   0   4 -15    0.48    0.95
   0  -4  15    1.56    0.78
   0  -4  16    2.16    0.76
   0   4 -16    1.59    0.99
   0  -5 -12    7.80    1.11
   0  -5 -12    6.75    0.99
   0   5  11    0.64    0.61
   0  -5 -11    0.58    0.80
   0   5  11    0.68    0.65
   0  -5 -11    0.43    0.94
   0  -5 -11    0.76    0.84
   0  -5 -11    0.17    0.90
   0  -5 -10    1.28    0.81
   0  -5 -10    0.79    0.77
   0  -5 -10    1.59    0.88
   0   5  10    1.98    0.65
   0  -5 -10    1.68    0.86
   0  -5  -9    5.50    0.73
   0  -5  -9    7.49    0.91
   0   5   9    6.38    0.72
   0  -5  -9    5.51    0.92
   0  -5  -9    6.63    0.92
   0  -5  -9    7.28    0.80
   0  -5  -8   50.70    1.89
   0  -5  -8   52.57    1.76
   0  -5  -8   52.98    1.73
   0  -5  -8   49.45    1.86
   0  -5  -8   56.09    1.91
   0   5   8   50.00    1.70
   0  -5  -7    2.91    0.84
   0  -5  -7    3.18    0.79
   0  -5  -7    4.07    0.73
   0   5   7    3.27    0.63
   0  -5  -7    4.30    0.83
   0  -5  -7    2.91    0.67
   0  -5  -6   81.40    2.51
   0   5   6   77.59    2.39
   0  -5  -6   82.51    2.44
   0  -5  -5    6.33    0.73
   0   5   5    5.95    0.64
   0  -5  -5    8.24    0.79
   0  -5  -4   65.01    2.07
   0  -5  -4   69.03    2.08
   0   5   4   65.08    2.00
   0   5   3   67.45    2.15
   0  -5  -3   73.72    2.21
   0  -5  -3   72.21    2.18
   0  -5  -3   75.03    2.11
   0   5   2   59.77    1.89
   0  -5  -2   61.57    1.96
   0  -5  -2   64.45    1.93
   0  -5  -2   63.01    1.82
   0   5   2   62.43    1.84
   0  -5  -1   10.97    0.75
   0  -5  -1   10.81    0.75
   0   5   1    9.72    0.62
   0   5   1   10.83    0.67
   0   5   1   11.12    0.59
   0   5   1    9.62    0.76
   0  -5  -1   11.36    0.56
   0   5   0  394.71   10.35
   0   5   0  374.06   10.35
   0  -5   0  387.34   10.37
   0  -5   0  391.64   10.28
   0  -5   1    7.45    0.47
   0   5  -1    6.31    0.63
   0   5  -1    8.02    0.49
   0  -5   1    7.89    0.68
   0  -5   1    7.06    0.55
   0   5  -2   46.50    1.54
   0   5  -2   47.74    1.59
   0   5  -2   48.22    1.44
   0  -5   2   49.32    1.53
   0  -5   3    0.11    0.45
   0   5  -3    0.21    0.58
   0   5  -3    0.37    0.41
   0  -5   4   51.56    1.59
   0  -5   4   51.66    1.60
   0   5  -4   48.46    1.55
   0   5  -4   55.38    1.65
   0  -5   5  100.91    2.85
   0  -5   5   96.71    2.85
   0   5  -5  103.13    2.87
   0  -5   6   24.18    0.99
   0   5  -6   25.78    0.97
   0   5  -6   23.19    1.01
   0  -5   6   24.22    0.92
   0   5  -7   38.50    1.36
   0  -5   7   36.56    1.31
   0   5  -8   75.48    2.24
   0  -5   8   71.15    2.00
   0  -5   8   75.40    2.26
   0   5  -8   78.75    2.29
   0  -5   9    6.19    0.28
   0  -5   9    7.53    0.73
   0   5  -9    8.16    0.77
   0  -5   9    7.86    0.56
   0  -5  10   23.01    0.90
   0  -5  10   23.20    1.13
   0   5 -10   25.51    1.16
   0  -5  11   11.33    0.89
   0  -5  11   12.55    0.65
   0   5 -11   12.58    1.00
   0  -5  11   13.13    0.95
   0   5 -12    1.35    0.86
   0   5 -12    0.81    0.23
   0  -5  12    1.44    0.75
   0  -5  12    1.72    0.82
   0   5 -13   81.94    2.72
   0  -5  13   83.36    2.66
   0  -5  13   86.96    2.75
   0  -5  14   14.10    1.01
   0   5 -14   15.49    1.15
   0  -5  14   16.39    1.18
   0  -5  15   14.05    1.03
   0   5 -15   11.61    1.16
   0  -5  16    0.88    0.81
   0   5 -16    1.08    1.03
   0  -6 -11   11.85    1.19
   0  -6 -11   11.91    1.13
   0   6  10    0.02    0.68
   0  -6 -10    0.61    0.94
   0  -6 -10    0.51    0.88
   0  -6 -10    0.45    0.89
   0   6   9    0.78    0.67
   0  -6  -9    2.34    0.87
   0  -6  -9    1.53    0.91
   0  -6  -9    1.92    0.95
   0  -6  -8    1.39    0.90
   0  -6  -8   -0.11    0.90
   0   6   8   -0.49    0.68
   0  -6  -8   -0.87    0.82
   0  -6  -8    0.83    0.74
   0  -6  -7   35.43    1.53
   0   6   7   37.73    1.38
   0  -6  -7   37.54    1.53
   0  -6  -7   35.42    1.42
   0  -6  -7   34.27    1.48
   0  -6  -6   14.92    0.94
   0  -6  -6   12.74    1.00
   0  -6  -6   12.77    0.97
   0  -6  -6   10.67    0.93
   0   6   6   13.37    0.85
   0   6   5   21.30    0.98
   0  -6  -5   20.70    1.07
   0  -6  -5   19.95    1.06
   0  -6  -4    0.74    0.53
   0  -6  -4    0.52    0.71
   0   6   4    0.83    0.60
   0  -6  -4    0.23    0.73
   0  -6  -3   18.92    0.82
   0  -6  -3   19.37    1.02
   0   6   3   19.04    0.91
   0  -6  -2   15.89    0.90
   0   6   2   15.67    0.73
   0   6   2   15.22    0.84
   0  -6  -2   15.69    0.94
   0  -6  -2   16.41    0.71
   0   6   1    5.48    0.65
   0   6   1    5.38    0.51
   0  -6  -1    5.40    0.49
   0  -6  -1    5.69    0.72
   0   6   0    2.62    0.69
   0  -6   0    1.05    0.43
   0  -6   0    1.53    0.67
   0   6   0    2.09    0.60
   0   6   0    1.56    0.53
   0  -6   1  460.13   12.18
   0  -6   1  465.18   12.06
   0   6  -1  450.56   12.11
   0   6  -1  441.16   12.17
   0   6  -1  452.73   12.07
   0   6  -2    8.31    0.54
   0   6  -2    7.13    0.77
   0   6  -2    8.15    0.70
   0   6  -3   20.25    0.99
   0   6  -3   20.99    0.81
   0   6  -3   20.72    0.96
   0  -6   4  109.94    3.22
   0   6  -4  115.77    3.20
   0   6  -4  119.48    3.32
   0  -6   5  126.75    3.60
   0   6  -5  136.82    3.65
   0   6  -5  122.77    3.56
   0  -6   6  104.41    3.03
   0   6  -6  106.63    3.06
   0   6  -6  105.16    3.09
   0  -6   7    2.71    0.62
   0   6  -7    2.77    0.68
   0  -6   8    0.61    0.32
   0  -6   8    0.30    0.62
   0   6  -8    0.74    0.68
   0   6  -9   -0.93    0.72
   0  -6   9   -0.34    0.66
   0  -6   9   -0.16    0.23
   0  -6  10   -1.13    0.78
   0  -6  10   -0.42    0.53
   0  -6  10    0.30    0.70
   0  -6  11   25.83    1.00
   0  -6  11   26.34    1.24
   0  -6  11   24.10    1.25
   0   6 -12   69.16    2.28
   0  -6  12   67.41    2.04
   0  -6  12   68.88    2.32
   0  -6  12   72.95    2.35
   0   6 -13    6.33    0.96
   0  -6  13    7.27    0.93
   0  -6  13    7.27    0.95
   0   6 -13    4.64    0.35
   0  -6  14    6.69    0.99
   0   6 -14    7.88    1.00
   0  -6  14    6.86    0.93
   0  -6  15    1.86    0.91
   0   6 -15    0.42    0.96
   0  -6  16    0.85    0.86
   0   6 -16   -0.67    0.95
   0  -7 -10    1.70    1.00
   0  -7 -10    0.61    0.94
   0  -7  -9    0.73    0.90
   0  -7  -9    0.27    0.94
   0   7   9    0.72    0.72
   0  -7  -8   36.15    1.49
   0  -7  -8   36.81    1.61
   0   7   8   37.14    1.43
   0  -7  -8   38.12    1.60
   0  -7  -8   36.98    1.66
   0  -7  -7    5.93    0.89
   0  -7  -7    4.70    0.74
   0   7   7    3.28    0.72
   0  -7  -7    4.22    0.94
   0  -7  -7    4.81    0.90
   0  -7  -7    4.01    0.89
   0   7   6   24.35    1.14
   0  -7  -6   25.17    1.28
   0  -7  -6   24.66    1.29
   0  -7  -6   26.15    1.11
   0  -7  -6   26.58    1.30
   0  -7  -6   26.95    1.26
   0  -7  -5   17.89    1.10
   0   7   5   17.30    0.99
   0  -7  -5   17.02    0.90
   0  -7  -5   21.70    1.13
   0   7   4   63.87    2.03
   0  -7  -4   61.25    1.95
   0  -7  -4   63.89    2.11
   0  -7  -4   65.39    2.15
   0   7   3   87.14    2.64
   0  -7  -3   84.82    2.51
   0  -7  -3   89.43    2.72
   0   7   2   26.71    1.02
   0  -7  -2   27.18    1.00
   0  -7  -2   28.00    1.21
   0   7   2   27.89    1.18
   0  -7  -2   26.66    1.26
   0  -7  -1   58.21    1.76
   0  -7  -1   59.52    1.94
   0   7   1   55.80    1.90
   0   7   1   60.04    1.78
   0  -7  -1   58.72    1.98
   0   7   0   46.20    1.44
   0  -7   0   47.58    1.65
   0   7   0   44.22    1.60
   0  -7   0   46.81    1.44
   0  -7   1   24.93    0.91
   0  -7   1   25.99    1.13
   0   7  -1   21.81    1.09
   0   7  -2   -0.01    0.46
   0   7  -2   -0.36    0.64
   0  -7   2    0.93    0.69
   0   7  -3   19.94    1.04
   0   7  -3   19.01    0.79
   0   7  -3   19.58    1.01
   0   7  -4  346.97    9.39
   0   7  -4  330.88    9.50
   0  -7   5    7.86    0.71
   0  -7   6    4.49    0.66
   0  -7   7  110.51    3.38
   0  -7   7  115.09    3.31
   0   7  -7  115.98    3.38
   0  -7   8    1.83    0.67
   0  -7   8    1.60    0.74
   0   7  -8    0.34    0.76
   0  -7   9   89.76    2.80
   0  -7   9   92.08    2.74
   0   7  -9   93.29    2.80
   0  -7   9   87.63    2.46
   0  -7  10   89.18    2.46
   0  -7  10   88.09    2.50
   0   7 -10   95.77    2.52
   0  -7  11   26.99    1.28
   0  -7  11   24.73    1.07
   0  -7  11   28.28    1.27
   0  -7  12   13.97    1.08
   0  -7  12   14.40    0.80
   0  -7  12   16.40    1.11
   0  -7  13    0.86    0.54
   0  -7  13    1.44    0.84
   0  -7  13    1.69    0.86
   0  -7  14   34.19    1.54
   0  -7  14   32.02    1.52
   0  -7  15    6.92    1.01
   0  -7  16   -0.30    0.87
   0  -8  -9    3.62    1.01
   0  -8  -9    4.29    1.03
   0  -8  -8    2.83    0.75
   0  -8  -8    2.66    0.92
   0   8   8    2.46    0.76
   0  -8  -7    6.51    0.79
   0  -8  -7    6.60    0.95
   0  -8  -7    7.42    0.95
   0   8   7    5.92    0.83
   0  -8  -6   20.95    1.24
   0  -8  -6   23.06    1.26
   0   8   6   21.29    1.11
   0  -8  -6   22.84    1.05
   0   8   5    9.26    0.88
   0  -8  -5    8.49    0.96
   0  -8  -5    8.72    1.01
   0  -8  -5    9.43    0.77
   0  -8  -4   30.48    1.18
   0  -8  -4   32.75    1.46
   0   8   4   34.87    1.35
   0  -8  -4   30.39    1.38
   0  -8  -3    2.18    0.77
   0  -8  -3    2.03    0.88
   0   8   3    2.36    0.73
   0  -8  -3    2.24    0.56
   0  -8  -2   22.50    0.94
   0  -8  -2   24.27    1.13
   0  -8  -2   23.11    1.27
   0   8   2   22.82    1.11
   0   8   1   57.89    1.97
   0  -8  -1   62.01    2.08
   0  -8  -1   55.70    1.77
   0  -8  -1   63.26    2.02
   0   8   0   33.34    1.36
   0  -8   0   31.03    1.12
   0   8   0   33.69    1.14
   0  -8   0   35.16    1.42
   0   8  -1    1.21    0.72
   0  -8   1    1.18    0.80
   0  -8   2    1.96    0.82
   0  -8   2    2.15    0.70
   0   8  -2    2.41    0.76
   0  -8   3   86.86    2.76
   0  -8   3   93.29    2.78
   0   8  -3   86.86    2.74
   0   8  -4  273.92    7.52
   0  -8   4  271.17    7.51
   0  -8   5  150.62    4.35
   0  -8   5  150.95    4.27
   0  -8   6   84.34    2.52
   0  -8   6   79.50    2.59
   0  -8   7   -1.10    0.75
   0   8  -7    0.41    0.75
   0  -8   7    0.26    0.71
   0  -8   8    0.29    0.68
   0  -8   8    0.27    0.76
   0   8  -8    0.20    0.76
   0   8  -9   12.02    1.00
   0  -8   9   12.16    0.88
   0   8  -9   10.90    0.82
   0  -8   9   11.77    0.98
   0   8 -10    0.60    0.71
   0  -8  10    1.43    0.30
   0   8 -10    1.52    0.84
   0  -8  10    1.77    0.76
   0  -8  10    1.67    0.84
   0  -8  11    2.75    0.90
   0  -8  11    2.15    0.80
   0  -8  12   13.57    1.09
   0  -8  12   11.43    0.99
   0  -8  12   12.10    0.82
   0  -8  13   14.23    1.10
   0  -8  13   15.82    1.18
   0  -8  14   -0.14    0.93
   0  -8  15    1.73    0.94
   0  -9  -8    2.63    0.98
   0  -9  -7    0.69    0.89
   0  -9  -6    2.83    0.67
   0  -9  -6    2.51    0.93
   0   9   6    4.09    0.84
   0  -9  -6    3.43    1.00
   0   9   5    2.56    0.82
   0  -9  -5    3.20    0.65
   0  -9  -5    3.50    0.90
   0  -9  -5    2.84    0.98
   0   9   4    6.10    0.86
   0  -9  -4    4.86    0.89
   0  -9  -4    7.35    0.68
   0  -9  -4    5.77    1.01
   0   9   3    5.98    0.85
   0  -9  -3    7.32    1.04
   0  -9  -3    6.59    0.64
   0  -9  -3    6.87    0.88
   0  -9  -2   38.85    1.39
   0   9   2   43.68    1.63
   0  -9  -2   43.81    1.64
   0  -9  -2   45.39    1.76
   0   9   1   14.10    1.01
   0  -9  -1   14.08    0.95
   0  -9  -1   10.92    0.70
   0  -9  -1   16.72    1.10
   0  -9  -1   13.55    1.10
   0   9   0    5.91    0.83
   0   9   0    5.05    0.78
   0  -9   0    3.67    0.55
   0  -9   0    5.65    0.95
   0   9  -1    4.65    0.82
   0  -9   1    4.43    0.94
   0  -9   2    5.10    0.80
   0   9  -2    5.41    0.84
   0  -9   2    5.71    0.94
   0  -9   3   21.93    1.17
   0   9  -3   18.55    1.14
   0  -9   3   19.84    1.21
   0  -9   4  352.11    9.57
   0   9  -4  343.92    9.56
   0  -9   4  351.55    9.57
   0  -9   5    6.42    0.88
   0  -9   5    7.68    0.81
   0   9  -5    6.69    0.93
   0  -9   6    6.92    0.85
   0  -9   6    4.38    0.75
   0  -9   7   26.59    1.21
   0  -9   7   27.83    1.31
   0  -9   8    2.08    0.79
   0   9  -8    3.72    0.89
   0  -9   8    4.11    0.85
   0   9  -9    5.35    0.95
   0  -9   9    6.05    0.94
   0   9  -9    4.98    0.72
   0  -9   9    6.96    0.81
   0  -9  10   11.01    1.06
   0  -9  10   11.48    0.92
   0   9 -10   12.33    1.06
   0   9 -10   11.19    0.90
   0   9 -11    1.30    0.74
   0  -9  11    1.74    0.82
   0  -9  11    0.82    0.89
   0  -9  12    0.27    0.89
   0  -9  12    1.13    0.81
   0   9 -12    0.14    0.81
   0  -9  13   16.45    1.20
   0   9 -13   17.01    1.12
   0   9 -14    2.71    0.96
   0  -9  14    1.87    0.98
   0 -10  -6   -0.39    0.94
   0  10   5   20.14    1.20
   0 -10  -5   21.24    1.31
   0 -10  -4   12.75    1.12
   0  10   4   13.75    1.08
   0 -10  -3    7.92    0.97
   0  10   3    8.42    0.99
   0 -10  -2    9.81    0.71
   0  10   2   10.79    1.01
   0 -10  -2   12.55    1.02
   0 -10  -1   16.13    1.18
   0 -10  -1   14.36    1.16
   0 -10  -1   14.45    0.78
   0 -10  -1   15.25    1.05
   0  10   1   13.49    1.06
   0 -10   0    0.69    0.94
   0 -10   0    1.02    0.79
   0  10   0    0.06    0.81
   0 -10   1   34.34    1.53
   0  10  -1   32.15    1.35
   0  10  -1   29.25    1.42
   0  10  -2    0.46    0.82
   0 -10   2    1.87    0.98
   0 -10   2    1.28    0.80
   0  10  -2    0.31    0.73
   0 -10   3    0.39    0.80
   0  10  -3   -0.69    0.82
   0 -10   3    0.12    0.96
   0  10  -3    0.29    0.74
   0  10  -4    1.26    0.87
   0 -10   4    1.67    0.83
   0 -10   4    1.71    0.93
   0  10  -4    1.40    0.73
   0 -10   5   16.84    1.01
   0 -10   5   16.89    1.12
   0  10  -5   17.24    1.15
   0 -10   5   15.71    1.14
   0 -10   6    5.15    0.80
   0  10  -6    4.90    0.93
   0 -10   6    4.39    0.88
   0 -10   7    2.70    0.78
   0 -10   8   -0.63    0.85
   0  10  -8    0.63    0.62
   0 -10   8    1.46    0.76
   0  10  -9    9.95    0.81
   0 -10   9    9.43    1.02
   0 -10   9   10.02    0.92
   0 -10  10    0.16    0.80
   0  10 -10    0.53    0.69
   0 -10  10    0.21    0.88
   0 -10  11    3.66    0.96
   0  10 -11    1.75    0.74
   0 -10  11    3.56    0.87
   0  10 -12   36.26    1.51
   0 -10  12   37.09    1.69
   0  10 -13    3.77    0.85
   0  10 -14    4.52    0.94
   0 -11  -4    4.58    1.00
   0 -11  -3   -0.03    0.87
   0 -11  -2   -0.56    0.83
   0 -11  -1    1.15    0.83
   0 -11   0    0.52    0.79
   0 -11   0    1.10    1.03
   0 -11   1   -0.55    1.01
   0 -11   2    2.80    1.05
   0  11  -2    2.69    0.80
   0  11  -3    1.60    0.79
   0 -11   3   -0.60    1.05
   0 -11   4    0.50    1.01
   0  11  -4    0.34    0.77
   0 -11   5    0.64    0.78
   0  11  -5    0.05    0.74
   0 -11   5    1.43    0.96
   0 -11   6    8.32    0.92
   0  11  -6   10.57    0.91
   0  11  -7   -0.23    0.59
   0 -11   7    0.10    0.74
   0 -11   8    5.31    0.98
   0 -11   8    5.33    0.88
   0  11  -8    5.12    0.70
   0  11  -9    2.31    0.69
   0 -11   9    2.51    0.96
   0 -11   9    2.75    0.84
   0 -11  10    6.59    1.06
   0 -12  -2    1.57    0.95
   0 -12  -1    7.21    1.00
   0 -12   0    0.19    0.86
   0 -12   1    0.89    0.87
   0 -12   1    2.30    1.07
   0 -12   2   -1.07    1.06
   0 -12   3    6.10    1.18
   0 -12   4   11.08    0.98
   0 -12   4   14.83    1.31
   0 -12   5    5.48    1.12
   1 -12   7    2.87    1.05
   1 -12   6   10.13    1.21
   1 -12   5   -0.53    1.04
   1 -12   4    1.55    1.06
   1 -12   3   11.53    1.19
   1 -12   2    6.21    1.11
   1 -12   1    1.15    0.99
   1 -12   0    1.17    1.03
   1 -12   0    0.16    0.87
   1 -12  -1    1.74    0.88
   1 -12  -1    1.24    1.00
   1 -12  -2   -0.42    0.92
   1 -11  10   43.94    1.83
   1 -11   9    0.35    0.85
   1 -11   9    1.31    0.90
   1 -11   8   -0.47    0.81
   1 -11   8    0.76    0.85
   1 -11   7    2.01    0.86
   1 -11   7    2.01    0.86
   1 -11   6   -0.40    0.95
   1 -11   6   -1.10    0.85
   1 -11   6   -0.13    0.84
  -1  11  -6    0.55    0.67
   1 -11   5   46.93    1.73
  -1  11  -5   45.67    1.81
  -1  11  -5   45.10    1.59
   1 -11   5   45.18    1.88
   1 -11   5   42.82    1.80
  -1  11  -4    5.52    0.93
  -1  11  -4    4.94    0.76
   1 -11   4    5.10    0.93
   1 -11   4    5.21    1.07
   1 -11   3    8.99    1.08
  -1  11  -3    7.29    0.79
  -1  11  -3    8.89    1.00
   1 -11   3    7.91    0.98
   1 -11   2    0.55    0.81
  -1  11  -2    1.02    0.87
  -1  11  -2    0.14    0.69
   1 -11   2    1.56    0.98
   1 -11   1   10.99    1.13
  -1  11  -1    9.90    1.02
  -1  11   0   15.68    1.11
   1 -11   0   15.59    1.18
   1 -11  -1   20.33    1.22
   1 -11  -1   21.55    1.34
  -1  11   1   20.59    1.23
  -1  11   2   14.12    1.10
   1 -11  -2   13.59    1.12
  -1  11   3    1.00    0.83
   1 -11  -3   -0.03    0.90
  -1  11   4    0.84    0.84
   1 -11  -4    1.38    0.93
   1 -11  -5    3.39    1.00
  -1  10 -14   16.26    1.11
  -1  10 -13    8.41    0.91
   1 -10  12    2.18    0.97
   1 -10  12    1.09    0.76
  -1  10 -12    0.92    0.74
   1 -10  11    0.07    0.89
   1 -10  11    1.70    0.87
  -1  10 -11   -0.44    0.67
   1 -10  10    5.70    0.89
   1 -10  10    4.54    0.91
  -1  10 -10    3.38    0.69
   1 -10   9    0.35    0.80
   1 -10   9    0.58    0.76
   1 -10   9    0.68    0.82
   1 -10   8    3.43    0.85
   1 -10   8    2.82    0.79
   1 -10   7   18.04    1.10
   1 -10   7   17.39    1.08
  -1  10  -7   18.54    1.19
   1 -10   6    1.53    0.85
  -1  10  -6    2.83    0.85
   1 -10   6    2.28    0.82
   1 -10   6    3.60    0.86
  -1  10  -5   53.23    1.93
   1 -10   5   51.88    1.92
   1 -10   5   51.32    1.86
   1 -10   5   53.25    1.98
   1 -10   4    4.88    1.00
  -1  10  -4    4.85    0.50
  -1  10  -4    4.82    0.88
   1 -10   4    4.01    0.89
   1 -10   3    3.62    0.94
  -1  10  -3    3.11    0.82
   1 -10   3    4.33    0.86
  -1  10  -2    0.51    0.44
  -1  10  -2   -0.75    0.81
   1 -10   2    0.27    0.87
   1 -10   2    0.49    0.77
   1 -10   1    6.38    0.96
  -1  10  -1    7.19    0.87
  -1  10  -1    5.90    0.50
   1 -10   0   18.06    1.16
  -1  10   0   15.42    1.07
   1 -10  -1    0.69    0.89
   1 -10  -1    0.38    0.86
  -1  10   1    0.72    0.80
   1 -10  -2    5.51    1.03
   1 -10  -2    3.73    0.48
   1 -10  -2    6.36    0.97
  -1  10   2    5.92    0.85
   1 -10  -2    5.07    0.89
  -1  10   3    5.27    0.83
   1 -10  -3    5.20    0.54
   1 -10  -3    6.82    0.95
   1 -10  -3    5.17    1.05
  -1  10   4    1.87    0.81
   1 -10  -4    1.45    0.92
  -1  10   5   50.41    1.86
   1 -10  -5   53.30    2.00
   1 -10  -6    1.39    0.96
   1  -9  14   26.80    1.45
   1  -9  13    4.86    0.98
   1  -9  12    2.03    0.74
   1  -9  12    2.16    0.92
   1  -9  12    0.81    0.85
   1  -9  11   31.56    1.51
   1  -9  11   33.12    1.46
  -1   9 -10    0.28    0.71
   1  -9  10    1.02    0.49
   1  -9  10    0.99    0.84
   1  -9  10    1.56    0.80
   1  -9   9    2.12    0.79
  -1   9  -9    2.76    0.87
   1  -9   9    4.25    0.72
   1  -9   9    2.73    0.82
   1  -9   8    7.97    0.90
   1  -9   8    5.96    0.80
   1  -9   8    7.62    0.88
   1  -9   7    1.70    0.74
   1  -9   7    1.84    0.77
   1  -9   6   94.38    2.89
  -1   9  -6   91.84    2.93
   1  -9   6   97.26    2.91
   1  -9   5    4.81    0.83
  -1   9  -5    4.69    0.82
   1  -9   5    5.70    0.88
  -1   9  -5    4.42    0.52
   1  -9   5    3.35    0.77
   1  -9   4    1.50    0.86
  -1   9  -4    2.13    0.48
   1  -9   4    1.25    0.78
  -1   9  -4    1.84    0.76
   1  -9   3   48.62    1.79
   1  -9   3   43.54    1.72
  -1   9  -3   48.52    1.74
   1  -9   2    1.81    0.86
   1  -9   2    1.06    0.74
  -1   9  -2    1.72    0.74
  -1   9  -1   16.71    1.01
   1  -9   1   16.01    1.07
   1  -9   1   15.87    1.00
  -1   9  -1   16.31    0.69
   1  -9   0   19.10    1.10
  -1   9   0   16.47    1.05
  -1   9   0   18.28    0.74
   1  -9  -1   95.06    2.91
   1  -9  -1  100.40    2.88
   1  -9  -1   87.47    2.56
  -1   9   1   93.74    2.83
  -1   9   2    9.92    0.88
   1  -9  -2   10.62    1.02
   1  -9  -2    9.64    0.94
   1  -9  -2    7.82    0.53
   1  -9  -2   10.72    0.96
  -1   9   3   48.11    1.72
   1  -9  -3   52.62    1.85
   1  -9  -3   53.07    1.89
   1  -9  -3   45.56    1.49
  -1   9   4    5.60    0.84
   1  -9  -4    6.48    0.92
   1  -9  -4    6.43    1.00
   1  -9  -4    5.92    0.56
   1  -9  -5   25.34    1.35
  -1   9   5   27.55    1.23
   1  -9  -5   24.40    1.00
   1  -9  -5   27.86    1.38
   1  -9  -6    1.05    0.95
  -1   9   6    1.50    0.74
   1  -9  -6    1.64    0.58
   1  -9  -6    1.01    0.90
   1  -9  -7   -0.03    0.90
   1  -9  -7    0.92    0.96
   1  -9  -8    0.39    0.91
   1  -9  -8    2.51    0.97
  -1   9   9   -1.92    0.94
   1  -8  15    1.25    0.97
   1  -8  14    6.08    1.04
   1  -8  13    0.43    0.88
   1  -8  13    0.36    0.63
   1  -8  13   -0.09    0.88
   1  -8  12    0.41    0.86
   1  -8  12   -0.73    0.89
   1  -8  12    0.45    0.66
  -1   8 -12    0.14    0.52
   1  -8  11   69.03    2.27
   1  -8  11   61.31    1.83
   1  -8  11   65.75    2.08
   1  -8  11   66.51    2.22
   1  -8  10    2.30    0.78
   1  -8  10    2.58    0.85
   1  -8  10    1.60    0.46
   1  -8   9   15.47    1.01
   1  -8   9   15.75    1.03
   1  -8   9   15.89    0.74
  -1   8  -8   51.41    1.85
   1  -8   8   48.43    1.79
   1  -8   8   51.20    1.80
   1  -8   7   90.98    2.77
   1  -8   6   16.31    0.96
  -1   8  -5    6.61    0.54
   1  -8   5    6.86    0.77
  -1   8  -5    6.06    0.79
  -1   8  -4   46.22    1.64
   1  -8   4   46.38    1.66
  -1   8  -4   44.39    1.40
   1  -8   3   78.70    2.46
  -1   8  -3   76.13    2.43
  -1   8  -3   78.70    2.22
  -1   8  -2  144.59    4.22
   1  -8   2  151.07    4.25
  -1   8  -1    6.83    0.79
   1  -8   1    8.95    0.89
  -1   8  -1    7.99    0.49
   1  -8   0   46.93    1.66
  -1   8   0   46.80    1.64
  -1   8   0   46.85    1.41
   1  -8  -1    0.83    0.74
  -1   8   1   -0.62    0.67
   1  -8  -1    0.37    0.37
   1  -8  -1   -1.02    0.77
   1  -8  -2   26.53    1.27
   1  -8  -2   24.55    0.90
   1  -8  -2   29.43    1.20
  -1   8   2   26.27    1.14
   1  -8  -3   12.12    1.01
   1  -8  -3   11.21    0.91
   1  -8  -3   11.50    0.62
  -1   8   3   13.27    0.88
   1  -8  -4    1.62    0.77
  -1   8   4    0.84    0.66
   1  -8  -4    0.30    0.47
   1  -8  -4    1.76    0.85
   1  -8  -5   22.52    0.93
  -1   8   5   22.28    1.06
   1  -8  -5   23.96    1.25
   1  -8  -5   25.68    1.25
   1  -8  -6   15.17    0.82
   1  -8  -6   16.61    1.07
   1  -8  -6   16.28    1.10
   1  -8  -6   15.40    1.10
  -1   8   6   16.27    0.92
   1  -8  -7    2.61    0.90
   1  -8  -7    3.74    0.69
  -1   8   7    3.44    0.69
   1  -8  -7    4.42    0.90
   1  -8  -7    3.19    0.92
  -1   8   8    4.25    0.71
   1  -8  -8    4.81    0.95
   1  -8  -8    4.74    0.93
   1  -8  -8    3.57    0.93
   1  -8  -9    3.93    0.98
  -1   8   9    4.81    0.92
   1  -8  -9    2.74    0.96
   1  -8  -9    5.06    0.92
  -1   8  10    9.09    1.00
   1  -8 -10   12.19    1.16
   1  -7  16    4.01    0.99
   1  -7  15    1.21    0.92
   1  -7  14    1.30    0.91
   1  -7  13   10.54    0.76
   1  -7  13   11.72    1.10
   1  -7  13   10.78    1.01
   1  -7  12    0.37    0.62
  -1   7 -12   -0.11    0.47
   1  -7  12   -0.48    0.85
   1  -7  12    0.71    0.84
   1  -7  12    0.51    0.28
   1  -7  11   49.04    1.63
   1  -7  11   50.53    1.83
   1  -7  11   50.84    1.81
   1  -7  11   47.09    1.42
  -1   7 -11   46.91    1.52
   1  -7  10    3.66    0.80
   1  -7  10    4.96    0.81
   1  -7  10    3.24    0.45
   1  -7  10    3.51    0.67
   1  -7   9  171.07    4.71
   1  -7   9  174.97    4.93
   1  -7   9  177.57    4.97
   1  -7   8   57.84    2.07
  -1   7  -8   66.86    2.11
   1  -7   8   61.88    2.04
   1  -7   7   28.03    1.20
   1  -7   6  174.22    4.88
   1  -7   5   95.90    2.74
  -1   7  -5   90.53    2.77
  -1   7  -5   90.16    2.61
  -1   7  -4   12.31    0.83
  -1   7  -4   13.27    0.61
  -1   7  -3  257.11    6.91
   1  -7   3  263.00    7.09
  -1   7  -3  258.77    7.08
  -1   7  -2   24.54    0.94
  -1   7  -2   25.58    0.84
   1  -7   2   25.49    1.13
  -1   7  -2   24.92    1.08
   1  -7   1  151.16    4.18
  -1   7  -1  144.84    4.07
  -1   7  -1  147.78    4.16
  -1   7   0  223.57    6.36
  -1   7   0  226.06    6.30
   1  -7   0  238.64    6.20
   1  -7   0  242.11    6.38
  -1   7   0  230.11    6.21
   1  -7  -1   67.42    1.91
  -1   7   1   66.45    2.10
   1  -7  -1   68.71    2.11
   1  -7  -2    4.44    0.72
   1  -7  -2    5.17    0.79
   1  -7  -2    4.33    0.44
  -1   7   2    4.41    0.64
  -1   7   3   39.28    1.35
   1  -7  -3   35.31    1.19
   1  -7  -3   41.35    1.39
   1  -7  -3   36.94    1.47
   1  -7  -4    0.69    0.68
  -1   7   4    1.43    0.57
   1  -7  -4    0.13    0.76
   1  -7  -4    0.05    0.71
   1  -7  -4    0.72    0.46
   1  -7  -5   20.46    1.11
  -1   7   5   19.33    0.94
   1  -7  -5   19.72    1.09
   1  -7  -5   20.57    1.05
   1  -7  -6   54.77    1.89
   1  -7  -6   53.29    1.90
  -1   7   6   55.39    1.78
   1  -7  -6   54.29    1.96
  -1   7   7   40.46    1.45
   1  -7  -7   40.98    1.65
   1  -7  -7   40.59    1.58
   1  -7  -7   42.55    1.63
   1  -7  -8    7.53    0.90
   1  -7  -8    6.04    0.91
  -1   7   8    8.16    0.72
   1  -7  -8    9.06    1.02
   1  -7  -9    8.27    0.91
   1  -7  -9   10.26    1.02
   1  -7  -9    8.26    1.06
  -1   7   9    8.04    0.89
   1  -7  -9    7.93    1.01
  -1   7   9    7.76    0.74
   1  -7 -10    5.77    0.86
   1  -7 -10    5.05    0.96
  -1   7  10    4.22    0.84
   1  -7 -10    3.72    0.99
   1  -7 -11    1.35    0.94
   1  -7 -11    0.78    0.99
   1  -6  17   -0.07    0.92
  -1   6 -16    0.38    1.01
   1  -6  16    0.10    0.88
   1  -6  15    0.41    0.86
  -1   6 -15    2.30    1.02
  -1   6 -14    3.81    1.02
   1  -6  14    4.00    0.90
  -1   6 -13    0.50    0.90
   1  -6  13    0.24    0.86
   1  -6  13   -0.37    0.81
   1  -6  12  115.24    3.27
   1  -6  12  118.05    3.31
  -1   6 -12  114.88    3.27
   1  -6  12  103.06    2.87
  -1   6 -12   99.64    2.84
   1  -6  12  109.29    3.04
  -1   6 -11   12.45    1.03
   1  -6  11   12.43    0.57
  -1   6 -11   12.68    0.61
   1  -6  11   10.92    0.99
   1  -6  11   11.47    0.99
   1  -6  11   11.31    0.77
   1  -6  10   50.86    1.54
   1  -6  10   52.26    1.86
   1  -6  10   51.27    1.85
  -1   6 -10   54.88    1.60
   1  -6  10   52.51    1.69
   1  -6   9    4.15    0.50
   1  -6   9    4.44    0.62
   1  -6   9    4.48    0.76
   1  -6   9    4.12    0.45
   1  -6   8    5.69    0.72
   1  -6   8    4.75    0.46
   1  -6   8    5.37    0.53
   1  -6   7   -0.15    0.45
  -1   6  -7   -0.10    0.65
   1  -6   7    0.29    0.62
   1  -6   6    3.19    0.61
   1  -6   6    3.06    0.51
   1  -6   5    0.90    0.51
   1  -6   5    0.75    0.59
  -1   6  -4    2.18    0.60
  -1   6  -4    1.38    0.42
   1  -6   4    1.67    0.54
  -1   6  -3  193.06    5.20
  -1   6  -3  196.17    5.35
  -1   6  -2  251.07    6.92
   1  -6   2  264.05    6.94
  -1   6  -2  253.40    6.78
  -1   6  -1  201.37    5.60
  -1   6  -1  205.71    5.53
   1  -6   1  206.06    5.61
   1  -6   0   15.72    0.85
   1  -6   0   16.70    0.58
  -1   6   0   15.65    0.80
  -1   6   0   16.46    0.60
  -1   6   0   15.18    0.74
  -1   6   1    0.01    0.55
   1  -6  -1    0.62    0.58
   1  -6  -1    0.39    0.31
  -1   6   1    0.06    0.34
   1  -6  -2    0.76    0.59
  -1   6   2    0.54    0.52
   1  -6  -2    0.80    0.36
   1  -6  -2    0.59    0.64
   1  -6  -3   21.41    0.80
   1  -6  -3   22.52    0.95
   1  -6  -3   22.87    0.96
   1  -6  -3   21.62    1.04
  -1   6   3   22.03    0.90
   1  -6  -4    0.82    0.63
   1  -6  -4    0.81    0.68
  -1   6   4    1.00    0.54
   1  -6  -5  161.48    4.38
   1  -6  -5  152.81    4.38
  -1   6   5  150.98    4.28
   1  -6  -6    5.00    0.78
   1  -6  -6    4.47    0.75
   1  -6  -6    5.21    0.81
  -1   6   6    5.53    0.62
   1  -6  -7   10.07    0.87
   1  -6  -7    9.18    0.70
   1  -6  -7    9.10    0.85
  -1   6   7    9.13    0.67
   1  -6  -7    9.61    0.90
   1  -6  -8    8.34    0.92
  -1   6   8    7.06    0.66
   1  -6  -8    8.06    0.83
   1  -6  -8    7.75    0.85
   1  -6  -8    7.44    0.74
   1  -6  -9    0.92    0.72
   1  -6  -9   -0.78    0.86
   1  -6  -9    0.73    0.76
  -1   6   9    0.55    0.71
   1  -6  -9    0.57    0.69
  -1   6   9    1.28    0.58
   1  -6  -9    0.68    0.86
   1  -6 -10    0.98    0.85
   1  -6 -10    1.54    0.72
  -1   6  10    1.71    0.58
   1  -6 -10    1.83    0.93
  -1   6  10   -0.06    0.71
   1  -6 -10    1.29    0.90
   1  -6 -10    0.73    0.74
   1  -6 -11   -0.28    0.86
   1  -6 -11   -0.27    0.93
   1  -6 -11    0.64    0.72
   1  -6 -11    0.12    0.93
  -1   6  11    0.49    0.69
   1  -6 -12   10.69    1.14
   1  -6 -12   12.08    1.13
   1  -5  17    2.16    0.88
  -1   5 -16    4.91    1.12
   1  -5  16    5.41    0.95
   1  -5  15   10.74    1.02
  -1   5 -15   11.74    1.15
  -1   5 -14    5.14    1.06
   1  -5  14    6.61    1.03
   1  -5  14    4.74    0.87
  -1   5 -13   21.05    1.27
   1  -5  13   21.01    1.23
   1  -5  13   19.19    1.15
   1  -5  12    0.91    0.86
  -1   5 -12    0.34    0.92
   1  -5  12    1.22    0.77
   1  -5  11  149.12    4.08
   1  -5  11  154.89    4.39
  -1   5 -11  148.51    4.36
   1  -5  11  149.78    4.34
   1  -5  10   57.49    1.81
   1  -5  10   59.44    1.72
   1  -5  10   60.57    2.00
  -1   5 -10   59.80    2.01
  -1   5 -10   57.96    1.67
  -1   5  -9   41.57    1.52
   1  -5   9   37.88    1.32
   1  -5   9   39.83    1.48
   1  -5   9   40.23    1.22
  -1   5  -9   39.59    1.22
   1  -5   8  105.96    3.03
   1  -5   8  104.71    2.97
   1  -5   8  107.12    2.94
  -1   5  -8  106.09    3.13
   1  -5   8  109.98    3.14
   1  -5   7  139.17    3.79
   1  -5   7  136.50    3.75
   1  -5   7  137.54    3.89
   1  -5   6   13.54    0.77
   1  -5   6   13.10    0.67
   1  -5   5  351.10    9.37
   1  -5   5  350.24    9.41
   1  -5   4  893.53   23.58
   1  -5   4  892.28   23.56
  -1   5  -3    1.78    0.37
   1  -5   3    2.28    0.48
  -1   5  -3    2.19    0.53
  -1   5  -2   90.55    2.47
  -1   5  -2   91.30    2.61
   1  -5   2   91.73    2.61
   1  -5   2   89.46    2.59
   1  -5   1   56.34    1.68
  -1   5  -1   54.27    1.57
   1  -5   1   51.56    1.65
  -1   5  -1   54.10    1.50
  -1   5  -1   53.69    1.67
   1  -5   0   27.81    0.81
  -1   5   0   26.98    1.00
  -1   5   0   26.60    0.94
   1  -5   0   27.09    1.03
  -1   5   0   27.06    0.82
  -1   5   1  324.19    8.69
   1  -5  -1  325.22    8.68
   1  -5  -1  324.84    8.58
  -1   5   2   39.56    1.30
   1  -5  -2   42.09    1.32
   1  -5  -2   41.75    1.33
   1  -5  -2   40.81    1.21
   1  -5  -2   39.99    1.39
   1  -5  -3   88.69    2.53
  -1   5   3   85.42    2.50
   1  -5  -3   84.14    2.57
   1  -5  -3   91.09    2.51
  -1   5   4   10.37    0.63
   1  -5  -4   12.50    0.59
   1  -5  -4   10.77    0.77
   1  -5  -4   11.41    0.73
  -1   5   5   80.37    2.36
   1  -5  -5   82.84    2.46
   1  -5  -5   83.93    2.38
   1  -5  -5   82.53    2.47
   1  -5  -6   61.03    1.81
  -1   5   6   57.22    1.77
   1  -5  -6   57.78    1.86
   1  -5  -6   57.90    1.90
   1  -5  -7    8.28    0.73
  -1   5   7    7.70    0.59
   1  -5  -7    8.93    0.72
   1  -5  -7    8.12    0.85
   1  -5  -8   -0.20    0.76
  -1   5   8   -0.26    0.50
   1  -5  -8    0.09    0.64
  -1   5   8   -0.45    0.62
   1  -5  -8   -0.52    0.68
   1  -5  -9   68.92    2.20
   1  -5  -9   73.72    2.27
  -1   5   9   72.32    2.22
   1  -5  -9   71.96    2.37
  -1   5   9   71.11    2.12
   1  -5  -9   71.12    2.35
   1  -5 -10   12.32    1.05
  -1   5  10   11.48    0.73
   1  -5 -10   13.35    1.04
  -1   5  10   11.17    0.80
   1  -5 -10   11.98    0.81
   1  -5 -10   13.57    0.95
   1  -5 -11    0.72    0.62
   1  -5 -11    1.69    0.80
   1  -5 -11    2.40    0.93
  -1   5  11    1.23    0.62
   1  -5 -11    1.29    0.86
  -1   5  11    0.79    0.54
   1  -5 -12    1.00    0.88
   1  -5 -12    1.24    0.82
   1  -5 -12   -0.31    0.95
   1  -5 -13   -0.74    0.99
  -1   4 -16    0.24    1.01
   1  -4  16   -0.15    0.80
   1  -4  15    1.19    0.79
  -1   4 -15    1.73    1.01
   1  -4  14    0.91    0.90
   1  -4  14    0.88    0.79
  -1   4 -14   -0.50    0.96
  -1   4 -13   21.86    1.27
   1  -4  13   26.22    1.34
   1  -4  13   24.51    1.22
   1  -4  12    0.46    0.84
   1  -4  12   -0.38    0.74
  -1   4 -12   -0.18    0.88
   1  -4  11    0.25    0.79
  -1   4 -11   -0.51    0.83
   1  -4  10    0.27    0.74
  -1   4 -10    0.91    0.78
   1  -4  10    0.78    0.44
  -1   4  -9  104.89    2.99
   1  -4   9  116.69    3.09
   1  -4   9  116.52    3.14
  -1   4  -9  116.45    3.29
   1  -4   9  120.57    3.31
   1  -4   8   15.98    0.76
  -1   4  -8   17.95    0.95
   1  -4   8   17.45    0.68
   1  -4   8   18.56    0.93
  -1   4  -8   17.48    0.63
   1  -4   8   17.46    0.62
   1  -4   7   80.10    2.23
   1  -4   7   78.87    2.22
   1  -4   7   80.09    2.40
   1  -4   7   77.42    2.29
  -1   4  -7   83.04    2.40
   1  -4   6   53.85    1.59
  -1   4  -6   58.52    1.75
   1  -4   6   54.84    1.72
   1  -4   6   54.71    1.60
   1  -4   5  136.00    3.81
   1  -4   5  136.21    3.73
   1  -4   5  139.14    3.82
   1  -4   4   57.75    1.71
   1  -4   4   53.79    1.64
   1  -4   3  231.34    6.10
   1  -4   3  231.49    6.11
  -1   4  -3  216.36    6.11
   1  -4   2  225.05    6.04
  -1   4  -2  222.63    6.03
  -1   4  -1  252.13    6.72
   1  -4   1  254.83    6.85
  -1   4  -1  259.70    6.84
   1  -4   1  259.89    6.83
   1  -4   0  229.34    5.94
  -1   4   0  214.04    5.94
   1  -4   0  239.91    6.05
  -1   4   0  229.34    6.05
  -1   4   0  228.17    6.00
   1  -4  -1  326.22    8.66
   1  -4  -1  335.71    8.75
  -1   4   1  324.68    8.74
   1  -4  -1  330.54    8.72
   1  -4  -2   76.47    2.14
  -1   4   2   73.41    2.12
   1  -4  -2   76.32    2.12
   1  -4  -2   72.44    2.20
   1  -4  -3  116.28    3.21
   1  -4  -3  105.45    3.23
  -1   4   3  112.20    3.16
   1  -4  -3  119.56    3.24
   1  -4  -3  118.33    3.16
   1  -4  -3  116.90    3.14
   1  -4  -4   68.83    1.97
  -1   4   4   67.94    1.95
   1  -4  -4   68.00    2.04
   1  -4  -5  110.31    3.07
  -1   4   5  108.92    3.03
   1  -4  -5  109.62    3.10
   1  -4  -6   21.18    0.88
  -1   4   6   21.30    0.80
   1  -4  -6   21.48    0.91
  -1   4   7   -0.08    0.45
  -1   4   7    0.18    0.55
   1  -4  -7   -0.18    0.58
   1  -4  -7    0.13    0.55
   1  -4  -8   23.63    1.05
  -1   4   8   22.35    0.96
   1  -4  -8   22.22    0.96
  -1   4   8   22.56    0.88
  -1   4   9   14.29    0.77
  -1   4   9   12.85    0.69
   1  -4  -9   14.67    0.97
   1  -4  -9   11.72    0.76
   1  -4  -9   13.13    0.90
   1  -4 -10    0.98    0.74
   1  -4 -10    0.38    0.59
  -1   4  10   -0.29    0.57
   1  -4 -10    0.16    0.80
  -1   4  10   -0.25    0.51
   1  -4 -11   17.78    1.05
   1  -4 -11   16.73    1.08
  -1   4  11   15.71    0.79
   1  -4 -11   15.79    0.80
  -1   4  11   16.04    0.79
   1  -4 -12    4.16    0.88
   1  -4 -12    4.07    0.84
   1  -4 -13   -0.59    0.94
   1  -4 -13    1.63    0.86
  -1   3 -16    4.12    1.11
   1  -3  16    5.81    0.87
  -1   3 -15   -1.06    1.03
   1  -3  15    0.35    0.78
  -1   3 -14   -0.80    0.99
   1  -3  14    0.13    0.76
   1  -3  14    2.09    0.94
  -1   3 -13   -0.52    0.95
   1  -3  13    1.57    0.91
   1  -3  13   -0.09    0.71
   1  -3  12    1.85    0.71
   1  -3  12    1.09    0.88
  -1   3 -12   -0.53    0.95
  -1   3 -11  241.91    6.76
   1  -3  11  243.08    6.78
   1  -3  10   35.75    1.44
  -1   3 -10   37.38    1.47
   1  -3  10   37.35    1.23
  -1   3  -9    0.70    0.70
   1  -3   9    1.01    0.64
   1  -3   9    0.76    0.43
   1  -3   8   14.44    0.85
   1  -3   8   13.22    0.62
  -1   3  -8   14.19    0.84
   1  -3   7    0.22    0.56
   1  -3   7    0.87    0.23
   1  -3   7    0.56    0.43
  -1   3  -7    0.75    0.57
   1  -3   7    0.55    0.38
  -1   3  -7    0.71    0.22
   1  -3   6  115.81    3.22
   1  -3   6  116.57    3.19
  -1   3  -6  112.44    3.29
   1  -3   6  115.01    3.28
   1  -3   6  116.85    3.15
  -1   3  -6  119.26    3.15
   1  -3   6  118.04    3.31
   1  -3   5  313.57    8.29
   1  -3   5  315.16    8.38
   1  -3   5  303.62    8.37
   1  -3   5  312.03    8.27
   1  -3   5  316.35    8.33
   1  -3   4    0.71    0.51
   1  -3   4    0.63    0.39
   1  -3   4    0.31    0.51
   1  -3   3  545.17   14.42
  -1   3  -2  213.96    5.74
  -1   3  -1 1141.44   29.62
   1  -3   1 1112.57   29.62
  -1   3   0  872.50   22.91
   1  -3   0  894.99   22.91
  -1   3   0  855.62   22.87
   1  -3  -1  922.16   24.00
   1  -3  -1  922.56   23.99
  -1   3   1  893.01   23.99
   1  -3  -2  891.82   23.17
   1  -3  -2  871.41   23.15
  -1   3   2  882.81   23.17
  -1   3   3   62.01    1.74
  -1   3   4   38.27    1.15
   1  -3  -4   38.86    1.26
   1  -3  -5    1.54    0.51
  -1   3   5    2.26    0.37
  -1   3   6  273.73    7.41
   1  -3  -6  278.34    7.40
  -1   3   6  276.45    7.36
  -1   3   7    5.64    0.45
   1  -3  -7    5.88    0.54
  -1   3   7    5.84    0.54
  -1   3   8   97.68    2.90
  -1   3   8   95.60    2.67
   1  -3  -8   94.47    2.69
  -1   3   8   94.88    2.70
  -1   3   9  146.09    3.97
   1  -3  -9  143.08    3.97
  -1   3   9  143.08    3.98
   1  -3  -9  146.28    4.11
  -1   3   9  145.25    4.21
   1  -3 -10   23.75    0.89
  -1   3  10   23.31    1.21
   1  -3 -10   23.24    1.12
  -1   3  10   23.71    0.92
  -1   3  10   22.23    0.89
   1  -3 -10   24.53    1.23
   1  -3 -11   30.41    1.40
   1  -3 -11   27.90    1.28
  -1   3  11   28.93    1.04
   1  -3 -11   27.27    1.23
  -1   3  11   29.46    1.40
   1  -3 -11   27.06    0.98
   1  -3 -12    1.67    0.92
   1  -3 -12    1.01    0.79
   1  -3 -12    0.17    0.76
  -1   3  12    1.79    0.91
  -1   3  12    0.45    0.52
   1  -3 -13    2.59    0.79
   1  -3 -13    3.90    0.91
   1  -3 -13    2.68    1.02
   1  -3 -14    1.09    1.00
   1  -3 -14    0.49    0.80
   1  -2  16    0.76    0.74
  -1   2 -15    1.36    1.03
   1  -2  15    0.03    0.73
  -1   2 -14    2.06    0.96
   1  -2  14    1.80    0.76
   1  -2  14    0.63    0.90
  -1   2 -14   -0.03    0.59
   1  -2  13   39.75    1.69
  -1   2 -13   40.08    1.39
  -1   2 -13   38.70    1.65
   1  -2  13   40.61    1.52
   1  -2  12    8.21    0.96
  -1   2 -12    7.09    0.95
  -1   2 -12    8.97    0.69
   1  -2  11   11.44    1.00
  -1   2 -11   13.98    0.75
  -1   2 -11   14.33    0.98
  -1   2 -10   61.42    1.87
   1  -2  10   64.43    2.08
  -1   2 -10   62.33    2.05
   1  -2   9    6.12    0.74
   1  -2   9    6.10    0.55
  -1   2  -9    5.77    0.53
   1  -2   8   23.04    1.07
  -1   2  -8   25.29    0.90
   1  -2   8   23.38    0.90
   1  -2   7  305.90    8.18
  -1   2  -7  304.53    8.07
   1  -2   7  298.56    8.07
   1  -2   6  351.72    8.21
   1  -2   6  360.51    8.31
  -1   2  -6  360.66    8.20
   1  -2   5    1.03    0.40
   1  -2   5    1.05    0.55
   1  -2   5    1.42    0.42
  -1   2  -5    1.73    0.40
   1  -2   5    1.59    0.24
   1  -2   4   89.61    2.51
  -1   2  -4   93.79    2.46
   1  -2   4   88.27    2.53
   1  -2   3    6.21    0.49
   1  -2   3    5.30    0.42
  -1   2  -3    6.67    0.39
  -1   2  -2   22.38    0.76
  -1   2  -1 5637.44  147.70
  -1   2   0 1409.15   37.18
   1  -2   0 1426.11   37.18
   1  -2  -1 2764.15   72.19
  -1   2   1 2745.53   72.19
   1  -2  -2  513.65   13.26
  -1   2   2  495.67   13.26
  -1   2   3  432.41   11.54
  -1   2   3  438.25   11.48
  -1   2   4  649.11   17.11
  -1   2   4  638.03   17.17
  -1   2   4  653.12   17.06
  -1   2   5   36.14    1.24
  -1   2   5   35.97    1.13
  -1   2   6   10.52    0.53
  -1   2   6    9.16    0.67
   1  -2  -6    8.42    0.53
  -1   2   7   16.72    0.69
   1  -2  -7   17.81    0.69
  -1   2   7   16.68    0.89
  -1   2   8  138.44    3.94
  -1   2   8  133.71    3.73
   1  -2  -8  139.86    3.73
   1  -2  -9   -0.97    0.42
  -1   2   9    0.68    0.72
   1  -2  -9   -0.41    0.70
   1  -2  -9   -0.36    0.61
   1  -2 -10  160.07    4.58
   1  -2 -10  157.73    4.27
   1  -2 -10  156.75    4.43
  -1   2  10  162.56    4.58
   1  -2 -11   22.54    1.05
   1  -2 -11   22.08    0.74
  -1   2  11   25.14    1.26
   1  -2 -11   25.08    1.27
   1  -2 -12    8.33    0.80
   1  -2 -12    6.45    1.02
  -1   2  12    8.10    0.99
   1  -2 -12    8.04    0.56
   1  -2 -13    1.19    0.71
   1  -2 -13    0.82    0.43
  -1   2  13    0.90    0.93
   1  -2 -13    0.43    0.95
   1  -2 -14    2.09    0.72
   1  -2 -14    1.83    1.03
   1  -2 -15    2.61    1.06
  -1   1 -15    5.74    1.00
   1  -1  15    6.05    0.81
   1  -1  14    1.66    0.75
  -1   1 -14    2.88    0.70
  -1   1 -14    1.30    0.89
  -1   1 -13    0.28    0.67
   1  -1  13    1.80    0.76
   1  -1  13    2.00    0.88
  -1   1 -13    0.56    0.85
   1  -1  12   74.58    2.44
  -1   1 -12   71.41    2.21
  -1   1 -12   70.51    2.13
  -1   1 -11   44.21    1.42
  -1   1 -11   42.00    1.46
   1  -1  11   42.96    1.67
   1  -1  10   18.50    1.06
  -1   1 -10   18.35    0.82
  -1   1 -10   18.41    0.86
  -1   1  -9   10.82    0.65
  -1   1  -9   10.50    0.68
   1  -1   9   10.25    0.86
  -1   1  -8   42.35    1.35
  -1   1  -8   42.90    1.38
   1  -1   7   15.29    0.73
  -1   1  -7   16.02    0.73
  -1   1  -7   14.66    0.70
  -1   1  -6  202.71    5.43
  -1   1  -6  201.51    5.41
   1  -1   6  199.41    5.43
  -1   1  -5  265.47    7.07
   1  -1   5  258.33    7.07
  -1   1  -5  270.65    7.07
  -1   1  -4  290.26    7.51
   1  -1   4  277.29    7.43
  -1   1  -4  294.40    7.51
   1  -1   4  277.69    7.51
   1  -1   3   72.36    2.08
  -1   1  -3   79.08    2.09
  -1   1  -3   75.65    2.09
   1  -1   3   73.95    2.02
  -1   1  -2  225.98    6.12
  -1   1  -2  234.15    6.11
   1  -1   2  231.83    6.11
   1  -1   2  229.75    6.08
   1  -1   2  227.98    6.11
   1  -1   1   78.01    2.28
   1  -1   1   83.37    2.27
  -1   1  -1   89.04    2.26
  -1   1  -1   84.60    2.28
  -1   1   1 1393.00   36.54
  -1   1   2 3599.50   94.44
   1  -1  -2 3608.32   94.44
  -1   1   3   10.06    0.51
   1  -1  -3    9.62    0.57
  -1   1   3    9.95    0.57
   1  -1  -3    9.93    0.45
  -1   1   4    0.09    0.49
  -1   1   4    0.45    0.36
   1  -1  -4   -0.20    0.50
  -1   1   5   63.74    1.95
   1  -1  -5   67.91    1.97
  -1   1   6   54.93    1.75
   1  -1  -6   57.49    1.76
   1  -1  -7  141.26    3.86
  -1   1   7  132.29    3.84
   1  -1  -8   29.35    1.05
   1  -1  -8   29.56    1.19
   1  -1  -8   29.37    0.89
  -1   1   8   28.36    1.16
   1  -1  -9   59.63    1.68
  -1   1   9   61.81    1.79
   1  -1  -9   61.54    1.84
  -1   1   9   60.79    2.00
   1  -1  -9   62.26    2.02
  -1   1  10    4.07    0.80
   1  -1 -10    5.00    0.60
   1  -1 -10    4.76    0.85
   1  -1 -10    5.85    0.42
  -1   1  10    4.98    0.53
   1  -1 -10    5.01    0.28
  -1   1  11   47.98    1.74
   1  -1 -11   47.69    1.52
   1  -1 -11   45.05    1.35
   1  -1 -11   45.12    1.76
  -1   1  11   45.96    1.46
   1  -1 -12   49.17    1.63
  -1   1  12   51.70    1.88
   1  -1 -12   48.61    1.42
   1  -1 -12   51.43    1.88
   1  -1 -13    1.01    0.64
  -1   1  13    1.05    0.91
   1  -1 -13   -0.61    0.93
   1  -1 -14   -0.13    1.00
   1  -1 -14    0.47    0.65
   1  -1 -15   -0.44    1.00
   1   0  15    0.83    0.72
  -1   0 -14   18.91    1.06
   1   0  14   20.66    1.08
  -1   0 -13    6.98    0.97
   1   0  13    7.78    1.05
  -1   0 -13    7.05    0.80
  -1   0 -13    7.67    0.69
   1   0  12    2.76    0.93
  -1   0 -12    3.72    0.63
  -1   0 -12    2.55    0.87
  -1   0 -12    3.14    0.72
  -1   0 -11   59.17    1.82
  -1   0 -11   58.27    1.89
  -1   0 -11   55.72    1.99
  -1   0 -10   69.24    2.13
  -1   0 -10   68.97    2.08
  -1   0  -9   44.15    1.42
  -1   0  -9   42.84    1.46
  -1   0  -8   23.64    0.94
  -1   0  -8   24.02    0.97
  -1   0  -7  111.76    3.15
   1   0   6  243.76    6.52
  -1   0  -6  257.27    6.65
  -1   0  -6  246.30    6.69
   1   0   5   62.15    1.85
  -1   0  -5   64.04    1.85
  -1   0  -5   60.94    1.87
   1   0   4  130.46    3.73
   1   0   4  137.28    3.64
  -1   0  -4  134.49    3.75
  -1   0  -4  140.41    3.72
  -1   0  -3  512.93   13.42
   1   0   3  497.12   13.42
  -1   0  -3  514.39   13.43
  -1   0  -2 9990.99  261.81
   1   0   2 9999.00  261.82
  -1   0  -1  409.08   10.59
   1   0   1  391.27   10.59
  -1   0  -1  406.96   10.60
  -1   0   0   75.63    2.06
   1   0  -1 1395.24   36.26
  -1   0   1 1365.15   36.28
  -1   0   2  927.27   24.26
   1   0  -2  925.63   24.24
  -1   0   2  926.33   24.25
   1   0  -2  917.83   24.26
   1   0  -3 2154.71   56.45
  -1   0   3 2142.81   56.45
  -1   0   3 2142.20   56.41
   1   0  -3 2165.80   56.40
  -1   0   4  846.03   22.44
   1   0  -4  865.01   22.44
  -1   0   4  849.00   22.38
  -1   0   5   45.38    1.42
   1   0  -5   45.01    1.42
  -1   0   5   44.25    1.31
   1   0  -5   47.56    1.30
   1   0  -6   89.58    2.35
   1   0  -6   85.42    2.49
  -1   0   6   85.04    2.49
  -1   0   6   83.10    2.38
  -1   0   7   30.19    1.10
   1   0  -7   27.77    0.81
   1   0  -7   28.99    1.12
   1   0  -7   33.01    0.95
  -1   0   7   29.69    0.95
   1   0  -8   34.96    1.01
   1   0  -8   39.68    1.35
  -1   0   8   37.19    1.15
   1   0  -8   37.71    1.14
  -1   0   8   37.82    1.34
  -1   0   9  241.96    6.01
  -1   0   9  230.41    5.83
   1   0  -9  242.93    6.00
   1   0  -9  234.58    5.81
   1   0 -10  231.68    6.43
  -1   0  10  229.47    6.27
   1   0 -10  231.68    6.25
  -1   0  10  238.38    6.45
  -1   0  11    0.39    0.76
   1   0 -11    0.42    0.50
   1   0 -11    0.16    0.79
  -1   0  11    0.05    0.46
   1   0 -12   14.18    0.72
   1   0 -12   11.75    1.05
  -1   0  12   12.19    1.04
  -1   0  13    5.13    0.94
   1   0 -13    4.94    0.95
   1   0 -13    5.03    0.59
   1   0 -14    9.82    1.12
   1   0 -14    9.56    0.68
  -1   0  14    9.35    1.05
   1   0 -15    2.26    1.01
   1   0 -16   13.16    1.22
  -1  -1 -14    0.87    0.80
  -1  -1 -13    1.46    0.76
  -1  -1 -13    1.03    0.66
  -1  -1 -13    1.73    0.91
  -1  -1 -12    0.55    0.86
  -1  -1 -12    0.41    0.75
  -1  -1 -12    0.18    0.63
  -1  -1 -11   10.72    0.89
  -1  -1 -11   11.19    0.97
  -1  -1 -11   10.73    0.86
  -1  -1 -11   11.77    0.79
  -1  -1 -10    0.40    0.69
  -1  -1 -10    1.06    0.69
  -1  -1 -10    0.02    0.75
   1   1  10    0.43    0.15
  -1  -1  -9   25.73    1.20
  -1  -1  -9   28.61    1.16
  -1  -1  -8   29.70    1.16
  -1  -1  -8   28.81    1.22
  -1  -1  -7   50.24    1.63
  -1  -1  -7   49.64    1.66
   1   1   6  449.96   12.69
  -1  -1  -6  489.47   12.68
   1   1   6  479.74   12.56
  -1  -1  -6  477.31   12.69
  -1  -1  -5  436.94   11.27
   1   1   5  426.86   11.29
  -1  -1  -5  418.34   11.28
  -1  -1  -5  419.47   11.28
   1   1   5  417.67   11.18
   1   1   4  812.06   21.23
   1   1   4  800.15   21.16
  -1  -1  -4  784.44   21.22
  -1  -1  -4  822.71   21.22
  -1  -1  -3 3815.12  100.79
   1   1   3 3866.14  100.79
   1   1   3 3839.89  100.76
   1   1   3 3856.29  100.80
   1   1   2 1802.15   47.07
   1   1   2 1784.44   47.06
   1   1   2 1791.65   47.05
  -1  -1  -2 1795.65   47.06
  -1  -1  -1  390.83   10.34
   1   1   1  392.85   10.34
   1   1   0  409.08   10.80
  -1  -1   0  410.68   10.79
  -1  -1   0  408.04   10.75
   1   1  -1 2809.77   73.11
  -1  -1   1 2789.95   73.11
  -1  -1   1 2760.55   73.13
   1   1  -2 2249.62   59.18
   1   1  -2 2266.98   59.14
   1   1  -2 2270.94   59.14
  -1  -1   2 2250.90   59.14
  -1  -1   2 2220.32   59.18
  -1  -1   2 2258.43   59.14
   1   1  -3  297.32    7.90
  -1  -1   3  298.81    7.91
  -1  -1   3  295.57    7.89
   1   1  -3  301.98    7.89
  -1  -1   4   80.20    2.26
   1   1  -4   80.57    2.25
   1   1  -4   82.63    2.24
  -1  -1   4   80.19    2.24
  -1  -1   5   22.25    0.79
   1   1  -5   22.39    0.85
   1   1  -5   22.49    0.78
  -1  -1   5   23.23    0.84
   1   1  -6  860.51   22.82
   1   1  -6  879.76   22.95
  -1  -1   6  911.85   22.97
  -1  -1   6  863.52   22.90
   1   1  -7   55.96    1.54
  -1  -1   7   57.30    1.76
   1   1  -7   56.41    1.74
  -1  -1   7   54.98    1.65
  -1  -1   8    0.33    0.58
   1   1  -8    0.18    0.27
   1   1  -8    0.18    0.62
   1   1  -8    0.29    0.23
  -1  -1   8    0.43    0.45
   1   1  -8    1.12    0.21
   1   1  -9  119.86    2.96
  -1  -1   9  121.54    3.07
   1   1  -9  119.66    3.19
  -1  -1   9  120.54    3.20
   1   1 -10   20.41    1.06
  -1  -1  10   20.39    1.09
  -1  -1  10   22.84    0.89
   1   1 -10   22.77    0.77
   1   1 -11   15.49    1.04
   1   1 -11   16.89    0.67
  -1  -1  11   17.62    1.04
   1   1 -12    4.51    0.47
  -1  -1  12    5.43    0.88
   1   1 -12    5.04    0.90
   1   1 -13   39.61    1.66
  -1  -1  13   40.39    1.67
   1   1 -13   41.50    1.28
   1   1 -14    2.42    0.45
  -1  -1  14    2.82    0.91
   1   1 -14    3.72    0.94
   1   1 -15    2.42    0.99
   1   1 -16    2.19    1.05
  -1  -2 -14    4.25    1.05
  -1  -2 -14    4.51    0.96
  -1  -2 -14    5.59    0.88
  -1  -2 -13    3.73    0.88
  -1  -2 -13    4.27    0.75
  -1  -2 -13    3.89    0.86
  -1  -2 -12    0.39    0.84
  -1  -2 -12    0.02    0.79
  -1  -2 -12    0.19    0.81
  -1  -2 -11   21.86    1.17
  -1  -2 -11   21.36    1.14
   1   2  11   18.19    0.66
   1   2  11   21.61    1.23
  -1  -2 -11   21.40    1.12
  -1  -2 -10   22.85    1.17
   1   2  10   24.44    1.24
  -1  -2 -10   20.88    1.13
  -1  -2 -10   21.11    1.16
  -1  -2  -9    1.01    0.72
  -1  -2  -9   -0.31    0.71
   1   2   9    0.05    0.75
  -1  -2  -9    0.26    0.74
  -1  -2  -8   35.93    1.42
   1   2   8   38.05    1.45
  -1  -2  -8   35.96    1.42
   1   2   7  132.31    3.86
  -1  -2  -7  134.32    3.84
  -1  -2  -7  137.42    3.84
   1   2   6   10.02    0.60
  -1  -2  -6    9.05    0.75
   1   2   6   10.37    0.76
  -1  -2  -6   10.03    0.75
  -1  -2  -5    3.07    0.62
  -1  -2  -5    2.90    0.59
   1   2   5    3.96    0.49
   1   2   5    3.25    0.60
  -1  -2  -4  322.16    8.53
   1   2   4  312.97    8.47
  -1  -2  -4  305.66    8.52
   1   2   4  322.63    8.53
  -1  -2  -4  326.85    8.51
   1   2   3   76.07    2.17
  -1  -2  -3   73.34    2.20
   1   2   3   78.53    2.21
   1   2   3   75.11    2.19
   1   2   2  225.09    6.04
  -1  -2  -2  220.89    6.05
   1   2   2  223.31    6.06
   1   2   2  233.97    6.06
   1   2   2  224.91    6.06
  -1  -2  -1  266.23    7.24
   1   2   1  263.64    7.27
  -1  -2  -1  275.56    7.28
   1   2   1  271.33    7.27
   1   2   1  276.41    7.28
  -1  -2  -1  282.01    7.26
   1   2   0  705.25   18.46
  -1  -2   0  692.49   18.42
  -1  -2   0  687.27   18.47
  -1  -2   0  720.75   18.46
   1   2  -1  190.62    5.19
  -1  -2   1  195.80    5.18
  -1  -2   1  194.73    5.19
  -1  -2   2 1596.05   42.42
  -1  -2   2 1634.14   42.48
  -1  -2   2 1628.82   42.41
   1   2  -2 1613.59   42.47
  -1  -2   3  504.88   13.40
   1   2  -3  531.24   13.46
  -1  -2   3  503.41   13.38
   1   2  -3  501.59   13.47
  -1  -2   3  507.31   13.46
   1   2  -3  512.45   13.45
   1   2  -3  512.13   13.40
  -1  -2   4  979.28   25.91
  -1  -2   4  960.50   25.88
   1   2  -4  986.41   25.88
   1   2  -4 1008.84   25.91
   1   2  -4  993.17   25.89
   1   2  -5  102.97    2.79
  -1  -2   5   99.35    2.80
  -1  -2   5   99.40    2.79
   1   2  -5   99.65    2.79
   1   2  -5   99.70    2.75
  -1  -2   6    5.10    0.51
   1   2  -6    5.37    0.49
  -1  -2   6    4.13    0.54
   1   2  -6    5.14    0.40
   1   2  -6    5.16    0.53
   1   2  -7   19.85    0.84
  -1  -2   7   19.33    0.79
  -1  -2   7   17.44    0.56
  -1  -2   7   21.30    0.85
   1   2  -7   21.26    0.66
   1   2  -8    4.75    0.62
  -1  -2   8    5.23    0.64
  -1  -2   8    4.91    0.52
   1   2  -8    6.61    0.35
   1   2  -9  160.70    4.34
   1   2  -9  162.13    4.55
  -1  -2   9  173.38    4.60
  -1  -2   9  164.11    4.49
   1   2 -10   82.84    2.26
  -1  -2  10   83.60    2.28
  -1  -2  11  227.76    6.31
   1   2 -11  225.17    6.28
  -1  -2  12   76.47    2.48
   1   2 -12   77.07    2.48
   1   2 -13    8.06    0.97
  -1  -2  13    9.90    0.99
  -1  -2  14   17.91    1.20
   1   2 -14   18.03    1.20
   1   2 -15    9.40    1.09
  -1  -2  15    9.52    0.77
   1   2 -16   33.85    1.63
  -1  -3 -13    8.67    1.00
  -1  -3 -13    9.36    1.03
  -1  -3 -12    9.80    1.00
   1   3  12   10.73    0.90
  -1  -3 -12   10.44    1.01
  -1  -3 -12   11.50    1.05
   1   3  11    3.39    0.49
   1   3  11    4.37    0.94
  -1  -3 -11    3.06    0.88
  -1  -3 -11    4.01    0.86
  -1  -3 -11    2.68    0.85
  -1  -3 -10   19.52    1.16
  -1  -3 -10   21.50    1.17
   1   3  10   22.63    1.24
  -1  -3 -10   20.75    1.17
  -1  -3  -9    2.54    0.79
  -1  -3  -9    3.57    0.81
  -1  -3  -9    3.44    0.84
   1   3   9    4.15    0.84
   1   3   8  242.62    6.64
  -1  -3  -8  239.38    6.61
  -1  -3  -8  241.03    6.59
  -1  -3  -8  230.93    6.62
   1   3   7  216.84    5.90
  -1  -3  -7  205.14    5.87
  -1  -3  -7  212.99    5.86
   1   3   6   23.81    0.97
   1   3   6   21.02    0.94
   1   3   6   23.45    1.06
  -1  -3  -6   21.64    1.06
  -1  -3  -6   22.04    0.98
   1   3   5    0.66    0.62
  -1  -3  -5    2.42    0.58
   1   3   5    1.66    0.57
   1   3   5    2.27    0.54
   1   3   4  370.81    9.87
   1   3   4  371.96    9.89
   1   3   4  372.42    9.87
   1   3   4  360.57    9.85
  -1  -3  -3  178.67    4.75
   1   3   3  178.67    4.75
  -1  -3  -3  167.26    4.75
   1   3   3  169.96    4.75
   1   3   3  173.07    4.75
   1   3   2   32.23    1.10
  -1  -3  -2   28.48    1.09
   1   3   2   31.56    1.12
   1   3   2   31.76    1.13
  -1  -3  -2   32.19    1.14
  -1  -3  -2   30.65    1.09
   1   3   2   31.48    1.11
  -1  -3  -2   32.99    1.08
   1   3   1  109.86    3.01
   1   3   1  108.13    3.00
  -1  -3  -1  104.12    2.96
   1   3   1  104.70    3.02
  -1  -3  -1  104.00    3.00
  -1  -3  -1  111.19    2.98
  -1  -3  -1  107.05    3.01
  -1  -3   0  434.69   10.99
   1   3   0  413.39   10.99
   1   3   0  409.99   11.01
   1   3   0  405.50   11.01
   1   3   0  402.11   11.03
  -1  -3   0  415.87   11.01
  -1  -3   1   55.23    1.57
   1   3  -1   50.36    1.56
   1   3  -2  141.12    3.97
  -1  -3   2  153.13    3.98
  -1  -3   2  143.04    4.00
   1   3  -3  115.72    3.30
   1   3  -3  120.81    3.32
  -1  -3   3  118.07    3.23
  -1  -3   3  119.50    3.32
   1   3  -3  124.45    3.33
  -1  -3   3  120.41    3.24
   1   3  -4    0.40    0.52
  -1  -3   4    1.53    0.51
   1   3  -4    0.27    0.49
   1   3  -4    0.52    0.49
  -1  -3   4    0.38    0.39
  -1  -3   4    0.88    0.28
   1   3  -5  532.03   12.93
   1   3  -5  541.90   12.88
   1   3  -5  544.31   12.91
  -1  -3   5  531.56   12.89
  -1  -3   5  530.13   12.94
  -1  -3   6    1.18    0.49
   1   3  -6    1.02    0.49
   1   3  -6    1.43    0.43
   1   3  -6    1.27    0.50
  -1  -3   6    1.05    0.45
   1   3  -7   14.31    0.75
  -1  -3   7   15.48    0.73
  -1  -3   7   14.65    0.77
   1   3  -7   15.97    0.75
   1   3  -7   16.03    0.66
   1   3  -8  168.00    4.67
  -1  -3   8  161.73    4.51
   1   3  -8  179.34    4.67
   1   3  -8  176.00    4.57
  -1  -3   8  169.78    4.68
  -1  -3   9   43.77    1.53
   1   3  -9   45.47    1.32
   1   3  -9   43.69    1.52
  -1  -3  10    0.96    0.68
   1   3 -10    0.24    0.71
   1   3 -10    1.38    0.33
   1   3 -11   28.85    1.20
  -1  -3  11   29.50    1.21
   1   3 -12    9.18    0.94
  -1  -3  12    9.96    0.94
  -1  -3  13   35.46    1.53
   1   3 -13   35.83    1.52
  -1  -3  14    2.58    0.87
   1   3 -14    4.13    0.94
  -1  -3  14    3.36    0.73
   1   3 -15    0.73    0.94
  -1  -3  15    2.49    0.94
  -1  -3  15    1.13    0.70
   1   3 -16    7.66    1.10
  -1  -4 -13    0.52    0.92
  -1  -4 -12    0.33    0.99
   1   4  12    0.75    0.75
  -1  -4 -12    0.11    0.90
   1   4  11    0.31    0.71
  -1  -4 -11    0.03    0.87
  -1  -4 -11    1.14    0.83
  -1  -4 -11    0.50    0.91
  -1  -4 -11    0.65    0.94
  -1  -4 -10    9.12    0.92
   1   4  10   10.33    0.84
  -1  -4 -10    7.90    0.99
  -1  -4 -10    8.60    0.95
  -1  -4 -10    9.11    1.03
  -1  -4  -9    1.40    0.78
  -1  -4  -9   -0.37    0.90
  -1  -4  -9    0.20    0.73
   1   4   9    0.84    0.64
  -1  -4  -9    0.03    0.85
  -1  -4  -8    5.50    0.88
  -1  -4  -8    3.79    0.90
   1   4   8    5.69    0.73
  -1  -4  -8    5.44    0.83
   1   4   7  103.84    3.12
  -1  -4  -7  106.85    3.21
  -1  -4  -7  110.67    3.24
  -1  -4  -6  235.99    6.72
   1   4   6  241.32    6.66
  -1  -4  -6  254.30    6.75
   1   4   5   71.10    2.20
  -1  -4  -5   74.12    2.27
   1   4   5   70.99    2.19
  -1  -4  -4   44.14    1.52
   1   4   4   43.85    1.50
  -1  -4  -4   46.49    1.50
   1   4   4   42.32    1.48
  -1  -4  -3   42.70    1.39
   1   4   3   42.43    1.37
  -1  -4  -3   42.99    1.43
   1   4   3   39.56    1.41
  -1  -4  -3   41.63    1.45
   1   4   3   41.61    1.43
  -1  -4  -2   14.84    0.72
  -1  -4  -2   16.27    0.74
   1   4   2   15.35    0.79
  -1  -4  -2   16.13    0.85
   1   4   2   15.25    0.84
   1   4   2   16.09    0.73
  -1  -4  -1  247.95    6.83
   1   4   1  253.73    6.86
   1   4   1  248.35    6.87
  -1  -4  -1  256.74    6.89
   1   4   1  244.90    6.89
  -1  -4  -1  259.55    6.88
  -1  -4  -1  265.41    6.83
   1   4   0 1035.65   28.15
  -1  -4   0 1094.74   28.09
   1   4   0 1060.29   28.14
   1   4   0 1065.58   28.12
   1   4  -1  247.63    6.81
  -1  -4   1  259.76    6.81
   1   4  -2  571.41   15.77
  -1  -4   2  623.02   15.78
   1   4  -3  206.56    5.86
  -1  -4   3  224.92    5.91
   1   4  -3  222.77    5.91
   1   4  -4   70.68    2.03
  -1  -4   4   66.76    1.95
   1   4  -4   66.43    2.00
  -1  -4   4   66.75    2.03
   1   4  -4   69.89    2.04
  -1  -4   5  470.66   12.45
   1   4  -5  447.90   12.50
   1   4  -5  487.73   12.52
   1   4  -5  475.93   12.49
  -1  -4   5  467.91   12.37
   1   4  -6   11.58    0.68
  -1  -4   6   11.43    0.61
  -1  -4   6    9.72    0.35
   1   4  -6   10.51    0.66
   1   4  -7   32.30    1.12
  -1  -4   7   31.95    1.13
   1   4  -7   30.91    1.09
   1   4  -7   30.80    1.15
   1   4  -8    1.04    0.60
  -1  -4   8    0.15    0.56
   1   4  -8    0.66    0.47
   1   4  -8    0.86    0.57
  -1  -4   9    5.48    0.68
   1   4  -9    7.09    0.72
   1   4  -9    6.31    0.70
  -1  -4   9    6.41    0.44
   1   4  -9    5.46    0.51
   1   4 -10    6.82    0.77
  -1  -4  10    5.74    0.75
  -1  -4  10    6.68    0.40
   1   4 -10    7.03    0.52
   1   4 -11    3.47    0.78
  -1  -4  11    3.96    0.76
   1   4 -12   57.99    1.98
  -1  -4  12   59.03    2.03
  -1  -4  13   14.81    1.10
  -1  -4  13   15.18    0.94
   1   4 -13   14.71    1.06
   1   4 -14    4.92    0.94
  -1  -4  14    4.68    0.92
  -1  -4  14    3.02    0.75
   1   4 -15   10.86    1.07
  -1  -4  15   11.03    1.06
  -1  -4  15   11.50    0.89
   1   4 -16    1.52    0.94
  -1  -5 -12    7.32    1.08
   1   5  11    1.89    0.78
  -1  -5 -11    0.97    0.99
  -1  -5 -11    2.41    0.92
  -1  -5 -10    0.93    0.88
  -1  -5 -10    1.61    0.97
  -1  -5 -10   -0.80    0.95
   1   5  10   -0.21    0.73
   1   5   9    0.13    0.70
  -1  -5  -9    1.44    0.93
  -1  -5  -9   -0.09    0.80
  -1  -5  -9   -0.03    0.90
   1   5   8    7.22    0.80
  -1  -5  -8    6.26    0.97
  -1  -5  -8    7.13    0.91
  -1  -5  -8    6.61    0.92
   1   5   7    2.82    0.70
  -1  -5  -7    4.02    0.91
  -1  -5  -7    2.82    0.85
  -1  -5  -7    3.78    0.84
  -1  -5  -6    9.72    0.94
   1   5   6   11.99    0.84
  -1  -5  -6   11.19    0.93
   1   5   5   14.02    0.91
  -1  -5  -5   14.90    0.96
   1   5   5   11.77    0.87
   1   5   4   -1.11    0.64
   1   5   4   -0.33    0.69
  -1  -5  -4   -0.19    0.56
  -1  -5  -4    0.39    0.69
  -1  -5  -4    1.03    0.72
   1   5   3    4.29    0.64
  -1  -5  -3    4.40    0.71
  -1  -5  -3    4.46    0.61
   1   5   3    4.75    0.71
  -1  -5  -2  107.40    2.99
   1   5   2  102.66    3.05
   1   5   2  101.48    3.07
  -1  -5  -2  107.63    3.08
   1   5   1   61.93    1.91
  -1  -5  -1   63.88    1.95
  -1  -5  -1   58.52    1.84
  -1  -5  -1   58.75    1.93
   1   5   1   59.29    1.95
  -1  -5  -1   63.16    1.84
  -1  -5   0   26.49    0.94
  -1  -5   0   24.77    1.05
   1   5   0   22.35    1.01
   1   5   0   23.00    1.06
  -1  -5   1   15.66    0.72
   1   5  -1   14.70    0.70
   1   5  -1   14.71    0.82
   1   5  -2    1.83    0.47
  -1  -5   2    1.17    0.49
   1   5  -3    2.54    0.45
   1   5  -3    2.19    0.64
   1   5  -4   22.12    0.90
  -1  -5   4   24.87    0.87
   1   5  -4   23.89    1.01
   1   5  -4   21.49    0.98
  -1  -5   5   78.76    2.25
   1   5  -5   78.19    2.36
   1   5  -5   76.75    2.33
  -1  -5   6    1.90    0.50
  -1  -5   6    1.12    0.33
   1   5  -6    1.68    0.61
   1   5  -6    1.74    0.58
   1   5  -7  221.52    5.71
   1   5  -7  224.25    5.66
  -1  -5   7  225.54    5.65
  -1  -5   8   27.66    1.05
   1   5  -8   25.41    1.09
   1   5  -8   24.55    1.02
   1   5  -9    0.92    0.66
  -1  -5   9    1.77    0.63
   1   5  -9    1.30    0.55
  -1  -5  10  120.27    3.43
   1   5 -10  118.65    3.43
   1   5 -10  116.13    3.30
  -1  -5  10  115.46    3.23
   1   5 -10  118.35    3.40
   1   5 -11   14.24    0.91
  -1  -5  11   13.10    0.92
  -1  -5  11   12.77    0.58
  -1  -5  11   12.24    0.91
   1   5 -12   11.24    0.93
  -1  -5  12   10.09    0.92
  -1  -5  12    9.89    0.88
  -1  -5  13   57.30    2.02
  -1  -5  13   56.00    1.97
   1   5 -13   58.74    2.02
   1   5 -14    3.33    0.94
  -1  -5  14    3.01    0.79
  -1  -5  14    2.99    0.90
   1   5 -15    8.48    1.04
  -1  -5  15    9.47    1.05
  -1  -5  15    6.87    0.88
   1   5 -16    4.66    1.04
  -1  -5  16    3.37    0.81
  -1  -6 -11    1.58    0.94
   1   6  10    0.22    0.77
  -1  -6 -10    0.62    0.98
  -1  -6 -10    0.58    0.89
  -1  -6  -9    0.51    0.86
   1   6   9    0.43    0.73
  -1  -6  -9    0.52    0.93
  -1  -6  -8    2.35    0.93
  -1  -6  -8   -0.27    0.83
  -1  -6  -8    0.12    0.89
   1   6   8    1.00    0.75
  -1  -6  -7   19.99    1.19
   1   6   7   19.00    1.05
  -1  -6  -7   17.05    1.14
  -1  -6  -7   18.77    1.16
  -1  -6  -6   17.48    1.00
   1   6   6   18.41    1.03
  -1  -6  -6   17.47    1.12
  -1  -6  -6   15.05    1.06
  -1  -6  -5    0.64    0.64
  -1  -6  -5    0.55    0.70
   1   6   5   -0.02    0.70
  -1  -6  -4   69.23    2.09
   1   6   4   70.95    2.17
  -1  -6  -4   68.87    2.19
   1   6   4   67.02    2.22
  -1  -6  -4   58.15    2.14
  -1  -6  -3    2.24    0.60
   1   6   3    2.39    0.71
  -1  -6  -3    0.47    0.57
  -1  -6  -3    3.02    0.77
   1   6   3    1.47    0.74
   1   6   2   20.47    1.09
   1   6   2   18.46    0.99
  -1  -6  -2   20.67    0.89
  -1  -6  -2   19.36    1.06
  -1  -6  -1   84.68    2.48
  -1  -6  -1   88.10    2.62
   1   6   1   84.41    2.58
  -1  -6  -1   84.48    2.62
   1   6   1   85.63    2.63
  -1  -6   0    5.98    0.76
   1   6   0    5.78    0.76
   1   6   0    3.97    0.68
  -1  -6   0    6.20    0.58
  -1  -6   1    4.77    0.56
   1   6  -1    5.40    0.70
   1   6  -2    1.85    0.64
  -1  -6   2    1.95    0.54
   1   6  -3   58.45    1.93
  -1  -6   4   31.17    1.08
   1   6  -4   30.71    1.25
  -1  -6   5   42.93    1.40
   1   6  -5   42.94    1.53
   1   6  -5   43.38    1.53
  -1  -6   6   30.50    1.12
   1   6  -6   30.40    1.24
   1   6  -6   30.35    1.21
  -1  -6   7    6.12    0.63
   1   6  -7    6.76    0.72
   1   6  -7    5.82    0.75
  -1  -6   7    6.12    0.43
   1   6  -8    0.31    0.67
  -1  -6   8    0.00    0.21
  -1  -6   8    0.33    0.60
   1   6  -8   -0.67    0.63
   1   6  -9   94.58    2.86
  -1  -6   9   94.20    2.79
  -1  -6   9   92.29    2.87
   1   6  -9   94.05    2.77
   1   6 -10   68.03    2.09
  -1  -6  10   67.71    2.03
  -1  -6  10   65.49    2.10
  -1  -6  11    2.29    0.50
  -1  -6  11    3.42    0.80
  -1  -6  12   10.39    0.58
  -1  -6  12   11.45    0.92
  -1  -6  12   10.25    0.94
  -1  -6  13   13.91    1.05
  -1  -6  13   14.07    1.04
   1   6 -14    5.22    0.92
  -1  -6  14    6.77    0.95
  -1  -6  14    3.92    0.88
  -1  -6  15   14.20    1.06
   1   6 -15   10.93    1.04
   1   6 -16    9.34    1.06
  -1  -6  16   10.00    0.97
  -1  -7 -10   12.59    1.17
   1   7   9    0.16    0.77
  -1  -7  -9    1.01    0.99
  -1  -7  -9   -0.35    0.88
  -1  -7  -9    0.34    0.84
  -1  -7  -8    9.31    0.93
   1   7   8   10.36    0.94
  -1  -7  -8    9.54    1.02
   1   7   7    0.03    0.76
  -1  -7  -7    1.01    0.74
  -1  -7  -7   -0.34    0.86
  -1  -7  -7    0.52    0.83
  -1  -7  -6   50.43    1.89
  -1  -7  -6   51.45    1.79
   1   7   6   51.25    1.85
  -1  -7  -5   25.21    1.13
  -1  -7  -5   22.34    1.18
   1   7   5   22.57    1.16
  -1  -7  -4    1.06    0.74
  -1  -7  -4    0.74    0.73
  -1  -7  -4    0.04    0.63
   1   7   4    0.34    0.73
  -1  -7  -3    3.53    0.66
  -1  -7  -3    3.36    0.88
  -1  -7  -3    3.06    0.76
   1   7   3    2.84    0.86
   1   7   3    3.36    0.76
  -1  -7  -2  212.19    5.73
  -1  -7  -2  206.20    5.86
   1   7   2  209.45    5.83
   1   7   2  206.48    5.90
  -1  -7  -2  206.46    5.87
   1   7   1    1.10    0.83
  -1  -7  -1    1.49    0.77
  -1  -7  -1    1.40    0.72
  -1  -7  -1    0.82    0.59
   1   7   1    0.95    0.71
   1   7   0   55.67    1.90
   1   7   0   51.86    1.95
  -1  -7   0   56.09    1.76
  -1  -7   0   58.10    1.93
  -1  -7   1   24.45    0.99
  -1  -7   1   22.75    1.18
   1   7  -1   24.24    1.12
   1   7  -2   25.00    1.14
   1   7  -3   17.88    1.06
  -1  -7   4  103.15    3.02
   1   7  -4  111.35    3.20
  -1  -7   5   11.99    0.71
   1   7  -5   13.73    0.91
  -1  -7   6  100.53    3.00
   1   7  -6  107.54    3.15
  -1  -7   6  106.96    3.16
   1   7  -6  105.26    3.13
  -1  -7   7  186.22    5.14
   1   7  -7  195.73    5.24
  -1  -7   7  180.85    5.26
  -1  -7   7  181.76    5.03
   1   7  -7  188.42    5.26
  -1  -7   8   56.61    1.86
   1   7  -8   61.40    1.99
  -1  -7   8   58.43    2.01
  -1  -7   8   56.50    1.67
   1   7  -8   62.03    1.94
   1   7  -9    8.55    0.86
   1   7  -9    8.36    0.80
  -1  -7   9    6.43    0.28
  -1  -7   9    6.34    0.29
  -1  -7   9    8.52    0.75
  -1  -7   9    8.76    0.88
   1   7  -9    9.77    0.80
   1   7 -10    5.11    0.79
  -1  -7  10    4.04    0.84
   1   7 -10    5.76    0.71
  -1  -7  10    5.65    0.76
   1   7 -10    5.03    0.84
   1   7 -11   24.26    1.25
  -1  -7  11   25.02    1.28
  -1  -7  11   26.10    1.19
   1   7 -11   27.54    1.29
  -1  -7  12    2.01    0.76
  -1  -7  12    0.68    0.80
  -1  -7  12    0.11    0.52
  -1  -7  13   15.07    1.10
  -1  -7  13   16.93    1.10
  -1  -7  14    4.67    0.89
  -1  -7  14    5.96    0.94
  -1  -7  15   -0.22    0.87
  -1  -7  16    7.22    0.98
  -1  -8  -8    5.09    1.00
  -1  -8  -8    5.58    0.85
   1   8   8    5.82    0.92
  -1  -8  -7    3.58    0.82
   1   8   7    4.02    0.86
  -1  -8  -7    3.40    0.95
  -1  -8  -6    4.47    0.91
  -1  -8  -6    5.07    0.79
   1   8   6    5.61    0.89
  -1  -8  -5    0.92    0.71
  -1  -8  -5    0.42    0.81
  -1  -8  -5    1.54    0.82
   1   8   5    0.45    0.78
  -1  -8  -4    1.12    0.77
  -1  -8  -4    0.32    0.75
  -1  -8  -4    0.56    0.67
   1   8   4    0.77    0.79
  -1  -8  -3    0.96    0.74
  -1  -8  -3    1.13    0.64
   1   8   3    0.76    0.75
  -1  -8  -3    1.06    0.79
  -1  -8  -2    5.50    0.86
  -1  -8  -2    6.85    0.72
  -1  -8  -2    5.86    0.79
   1   8   2    6.57    0.87
   1   8   1    7.13    0.98
  -1  -8  -1    7.72    0.70
  -1  -8  -1    7.64    0.86
   1   8   1    7.61    0.88
   1   8   1    7.79    0.88
  -1  -8   0   37.41    1.37
  -1  -8   0   40.43    1.54
  -1  -8   0   44.63    1.66
   1   8   0   40.02    1.66
   1   8   0   39.05    1.55
   1   8   0   38.89    1.52
  -1  -8   1   68.22    2.14
  -1  -8   1   72.15    2.27
  -1  -8   1   71.58    2.34
   1   8  -1   68.43    2.29
   1   8  -1   70.22    2.28
   1   8  -2   33.19    1.34
   1   8  -2   33.48    1.44
  -1  -8   2   33.70    1.47
   1   8  -3   -0.05    0.79
   1   8  -3    1.46    0.88
   1   8  -4  137.75    4.08
  -1  -8   5   54.67    1.79
  -1  -8   5   54.02    1.92
   1   8  -5   55.66    1.99
  -1  -8   6  126.05    3.68
  -1  -8   6  128.17    3.84
   1   8  -6  129.95    3.84
   1   8  -6  134.61    3.85
   1   8  -7    2.80    0.85
  -1  -8   7    2.91    0.47
   1   8  -7    2.44    0.83
  -1  -8   7    3.31    0.83
  -1  -8   7    1.46    0.66
  -1  -8   8   20.07    0.97
   1   8  -8   18.39    1.01
  -1  -8   8   17.02    1.14
  -1  -8   8   19.29    0.77
   1   8  -8   19.30    1.14
   1   8  -8   18.80    1.09
  -1  -8   9   15.54    0.92
   1   8  -9   17.21    1.08
   1   8  -9   15.42    1.01
   1   8  -9   14.37    0.96
  -1  -8   9   15.01    1.08
  -1  -8   9   14.36    0.58
  -1  -8  10    7.07    0.80
   1   8 -10    7.22    0.86
  -1  -8  10    8.56    0.95
   1   8 -10    7.08    0.93
  -1  -8  11    3.35    0.76
   1   8 -11    2.94    0.83
   1   8 -11    3.35    0.87
  -1  -8  11    3.59    0.89
  -1  -8  12   24.27    1.21
  -1  -8  12   21.12    1.27
   1   8 -12   22.54    1.22
  -1  -8  13    8.05    0.92
   1   8 -13    7.39    0.95
  -1  -8  13    6.34    0.98
  -1  -8  14    5.59    0.98
   1   8 -14    7.58    1.03
  -1  -8  15    1.88    0.94
  -1  -9  -7    0.36    0.90
  -1  -9  -6    4.87    0.95
  -1  -9  -5    5.99    0.79
  -1  -9  -5    6.40    0.93
   1   9   5    7.35    0.95
  -1  -9  -4    0.54    0.66
  -1  -9  -4    0.69    0.80
   1   9   4    0.41    0.84
   1   9   3   -0.26    0.83
  -1  -9  -3    0.19    0.67
  -1  -9  -3   -0.26    0.83
  -1  -9  -3   -0.05    0.76
  -1  -9  -2    2.56    0.85
  -1  -9  -2    1.91    0.78
  -1  -9  -2    2.73    0.68
   1   9   2    2.16    0.81
  -1  -9  -1    1.81    0.72
   1   9   1    3.23    0.85
  -1  -9  -1    4.03    0.85
  -1  -9  -1    2.91    0.66
  -1  -9   0   27.81    1.23
   1   9   0   27.24    1.31
  -1  -9   0   25.93    1.11
  -1  -9   0   28.39    1.42
  -1  -9   0   27.38    1.32
   1   9   0   26.43    1.28
   1   9  -1    7.75    0.92
  -1  -9   1    8.85    1.07
  -1  -9   1    7.92    0.89
  -1  -9   1    7.47    0.79
   1   9  -1    9.69    0.97
  -1  -9   2    3.50    0.95
   1   9  -2    3.83    0.87
   1   9  -2    2.97    0.82
  -1  -9   2    4.56    0.78
  -1  -9   3    5.32    0.76
   1   9  -3    4.84    0.84
   1   9  -3    4.88    0.82
  -1  -9   3    5.34    0.98
   1   9  -3    5.20    1.02
   1   9  -4   10.72    1.10
   1   9  -4   10.28    0.97
  -1  -9   5   21.34    1.05
   1   9  -5   24.35    1.33
  -1  -9   6   35.07    1.38
  -1  -9   6   36.83    1.55
   1   9  -6   38.13    1.61
   1   9  -7   26.87    1.34
  -1  -9   7   24.45    1.28
  -1  -9   7   23.45    1.12
   1   9  -7   25.46    1.15
   1   9  -7   24.68    1.29
  -1  -9   8   21.02    1.05
  -1  -9   8   20.35    1.24
   1   9  -8   19.97    1.21
   1   9  -8   20.16    1.06
   1   9  -9    1.41    0.74
  -1  -9   9    1.79    0.90
  -1  -9   9    1.36    0.72
   1   9  -9    0.62    0.85
  -1  -9  10    3.12    0.75
  -1  -9  10    1.39    0.90
   1   9 -10    2.22    0.77
   1   9 -11    2.37    0.83
  -1  -9  11    4.73    0.96
  -1  -9  11    3.00    0.78
  -1  -9  12    1.39    0.95
   1   9 -12    1.37    0.80
   1   9 -13    7.59    0.98
  -1  -9  13    8.88    1.09
   1   9 -14   14.98    1.15
  -1 -10  -5    3.28    0.96
  -1 -10  -4    0.60    0.88
  -1 -10  -3    5.01    0.92
   1  10   2   12.82    0.88
  -1 -10  -2   13.47    1.04
  -1 -10  -1   10.60    0.81
   1  10   1    9.74    0.83
  -1 -10  -1    9.75    0.94
  -1 -10   0    1.16    0.67
  -1 -10   0    0.49    0.75
   1  10   0    0.86    0.66
  -1 -10   0   -0.24    0.83
   1  10   0    0.66    0.83
  -1 -10   1    4.00    1.08
   1  10  -1    3.17    0.88
  -1 -10   1    3.27    0.87
  -1 -10   1    3.72    0.77
   1  10  -1    4.78    0.92
   1  10  -2   11.09    0.97
  -1 -10   2   10.38    0.94
  -1 -10   2   11.17    1.18
   1  10  -2   12.09    1.05
  -1 -10   3   21.83    1.21
  -1 -10   3   27.58    1.43
   1  10  -3   24.55    1.32
   1  10  -3   24.60    1.25
   1  10  -4   16.27    1.15
  -1 -10   4   12.17    0.88
  -1 -10   4   13.71    0.93
  -1 -10   4   13.10    1.16
   1  10  -4   14.90    1.05
   1  10  -5   11.85    0.82
  -1 -10   5   11.41    0.86
  -1 -10   5   10.68    0.87
   1  10  -6   12.01    0.89
  -1 -10   6   12.08    0.90
  -1 -10   6   11.23    0.82
  -1 -10   7    5.33    0.94
   1  10  -7    3.09    0.73
  -1 -10   7    2.89    0.76
  -1 -10   8    0.81    0.73
   1  10  -8    0.61    0.70
  -1 -10   8   -0.03    0.87
  -1 -10   9    0.46    0.91
   1  10  -9    0.41    0.69
   1  10 -10   10.62    0.93
  -1 -10  10   12.16    1.13
   1  10 -11    6.41    0.90
  -1 -10  11    4.61    1.03
   1  10 -12    1.52    0.82
   1  10 -13    3.47    0.91
  -1 -11  -3   11.89    1.08
  -1 -11  -2    1.47    0.84
  -1 -11  -1    4.81    0.86
  -1 -11   0    0.25    0.74
  -1 -11   1    0.48    0.74
  -1 -11   2    0.79    1.09
   1  11  -2    0.28    0.87
  -1 -11   2   -0.21    0.72
   1  11  -3   -0.22    0.86
  -1 -11   3    0.92    1.05
  -1 -11   3    1.59    0.83
  -1 -11   4   11.35    1.20
   1  11  -4   11.21    1.04
  -1 -11   4   12.22    0.94
   1  11  -5    2.36    0.85
   1  11  -6    1.42    0.69
   1  11  -6    2.10    0.87
  -1 -11   7    6.62    1.03
   1  11  -7    5.37    0.76
   1  11  -8    2.58    0.71
  -1 -11   8    3.73    0.98
   2 -13   4    5.78    1.14
   2 -13   3    0.80    1.05
   2 -13   2    3.89    1.06
   2 -13   1    7.79    1.13
   2 -13   0    3.12    1.02
   2 -13  -1    0.03    1.01
  -2  12 -10    9.22    1.07
   2 -12   8    6.64    1.08
   2 -12   7   15.24    1.29
   2 -12   6   10.16    1.22
   2 -12   5   37.83    1.76
   2 -12   4    1.84    1.02
   2 -12   3    1.78    1.00
   2 -12   2    8.63    1.11
   2 -12   1    3.38    1.00
   2 -12   0    9.51    1.12
   2 -12  -1    1.39    0.96
   2 -12  -1    1.17    0.91
   2 -12  -2    3.24    0.97
   2 -12  -2    2.73    0.93
   2 -11  12   24.44    1.32
  -2  11 -11    8.23    0.93
   2 -11  11    7.23    0.97
   2 -11  11    6.93    1.07
   2 -11  10    3.03    0.78
  -2  11 -10    3.89    0.88
   2 -11  10    3.18    0.99
   2 -11   9    0.61    0.81
   2 -11   8    1.39    0.81
   2 -11   8    1.20    0.89
   2 -11   8    1.95    0.92
   2 -11   7   11.27    1.04
   2 -11   7   14.04    1.17
   2 -11   7   12.80    1.05
   2 -11   6   26.11    1.34
   2 -11   6   28.78    1.48
  -2  11  -6   26.24    1.40
   2 -11   6   25.34    1.32
   2 -11   5   28.25    1.35
   2 -11   5   27.22    1.46
  -2  11  -5   30.15    1.41
   2 -11   5   27.09    1.37
   2 -11   4    1.25    0.99
  -2  11  -4    3.28    0.88
   2 -11   4    2.32    0.89
  -2  11  -3   10.48    0.98
   2 -11   3   10.11    1.10
   2 -11   3    8.45    0.97
  -2  11  -2    2.29    0.83
   2 -11   2    2.89    0.84
   2 -11   2    2.26    0.93
   2 -11   1    8.77    0.96
   2 -11   1    7.76    1.00
  -2  11  -1    7.05    0.90
   2 -11   0    1.72    0.92
  -2  11   0    0.67    0.83
  -2  11   1   -0.11    0.81
   2 -11  -1    0.08    0.87
   2 -11  -2    6.76    0.97
   2 -11  -2    4.72    0.96
  -2  11   2    6.06    0.89
   2 -11  -3    2.93    0.93
  -2  11   3    2.23    0.82
   2 -11  -4    1.05    0.92
   2 -11  -5    2.93    0.96
  -2  11   6    6.51    1.16
   2 -10  12    1.22    0.81
   2 -10  12    2.01    0.93
   2 -10  11    6.02    0.95
   2 -10  11    7.24    0.90
  -2  10 -11    6.31    0.82
   2 -10  10   14.69    0.85
   2 -10  10   15.81    1.11
   2 -10  10   14.02    1.10
  -2  10 -10   16.72    1.03
  -2  10 -10   14.69    0.89
   2 -10  10   17.06    0.97
   2 -10   9   14.68    1.11
   2 -10   9   15.36    1.00
   2 -10   8    1.26    0.83
   2 -10   8    2.21    0.76
   2 -10   7    0.32    0.78
   2 -10   7    0.76    0.75
  -2  10  -7   -1.27    0.86
   2 -10   7    0.18    0.87
  -2  10  -6    5.69    0.49
   2 -10   6    5.96    0.88
  -2  10  -6    4.79    0.91
   2 -10   6    5.35    0.85
   2 -10   6    5.13    1.00
   2 -10   5    1.19    0.78
  -2  10  -5    2.43    0.41
  -2  10  -5    1.78    0.85
   2 -10   5    1.63    0.80
   2 -10   5    1.45    0.92
   2 -10   4   18.88    1.19
   2 -10   4   18.34    1.11
  -2  10  -4   18.02    1.10
  -2  10  -3    8.01    0.34
  -2  10  -3   11.32    0.92
   2 -10   3   12.22    1.02
   2 -10   3    9.06    0.94
   2 -10   2    1.37    0.87
   2 -10   2    1.73    0.76
  -2  10  -2    0.20    0.72
   2 -10   1    1.92    0.85
  -2  10  -1    3.21    0.78
   2 -10   1    2.81    0.77
   2 -10   0    5.28    0.90
  -2  10   0    5.83    0.82
   2 -10  -1   29.81    1.37
  -2  10   1   29.78    1.32
   2 -10  -1   30.35    1.41
  -2  10   2   12.66    0.96
   2 -10  -2   13.89    1.11
   2 -10  -2   11.86    0.97
   2 -10  -3   54.78    1.80
   2 -10  -3   51.85    1.90
   2 -10  -3   45.76    1.39
   2 -10  -3   52.94    1.94
  -2  10   3   54.05    1.77
   2 -10  -4   27.03    1.39
  -2  10   4   27.01    1.23
   2 -10  -4   26.81    1.43
   2 -10  -5   16.96    1.24
  -2  10   5   17.59    1.01
   2 -10  -5   16.73    1.19
   2 -10  -6    0.04    0.91
  -2  10   6    1.96    1.03
  -2  10   7    2.61    0.97
   2 -10  -7    3.02    0.98
  -2  10   8    6.29    1.07
  -2  10   9    0.99    1.02
   2  -9  14    1.21    0.99
   2  -9  13    7.83    0.88
   2  -9  13   10.27    1.10
  -2   9 -12   -0.31    0.57
   2  -9  12   -0.35    0.89
   2  -9  12    0.88    0.75
   2  -9  11    6.26    0.97
   2  -9  11    4.95    0.84
   2  -9  11    5.78    0.97
  -2   9 -11    4.47    0.69
   2  -9  11    5.87    0.63
   2  -9  10   19.05    0.89
  -2   9 -10   17.76    0.97
   2  -9  10   17.01    1.06
   2  -9  10   19.89    1.19
   2  -9  10   20.88    1.17
   2  -9   9    2.24    0.81
   2  -9   9    2.24    0.79
   2  -9   8    2.63    0.70
   2  -9   8    3.80    0.84
   2  -9   7   10.87    0.88
  -2   9  -7   10.60    0.99
   2  -9   7   10.20    0.92
   2  -9   6    6.45    0.85
  -2   9  -6    5.35    0.50
  -2   9  -6    5.64    0.86
   2  -9   6    4.64    0.77
   2  -9   6    5.49    0.88
   2  -9   5    8.40    0.94
  -2   9  -5    8.07    0.50
  -2   9  -5    6.16    0.85
   2  -9   5    7.10    0.85
   2  -9   5    6.13    0.81
   2  -9   4   17.84    1.06
  -2   9  -4   19.55    0.80
   2  -9   4   18.63    1.14
  -2   9  -4   19.21    0.68
  -2   9  -4   17.90    1.07
  -2   9  -3   -0.14    0.47
  -2   9  -3    0.97    0.73
   2  -9   3    0.34    0.82
   2  -9   3    0.33    0.73
   2  -9   2    6.00    0.87
  -2   9  -2    5.69    0.79
  -2   9  -2    5.75    0.56
   2  -9   2    4.31    0.77
  -2   9  -1  255.50    7.02
   2  -9   1  260.68    7.04
   2  -9   1  247.06    7.05
  -2   9   0    0.69    0.72
   2  -9   0    1.80    0.78
   2  -9  -1   57.38    2.08
   2  -9  -1   63.58    2.03
  -2   9   1   62.10    2.02
  -2   9   2   46.37    1.66
   2  -9  -2   47.89    1.69
   2  -9  -2   47.83    1.81
   2  -9  -3    1.44    0.76
   2  -9  -3    1.76    0.78
   2  -9  -3    1.98    0.34
  -2   9   3    1.90    0.70
   2  -9  -3    1.21    0.90
   2  -9  -4    0.45    0.37
   2  -9  -4   -0.29    0.78
   2  -9  -4   -0.80    0.88
  -2   9   4    0.14    0.68
  -2   9   5    7.14    0.75
   2  -9  -5    9.32    0.98
   2  -9  -5    6.49    0.52
   2  -9  -5    6.52    0.98
   2  -9  -6    5.48    0.99
   2  -9  -6    3.33    0.52
  -2   9   6    4.61    0.72
   2  -9  -6    4.34    0.90
   2  -9  -7    4.04    0.98
  -2   9   7    6.59    1.01
   2  -9  -7    4.94    0.94
   2  -9  -7    5.31    0.89
  -2   9   8    1.16    0.90
   2  -9  -8    0.90    0.90
   2  -9  -8    1.87    0.95
   2  -9  -8    0.82    0.86
   2  -9  -9    3.95    0.94
  -2   9   9    4.34    0.98
   2  -9 -10    8.57    1.09
   2  -8  15    3.60    0.99
   2  -8  14    8.55    1.04
   2  -8  13    1.19    0.88
   2  -8  13    0.61    0.71
   2  -8  12    1.82    0.51
   2  -8  12    0.37    0.88
   2  -8  12    1.23    0.72
  -2   8 -12    0.81    0.50
   2  -8  12    0.60    0.87
   2  -8  11   -0.42    0.83
   2  -8  11   -0.02    0.70
  -2   8 -11    0.15    0.52
   2  -8  11    0.42    0.51
   2  -8  11   -0.58    0.83
   2  -8  10   14.66    0.97
   2  -8  10   16.40    0.82
   2  -8  10   16.76    1.08
   2  -8  10   14.96    1.04
  -2   8 -10   15.37    0.84
   2  -8   9   29.36    1.37
  -2   8  -9   32.83    1.22
   2  -8   9   32.70    1.39
   2  -8   9   31.27    1.17
   2  -8   8   97.46    3.00
   2  -8   7    6.36    0.82
  -2   8  -6   63.20    2.10
   2  -8   6   61.91    2.07
  -2   8  -5   42.70    1.34
   2  -8   5   44.03    1.63
   2  -8   5   44.67    1.59
  -2   8  -5   44.81    1.63
  -2   8  -4   21.64    0.73
  -2   8  -4   20.09    1.06
   2  -8   4   19.53    1.09
  -2   8  -3   -0.18    0.68
  -2   8  -3   -0.92    0.50
  -2   8  -3    0.23    0.26
   2  -8   3    0.23    0.78
   2  -8   2  658.41   17.33
  -2   8  -2  640.82   17.32
  -2   8  -2  650.55   17.18
  -2   8  -1   13.47    0.86
   2  -8   1   12.74    0.91
  -2   8   0    6.94    0.73
   2  -8   0    6.86    0.81
  -2   8   1   50.08    1.67
   2  -8  -1   49.48    1.69
  -2   8   2   13.69    0.80
   2  -8  -2   11.48    0.44
   2  -8  -2   11.49    0.94
   2  -8  -2   13.39    0.82
   2  -8  -3    3.74    0.67
   2  -8  -3    4.40    0.37
  -2   8   3    5.24    0.67
   2  -8  -3    4.47    0.87
  -2   8   4   17.62    0.87
   2  -8  -4   15.46    0.65
   2  -8  -4   16.60    1.01
   2  -8  -4   16.61    1.07
   2  -8  -5   44.29    1.45
   2  -8  -5   50.48    1.67
  -2   8   5   49.00    1.59
   2  -8  -5   49.44    1.80
   2  -8  -5   47.22    1.77
   2  -8  -6    4.71    0.85
  -2   8   6    5.70    0.66
   2  -8  -6    7.36    0.93
   2  -8  -6    5.76    0.82
   2  -8  -7   33.03    1.42
   2  -8  -7   34.21    1.51
   2  -8  -7   34.40    1.48
  -2   8   7   32.13    1.22
  -2   8   7   36.18    1.51
   2  -8  -8    2.91    0.87
   2  -8  -8    1.52    0.85
   2  -8  -8    3.42    0.91
  -2   8   8    1.14    0.84
   2  -8  -9    1.32    0.85
  -2   8   9    1.04    0.87
   2  -8  -9   -0.14    0.85
   2  -8  -9   -0.20    0.92
   2  -8 -10    4.97    1.03
  -2   8  10    5.59    0.92
   2  -8 -10    3.82    0.99
   2  -8 -11    6.38    1.06
   2  -7  15    0.59    0.94
  -2   7 -15    0.84    1.00
   2  -7  14   11.06    1.10
   2  -7  13    1.05    0.88
   2  -7  12    5.21    0.57
   2  -7  12    5.58    0.98
   2  -7  12    4.01    0.91
   2  -7  12    5.08    0.74
   2  -7  11    0.80    0.84
   2  -7  11    0.10    0.65
   2  -7  11    0.56    0.44
   2  -7  11    0.98    0.85
   2  -7  11   -0.30    0.53
  -2   7 -11   -0.69    0.50
   2  -7  10   76.17    2.14
   2  -7  10   69.39    2.37
   2  -7  10   71.56    2.26
   2  -7  10   72.67    2.39
   2  -7  10   72.98    2.14
  -2   7 -10   67.63    2.12
   2  -7   9   -0.88    0.79
   2  -7   9    0.10    0.53
   2  -7   9   -0.71    0.74
  -2   7  -9    0.40    0.54
   2  -7   9   -0.22    0.65
   2  -7   8   86.40    2.59
   2  -7   8   85.72    2.42
  -2   7  -8   92.01    2.46
   2  -7   7   44.26    1.60
   2  -7   6   63.90    2.06
  -2   7  -5    7.36    0.77
   2  -7   5    7.14    0.76
  -2   7  -4   87.30    2.39
  -2   7  -4   83.88    2.61
   2  -7   4   90.42    2.64
   2  -7   4   82.20    2.57
  -2   7  -3   53.85    1.53
  -2   7  -3   55.92    1.81
   2  -7   3   59.12    1.84
  -2   7  -2   95.34    2.88
   2  -7   2   99.75    2.91
  -2   7  -2   99.96    2.73
   2  -7   1   29.93    1.16
  -2   7  -1   25.92    1.09
  -2   7   0   21.90    0.97
   2  -7   0   23.32    1.00
   2  -7  -1  146.52    3.98
  -2   7   1  137.07    3.96
   2  -7  -2    4.39    0.63
   2  -7  -2    2.79    0.25
   2  -7  -2    3.06    0.71
  -2   7   2    3.32    0.57
   2  -7  -3   20.80    0.93
  -2   7   3   21.01    0.89
   2  -7  -3   21.05    0.91
   2  -7  -3   19.21    1.07
   2  -7  -3   20.69    0.71
   2  -7  -4   16.58    0.81
  -2   7   4   16.75    0.72
   2  -7  -4   15.85    0.94
   2  -7  -5   54.07    1.86
   2  -7  -5   57.11    1.79
  -2   7   5   52.71    1.67
   2  -7  -5   50.41    1.84
   2  -7  -6   12.74    0.89
  -2   7   6   13.81    1.00
   2  -7  -6   11.32    0.89
  -2   7   6   12.99    0.71
   2  -7  -6   12.74    0.95
   2  -7  -7   11.64    0.94
  -2   7   7   11.60    0.69
  -2   7   7   11.23    0.94
   2  -7  -7   10.78    0.91
   2  -7  -8   36.14    1.47
   2  -7  -8   36.41    1.30
  -2   7   8   37.14    1.51
  -2   7   8   35.30    1.23
   2  -7  -8   36.03    1.46
   2  -7  -9   -0.55    0.78
   2  -7  -9    1.43    0.64
  -2   7   9    0.14    0.79
   2  -7  -9    0.13    0.86
   2  -7 -10    0.72    0.78
  -2   7  10    0.99    0.77
   2  -7 -10    1.99    0.69
   2  -7 -10    1.06    0.88
   2  -7 -11    3.79    0.97
   2  -7 -12    4.67    1.08
   2  -6  16    4.52    1.01
  -2   6 -15    4.05    1.06
   2  -6  15    3.59    0.94
   2  -6  14   27.22    1.38
  -2   6 -14   26.22    1.48
   2  -6  13    3.18    0.56
   2  -6  13    1.50    0.86
  -2   6 -13    3.71    0.98
   2  -6  13    2.56    0.92
  -2   6 -12   17.74    1.21
   2  -6  12   18.28    0.83
   2  -6  12   16.51    1.12
   2  -6  12   19.06    1.20
   2  -6  11   77.20    2.36
  -2   6 -11   84.79    2.64
   2  -6  11   79.19    2.45
   2  -6  11   81.59    2.62
   2  -6  11   84.26    2.65
   2  -6  10    3.91    0.49
  -2   6 -10    2.99    0.49
   2  -6  10    3.58    0.82
   2  -6  10    2.69    0.79
   2  -6  10    1.58    0.56
  -2   6 -10    4.13    0.86
   2  -6  10    3.86    0.69
  -2   6  -9   49.33    1.50
   2  -6   9   46.81    1.74
   2  -6   9   47.55    1.65
   2  -6   9   50.54    1.75
   2  -6   9   48.36    1.55
   2  -6   9   48.88    1.51
  -2   6  -8    4.59    0.55
   2  -6   8    3.60    0.71
   2  -6   8    3.23    0.53
   2  -6   8    3.81    0.49
   2  -6   8    3.01    0.66
  -2   6  -7    0.53    0.54
   2  -6   7    1.08    0.46
   2  -6   7    1.14    0.51
   2  -6   7    2.11    0.67
   2  -6   6    0.23    0.44
   2  -6   6    0.29    0.64
   2  -6   5   19.96    0.95
   2  -6   5   20.10    0.84
   2  -6   4   18.87    0.90
  -2   6  -4   18.13    0.91
   2  -6   4   17.72    0.83
   2  -6   3   44.98    1.49
  -2   6  -3   42.85    1.48
  -2   6  -2   34.74    1.20
  -2   6  -2   37.33    1.00
   2  -6   2   39.76    1.26
   2  -6   1  133.23    3.71
  -2   6  -1  132.86    3.57
  -2   6  -1  130.82    3.70
  -2   6   0    2.88    0.53
   2  -6   0    3.58    0.58
   2  -6  -1    5.52    0.60
  -2   6   1    5.39    0.56
   2  -6  -2   25.68    0.80
  -2   6   2   28.06    1.00
   2  -6  -2   28.84    0.96
   2  -6  -2   29.53    1.01
   2  -6  -2   27.57    1.15
   2  -6  -3   23.05    0.89
  -2   6   3   22.28    0.88
   2  -6  -3   22.12    0.90
   2  -6  -3   21.84    1.06
   2  -6  -4   10.23    0.70
   2  -6  -4   11.26    0.54
  -2   6   4   12.03    0.62
   2  -6  -4   10.74    0.83
  -2   6   5   49.49    1.54
   2  -6  -5   51.68    1.54
  -2   6   5   52.35    1.74
   2  -6  -5   49.87    1.67
   2  -6  -5   50.69    1.73
   2  -6  -6   11.40    0.66
   2  -6  -6   11.36    0.84
  -2   6   6   11.90    0.89
  -2   6   6   12.85    0.65
   2  -6  -6   11.29    0.86
  -2   6   7   29.33    1.25
   2  -6  -7   28.15    1.10
   2  -6  -7   28.57    1.26
  -2   6   7   30.44    1.02
   2  -6  -7   27.91    1.23
   2  -6  -8    3.92    0.65
  -2   6   8    4.74    0.74
   2  -6  -8    2.87    0.81
  -2   6   8    4.05    0.48
   2  -6  -8    4.16    0.76
   2  -6  -9   34.86    1.34
  -2   6   9   34.51    1.39
  -2   6   9   35.17    1.14
   2  -6  -9   34.71    1.48
   2  -6  -9   36.42    1.38
   2  -6 -10   10.30    0.86
  -2   6  10   10.41    0.87
   2  -6 -10    9.70    0.99
   2  -6 -10   11.05    0.87
   2  -6 -11    4.04    0.74
   2  -6 -11    4.19    0.81
   2  -6 -11    1.52    0.91
   2  -6 -11    3.97    0.94
  -2   6  11    4.02    0.75
   2  -6 -11    2.58    0.94
   2  -6 -12    0.85    0.78
   2  -6 -12    1.14    1.00
   2  -6 -12   -0.72    0.93
   2  -5  16    4.64    1.01
  -2   5 -15    4.64    1.08
   2  -5  15    3.94    0.92
   2  -5  14    0.48    0.85
  -2   5 -14    1.71    1.02
   2  -5  13   11.39    1.09
   2  -5  13    8.61    0.69
  -2   5 -13    9.82    1.09
   2  -5  13    9.17    0.97
   2  -5  12    7.08    0.94
  -2   5 -12    7.01    1.00
   2  -5  12    6.21    0.64
   2  -5  12    5.41    0.91
  -2   5 -11  172.89    4.86
   2  -5  11  179.17    4.88
   2  -5  11  162.92    4.62
   2  -5  11  161.41    4.81
   2  -5  10   72.89    2.31
  -2   5 -10   75.73    2.38
   2  -5  10   70.97    2.20
   2  -5  10   76.62    2.37
   2  -5  10   67.96    1.98
   2  -5  10   74.86    2.15
   2  -5   9   64.66    1.99
   2  -5   9   61.41    1.93
  -2   5  -9   65.05    2.13
   2  -5   9   63.92    2.11
   2  -5   9   64.58    1.83
   2  -5   8    5.94    0.55
   2  -5   8    5.82    0.74
   2  -5   8    5.83    0.64
   2  -5   8    4.38    0.48
  -2   5  -8    5.78    0.48
   2  -5   7    7.27    0.72
   2  -5   7    8.66    0.60
   2  -5   7    7.51    0.67
  -2   5  -7    8.23    0.54
   2  -5   7    8.82    0.54
   2  -5   6   69.37    2.13
   2  -5   6   72.48    2.19
  -2   5  -6   71.80    2.07
   2  -5   6   69.21    2.08
   2  -5   6   70.86    2.07
   2  -5   5   38.99    1.31
   2  -5   5   41.14    1.40
  -2   5  -5   43.20    1.34
   2  -5   4    5.94    0.65
  -2   5  -4    5.90    0.62
   2  -5   3   38.19    1.32
  -2   5  -3   39.97    1.34
   2  -5   3   40.10    1.34
  -2   5  -2  211.62    5.88
   2  -5   2  222.17    5.89
  -2   5  -1  249.27    6.78
   2  -5   1  254.25    6.78
   2  -5   0   26.37    0.97
  -2   5   0   25.41    0.94
   2  -5  -1   29.22    0.89
  -2   5   1   25.80    0.95
   2  -5  -1   25.82    0.95
   2  -5  -2  255.78    6.87
  -2   5   2  249.62    6.88
   2  -5  -2  267.02    6.89
   2  -5  -3  196.43    5.23
   2  -5  -3  195.69    5.31
  -2   5   3  192.50    5.28
   2  -5  -3  200.00    5.28
   2  -5  -4    1.86    0.38
  -2   5   4    1.65    0.62
  -2   5   4    1.98    0.40
  -2   5   5   40.68    1.24
   2  -5  -5   40.45    1.28
  -2   5   5   40.05    1.42
   2  -5  -5   40.52    1.43
  -2   5   6   52.44    1.55
  -2   5   6   54.75    1.75
   2  -5  -6   53.28    1.64
   2  -5  -6   53.23    1.74
  -2   5   7    8.55    0.48
  -2   5   7    8.43    0.75
   2  -5  -7    8.05    0.66
   2  -5  -7    8.08    0.74
   2  -5  -8   51.64    1.66
  -2   5   8   50.06    1.47
   2  -5  -8   47.07    1.79
  -2   5   8   49.51    1.68
   2  -5  -8   49.86    1.66
   2  -5  -9   34.20    1.32
   2  -5  -9   32.46    1.27
   2  -5  -9   34.16    1.47
  -2   5   9   33.87    1.06
  -2   5   9   33.50    1.30
   2  -5 -10   11.45    0.89
  -2   5  10   10.17    0.78
   2  -5 -10    9.89    1.06
   2  -5 -10   10.69    0.78
  -2   5  10    9.25    0.51
   2  -5 -11    1.38    0.64
   2  -5 -11    0.79    0.86
   2  -5 -11    2.01    0.79
  -2   5  11    1.86    0.63
   2  -5 -11    0.54    0.93
   2  -5 -12    1.76    0.99
   2  -5 -12    1.64    0.86
   2  -5 -12    1.08    0.78
   2  -5 -13   -0.61    1.00
   2  -5 -13    1.08    0.86
   2  -4  17    9.59    1.07
   2  -4  16    4.70    0.94
  -2   4 -15   -0.72    0.97
   2  -4  15    0.06    0.82
   2  -4  14    0.14    0.80
  -2   4 -14   -0.03    0.93
   2  -4  13   28.87    1.35
  -2   4 -13   29.44    1.44
   2  -4  13   29.45    1.48
  -2   4 -12   23.66    1.27
   2  -4  12   25.24    1.04
   2  -4  12   23.19    1.21
   2  -4  12   25.20    1.32
  -2   4 -11  190.20    5.47
   2  -4  11  202.69    5.52
   2  -4  11  190.19    5.31
   2  -4  11  191.24    5.46
   2  -4  10   48.94    1.63
   2  -4  10   54.95    1.87
   2  -4   9  196.76    5.08
   2  -4   9  204.84    5.24
   2  -4   8   23.42    0.96
   2  -4   8   23.02    0.91
   2  -4   8   22.99    0.77
   2  -4   8   23.73    1.08
  -2   4  -7   56.31    1.59
   2  -4   7   55.48    1.69
   2  -4   7   55.39    1.73
   2  -4   7   54.37    1.60
   2  -4   7   52.89    1.79
   2  -4   6   78.36    2.37
  -2   4  -6   83.96    2.29
   2  -4   6   83.66    2.35
   2  -4   6   76.70    2.42
   2  -4   5   43.61    1.43
  -2   4  -5   44.29    1.35
   2  -4   5   43.22    1.38
  -2   4  -4    0.88    0.47
  -2   4  -3  426.00   11.32
   2  -4   2  517.02   13.63
  -2   4  -2  529.43   13.64
  -2   4  -2  507.67   13.52
  -2   4  -1  802.91   21.18
   2  -4   1  802.95   21.17
  -2   4   0  765.97   20.38
   2  -4   0  780.15   20.37
   2  -4  -1  225.91    5.88
  -2   4   1  215.85    5.92
  -2   4   1  215.35    6.00
   2  -4  -1  224.23    5.92
  -2   4   2   64.13    1.82
   2  -4  -2   66.50    1.82
  -2   4   2   62.53    1.96
   2  -4  -3    1.69    0.33
  -2   4   3    1.36    0.32
  -2   4   3    1.82    0.57
  -2   4   4  369.07    9.71
  -2   4   4  363.87    9.85
  -2   4   5   16.75    0.58
  -2   4   5   16.25    0.83
  -2   4   6   96.55    2.75
  -2   4   6   94.10    2.57
  -2   4   7   10.28    0.73
   2  -4  -7   11.08    0.86
  -2   4   7   11.14    0.45
   2  -4  -7   11.60    0.74
  -2   4   8   39.93    1.19
   2  -4  -8   41.69    1.56
  -2   4   8   40.86    1.40
   2  -4  -8   43.56    1.40
  -2   4   9   26.61    1.03
   2  -4  -9   25.17    1.01
   2  -4  -9   24.30    1.28
  -2   4   9   25.15    0.80
   2  -4 -10    2.17    0.90
   2  -4 -10    3.07    0.61
  -2   4  10    2.91    0.33
   2  -4 -11    2.38    0.82
  -2   4  11    1.09    0.31
   2  -4 -11    1.69    0.99
  -2   4  11    2.02    0.31
   2  -4 -11    1.92    0.59
   2  -4 -12    0.60    0.55
   2  -4 -12    0.28    0.97
   2  -4 -12    1.23    0.82
   2  -4 -12    0.79    0.77
   2  -4 -13    3.01    1.05
   2  -4 -13    3.89    0.88
   2  -4 -13    4.14    0.83
   2  -4 -14    0.33    1.04
   2  -3  16   -0.06    0.84
  -2   3 -15   -0.49    0.97
   2  -3  15    2.04    0.87
  -2   3 -14   -0.33    0.92
   2  -3  14   -0.20    0.79
  -2   3 -13   30.71    1.47
   2  -3  13   35.08    1.60
   2  -3  13   34.04    1.44
  -2   3 -12   13.15    1.03
   2  -3  12   16.60    1.04
   2  -3  12   14.63    1.10
   2  -3  11   12.40    0.99
   2  -3  11   13.34    0.97
   2  -3  11   11.80    0.81
  -2   3 -11   11.98    0.95
   2  -3  10   21.56    1.13
   2  -3  10   20.23    0.93
   2  -3   9    2.02    0.57
   2  -3   8    0.08    0.53
   2  -3   8    0.00    0.21
   2  -3   7   29.82    1.07
   2  -3   6  284.52    7.66
   2  -3   6  287.01    7.69
   2  -3   5  121.76    3.51
   2  -3   5  130.32    3.50
   2  -3   4  334.98    8.91
  -2   3  -4  324.96    8.92
  -2   3  -4  329.91    8.87
   2  -3   4  332.46    8.89
  -2   3  -4  341.98    8.86
   2  -3   3 1024.87   27.67
  -2   3  -3 1072.06   27.64
  -2   3  -3 1049.89   27.62
   2  -3   2  936.76   25.17
  -2   3  -2  986.13   25.16
  -2   3  -2  948.74   25.10
   2  -3   1 3448.76   90.43
  -2   3   0   80.40    2.16
   2  -3   0   83.20    2.26
   2  -3  -1  111.64    2.99
  -2   3   1  105.94    3.12
   2  -3  -1  116.73    3.04
   2  -3  -2   23.81    0.74
  -2   3   2   23.78    0.75
  -2   3   2   24.64    0.94
  -2   3   3   -0.18    0.22
  -2   3   3    0.12    0.52
   2  -3  -3    0.38    0.21
   2  -3  -4   59.77    1.65
  -2   3   4   57.92    1.61
   2  -3  -5  310.93    7.07
  -2   3   5  309.99    7.02
  -2   3   6   45.81    1.29
   2  -3  -6   54.42    1.63
  -2   3   6   51.29    1.51
  -2   3   7    8.75    0.34
   2  -3  -7   10.00    0.81
  -2   3   7   10.59    0.62
  -2   3   8   10.50    0.64
   2  -3  -8    9.20    0.87
  -2   3   8    8.51    0.36
  -2   3   9    5.52    0.32
   2  -3  -9    5.32    0.59
   2  -3  -9    5.64    0.88
  -2   3   9    5.41    0.33
  -2   3  10    3.70    0.31
   2  -3 -10    3.10    0.91
  -2   3  10    3.33    0.30
   2  -3 -10    4.08    0.55
  -2   3  11   93.91    2.64
  -2   3  11   94.22    2.64
   2  -3 -11  103.27    2.91
   2  -3 -11  104.63    3.08
   2  -3 -11  101.45    2.74
  -2   3  12   58.44    1.72
   2  -3 -12   65.75    2.02
  -2   3  12   60.94    1.72
   2  -3 -12   66.93    2.25
   2  -3 -12   62.97    1.81
   2  -3 -13    1.50    0.74
   2  -3 -13    1.05    1.01
   2  -3 -14   12.76    1.22
   2  -2  16    0.86    0.85
   2  -2  15    3.03    0.83
   2  -2  14    1.43    0.84
  -2   2 -14    0.60    0.71
  -2   2 -13   -0.38    0.84
   2  -2  13    0.80    0.80
  -2   2 -13    1.51    0.71
  -2   2 -12    0.52    0.67
  -2   2 -12   -0.51    0.78
  -2   2 -11   -0.61    0.76
  -2   2 -11   -0.17    0.61
  -2   2 -11   -0.12    0.64
  -2   2 -10    1.20    0.61
  -2   2 -10    0.96    0.60
  -2   2 -10    0.75    0.74
   2  -2  10    1.24    0.63
  -2   2  -9    5.45    0.65
  -2   2  -9    4.55    0.61
   2  -2   9    4.02    0.63
  -2   2  -9    5.16    0.75
  -2   2  -8   18.32    0.90
  -2   2  -8   20.38    0.84
   2  -2   8   13.99    0.46
  -2   2  -8   20.28    0.83
   2  -2   8   19.14    0.84
   2  -2   7   26.62    1.02
  -2   2  -7   25.24    1.07
  -2   2  -7   27.11    1.03
  -2   2  -7   27.85    1.04
  -2   2  -6    1.09    0.53
   2  -2   6   -0.24    0.50
  -2   2  -6    0.33    0.55
   2  -2   6    0.22    0.30
  -2   2  -6    0.19    0.52
  -2   2  -5  136.71    3.88
  -2   2  -5  142.43    3.88
   2  -2   5  139.62    3.85
  -2   2  -5  141.91    3.86
  -2   2  -5  144.90    3.86
   2  -2   5  136.77    3.76
   2  -2   4    0.03    0.50
  -2   2  -4    0.68    0.52
  -2   2  -4    0.35    0.52
   2  -2   4    0.50    0.50
   2  -2   4    0.81    0.36
  -2   2  -4    0.66    0.50
  -2   2  -4   -0.21    0.50
   2  -2   3   23.56    0.90
   2  -2   3   22.80    0.90
   2  -2   3   23.86    0.89
  -2   2  -3   24.51    0.86
   2  -2   3   24.58    0.83
  -2   2  -3   21.57    0.88
  -2   2  -3   23.98    0.90
   2  -2   2  136.68    3.51
  -2   2  -2  127.44    3.53
  -2   2  -2  129.03    3.46
  -2   2  -2  129.16    3.50
   2  -2   2  128.20    3.55
   2  -2   2  126.77    3.52
   2  -2   2  127.47    3.53
  -2   2  -1 4536.95  117.88
   2  -2   1 4341.06  117.90
   2  -2   1 4277.69  117.92
   2  -2   0  122.33    3.23
  -2   2   0  119.12    3.23
   2  -2  -1   46.57    1.31
   2  -2  -2   35.98    1.00
  -2   2   2   37.77    1.18
   2  -2  -2   34.85    1.16
   2  -2  -3  654.92   16.66
  -2   2   3  618.00   16.66
   2  -2  -3  620.66   16.66
   2  -2  -4  169.86    4.60
  -2   2   4  164.65    4.61
   2  -2  -4  176.27    4.64
   2  -2  -5   46.48    1.49
   2  -2  -6  276.34    7.47
  -2   2   7   20.22    0.91
   2  -2  -7   21.05    0.93
  -2   2   7   16.17    0.51
  -2   2   7   17.18    0.51
  -2   2   8    8.13    0.75
  -2   2   8    7.85    0.34
   2  -2  -8    9.20    0.83
  -2   2   9  212.72    5.85
   2  -2  -9  222.33    5.87
  -2   2   9  206.40    5.57
   2  -2 -10    4.18    0.85
  -2   2  10    4.97    0.79
  -2   2  10    4.45    0.34
   2  -2 -10    2.78    0.47
   2  -2 -11   70.88    2.28
  -2   2  11   70.31    2.25
   2  -2 -11   64.15    1.82
   2  -2 -11   70.37    2.07
  -2   2  11   66.19    1.86
   2  -2 -11   64.61    1.90
   2  -2 -12   10.96    1.05
  -2   2  12    9.13    0.46
   2  -2 -12    9.22    0.76
   2  -2 -12    7.19    0.47
  -2   2  12   10.71    1.02
   2  -2 -13   51.60    1.98
  -2   2  13   47.52    1.44
  -2   2  13   57.67    1.97
   2  -2 -13   49.70    1.67
   2  -2 -14    1.94    0.99
   2  -2 -15   -0.34    1.02
   2  -1  15    0.35    0.81
  -2   1 -14    7.34    0.86
  -2   1 -13   25.17    1.15
  -2   1 -13   26.12    1.21
  -2   1 -12    2.97    0.76
  -2   1 -12    4.37    0.80
  -2   1 -12    3.72    0.71
  -2   1 -11    0.21    0.69
  -2   1 -11    0.35    0.78
  -2   1 -11    0.75    0.65
  -2   1 -11    0.91    0.69
  -2   1 -10  134.89    3.99
  -2   1 -10  143.55    3.93
  -2   1 -10  137.90    3.87
  -2   1 -10  130.04    3.97
  -2   1  -9    6.69    0.67
  -2   1  -9    6.63    0.73
  -2   1  -9    6.69    0.79
   2  -1   9    5.61    0.72
   2  -1   8    4.10    0.72
  -2   1  -8    4.16    0.64
   2  -1   8    3.37    0.24
  -2   1  -8    5.04    0.65
   2  -1   8    3.26    0.65
  -2   1  -8    3.08    0.70
   2  -1   8    4.13    0.25
  -2   1  -7   28.32    1.13
  -2   1  -7   29.49    1.06
   2  -1   7   27.05    0.83
  -2   1  -7   28.12    1.09
   2  -1   7   27.18    1.07
   2  -1   7   27.87    1.13
   2  -1   7   26.18    0.82
  -2   1  -6  129.40    3.70
   2  -1   6  128.41    3.68
  -2   1  -6  130.01    3.66
   2  -1   6  136.65    3.72
  -2   1  -6  134.02    3.68
  -2   1  -5  282.78    7.81
  -2   1  -5  286.77    7.80
   2  -1   5  285.35    7.80
  -2   1  -5  298.16    7.80
  -2   1  -5  291.94    7.79
   2  -1   5  296.55    7.82
   2  -1   4   48.57    1.60
  -2   1  -4   53.37    1.61
  -2   1  -4   52.04    1.62
  -2   1  -4   54.54    1.61
   2  -1   4   55.50    1.62
  -2   1  -4   49.98    1.60
  -2   1  -3   63.32    1.86
  -2   1  -3   64.79    1.87
  -2   1  -3   59.90    1.87
   2  -1   3   64.53    1.88
  -2   1  -3   64.74    1.84
   2  -1   3   60.92    1.87
   2  -1   3   67.85    1.87
  -2   1  -2  124.85    3.30
  -2   1  -2  118.55    3.31
   2  -1   2  115.83    3.34
   2  -1   2  122.79    3.32
   2  -1   2  124.61    3.33
   2  -1   1  387.65    9.89
  -2   1  -1  367.47    9.91
  -2   1  -1  361.30    9.89
   2  -1   1  380.35    9.88
  -2   1   0 3754.67   99.23
   2  -1   0 3852.69   99.24
   2  -1   0 3773.15   99.21
  -2   1   0 3769.27   99.25
   2  -1  -1  279.15    7.39
   2  -1  -1  285.60    7.39
  -2   1   1  276.85    7.39
  -2   1   1  273.12    7.39
   2  -1  -2  791.10   21.18
   2  -1  -2  816.05   21.16
   2  -1  -3   31.73    0.95
   2  -1  -3   29.30    0.99
   2  -1  -3   32.49    0.90
   2  -1  -3   28.95    0.82
   2  -1  -4  195.58    5.10
   2  -1  -4  190.22    5.17
   2  -1  -4  187.25    5.17
  -2   1   5  334.40    9.07
   2  -1  -5  338.85    9.07
   2  -1  -5  345.38    9.04
   2  -1  -5  340.15    8.95
  -2   1   6   70.83    2.00
   2  -1  -6   79.32    2.12
  -2   1   6   77.02    2.19
   2  -1  -6   83.61    2.22
  -2   1   7  197.97    5.34
   2  -1  -7  208.47    5.53
  -2   1   7  203.04    5.52
   2  -1  -7  203.78    5.41
   2  -1  -8  166.32    4.57
  -2   1   8  161.19    4.36
  -2   1   8  168.90    4.58
  -2   1   9   38.13    1.39
   2  -1  -9   35.64    1.38
  -2   1   9   36.26    1.09
  -2   1  10   44.13    1.30
  -2   1  10   45.11    1.63
   2  -1 -10   43.44    1.41
   2  -1 -10   43.67    1.62
   2  -1 -11    4.33    0.56
   2  -1 -11    3.94    0.38
   2  -1 -11    4.55    0.87
  -2   1  11    4.87    0.84
  -2   1  11    3.84    0.42
  -2   1  12    3.87    0.83
   2  -1 -12    2.37    0.26
   2  -1 -12    3.99    0.60
   2  -1 -12    4.52    0.90
  -2   1  12    3.51    0.44
   2  -1 -13    4.01    0.60
   2  -1 -13    5.82    1.00
  -2   1  13    3.11    0.44
  -2   1  13    3.60    0.90
  -2   1  14   16.49    1.17
   2  -1 -14   13.48    1.17
   2  -1 -15    4.82    1.06
   2  -1 -16   10.64    1.22
  -2   0 -14    4.08    0.88
  -2   0 -14    4.68    0.93
  -2   0 -13    9.13    0.83
  -2   0 -13    9.49    0.99
  -2   0 -13    9.00    0.94
  -2   0 -12    5.00    0.83
  -2   0 -12    4.12    0.74
   2   0  12    6.31    1.00
  -2   0 -12    3.38    0.83
  -2   0 -11    5.56    0.83
   2   0  11    5.05    0.92
  -2   0 -11    4.98    0.75
  -2   0 -11    4.74    0.81
  -2   0 -10   -0.16    0.67
  -2   0 -10   -0.30    0.69
  -2   0 -10    0.31    0.71
   2   0  10   -0.56    0.78
  -2   0  -9   27.65    1.18
  -2   0  -9   28.39    1.14
   2   0   9   28.85    1.27
  -2   0  -8   29.40    1.17
  -2   0  -8   28.99    1.13
   2   0   8   31.48    1.25
   2   0   8   27.96    0.90
   2   0   7   10.10    0.50
   2   0   7    8.36    0.74
   2   0   7   10.23    0.79
  -2   0  -7    9.72    0.76
  -2   0  -6  153.76    4.37
   2   0   6  157.52    4.26
   2   0   6  155.29    4.39
   2   0   6  164.92    4.42
  -2   0  -5   13.93    0.79
   2   0   5   15.39    0.79
  -2   0  -5   14.93    0.78
   2   0   5   15.01    0.80
  -2   0  -5   14.98    0.73
   2   0   4    1.33    0.56
   2   0   4    0.88    0.56
  -2   0  -4    0.06    0.57
  -2   0  -4    0.58    0.56
  -2   0  -4    1.45    0.53
   2   0   3 2039.39   54.45
  -2   0  -3 2080.53   54.43
   2   0   3 2107.42   54.43
  -2   0  -3 2059.76   54.42
   2   0   2  460.15   11.69
  -2   0  -2  436.73   11.68
   2   0   2  441.24   11.67
  -2   0  -2  429.63   11.66
  -2   0  -1    8.95    0.59
  -2   0  -1    8.36    0.58
   2   0   1    9.36    0.46
  -2   0  -1    8.82    0.46
   2   0   1    9.54    0.56
  -2   0   0  286.10    7.77
  -2   0   0  289.91    7.69
  -2   0   0  293.26    7.77
   2   0   0  296.01    7.70
  -2   0   1  148.82    4.07
  -2   0   1  150.06    4.05
   2   0  -1  152.46    4.06
   2   0  -2 3502.27   90.73
   2   0  -2 3429.70   90.69
   2   0  -2 3489.84   90.73
   2   0  -3 1699.32   44.64
  -2   0   3 1699.43   44.64
   2   0  -3 1719.78   44.64
  -2   0   3 1689.12   44.65
  -2   0   4  480.52   12.72
   2   0  -4  490.25   12.72
  -2   0   4  472.33   12.75
   2   0  -4  486.27   12.75
  -2   0   5    7.83    0.40
   2   0  -5    7.55    0.37
  -2   0   5    6.74    0.52
   2   0  -5    6.92    0.48
  -2   0   6   33.24    0.99
  -2   0   6   31.06    1.11
   2   0  -6   34.21    1.12
   2   0  -7    4.26    0.46
   2   0  -7    4.42    0.59
  -2   0   7    4.81    0.37
  -2   0   7    5.45    0.58
  -2   0   8   81.39    2.47
   2   0  -8   82.94    2.33
  -2   0   8   84.06    2.31
   2   0  -8   84.57    2.48
  -2   0   9   11.97    0.79
   2   0  -9   11.43    0.81
  -2   0   9   10.97    0.56
   2   0  -9   10.52    0.55
   2   0  -9   11.02    0.54
   2   0 -10   33.83    1.09
   2   0 -10   36.11    1.38
  -2   0  10   34.90    1.12
  -2   0  10   33.08    1.34
   2   0 -11   41.29    1.28
  -2   0  11   40.49    1.56
  -2   0  11   42.35    1.32
   2   0 -11   41.78    1.58
   2   0 -12    1.46    0.17
   2   0 -12    0.55    0.84
  -2   0  12    0.96    0.48
   2   0 -12    1.07    0.44
  -2   0  12    1.46    0.79
   2   0 -12    1.23    0.17
  -2   0  13    3.08    0.87
   2   0 -13    5.31    0.48
   2   0 -13    3.75    0.90
  -2   0  13    3.98    0.50
  -2   0  14    7.33    0.99
   2   0 -14    5.39    0.97
   2   0 -15   30.76    1.53
   2   0 -16    2.50    1.03
  -2  -1 -14   11.08    1.05
  -2  -1 -14   10.84    1.18
  -2  -1 -14   11.41    1.11
  -2  -1 -13    0.45    0.94
  -2  -1 -13    3.31    0.79
  -2  -1 -13    2.84    0.90
  -2  -1 -13    3.14    0.89
  -2  -1 -12    5.23    0.93
  -2  -1 -12    3.99    0.86
   2   1  12    4.46    0.97
  -2  -1 -12    4.72    0.98
  -2  -1 -12    3.97    0.78
  -2  -1 -12    4.38    0.87
  -2  -1 -11   29.94    1.42
  -2  -1 -11   29.11    1.36
  -2  -1 -11   31.72    1.40
  -2  -1 -11   29.80    1.28
   2   1  11   30.85    1.45
  -2  -1 -11   30.51    1.40
   2   1  10   12.50    1.04
  -2  -1 -10   11.01    0.93
  -2  -1 -10   10.98    0.98
  -2  -1 -10   11.82    0.94
  -2  -1 -10   13.09    0.98
  -2  -1  -9   13.89    0.96
  -2  -1  -9   12.81    0.93
  -2  -1  -9   10.91    0.97
   2   1   9   13.37    1.00
  -2  -1  -9   13.50    0.94
  -2  -1  -8   28.64    1.29
  -2  -1  -8   31.39    1.29
   2   1   8   32.96    1.32
  -2  -1  -8   28.39    1.24
   2   1   8   30.60    1.01
  -2  -1  -7   10.11    0.85
  -2  -1  -7    9.52    0.79
   2   1   7   10.75    0.83
   2   1   7    9.55    0.57
   2   1   6  123.24    3.45
  -2  -1  -6  117.86    3.44
  -2  -1  -6  116.15    3.43
   2   1   6  120.41    3.31
  -2  -1  -5  575.99   15.30
  -2  -1  -5  568.32   15.30
   2   1   5  584.05   15.32
   2   1   5  580.77   15.30
   2   1   5  570.81   15.22
   2   1   4 1149.23   30.66
   2   1   4 1175.58   30.63
  -2  -1  -4 1161.20   30.65
   2   1   4 1177.34   30.67
  -2  -1  -4 1171.76   30.64
   2   1   4 1145.56   30.59
   2   1   3   41.93    1.32
   2   1   3   40.71    1.36
  -2  -1  -3   40.73    1.31
  -2  -1  -3   41.36    1.38
   2   1   2  695.67   18.16
  -2  -1  -2  682.12   18.16
  -2  -1  -1  191.98    5.17
   2   1   1  193.37    5.10
  -2  -1  -1  188.40    5.10
  -2  -1   0    1.66    0.27
   2   1   0    1.99    0.27
   2   1   0    1.42    0.50
  -2  -1   0    2.01    0.46
  -2  -1   1 1020.82   26.98
   2   1  -1 1039.49   26.98
   2   1  -1 1017.22   27.00
   2   1  -2  905.49   23.78
  -2  -1   2  894.64   23.76
   2   1  -2  915.28   23.76
  -2  -1   2  899.15   23.79
   2   1  -3   28.05    0.83
  -2  -1   3   25.58    0.77
  -2  -1   3   27.88    0.92
   2   1  -3   28.18    0.89
   2   1  -3   26.30    0.76
   2   1  -4  201.15    5.32
  -2  -1   4  195.70    5.32
   2   1  -4  199.66    5.25
  -2  -1   4  190.05    5.28
   2   1  -4  205.05    5.28
   2   1  -5 1657.94   43.82
   2   1  -5 1705.80   43.89
  -2  -1   5 1682.18   43.90
  -2  -1   5 1652.60   43.89
   2   1  -5 1685.52   43.89
  -2  -1   6  125.35    3.31
   2   1  -6  126.70    3.27
   2   1  -6  113.55    3.17
  -2  -1   6  126.67    3.28
   2   1  -6  128.68    3.31
   2   1  -7   59.12    1.63
   2   1  -7   72.50    1.78
  -2  -1   7   73.99    1.79
  -2  -1   7   71.39    1.86
   2   1  -7   56.03    1.63
   2   1  -7   72.83    1.85
   2   1  -8    2.83    0.59
  -2  -1   8    2.57    0.57
   2   1  -8    1.77    0.14
  -2  -1   8    1.64    0.44
  -2  -1   9   69.63    1.88
  -2  -1   9   74.45    2.03
   2   1  -9   70.28    1.84
   2   1  -9   71.52    2.01
  -2  -1  10   18.94    0.76
   2   1 -10   15.97    0.51
   2   1 -10   19.06    0.69
  -2  -1  10   19.84    0.96
   2   1 -10   17.72    0.95
  -2  -1  11  178.97    4.54
  -2  -1  11  184.15    4.74
   2   1 -11  180.68    4.70
   2   1 -11  174.28    4.42
   2   1 -12    7.18    0.28
  -2  -1  12    9.35    0.88
   2   1 -12    8.83    0.91
   2   1 -12    5.75    0.28
   2   1 -13    0.64    0.86
  -2  -1  13    0.42    0.80
  -2  -1  14   33.22    1.47
   2   1 -14   30.39    1.45
  -2  -1  15    4.46    0.98
   2   1 -15    2.45    0.95
   2   1 -16    3.30    1.00
  -2  -2 -13   -0.03    0.97
  -2  -2 -13    1.31    0.80
  -2  -2 -13    1.22    0.92
  -2  -2 -13    1.77    0.91
  -2  -2 -12    4.72    0.88
  -2  -2 -12    4.55    0.92
  -2  -2 -12    3.29    0.97
  -2  -2 -12    3.17    0.92
   2   2  11    0.64    0.89
  -2  -2 -11   -0.38    0.90
  -2  -2 -11   -0.93    0.83
  -2  -2 -11    0.60    0.82
  -2  -2 -11    0.45    0.83
   2   2  10   46.34    1.73
  -2  -2 -10   44.32    1.67
  -2  -2 -10   39.44    1.67
  -2  -2 -10   41.58    1.68
  -2  -2 -10   42.05    1.64
  -2  -2  -9    3.68    0.77
  -2  -2  -9    3.96    0.82
  -2  -2  -9    3.84    0.84
   2   2   9    3.59    0.84
  -2  -2  -9    3.35    0.84
  -2  -2  -8    2.16    0.73
  -2  -2  -8    1.49    0.81
   2   2   8    1.53    0.77
  -2  -2  -8    1.33    0.79
   2   2   8    2.07    0.54
  -2  -2  -7  215.73    5.85
   2   2   7  214.58    5.86
  -2  -2  -7  205.47    5.86
   2   2   7  205.69    5.72
  -2  -2  -7  213.89    5.86
  -2  -2  -6  332.24    9.19
  -2  -2  -6  348.27    9.19
   2   2   6  350.98    9.18
   2   2   6  329.88    9.08
  -2  -2  -5  280.47    7.68
   2   2   5  286.90    7.65
   2   2   5  279.74    7.60
  -2  -2  -4   23.42    1.03
   2   2   4   24.32    0.96
  -2  -2  -4   21.84    0.91
   2   2   4   23.68    0.94
  -2  -2  -3   -0.18    0.48
   2   2   3    0.51    0.55
  -2  -2  -3   -0.01    0.60
   2   2   3    0.33    0.49
   2   2   3    0.73    0.51
  -2  -2  -2   15.59    0.69
   2   2   2   16.09    0.74
  -2  -2  -2   17.26    0.80
  -2  -2  -2   15.44    0.73
   2   2   2   15.34    0.69
   2   2   2   16.42    0.80
   2   2   2   16.08    0.80
  -2  -2  -1   59.12    1.83
   2   2   1   61.71    1.85
  -2  -2  -1   61.06    1.83
  -2  -2  -1   62.24    1.75
   2   2   1   59.68    1.84
  -2  -2   0  365.45    9.70
  -2  -2   0  361.94    9.61
   2   2   0  363.39    9.71
   2   2   0  368.14    9.71
  -2  -2   1  241.41    6.39
   2   2  -1  238.38    6.42
   2   2  -1  246.64    6.40
  -2  -2   1  234.42    6.29
  -2  -2   2   50.30    1.46
  -2  -2   2   57.20    1.66
   2   2  -2   59.88    1.59
  -2  -2   2   58.05    1.59
   2   2  -2   59.65    1.66
   2   2  -2   56.52    1.64
  -2  -2   3    7.17    0.57
  -2  -2   3    7.12    0.42
   2   2  -3    6.35    0.42
  -2  -2   3    5.64    0.29
   2   2  -3    6.26    0.55
   2   2  -3    6.66    0.54
   2   2  -4   50.32    1.62
  -2  -2   4   51.62    1.60
   2   2  -4   55.51    1.48
   2   2  -4   51.96    1.59
  -2  -2   4   53.75    1.48
  -2  -2   4   51.58    1.49
   2   2  -5   10.19    0.64
   2   2  -5   11.33    0.51
   2   2  -5   12.14    0.61
  -2  -2   5   12.45    0.54
  -2  -2   5   12.07    0.66
  -2  -2   6   15.80    0.68
  -2  -2   6   16.59    0.73
   2   2  -6   15.46    0.67
   2   2  -6   16.16    0.71
   2   2  -7    3.93    0.51
   2   2  -7    3.62    0.48
  -2  -2   7    3.60    0.52
  -2  -2   7    3.56    0.50
   2   2  -8    0.89    0.53
   2   2  -8    0.57    0.46
  -2  -2   8    0.12    0.53
  -2  -2   8    0.31    0.43
  -2  -2   9   85.14    2.42
   2   2  -9   83.99    2.47
  -2  -2   9   84.57    2.48
   2   2  -9   81.08    2.35
   2   2 -10   92.99    2.61
  -2  -2  10   94.79    2.79
   2   2 -10   94.21    2.77
   2   2 -11   30.32    1.02
  -2  -2  11   34.82    1.34
   2   2 -11   32.73    1.01
   2   2 -11   33.38    1.31
   2   2 -12   34.99    1.36
  -2  -2  12   34.84    1.38
   2   2 -12   31.79    0.96
   2   2 -12   31.05    0.96
   2   2 -13    5.91    0.89
  -2  -2  13    6.42    0.88
   2   2 -14    8.26    0.97
  -2  -2  14    6.27    0.95
  -2  -2  15    0.89    0.89
   2   2 -15    0.90    0.89
   2   2 -16    2.61    1.01
   2   2 -17    2.49    1.06
  -2  -3 -13    4.25    0.99
   2   3  12    7.47    0.91
  -2  -3 -12    4.97    0.97
  -2  -3 -12    5.52    1.06
   2   3  11    1.80    0.91
   2   3  11    0.43    0.76
  -2  -3 -11    1.77    0.87
  -2  -3 -11    1.28    0.97
  -2  -3 -11    2.21    0.89
  -2  -3 -10   25.47    1.32
  -2  -3 -10   25.19    1.35
  -2  -3 -10   22.96    1.28
   2   3  10   28.43    1.36
   2   3   9   31.14    1.42
  -2  -3  -9   31.88    1.44
  -2  -3  -9   32.63    1.43
  -2  -3  -8    0.24    0.73
   2   3   8    0.21    0.77
  -2  -3  -8    1.30    0.83
   2   3   8    0.16    0.61
   2   3   7   43.10    1.57
  -2  -3  -7   42.35    1.60
   2   3   7   38.06    1.40
  -2  -3  -6  170.34    4.76
   2   3   6  161.25    4.64
   2   3   6  168.32    4.72
   2   3   6  170.62    4.71
   2   3   5    1.41    0.64
   2   3   5    0.58    0.58
   2   3   5    0.13    0.63
   2   3   4    4.38    0.61
   2   3   4    5.28    0.68
   2   3   4    4.85    0.64
   2   3   3   31.18    1.20
  -2  -3  -3   34.10    1.21
  -2  -3  -3   34.57    1.15
   2   3   3   32.04    1.22
  -2  -3  -2   60.10    1.80
   2   3   2   57.42    1.82
  -2  -3  -2   58.06    1.74
   2   3   2   56.06    1.83
  -2  -3  -1  254.33    6.60
  -2  -3  -1  244.31    6.60
  -2  -3  -1  241.90    6.53
   2   3   1  234.18    6.61
   2   3   1  243.81    6.63
  -2  -3   0   91.17    2.56
   2   3   0   91.61    2.56
  -2  -3   0   88.42    2.54
  -2  -3   0   87.29    2.46
   2   3   0   85.71    2.60
   2   3  -1   95.40    2.73
  -2  -3   1   93.20    2.71
  -2  -3   1   95.21    2.61
  -2  -3   1   96.03    2.75
  -2  -3   1  100.21    2.74
  -2  -3   2  388.43    9.81
  -2  -3   2  364.28    9.82
   2   3  -2  359.72    9.80
  -2  -3   2  358.71    9.76
   2   3  -2  366.59    9.81
  -2  -3   3  583.07   15.68
   2   3  -3  590.83   15.80
  -2  -3   3  600.66   15.74
   2   3  -3  608.40   15.81
  -2  -3   3  599.91   15.82
   2   3  -3  619.24   15.83
   2   3  -4   28.84    1.04
  -2  -3   4   28.06    0.89
   2   3  -4   28.31    1.03
  -2  -3   4   27.30    1.02
   2   3  -4   30.30    1.08
  -2  -3   4   27.72    0.87
  -2  -3   5  108.70    2.90
   2   3  -5  111.55    3.06
  -2  -3   5  107.89    3.05
  -2  -3   5  105.39    2.95
   2   3  -5  107.00    3.06
   2   3  -6   74.45    2.08
   2   3  -6   74.97    2.17
  -2  -3   6   71.59    2.09
  -2  -3   6   72.43    2.17
   2   3  -6   74.27    2.17
  -2  -3   7    7.99    0.57
   2   3  -7    9.83    0.59
   2   3  -7    8.04    0.64
   2   3  -7    8.95    0.63
   2   3  -8  243.77    6.56
  -2  -3   8  245.56    6.59
   2   3  -8  242.04    6.59
   2   3  -8  240.90    6.56
   2   3  -9  233.80    6.36
   2   3  -9  234.35    6.32
  -2  -3   9  235.54    6.39
   2   3  -9  233.05    6.37
  -2  -3  10  110.56    3.27
   2   3 -10  114.00    3.25
   2   3 -10  112.65    3.14
   2   3 -11   41.08    1.49
  -2  -3  11   41.40    1.52
   2   3 -11   41.85    1.30
   2   3 -12    3.93    0.79
   2   3 -12    4.15    0.43
  -2  -3  12    2.76    0.73
   2   3 -13   20.92    1.14
   2   3 -13   19.66    0.66
  -2  -3  13   22.49    1.18
  -2  -3  14    7.28    0.95
   2   3 -14    5.58    0.93
   2   3 -15   -0.32    0.93
  -2  -3  15   -0.79    0.90
  -2  -3  15    0.79    0.62
   2   3 -16    1.57    0.99
   2   3 -17    5.26    1.04
  -2  -4 -12    5.08    1.00
  -2  -4 -11   17.36    1.22
   2   4  11   18.49    1.12
   2   4  10    6.70    0.87
  -2  -4 -10    7.31    0.97
  -2  -4 -10    6.44    1.04
   2   4   9   -0.19    0.74
  -2  -4  -9    0.26    0.77
  -2  -4  -9    0.56    0.91
   2   4   8    9.01    0.85
  -2  -4  -8    9.91    0.93
  -2  -4  -8   10.82    1.04
  -2  -4  -7  148.51    4.15
  -2  -4  -7  136.20    4.08
   2   4   7  138.36    4.01
   2   4   7  140.06    4.05
   2   4   6    0.92    0.72
  -2  -4  -6   -0.31    0.75
   2   4   6    0.24    0.68
  -2  -4  -5   83.39    2.50
   2   4   5   78.40    2.49
   2   4   5   80.18    2.48
  -2  -4  -4  154.05    4.26
   2   4   4  148.35    4.27
   2   4   4  148.86    4.26
   2   4   3    0.20    0.59
  -2  -4  -3   -0.29    0.62
   2   4   3   -0.46    0.69
  -2  -4  -2   11.95    0.76
   2   4   2   10.99    0.76
  -2  -4  -2   12.12    0.65
   2   4   2   11.24    0.80
   2   4   1   32.09    1.20
  -2  -4  -1   32.89    1.17
  -2  -4  -1   31.39    1.10
   2   4   1   32.00    1.26
  -2  -4   0  166.08    4.40
  -2  -4   0  155.03    4.32
   2   4   0  157.21    4.46
  -2  -4   1   11.09    0.72
  -2  -4   1   11.67    0.56
  -2  -4   1   11.50    0.65
  -2  -4   2  358.57    9.28
  -2  -4   2  335.34    9.24
  -2  -4   3  164.75    4.57
  -2  -4   3  171.69    4.64
   2   4  -3  174.36    4.73
   2   4  -3  180.72    4.76
  -2  -4   4  134.57    3.67
  -2  -4   4  134.41    3.71
   2   4  -4  137.71    3.81
   2   4  -4  139.52    3.84
   2   4  -5  122.89    3.31
  -2  -4   5  113.40    3.13
   2   4  -5  117.50    3.31
  -2  -4   5  113.09    3.15
   2   4  -6   10.12    0.70
  -2  -4   6    9.47    0.39
  -2  -4   6    9.75    0.56
   2   4  -6   10.11    0.72
   2   4  -7   22.14    0.95
  -2  -4   7   20.38    0.84
   2   4  -7   19.80    0.95
   2   4  -8   31.08    1.10
   2   4  -8   30.63    1.18
  -2  -4   8   31.11    1.13
   2   4  -8   31.95    1.17
   2   4  -9   86.78    2.50
   2   4  -9   84.60    2.53
  -2  -4   9   85.63    2.51
   2   4  -9   83.00    2.49
  -2  -4  10   93.30    2.57
   2   4 -10   94.63    2.56
   2   4 -10   96.82    2.59
   2   4 -10   85.02    2.47
   2   4 -11    9.98    0.82
  -2  -4  11    8.74    0.82
   2   4 -11    8.83    0.63
   2   4 -12    0.73    0.74
   2   4 -12    0.32    0.46
  -2  -4  12    0.83    0.72
   2   4 -13    6.82    0.86
  -2  -4  13    5.36    0.83
   2   4 -13    5.00    0.47
  -2  -4  13    5.27    0.74
  -2  -4  14    5.78    0.78
   2   4 -14    6.03    0.91
  -2  -4  14    6.32    0.92
   2   4 -15   25.39    1.32
  -2  -4  15   22.99    1.29
  -2  -4  15   25.19    1.14
   2   4 -16    3.02    0.95
   2   4 -17    3.14    1.02
   2   5  11    7.84    0.98
  -2  -5 -11    9.05    1.07
   2   5  10    1.75    0.84
  -2  -5 -10    1.00    0.88
   2   5   9    1.50    0.79
  -2  -5  -9    1.86    0.85
  -2  -5  -9    0.37    0.94
  -2  -5  -9    1.17    0.93
   2   5   8    0.63    0.77
  -2  -5  -8    1.32    0.81
  -2  -5  -8    0.52    0.92
  -2  -5  -8    0.71    0.91
  -2  -5  -7   31.13    1.36
  -2  -5  -7   29.46    1.41
   2   5   7   29.46    1.31
  -2  -5  -7   30.09    1.42
  -2  -5  -7   29.33    1.35
   2   5   7   26.91    1.29
   2   5   6    0.71    0.76
  -2  -5  -6    1.40    0.72
  -2  -5  -6    2.80    0.76
   2   5   6    2.45    0.79
   2   5   5   46.23    1.68
  -2  -5  -5   48.62    1.66
   2   5   5   44.80    1.68
  -2  -5  -4  113.95    2.90
   2   5   4  105.33    2.92
   2   5   4  106.66    2.93
  -2  -5  -3   39.17    1.38
   2   5   3   33.10    1.39
   2   5   3   36.10    1.43
  -2  -5  -2   65.11    2.01
   2   5   2   62.28    2.05
   2   5   2   64.11    2.09
  -2  -5  -1   75.71    2.22
   2   5   1   72.56    2.27
   2   5   1   69.49    2.28
  -2  -5  -1   72.68    2.15
  -2  -5   0   19.49    0.89
  -2  -5   0   17.16    0.77
   2   5   0   16.52    0.92
   2   5   0   17.99    0.97
  -2  -5   1  111.51    3.09
  -2  -5   1  104.01    2.98
  -2  -5   2   39.46    1.38
   2   5  -3  111.95    3.42
  -2  -5   3  118.19    3.32
  -2  -5   4  107.03    2.93
   2   5  -4  104.02    3.09
  -2  -5   4  103.37    2.97
   2   5  -4  110.37    3.13
   2   5  -5    6.51    0.74
  -2  -5   5    6.40    0.51
  -2  -5   5    5.28    0.50
   2   5  -5    7.28    0.71
  -2  -5   6   45.61    1.34
   2   5  -6   45.62    1.58
   2   5  -6   45.33    1.59
  -2  -5   6   45.55    1.41
   2   5  -7    8.25    0.76
   2   5  -7    8.74    0.77
  -2  -5   7    7.41    0.35
  -2  -5   7    8.22    0.58
   2   5  -8  328.62    8.89
   2   5  -8  332.45    8.93
  -2  -5   8  326.68    8.83
   2   5  -9   86.11    2.72
   2   5  -9   91.70    2.66
   2   5  -9   87.31    2.61
  -2  -5   9   85.33    2.58
   2   5 -10  105.03    3.17
  -2  -5  10  104.46    3.03
   2   5 -10  111.45    3.11
   2   5 -10   97.97    3.00
   2   5 -11    0.66    0.68
  -2  -5  11   -0.27    0.70
   2   5 -11    0.87    0.49
  -2  -5  11    0.27    0.29
  -2  -5  11   -0.10    0.66
   2   5 -11    0.59    0.64
   2   5 -12    3.52    0.72
   2   5 -12    2.56    0.50
  -2  -5  12    3.83    0.77
  -2  -5  12    1.65    0.73
   2   5 -13   10.95    0.90
   2   5 -13    9.13    0.62
  -2  -5  13   10.40    0.92
  -2  -5  13   10.02    0.91
  -2  -5  14    6.64    0.91
  -2  -5  14    7.94    0.84
   2   5 -14    7.71    0.91
   2   5 -15    0.71    0.87
  -2  -5  15   -0.15    0.72
   2   5 -16    3.68    0.92
  -2  -6 -10    0.63    0.93
   2   6   9   -0.54    0.83
  -2  -6  -9   -0.59    0.92
   2   6   8    1.12    0.80
  -2  -6  -8    1.32    0.84
  -2  -6  -8    1.96    0.83
   2   6   7   12.96    1.01
  -2  -6  -7   12.24    0.99
  -2  -6  -7   12.93    1.07
  -2  -6  -7   12.09    1.01
  -2  -6  -6   28.51    1.25
  -2  -6  -6   26.25    1.29
   2   6   6   25.60    1.27
   2   6   6   27.27    1.32
   2   6   5    1.73    0.77
  -2  -6  -5    2.15    0.75
  -2  -6  -5    1.61    0.74
  -2  -6  -5    1.33    0.72
   2   6   5    2.07    0.82
   2   6   4    0.48    0.73
  -2  -6  -4    0.21    0.69
   2   6   4   -0.40    0.74
  -2  -6  -4    0.24    0.69
   2   6   4    0.64    0.81
   2   6   3    3.71    0.83
  -2  -6  -3    4.01    0.75
  -2  -6  -3    5.03    0.75
   2   6   3    4.60    0.80
  -2  -6  -2   37.77    1.40
   2   6   2   37.06    1.48
   2   6   2   38.05    1.47
  -2  -6  -2   37.24    1.47
   2   6   2   38.38    1.53
  -2  -6  -1    3.39    0.64
   2   6   1    3.74    0.73
   2   6   1    2.41    0.76
   2   6   1    1.88    0.69
  -2  -6   0    2.69    0.64
   2   6   0    2.44    0.78
   2   6   0    1.96    0.68
  -2  -6   1    7.47    0.69
   2   6  -1    6.41    0.74
  -2  -6   1    6.82    0.55
  -2  -6   2   19.65    0.94
   2   6  -3  132.32    3.86
  -2  -6   4   60.08    1.77
  -2  -6   4   56.14    1.80
   2   6  -4   59.57    2.00
   2   6  -4   61.92    1.98
  -2  -6   5  133.67    3.73
   2   6  -5  141.58    3.94
  -2  -6   5  134.35    3.76
   2   6  -5  135.77    3.93
  -2  -6   6   15.10    0.72
  -2  -6   6   13.28    0.67
   2   6  -6   16.18    0.94
   2   6  -6   14.38    0.97
  -2  -6   7    2.61    0.76
   2   6  -7    1.49    0.73
  -2  -6   7    2.08    0.37
   2   6  -7    1.53    0.72
  -2  -6   7    2.23    0.53
   2   6  -8    7.99    0.79
  -2  -6   8    6.67    0.30
  -2  -6   8    7.93    0.63
  -2  -6   8    7.58    0.82
   2   6  -8    8.81    0.83
   2   6  -8    7.77    0.77
   2   6  -9   16.96    1.01
   2   6  -9   20.95    1.03
  -2  -6   9   17.57    1.07
  -2  -6   9   18.33    0.89
   2   6  -9   17.53    0.97
  -2  -6  10    4.75    0.67
   2   6 -10    1.93    0.74
  -2  -6  10    3.41    0.78
   2   6 -10    2.66    0.73
   2   6 -10    2.82    0.67
   2   6 -11    2.43    0.62
  -2  -6  11    2.97    0.69
   2   6 -11    1.89    0.78
   2   6 -11    3.28    0.80
  -2  -6  11    2.78    0.79
   2   6 -12    9.10    0.98
   2   6 -12    8.91    0.87
   2   6 -12    7.97    0.70
  -2  -6  12    8.21    0.92
  -2  -6  12    8.61    0.83
   2   6 -13    3.99    0.91
  -2  -6  13    5.62    0.86
  -2  -6  13    3.99    0.85
  -2  -6  14    4.08    0.85
  -2  -6  15    7.43    0.89
  -2  -7  -9    1.39    0.96
  -2  -7  -8    2.52    0.90
  -2  -7  -7    1.76    0.82
   2   7   7    0.18    0.86
  -2  -7  -7    1.16    0.84
  -2  -7  -6   10.22    0.96
  -2  -7  -6   13.21    1.03
   2   7   6   12.77    1.04
  -2  -7  -5    0.14    0.74
  -2  -7  -5    0.58    0.80
   2   7   5    1.51    0.92
  -2  -7  -5    0.82    0.75
   2   7   5    0.66    0.82
  -2  -7  -4   20.20    1.08
   2   7   4   17.57    1.13
   2   7   4   17.90    1.07
  -2  -7  -4   19.21    1.11
  -2  -7  -4   17.08    1.03
   2   7   4   20.95    1.21
   2   7   3    0.37    0.88
  -2  -7  -3    0.10    0.72
   2   7   3    0.29    0.72
  -2  -7  -3    0.54    0.77
  -2  -7  -3    0.52    0.69
   2   7   3   -0.52    0.77
  -2  -7  -2   52.67    1.76
   2   7   2   53.88    1.89
  -2  -7  -2   50.23    1.87
   2   7   2   52.55    1.95
   2   7   2   54.49    1.90
  -2  -7  -1    0.56    0.67
   2   7   1    1.12    0.82
  -2  -7  -1    1.35    0.71
   2   7   1   -0.09    0.75
   2   7   1   -0.20    0.74
  -2  -7   0    0.04    0.66
  -2  -7   0   -0.23    0.69
   2   7   0    0.53    0.76
   2   7   0   -0.16    0.74
   2   7   0    0.42    0.82
  -2  -7   1   38.02    1.40
   2   7  -1   36.81    1.49
   2   7  -1   37.99    1.47
  -2  -7   2    3.89    0.71
   2   7  -2    4.57    0.79
   2   7  -3   16.42    1.08
  -2  -7   4   47.96    1.74
  -2  -7   4   46.60    1.50
   2   7  -4   47.69    1.78
  -2  -7   5   72.31    2.17
  -2  -7   5   75.13    2.40
   2   7  -5   74.46    2.39
   2   7  -5   73.30    2.41
  -2  -7   6    1.88    0.78
  -2  -7   6    4.14    0.49
   2   7  -6    2.84    0.79
  -2  -7   6    1.82    0.57
   2   7  -6    1.66    0.82
   2   7  -7   39.60    1.51
   2   7  -7   40.95    1.58
  -2  -7   7   40.19    1.27
  -2  -7   7   38.41    1.58
   2   7  -7   41.27    1.57
  -2  -7   7   40.12    1.36
  -2  -7   8    1.12    0.76
  -2  -7   8    0.91    0.58
   2   7  -8    0.76    0.73
  -2  -7   8    1.04    0.33
   2   7  -8    0.97    0.76
   2   7  -8    0.43    0.76
  -2  -7   9    8.16    0.89
   2   7  -9    6.58    0.84
  -2  -7   9    6.58    0.69
   2   7  -9    7.72    0.88
   2   7  -9    6.90    0.81
  -2  -7  10    3.34    0.87
   2   7 -10    3.79    0.82
   2   7 -10    4.66    0.84
  -2  -7  10    4.62    0.69
   2   7 -10    4.21    0.75
   2   7 -11    0.16    0.80
  -2  -7  11    0.30    0.65
   2   7 -11   -0.36    0.80
   2   7 -11    0.48    0.68
  -2  -7  11    0.15    0.82
  -2  -7  12    2.89    0.73
   2   7 -12    0.86    0.84
   2   7 -12    2.83    0.84
  -2  -7  12    0.60    0.86
   2   7 -12    1.95    0.67
   2   7 -13    5.19    0.91
  -2  -7  13    3.24    0.92
   2   7 -14    4.16    0.93
  -2  -7  14    3.01    0.90
  -2  -7  15   18.78    1.22
  -2  -8  -8    1.83    0.91
  -2  -8  -7    0.16    0.86
  -2  -8  -6    3.67    0.87
  -2  -8  -6    4.12    0.93
  -2  -8  -5   13.82    1.05
  -2  -8  -5   14.27    1.01
   2   8   5   10.85    1.04
  -2  -8  -4    4.07    0.79
   2   8   4    4.45    0.91
   2   8   4    3.29    0.80
  -2  -8  -4    4.61    0.85
   2   8   4    3.88    1.01
  -2  -8  -3    3.33    0.75
   2   8   3    3.77    0.83
   2   8   3    2.28    0.97
  -2  -8  -3    2.94    0.84
  -2  -8  -3    1.76    0.74
   2   8   3    1.77    0.84
  -2  -8  -2    4.49    0.77
   2   8   2    2.41    0.77
  -2  -8  -2    2.91    0.75
  -2  -8  -2    5.65    0.88
   2   8   2    4.37    0.88
   2   8   2    2.37    0.98
  -2  -8  -1    9.55    0.89
  -2  -8  -1    7.95    0.82
   2   8   1    8.79    0.86
   2   8   1    8.97    0.95
   2   8   1    9.08    0.96
   2   8   1    7.63    1.02
  -2  -8   0    3.91    0.71
   2   8   0    3.34    0.73
   2   8   0    2.90    0.83
  -2  -8   0    2.04    0.77
   2   8   0    3.39    0.85
   2   8   0    2.69    0.94
   2   8  -1    5.19    0.86
  -2  -8   1    3.94    0.72
  -2  -8   1    4.50    0.78
   2   8  -1    5.14    0.84
   2   8  -2   28.25    1.29
  -2  -8   2   27.07    1.21
   2   8  -2   29.17    1.34
  -2  -8   3    5.83    0.75
   2   8  -3    5.96    0.84
   2   8  -3    5.58    0.92
   2   8  -4   69.18    2.16
  -2  -8   4   63.72    2.01
  -2  -8   4   65.53    2.26
   2   8  -4   68.60    2.30
  -2  -8   5   13.15    1.01
   2   8  -5   13.93    0.94
  -2  -8   5   13.27    0.79
   2   8  -5   16.58    1.07
   2   8  -5   15.44    1.08
   2   8  -6    2.92    0.73
  -2  -8   6    4.15    0.84
  -2  -8   6    2.97    0.60
   2   8  -6    4.65    0.89
   2   8  -6    5.53    0.91
  -2  -8   7    9.18    0.96
  -2  -8   7    9.47    0.71
   2   8  -7   10.22    0.89
   2   8  -7   10.53    0.94
   2   8  -7    9.41    0.98
  -2  -8   8    0.99    0.83
   2   8  -8    0.14    0.75
  -2  -8   8    0.86    0.42
   2   8  -8    1.31    0.82
  -2  -8   8    0.36    0.59
   2   8  -8   -0.34    0.83
   2   8  -9   20.09    1.11
   2   8  -9   20.41    1.19
  -2  -8   9   20.67    1.23
   2   8  -9   19.68    1.20
  -2  -8   9   21.76    0.99
   2   8 -10    7.34    0.89
  -2  -8  10    6.99    0.75
  -2  -8  10    4.84    0.94
   2   8 -10    7.63    0.93
  -2  -8  11    6.98    0.98
   2   8 -11    5.63    0.93
   2   8 -11    8.06    0.97
   2   8 -11    7.62    0.87
   2   8 -12    2.23    0.86
  -2  -8  12    2.86    0.95
   2   8 -13    1.35    0.89
  -2  -8  13    1.41    0.92
  -2  -8  14    0.51    0.92
  -2  -9  -6    0.73    0.88
  -2  -9  -5    7.81    1.02
  -2  -9  -4    1.42    0.78
  -2  -9  -4    0.46    0.80
   2   9   3   -0.18    0.79
  -2  -9  -3    1.04    0.76
  -2  -9  -3    0.85    0.76
  -2  -9  -2   19.27    1.05
   2   9   2   18.39    1.09
  -2  -9  -2   18.49    1.06
   2   9   2   20.29    1.35
  -2  -9  -1   14.00    1.03
  -2  -9  -1   13.10    0.93
   2   9   1   11.12    1.06
   2   9   1   12.23    0.93
  -2  -9  -1   10.15    0.90
   2   9   1   13.02    1.22
   2   9   0    5.48    1.08
  -2  -9   0    4.59    0.75
  -2  -9   0    6.79    0.81
   2   9   0    7.53    0.84
   2   9   0    5.30    0.95
  -2  -9   0    5.76    0.88
   2   9   0    6.06    0.94
  -2  -9   1   41.09    1.53
  -2  -9   1   39.96    1.60
   2   9  -1   39.21    1.63
   2   9  -1   38.72    1.65
   2   9  -1   39.99    1.77
   2   9  -2    9.03    0.98
  -2  -9   2   11.41    1.12
  -2  -9   2   11.02    0.92
   2   9  -2   11.13    1.06
   2   9  -3    9.23    0.97
  -2  -9   3    7.32    0.83
   2   9  -3    9.77    1.00
   2   9  -3    9.71    1.11
  -2  -9   4    7.27    0.71
   2   9  -4    9.09    0.92
  -2  -9   4    8.21    0.79
   2   9  -4    8.79    1.08
   2   9  -4    7.02    0.81
  -2  -9   5    2.71    0.86
   2   9  -5    2.66    0.96
  -2  -9   5    2.18    0.64
   2   9  -5    4.14    0.75
  -2  -9   5    3.05    0.68
  -2  -9   6   20.45    0.99
   2   9  -6   22.20    1.14
  -2  -9   6   24.30    1.30
   2   9  -6   25.39    1.32
   2   9  -6   21.88    1.31
  -2  -9   7    8.10    0.99
  -2  -9   7    8.54    0.74
   2   9  -7    7.40    0.85
   2   9  -7    8.90    1.06
  -2  -9   8   13.64    1.15
   2   9  -8   12.89    1.00
   2   9  -8   11.65    1.11
   2   9  -9   52.90    1.94
  -2  -9   9   57.08    2.10
   2   9  -9   56.57    2.06
   2   9 -10    0.42    0.82
  -2  -9  10    0.14    0.95
   2   9 -10    0.40    0.85
  -2  -9  11    1.65    0.92
   2   9 -11    1.39    0.83
  -2  -9  12    1.54    0.97
   2   9 -12    1.03    0.84
  -2 -10  -3    0.90    0.80
   2  10   2   17.50    1.09
  -2 -10  -2   15.67    1.05
   2  10   1   -0.13    0.75
  -2 -10  -1    1.52    0.74
  -2 -10   0   20.36    1.11
   2  10   0   20.83    1.12
  -2 -10   0   20.36    1.08
   2  10   0   20.12    1.41
   2  10  -1    3.54    0.76
  -2 -10   1    5.94    0.75
  -2 -10   1    5.86    0.91
   2  10  -1    4.01    1.12
  -2 -10   2    4.72    0.71
  -2 -10   2    5.90    0.86
  -2 -10   3    0.32    0.95
  -2 -10   3    0.60    0.63
  -2 -10   3    1.01    0.74
   2  10  -3    2.43    1.07
   2  10  -4    0.90    1.01
  -2 -10   4   -0.04    0.61
  -2 -10   4    0.57    0.73
   2  10  -5    1.01    0.74
   2  10  -5    0.96    1.01
   2  10  -6   20.13    1.10
  -2 -10   6   19.30    1.29
   2  10  -6   19.51    1.33
  -2 -10   7    3.36    0.99
   2  10  -7    2.46    0.79
   2  10  -7    2.44    1.02
  -2 -10   8    7.88    1.06
   2  10  -8    8.86    0.93
   2  10  -8    8.05    1.14
  -2 -10   9   13.40    1.21
   2  10  -9   13.32    1.01
   2  10  -9   13.36    1.20
   2  10 -10    0.03    0.81
   2  10 -11    4.75    0.90
  -3  13  -9   -0.44    0.97
  -3  13  -8    1.66    1.01
  -3  13  -7   -0.21    1.02
  -3  13  -6   35.92    1.75
  -3  13  -5    0.49    1.05
   3 -13   5    0.68    1.08
  -3  13  -4   -0.15    1.07
   3 -13   4   -0.03    1.03
   3 -13   3    1.72    1.03
   3 -13   2    2.64    1.01
   3 -13   1    1.78    1.01
   3 -13   0    2.09    0.95
   3 -13  -1   -0.87    0.95
   3 -12  11    3.85    0.98
  -3  12 -10    0.64    0.92
   3 -12  10    0.83    0.88
  -3  12  -9    0.33    0.91
  -3  12  -8    3.99    0.99
   3 -12   8    4.84    1.12
  -3  12  -7    1.28    0.98
   3 -12   7    1.30    1.05
  -3  12  -6    2.91    0.99
   3 -12   6    1.45    1.05
  -3  12  -5    1.29    1.00
   3 -12   5    0.06    1.01
   3 -12   4   15.47    1.22
  -3  12  -3    3.66    0.92
   3 -12   3    1.65    1.05
   3 -12   2    4.21    1.02
  -3  12  -2    4.74    0.92
   3 -12   1   -0.17    0.94
  -3  12  -1    0.67    0.89
   3 -12   0   16.17    1.17
  -3  12   0   14.34    1.08
   3 -12  -1    8.51    1.00
  -3  12   1    8.95    0.96
  -3  12   1    8.91    1.19
   3 -12  -2    3.90    0.93
   3 -12  -2    3.14    0.97
  -3  12   2    5.32    1.13
   3 -12  -3    1.77    0.94
  -3  12   3    1.06    1.10
   3 -11  12   17.51    1.19
   3 -11  11    1.99    0.94
  -3  11 -11    2.26    0.81
   3 -11  10   16.08    1.19
  -3  11 -10   16.34    1.10
   3 -11   9    0.32    0.74
  -3  11  -9    1.00    0.85
   3 -11   9   -0.31    0.90
  -3  11  -8   16.21    1.15
   3 -11   8   17.30    1.26
   3 -11   8   18.83    1.13
   3 -11   7   -0.42    0.80
  -3  11  -7    0.43    0.91
   3 -11   7    0.81    0.85
   3 -11   7    1.37    1.01
   3 -11   6    3.62    0.93
  -3  11  -6    5.12    0.99
   3 -11   6    4.52    1.05
   3 -11   6    3.23    0.86
   3 -11   5   14.65    1.11
  -3  11  -5   17.73    1.21
   3 -11   5   14.69    1.07
  -3  11  -5   14.58    1.13
   3 -11   5   15.26    1.22
  -3  11  -4   31.92    1.47
   3 -11   4   28.99    1.40
   3 -11   4   35.79    1.54
   3 -11   4   31.22    1.45
  -3  11  -3    1.46    0.84
   3 -11   3    1.75    0.92
   3 -11   3    2.36    0.82
  -3  11  -2    0.89    0.79
   3 -11   2    0.13    0.90
   3 -11   2    0.09    0.79
  -3  11  -1    0.86    0.82
   3 -11   1    0.64    0.76
   3 -11   1    0.31    0.86
  -3  11   0   29.43    1.33
   3 -11   0   27.42    1.33
   3 -11  -1    0.95    0.85
  -3  11   1   -0.02    0.75
  -3  11   1   -0.07    0.97
   3 -11  -2   11.51    0.97
  -3  11   2    8.79    0.89
  -3  11   2    9.00    1.13
   3 -11  -3    6.86    0.89
  -3  11   3    6.04    0.81
  -3  11   3    5.66    1.09
   3 -11  -3    6.03    0.94
   3 -11  -4    2.48    0.88
  -3  11   4    2.17    1.06
   3 -11  -5    6.69    1.04
  -3  11   5    8.65    1.17
  -3  11   6    4.31    1.09
   3 -10  13   -0.62    0.83
   3 -10  12    9.02    0.98
   3 -10  12    7.57    1.07
   3 -10  11    4.81    0.89
  -3  10 -11    4.81    0.77
   3 -10  11    5.15    0.97
   3 -10  10    9.53    0.82
  -3  10 -10    9.76    0.90
   3 -10  10    8.98    0.79
   3 -10  10    9.92    0.98
   3 -10   9   12.18    0.90
  -3  10  -9   11.04    0.96
   3 -10   9    9.69    1.01
   3 -10   9   10.96    0.86
   3 -10   9   14.23    1.08
   3 -10   8    4.41    0.91
  -3  10  -8    5.99    0.88
   3 -10   8    4.98    0.95
   3 -10   8    5.40    0.80
  -3  10  -7   14.47    0.68
   3 -10   7   16.20    1.11
   3 -10   7   16.73    1.19
  -3  10  -7   17.55    1.10
   3 -10   7   15.15    1.00
  -3  10  -6   19.39    0.71
   3 -10   6   19.42    1.16
  -3  10  -6   18.90    0.73
   3 -10   6   19.38    1.25
  -3  10  -6   23.37    1.19
   3 -10   6   20.87    1.11
  -3  10  -6   20.23    0.77
  -3  10  -5    1.62    0.22
  -3  10  -5    1.52    0.23
   3 -10   5    3.03    0.84
  -3  10  -5    2.30    0.43
  -3  10  -5    3.61    0.90
   3 -10   5    2.32    0.91
   3 -10   5    1.74    0.75
   3 -10   4    1.98    0.79
  -3  10  -4    1.92    0.41
  -3  10  -4    1.53    0.79
   3 -10   4    2.50    0.92
   3 -10   4    3.17    0.76
  -3  10  -3    9.65    0.91
   3 -10   3    9.29    0.97
   3 -10   3    9.66    0.93
  -3  10  -2    7.69    0.85
   3 -10   2    6.56    0.87
   3 -10   2    8.14    0.95
  -3  10  -1    1.87    0.75
   3 -10   1    2.10    0.82
   3 -10   1    1.67    0.76
  -3  10   0    2.75    0.76
   3 -10   0    2.07    0.82
  -3  10   1   78.24    2.51
   3 -10  -1   83.89    2.55
  -3  10   2   50.76    1.74
   3 -10  -2   47.92    1.74
  -3  10   2   50.83    1.97
   3 -10  -2   49.59    1.92
   3 -10  -3    8.50    0.84
  -3  10   3    8.03    0.79
  -3  10   3    7.57    1.06
   3 -10  -3    8.46    1.07
   3 -10  -4    0.95    0.81
  -3  10   4   -0.13    0.96
  -3  10   4    0.88    0.62
   3 -10  -4   -0.03    0.94
   3 -10  -5    1.64    0.84
  -3  10   5    2.09    0.98
   3 -10  -5    1.40    0.94
   3 -10  -6   13.22    1.12
  -3  10   6   12.56    1.20
   3 -10  -7    0.59    0.90
  -3  10   7   -0.07    0.97
   3 -10  -8    1.73    0.86
  -3  10   8    0.75    0.99
  -3  10   9    3.30    1.01
   3 -10  -9    3.76    0.94
   3  -9  13    6.64    0.89
  -3   9 -13    6.22    0.93
   3  -9  13    6.95    1.05
   3  -9  12    0.10    0.91
   3  -9  12    0.32    0.79
   3  -9  11    1.91    0.64
  -3   9 -11    1.33    0.63
   3  -9  11    1.92    0.87
   3  -9  11    1.98    0.81
   3  -9  10   -0.86    0.77
  -3   9 -10   -0.21    0.64
   3  -9  10    0.60    0.80
   3  -9  10    0.04    0.62
   3  -9  10    0.03    0.84
   3  -9   9    1.96    0.80
   3  -9   9    1.11    0.84
  -3   9  -9    0.75    0.66
   3  -9   9    0.25    0.64
   3  -9   8   -0.71    0.81
  -3   9  -8    0.47    0.72
   3  -9   8   -0.02    0.64
   3  -9   7   34.18    1.45
   3  -9   7   32.39    1.47
  -3   9  -7   35.63    1.40
   3  -9   7   33.41    1.34
  -3   9  -6    7.29    0.52
   3  -9   6    7.95    0.87
  -3   9  -6    7.50    0.52
  -3   9  -6    8.58    0.87
   3  -9   6    9.44    0.97
   3  -9   6    7.95    0.81
  -3   9  -5    4.12    0.38
   3  -9   5    5.01    0.81
  -3   9  -5    5.25    0.42
  -3   9  -5    4.54    0.35
  -3   9  -5    3.16    0.82
   3  -9   5    4.07    0.90
   3  -9   5    5.45    0.74
  -3   9  -4    1.03    0.14
   3  -9   4    2.62    0.73
  -3   9  -4    1.45    0.34
  -3   9  -4    1.02    0.74
  -3   9  -4    1.95    0.84
   3  -9   4    2.09    0.82
   3  -9   4    2.08    0.69
  -3   9  -3   11.10    0.91
   3  -9   3   11.12    0.88
   3  -9   3   11.25    0.93
  -3   9  -2    4.13    0.78
   3  -9   2    5.67    0.86
   3  -9   2    5.26    0.80
  -3   9  -1    7.53    0.82
   3  -9   1    6.28    0.84
   3  -9   1    5.72    0.80
  -3   9   0  250.99    7.04
   3  -9   0  261.88    7.04
   3  -9  -1   10.74    0.88
  -3   9   1    8.49    0.80
  -3   9   1   12.09    1.06
   3  -9  -2   28.16    1.16
  -3   9   2   26.52    1.12
  -3   9   2   27.76    1.40
   3  -9  -2   24.74    1.30
   3  -9  -3    6.52    0.75
  -3   9   3    5.67    0.68
  -3   9   3    5.48    0.96
   3  -9  -3    5.73    0.95
   3  -9  -4    7.74    0.72
   3  -9  -4    6.44    0.86
  -3   9   4    6.13    0.66
  -3   9   4    5.50    0.95
   3  -9  -4    7.89    0.96
   3  -9  -5    6.41    0.70
   3  -9  -5    4.12    0.36
  -3   9   5    4.78    0.95
  -3   9   5    3.30    0.62
   3  -9  -5    5.43    0.96
   3  -9  -6    8.47    0.80
   3  -9  -6    4.35    0.42
  -3   9   6    7.09    0.64
  -3   9   6    7.41    1.02
   3  -9  -6    8.03    0.98
   3  -9  -7    1.96    0.78
  -3   9   7    1.71    0.93
   3  -9  -7    2.69    0.92
   3  -9  -8    2.89    0.87
  -3   9   8    2.96    0.98
   3  -9  -8    3.32    0.91
   3  -9  -9    3.51    0.91
  -3   9   9    3.08    0.96
   3  -9 -10    8.20    1.01
  -3   9  10    9.26    1.08
   3  -8  14    0.88    0.92
  -3   8 -13    4.08    0.87
   3  -8  13    3.03    0.94
   3  -8  12   10.54    0.93
   3  -8  12    8.97    0.74
  -3   8 -12   10.61    0.94
   3  -8  12    9.87    1.06
   3  -8  11    1.13    0.83
   3  -8  11   -0.68    0.75
   3  -8  11    0.40    0.84
   3  -8  11    0.19    0.59
   3  -8  10   25.72    1.32
   3  -8  10   24.06    1.21
   3  -8  10   27.54    1.13
   3  -8  10   28.31    1.32
  -3   8 -10   25.37    1.06
   3  -8   9    1.86    0.82
   3  -8   9    0.98    0.61
   3  -8   9    1.69    0.75
  -3   8  -9    1.45    0.63
   3  -8   8    5.78    0.86
   3  -8   8    6.50    0.70
   3  -8   8    7.00    0.83
  -3   8  -8    6.93    0.73
   3  -8   7   11.78    0.94
  -3   8  -7   14.51    0.90
   3  -8   6    0.18    0.72
  -3   8  -6    0.08    0.44
   3  -8   6   -0.26    0.81
  -3   8  -6    0.10    0.70
   3  -8   5   18.05    1.03
  -3   8  -5   17.72    0.70
   3  -8   5   19.09    1.09
  -3   8  -5   18.88    1.02
  -3   8  -4   98.48    2.71
  -3   8  -4   96.82    2.72
   3  -8   4  106.15    3.02
   3  -8   4  111.31    3.06
  -3   8  -4  101.05    2.73
  -3   8  -4  113.01    3.06
  -3   8  -3   22.55    1.15
   3  -8   3   26.49    1.20
  -3   8  -3   27.64    1.22
  -3   8  -2    4.68    0.74
  -3   8  -2    6.38    0.87
   3  -8   2    5.25    0.78
  -3   8  -1    1.58    0.67
   3  -8   1    1.61    0.69
   3  -8   0  196.50    5.42
  -3   8   0  195.50    5.43
   3  -8  -1   66.64    2.04
  -3   8   1   64.36    2.04
  -3   8   1   65.77    2.20
  -3   8   2   34.91    1.29
   3  -8  -2   37.98    1.32
  -3   8   2   37.49    1.53
   3  -8  -2   37.74    1.50
   3  -8  -3    0.24    0.58
  -3   8   3    0.09    0.54
   3  -8  -3    0.36    0.80
  -3   8   3    1.01    0.86
   3  -8  -4    2.55    0.60
   3  -8  -4    1.98    0.27
   3  -8  -4    3.57    0.56
  -3   8   4    3.12    0.55
  -3   8   4    2.84    0.85
   3  -8  -4    2.49    0.84
  -3   8   5   18.54    0.83
   3  -8  -5   20.36    0.94
  -3   8   5   20.58    1.20
   3  -8  -5   17.91    1.12
  -3   8   6   -0.26    0.49
   3  -8  -6    0.83    0.67
   3  -8  -6    0.27    0.81
  -3   8   6   -0.24    0.85
  -3   8   7    0.97    0.47
   3  -8  -7    1.64    0.73
  -3   8   7    0.63    0.86
   3  -8  -7    1.82    0.89
  -3   8   8   55.87    2.00
   3  -8  -8   53.69    1.98
   3  -8  -9    0.88    0.85
   3  -8  -9    1.00    0.92
  -3   8   9    1.31    0.88
   3  -8  -9    1.22    0.86
   3  -8 -10    4.71    1.02
  -3   8  10    4.66    0.91
   3  -8 -10    6.18    0.92
   3  -8 -11    4.16    0.98
   3  -7  15    0.59    0.96
   3  -7  14    3.46    0.97
  -3   7 -13    0.05    0.83
   3  -7  13    0.12    0.62
   3  -7  13    0.73    0.91
  -3   7 -12   25.69    1.29
   3  -7  12   28.90    1.41
   3  -7  12   26.98    1.12
   3  -7  12   29.23    1.45
   3  -7  11   19.75    1.17
  -3   7 -11   17.80    1.04
   3  -7  11   18.17    1.07
   3  -7  11   20.48    1.21
   3  -7  11   18.91    0.78
   3  -7  11   20.05    0.94
   3  -7  10   32.24    1.32
   3  -7  10   30.61    1.20
   3  -7  10   29.55    1.07
   3  -7  10   30.88    1.40
   3  -7   9    0.86    0.77
   3  -7   9    1.37    0.70
   3  -7   9    1.37    0.72
  -3   7  -9    0.83    0.54
   3  -7   9    1.35    0.63
   3  -7   8    3.04    0.77
   3  -7   8    3.84    0.74
   3  -7   8    4.17    0.64
  -3   7  -8    4.05    0.63
   3  -7   7    0.27    0.73
   3  -7   7    0.55    0.70
   3  -7   7    1.18    0.62
  -3   7  -7    0.77    0.61
   3  -7   6   33.41    1.35
  -3   7  -6   33.91    1.16
  -3   7  -6   37.15    1.31
   3  -7   6   32.66    1.36
   3  -7   5  194.38    5.64
  -3   7  -5  200.96    5.47
   3  -7   5  205.68    5.66
  -3   7  -5  213.32    5.63
  -3   7  -4   66.48    1.87
   3  -7   4   62.25    2.11
   3  -7   4   68.34    2.14
  -3   7  -4   69.46    2.12
  -3   7  -3  103.14    2.69
   3  -7   3  121.37    3.03
  -3   7  -3   93.50    2.68
  -3   7  -3  124.51    3.05
  -3   7  -2    8.77    0.82
   3  -7   2    9.82    0.77
  -3   7  -1   96.37    2.88
   3  -7   1  101.28    2.89
   3  -7   0   27.33    1.07
  -3   7   0   25.20    1.05
  -3   7   1    0.66    0.51
  -3   7   1    0.82    0.75
   3  -7  -1    0.09    0.59
  -3   7   2    4.10    0.56
  -3   7   2    5.14    0.81
   3  -7  -2    4.01    0.59
   3  -7  -3    4.18    0.55
   3  -7  -3    2.93    0.20
  -3   7   3    3.17    0.51
   3  -7  -3    4.20    0.54
  -3   7   3    3.47    0.79
  -3   7   4   10.99    0.62
   3  -7  -4    9.85    0.63
  -3   7   4   11.40    0.94
   3  -7  -4    9.95    0.91
   3  -7  -4   11.25    0.70
   3  -7  -5   14.69    0.85
   3  -7  -5   16.13    0.64
  -3   7   5   15.16    0.70
  -3   7   5   16.90    1.03
   3  -7  -5   14.86    1.01
   3  -7  -6   13.26    0.63
   3  -7  -6   11.56    0.84
  -3   7   6   12.95    0.98
  -3   7   6   11.99    0.60
   3  -7  -6   11.11    0.94
   3  -7  -6   11.59    0.98
   3  -7  -7    3.94    0.52
  -3   7   7    2.84    0.40
   3  -7  -7    2.27    0.81
   3  -7  -7    2.39    0.81
  -3   7   7    2.64    0.82
   3  -7  -7    1.43    0.73
  -3   7   8    0.98    0.81
  -3   7   8    1.55    0.31
   3  -7  -8    1.38    0.90
   3  -7  -8    2.84    0.58
   3  -7  -8    1.66    0.81
   3  -7  -8    0.39    0.78
   3  -7  -9   -0.86    0.85
   3  -7  -9    0.79    0.62
   3  -7  -9   -0.79    0.94
  -3   7   9    0.32    0.79
   3  -7  -9   -0.20    0.77
   3  -7 -10    4.97    0.73
   3  -7 -10    4.16    1.00
   3  -7 -10    3.51    0.89
  -3   7  10    4.80    0.85
   3  -7 -10    5.64    0.84
   3  -7 -11    1.88    0.90
  -3   7  11    2.80    0.81
   3  -7 -11    2.77    1.06
   3  -7 -12    2.65    0.94
   3  -6  15    4.58    1.00
   3  -6  14   11.78    1.08
  -3   6 -14   13.65    1.18
   3  -6  13   20.82    1.25
  -3   6 -13   22.46    1.32
  -3   6 -13   21.29    1.22
   3  -6  13   20.42    1.03
   3  -6  12    8.10    0.96
  -3   6 -12    9.10    1.00
  -3   6 -12    7.87    0.93
   3  -6  12    7.41    0.77
   3  -6  12   10.59    1.08
   3  -6  11    6.06    0.44
   3  -6  11    7.83    0.94
  -3   6 -11    7.49    0.87
   3  -6  11    8.56    0.91
   3  -6  11    6.98    0.71
  -3   6 -10   22.05    1.08
   3  -6  10   23.96    1.11
   3  -6  10   21.78    1.16
   3  -6  10   22.16    1.00
   3  -6  10   21.56    0.84
   3  -6  10   21.81    1.21
   3  -6   9  110.66    3.13
  -3   6  -9  104.16    3.16
   3  -6   9  107.07    3.25
   3  -6   9  102.85    3.02
   3  -6   9  116.65    3.29
   3  -6   9  111.20    3.19
   3  -6   8    9.36    0.77
  -3   6  -8    8.17    0.72
   3  -6   8    8.81    0.72
  -3   6  -8    9.68    0.64
   3  -6   8    8.77    0.58
   3  -6   8    8.04    0.86
   3  -6   7   68.11    2.11
  -3   6  -7   66.62    2.07
   3  -6   7   67.35    2.17
  -3   6  -7   72.02    2.08
  -3   6  -6   27.91    1.02
   3  -6   6   26.26    1.17
  -3   6  -6   30.13    1.11
   3  -6   6   25.13    1.09
  -3   6  -5   42.06    1.34
   3  -6   5   42.11    1.51
  -3   6  -5   45.62    1.47
  -3   6  -4  291.66    7.94
  -3   6  -4  307.98    8.09
   3  -6   4  305.77    8.11
  -3   6  -3   10.97    0.45
   3  -6   3   11.39    0.81
  -3   6  -3   13.05    0.81
   3  -6   2   11.88    0.78
  -3   6  -2   11.97    0.82
   3  -6   1   37.63    1.30
   3  -6   0  212.82    5.78
  -3   6   1    4.93    0.54
  -3   6   1    4.42    0.69
   3  -6  -1    4.95    0.54
  -3   6   2  206.46    5.70
   3  -6  -2  211.42    5.65
   3  -6  -2  215.80    5.70
  -3   6   2  209.88    5.85
   3  -6  -3  123.01    3.44
   3  -6  -3  130.67    3.55
   3  -6  -3  136.16    3.53
  -3   6   3  127.66    3.54
  -3   6   3  138.90    3.74
   3  -6  -4   30.55    0.98
  -3   6   4   31.53    1.03
   3  -6  -4   33.05    1.03
  -3   6   4   32.98    1.29
   3  -6  -5   99.91    2.90
  -3   6   5  104.10    2.88
   3  -6  -5  113.04    3.16
  -3   6   5  112.23    3.14
   3  -6  -6   48.85    1.56
  -3   6   6   53.53    1.80
  -3   6   6   51.69    1.47
   3  -6  -6   54.78    1.85
  -3   6   7   67.09    1.95
   3  -6  -7   72.91    2.12
  -3   6   7   78.49    2.32
   3  -6  -7   77.73    2.39
   3  -6  -7   79.08    2.30
   3  -6  -8   35.07    1.11
   3  -6  -8   38.10    1.45
  -3   6   8   36.07    1.30
   3  -6  -8   35.78    1.30
   3  -6  -9   58.83    1.96
   3  -6  -9   64.67    2.23
  -3   6   9   63.61    2.05
   3  -6  -9   60.78    2.03
   3  -6 -10    2.84    0.72
   3  -6 -10    3.67    1.02
   3  -6 -10    2.29    0.75
  -3   6  10    2.74    0.76
   3  -6 -11    2.29    0.77
   3  -6 -11    1.59    1.04
   3  -6 -11    2.38    0.76
   3  -6 -12    0.74    0.76
   3  -6 -12   -1.39    1.04
   3  -5  15    1.65    0.94
  -3   5 -15    1.54    0.99
   3  -5  14   15.61    1.14
   3  -5  14   13.06    0.91
   3  -5  13   18.07    1.15
  -3   5 -13   16.71    1.16
   3  -5  13   17.01    0.99
   3  -5  12    9.55    0.99
   3  -5  12   11.49    1.07
   3  -5  12   10.68    0.83
  -3   5 -12    9.13    0.98
  -3   5 -11   33.80    1.42
   3  -5  11   31.72    1.44
   3  -5  11   32.05    1.27
  -3   5 -10   20.78    1.07
   3  -5  10   19.22    0.96
   3  -5  10   18.20    1.10
   3  -5  10   19.64    0.70
  -3   5  -9    1.68    0.70
   3  -5   9    1.22    0.72
   3  -5   9    1.63    0.62
   3  -5   9    0.66    0.45
   3  -5   9    1.04    0.69
   3  -5   8  127.48    3.62
  -3   5  -8  125.37    3.60
   3  -5   8  123.90    3.58
  -3   5  -7  315.16    8.55
   3  -5   7  312.65    8.59
   3  -5   7  322.92    8.56
  -3   5  -6   22.68    0.93
   3  -5   6   22.14    1.01
   3  -5   6   21.52    0.96
  -3   5  -6   23.47    0.91
   3  -5   5   47.76    1.62
  -3   5  -5   49.27    1.51
   3  -5   5   47.35    1.60
  -3   5  -5   51.49    1.57
  -3   5  -4  102.42    2.93
   3  -5   4  106.90    3.07
   3  -5   4  104.41    3.07
  -3   5  -4  112.67    3.03
  -3   5  -3   14.63    0.57
   3  -5   3   12.23    0.81
  -3   5  -3   15.12    0.81
  -3   5  -2  663.20   17.75
   3  -5   2  688.69   17.88
  -3   5  -2  699.82   17.91
  -3   5  -1  116.69    2.94
   3  -5   1  125.00    2.89
   3  -5   0   15.33    0.73
   3  -5  -1  356.04    9.22
   3  -5  -1  342.20    9.14
   3  -5  -2   22.71    0.69
   3  -5  -2   24.53    0.82
  -3   5   2   24.61    1.04
   3  -5  -3    6.68    0.43
  -3   5   3    5.71    0.71
   3  -5  -4   59.38    1.64
  -3   5   4   56.17    1.89
   3  -5  -5   10.30    0.81
  -3   5   5    8.60    0.80
   3  -5  -6   11.62    0.90
  -3   5   6   11.67    0.82
  -3   5   7   77.23    2.39
   3  -5  -7   79.75    2.50
   3  -5  -8    3.89    0.91
  -3   5   8    3.27    0.70
   3  -5  -9   -0.42    0.87
  -3   5   9   -0.21    0.67
   3  -5  -9    0.80    0.71
   3  -5 -10   -0.31    0.97
   3  -5 -10    0.78    0.70
   3  -5 -11   28.86    1.52
   3  -5 -11   27.79    1.15
   3  -5 -12    0.33    0.76
   3  -5 -12    1.20    1.04
   3  -5 -13   10.86    1.19
   3  -5 -13   10.72    0.99
   3  -5 -13    9.81    0.97
   3  -4  16    1.21    0.94
   3  -4  15   30.14    1.49
   3  -4  14    8.59    1.04
  -3   4 -13   23.44    1.31
   3  -4  13   21.28    1.24
   3  -4  13   22.76    1.12
  -3   4 -12   35.73    1.51
   3  -4  12   33.59    1.51
   3  -4  12   35.54    1.38
  -3   4 -11    3.18    0.85
   3  -4  11    3.93    0.72
   3  -4  11    2.71    0.84
  -3   4 -10    5.32    0.83
  -3   4 -10    5.18    0.79
   3  -4  10    6.14    0.72
   3  -4  10    4.76    0.82
   3  -4  10    4.37    0.30
  -3   4  -9   25.31    1.08
   3  -4   9   27.67    1.14
   3  -4   9   27.52    1.03
  -3   4  -8  208.96    5.64
   3  -4   8  198.34    5.60
  -3   4  -7   33.98    1.28
   3  -4   7   36.24    1.31
   3  -4   7   34.93    1.28
  -3   4  -6  106.20    3.04
   3  -4   6  106.97    3.06
   3  -4   6  106.18    3.08
   3  -4   5   25.39    1.05
  -3   4  -5   27.31    0.99
   3  -4   5   24.69    1.03
   3  -4   5   25.96    1.02
   3  -4   4   23.80    0.98
   3  -4   4   24.10    0.97
  -3   4  -4   22.85    0.87
   3  -4   4   23.32    0.99
   3  -4   3  246.50    6.44
  -3   4  -3  235.30    6.27
   3  -4   3  224.70    6.44
   3  -4   3  239.80    6.44
  -3   4  -3  244.37    6.41
   3  -4   2  946.25   25.44
   3  -4   2  966.88   25.45
  -3   4  -2  982.06   25.45
  -3   4  -1 1108.36   29.20
   3  -4   1 1149.78   29.30
   3  -4   1 1105.17   29.20
  -3   4  -1 1099.19   29.33
  -3   4   0 1019.31   26.92
   3  -4   0 1041.90   27.00
   3  -4  -1    2.53    0.28
   3  -4  -1    2.59    0.43
   3  -4  -2  153.19    4.08
   3  -4  -2  155.88    4.10
  -3   4   2  142.64    4.24
   3  -4  -3   28.23    0.83
  -3   4   3   25.88    1.10
   3  -4  -4   34.64    1.14
   3  -4  -4   27.53    0.80
  -3   4   4   31.05    1.13
   3  -4  -5   34.04    1.26
  -3   4   5   31.42    1.20
   3  -4  -6    0.27    0.67
  -3   4   6    0.05    0.58
   3  -4  -7    4.32    0.79
   3  -4  -8   17.20    1.04
   3  -4  -9    2.51    0.85
   3  -4 -10   62.49    2.20
   3  -4 -11    6.75    1.06
   3  -4 -11    6.79    0.72
   3  -4 -12    9.90    1.12
   3  -4 -12   10.36    0.71
   3  -4 -13    6.95    1.11
   3  -4 -13    7.50    0.89
   3  -4 -14   -0.45    1.03
   3  -3  16    2.38    0.95
   3  -3  15    2.08    0.90
   3  -3  14   12.98    1.11
  -3   3 -14   12.89    1.11
  -3   3 -13    5.70    0.96
   3  -3  13    5.07    0.91
  -3   3 -13    6.07    0.93
  -3   3 -12    0.22    0.85
  -3   3 -12    0.47    0.78
   3  -3  12    0.94    0.72
  -3   3 -11   29.02    1.32
  -3   3 -11   29.37    1.37
   3  -3  11   30.16    1.27
  -3   3 -10    7.32    0.83
   3  -3  10    7.21    0.88
   3  -3  10    6.82    0.72
  -3   3 -10    5.32    0.78
   3  -3  10    4.18    0.22
   3  -3  10    4.10    0.22
  -3   3  -9   19.64    1.03
  -3   3  -9   21.32    1.09
   3  -3   9   21.15    1.02
   3  -3   9   24.63    1.15
  -3   3  -8   90.85    2.76
  -3   3  -8   91.35    2.74
   3  -3   8   96.10    2.82
   3  -3   8   90.85    2.73
  -3   3  -7   20.56    0.99
   3  -3   7   20.89    0.93
  -3   3  -7   21.81    0.98
   3  -3   7   19.07    0.76
   3  -3   7   21.26    1.02
  -3   3  -6   -0.02    0.61
  -3   3  -6    0.42    0.59
   3  -3   6    0.82    0.62
   3  -3   6    0.71    0.55
   3  -3   6    0.07    0.42
  -3   3  -5   75.86    2.27
  -3   3  -5   78.58    2.32
   3  -3   5   77.14    2.30
   3  -3   5   75.83    2.32
   3  -3   5   76.14    2.21
   3  -3   5   82.71    2.33
   3  -3   4  249.84    6.49
   3  -3   4  237.02    6.50
  -3   3  -4  236.54    6.44
  -3   3  -4  235.97    6.47
  -3   3  -4  241.74    6.39
   3  -3   4  241.92    6.49
   3  -3   4  232.55    6.43
   3  -3   3   35.73    1.20
  -3   3  -3   35.72    1.04
   3  -3   3   33.60    1.19
   3  -3   3   33.35    1.21
   3  -3   3   32.12    1.13
   3  -3   2    0.49    0.44
   3  -3   2    0.53    0.55
   3  -3   2    0.44    0.51
   3  -3   2   -0.13    0.48
  -3   3  -1   86.20    2.32
   3  -3   1   87.84    2.32
   3  -3   1   82.34    2.24
   3  -3   1   77.12    2.40
  -3   3   0  144.14    3.88
   3  -3   0  151.86    3.98
   3  -3   0  137.09    3.96
   3  -3  -1  288.85    7.69
   3  -3  -1  292.21    7.76
   3  -3  -2   77.10    2.15
   3  -3  -2   77.44    2.12
   3  -3  -3  214.20    5.66
   3  -3  -3  210.68    5.58
   3  -3  -3  208.30    5.74
   3  -3  -4    8.69    0.66
   3  -3  -4    8.59    0.67
   3  -3  -5  272.80    7.13
   3  -3  -5  255.10    7.10
   3  -3  -6    3.11    0.65
   3  -3  -7   -0.88    0.69
   3  -3  -8    1.05    0.74
   3  -3  -9    2.66    0.83
   3  -3 -10   12.62    1.02
   3  -3 -11    8.11    0.98
   3  -3 -12   -0.08    0.94
   3  -3 -12   -0.88    0.71
   3  -3 -12   -1.37    0.56
   3  -3 -13   -0.70    0.99
   3  -3 -13    0.63    0.69
   3  -3 -14    1.23    1.05
   3  -3 -15    0.77    1.06
   3  -2  16    5.29    1.05
   3  -2  15    0.23    0.88
  -3   2 -15    0.37    0.99
  -3   2 -14   -1.59    0.91
  -3   2 -14   -0.02    0.81
  -3   2 -13   -1.95    0.92
  -3   2 -13    0.75    0.78
  -3   2 -12   -0.54    0.72
  -3   2 -12   -0.02    0.76
  -3   2 -12    1.00    0.88
   3  -2  12    0.44    0.90
  -3   2 -12   -0.34    0.80
  -3   2 -11    1.93    0.83
  -3   2 -11    2.56    0.76
   3  -2  11    1.35    0.77
  -3   2 -11    2.04    0.76
   3  -2  11    3.71    0.96
  -3   2 -10    2.51    0.74
   3  -2  10    2.03    0.75
  -3   2 -10    2.77    0.78
  -3   2 -10    0.98    0.73
  -3   2 -10    2.49    0.79
   3  -2  10    1.72    0.81
   3  -2  10    0.85    0.18
   3  -2   9    4.45    0.79
  -3   2  -9    3.98    0.77
   3  -2   9    3.29    0.33
  -3   2  -9    3.59    0.73
   3  -2   9    3.59    0.70
  -3   2  -9    3.79    0.72
  -3   2  -9    2.76    0.76
   3  -2   9    3.13    0.32
   3  -2   8    0.69    0.70
   3  -2   8   -0.30    0.67
  -3   2  -8   -0.54    0.66
  -3   2  -8    0.86    0.71
  -3   2  -8    0.67    0.66
   3  -2   8    0.28    0.36
  -3   2  -7  158.83    4.48
  -3   2  -7  161.98    4.47
   3  -2   7  159.12    4.47
  -3   2  -7  160.14    4.46
   3  -2   7  154.34    4.31
   3  -2   7  168.77    4.52
  -3   2  -6  141.97    4.06
   3  -2   6  137.42    3.93
  -3   2  -6  150.88    4.07
   3  -2   6  145.19    4.06
  -3   2  -6  149.71    4.06
  -3   2  -6  139.94    4.02
   3  -2   6  156.49    4.11
  -3   2  -5   34.30    1.21
  -3   2  -5   35.19    1.24
  -3   2  -5   34.56    1.17
   3  -2   5   34.03    1.23
  -3   2  -5   33.93    1.25
   3  -2   5   33.18    1.10
   3  -2   5   36.14    1.24
  -3   2  -4   50.63    1.57
   3  -2   4   46.87    1.61
  -3   2  -4   49.26    1.62
  -3   2  -4   53.23    1.54
  -3   2  -4   50.80    1.61
   3  -2   4   49.71    1.52
   3  -2   4   52.03    1.60
  -3   2  -3  251.88    6.86
   3  -2   3  263.66    6.87
   3  -2   3  248.14    6.88
  -3   2  -3  252.45    6.81
   3  -2   3  260.48    6.86
   3  -2   2  107.19    2.90
   3  -2   2  104.58    2.91
  -3   2  -2   99.98    2.90
   3  -2   1   53.67    1.56
  -3   2  -1   50.72    1.55
   3  -2   1   54.53    1.50
  -3   2  -1   49.12    1.60
  -3   2   0  135.40    3.68
   3  -2   0  144.56    3.69
   3  -2   0  137.78    3.73
  -3   2   0  131.88    3.73
   3  -2   0  125.10    3.73
  -3   2   1  140.07    3.86
   3  -2  -1  144.01    3.85
   3  -2  -1  142.42    3.89
   3  -2  -2  406.14   10.74
   3  -2  -2  404.42   10.75
   3  -2  -3   23.31    0.83
   3  -2  -3   22.06    0.79
   3  -2  -3   21.51    0.90
   3  -2  -4    0.87    0.37
   3  -2  -4    0.63    0.42
   3  -2  -4    0.76    0.56
   3  -2  -5  313.78    8.20
   3  -2  -5  307.77    8.29
   3  -2  -5  302.44    8.29
   3  -2  -6    2.91    0.30
   3  -2  -6    3.55    0.58
   3  -2  -6    2.83    0.52
   3  -2  -7  254.87    6.74
   3  -2  -7  258.80    6.92
   3  -2  -7  249.10    6.85
   3  -2  -8    0.23    0.21
   3  -2  -8   -0.02    0.68
   3  -2  -9   81.79    2.25
   3  -2  -9  126.24    2.73
   3  -2 -10   62.53    2.08
   3  -2 -11   58.32    2.02
   3  -2 -12    1.61    0.89
   3  -2 -12    1.25    0.60
   3  -2 -13    1.60    0.92
   3  -2 -13    2.35    0.61
   3  -2 -14   48.55    1.94
   3  -2 -15   21.57    1.38
  -3   1 -14    3.58    0.96
  -3   1 -14    1.38    0.98
  -3   1 -14    3.73    0.85
  -3   1 -13    2.41    0.90
  -3   1 -13    1.51    0.96
  -3   1 -13    2.03    0.85
  -3   1 -13    1.20    0.80
  -3   1 -12   19.28    1.20
  -3   1 -12   19.97    1.22
  -3   1 -12   20.52    1.22
  -3   1 -12   21.27    1.15
  -3   1 -12   20.81    1.10
   3  -1  12   23.68    1.31
  -3   1 -11   24.97    1.29
  -3   1 -11   27.44    1.23
  -3   1 -11   25.13    1.29
  -3   1 -11   25.21    1.32
  -3   1 -11   28.76    1.28
   3  -1  11   28.18    1.38
  -3   1 -10   12.85    0.95
  -3   1 -10   13.12    0.89
   3  -1  10   13.33    0.95
  -3   1 -10   12.43    0.97
  -3   1 -10   12.74    0.95
  -3   1 -10   13.11    0.99
   3  -1  10   10.47    0.45
   3  -1  10   13.68    1.03
   3  -1  10   11.82    0.46
   3  -1   9    3.47    0.40
  -3   1  -9    4.03    0.76
  -3   1  -9    3.63    0.76
  -3   1  -9    2.60    0.80
  -3   1  -9    3.16    0.72
   3  -1   9    4.10    0.75
  -3   1  -9    3.71    0.79
   3  -1   9    3.43    0.37
   3  -1   9    3.07    0.80
  -3   1  -8    4.60    0.75
   3  -1   8    5.71    0.75
  -3   1  -8    5.79    0.77
  -3   1  -8    6.00    0.79
  -3   1  -8    5.60    0.74
   3  -1   8    5.43    0.79
   3  -1   8    6.87    0.47
  -3   1  -7   88.34    2.67
  -3   1  -7   84.92    2.64
  -3   1  -7   86.95    2.65
  -3   1  -7   92.42    2.68
   3  -1   7   86.25    2.66
   3  -1   7   93.87    2.70
  -3   1  -6   64.04    2.03
  -3   1  -6   63.30    2.00
  -3   1  -6   68.85    2.05
  -3   1  -6   63.54    2.01
   3  -1   6   63.67    2.04
   3  -1   6   65.35    2.03
   3  -1   5   10.98    0.76
  -3   1  -5   11.26    0.78
  -3   1  -5   11.25    0.74
  -3   1  -5   10.89    0.70
  -3   1  -5   11.07    0.78
   3  -1   5   11.68    0.73
   3  -1   4  367.00    9.99
  -3   1  -4  371.05    9.95
  -3   1  -4  370.48    9.98
   3  -1   4  368.02    9.99
  -3   1  -4  370.70    9.94
  -3   1  -4  372.93    9.99
   3  -1   4  386.44    9.97
  -3   1  -3  253.17    6.84
   3  -1   3  260.80    6.89
  -3   1  -3  250.93    6.83
   3  -1   3  243.75    6.88
   3  -1   3  264.48    6.84
   3  -1   2    2.91    0.56
   3  -1   2    1.38    0.49
  -3   1  -2    2.30    0.45
   3  -1   2    2.11    0.46
  -3   1  -2    2.55    0.54
  -3   1  -1   21.03    0.85
  -3   1  -1   19.69    0.72
  -3   1  -1   19.85    0.83
   3  -1   1   21.37    0.78
  -3   1  -1   18.61    0.83
   3  -1   1   20.72    0.72
   3  -1   0   99.26    2.71
  -3   1   0   99.25    2.79
   3  -1   0  102.71    2.80
  -3   1   0   97.24    2.81
   3  -1   0  101.36    2.82
  -3   1   1    3.61    0.49
   3  -1  -1    3.36    0.49
  -3   1   1    3.15    0.50
   3  -1  -1    3.91    0.51
  -3   1   2    5.89    0.54
   3  -1  -2    5.45    0.49
  -3   1   2    5.31    0.48
   3  -1  -2    6.44    0.53
   3  -1  -3   20.87    0.82
   3  -1  -3   22.29    0.74
   3  -1  -3   21.53    0.71
   3  -1  -4  854.36   22.15
   3  -1  -4  834.27   22.04
   3  -1  -4  838.68   22.10
   3  -1  -5 1255.30   32.18
   3  -1  -5 1241.15   32.21
   3  -1  -5 1207.12   32.09
   3  -1  -6  234.11    6.23
   3  -1  -6  226.88    6.22
   3  -1  -7    6.82    0.59
   3  -1  -7    7.12    0.63
   3  -1  -8    6.97    0.71
   3  -1  -8    7.79    0.60
   3  -1  -9   46.29    1.49
  -3   1   9   47.58    1.62
   3  -1  -9   48.24    1.63
  -3   1  10   45.31    1.46
   3  -1 -10   47.81    1.48
  -3   1  11   15.02    0.95
   3  -1 -11   15.12    0.68
  -3   1  11   11.14    0.39
   3  -1 -11   15.66    1.02
  -3   1  12    3.62    0.84
   3  -1 -12    4.41    0.86
   3  -1 -12    4.12    0.52
  -3   1  13    4.64    0.91
   3  -1 -13    4.09    0.53
   3  -1 -13    2.41    0.89
   3  -1 -14    1.88    0.96
   3  -1 -15   46.92    1.91
   3  -1 -16    0.56    1.01
  -3   0 -14   10.85    1.11
  -3   0 -14   11.23    1.17
  -3   0 -13    3.92    0.94
  -3   0 -13    5.68    1.02
  -3   0 -13    5.38    0.90
  -3   0 -13    4.53    0.96
  -3   0 -12    0.25    0.79
  -3   0 -12   -0.27    0.89
   3   0  12   -0.75    0.92
  -3   0 -12   -0.86    0.86
  -3   0 -12   -0.80    0.83
  -3   0 -11   17.01    1.13
   3   0  11   14.53    0.55
  -3   0 -11   20.20    1.14
   3   0  11   20.44    1.20
  -3   0 -11   19.68    1.07
  -3   0 -11   18.76    1.12
  -3   0 -10    6.36    0.93
  -3   0 -10    6.37    0.86
   3   0  10    5.91    0.91
  -3   0 -10    5.93    0.87
   3   0  10    6.05    0.46
  -3   0 -10    5.90    0.86
  -3   0  -9   54.82    1.84
  -3   0  -9   53.30    1.88
   3   0   9   56.25    1.91
  -3   0  -9   52.16    1.91
   3   0   9   53.39    1.60
  -3   0  -9   51.80    1.87
  -3   0  -8   42.75    1.50
   3   0   8   37.03    1.49
  -3   0  -8   37.51    1.48
   3   0   8   37.89    1.47
  -3   0  -8   39.54    1.46
   3   0   8   37.23    1.24
   3   0   7   10.21    0.84
  -3   0  -7    8.50    0.82
   3   0   7    9.90    0.83
  -3   0  -7    9.19    0.83
   3   0   7    9.37    0.61
  -3   0  -6    6.96    0.76
  -3   0  -6    5.88    0.73
   3   0   6    6.60    0.73
   3   0   6    7.38    0.72
  -3   0  -5   36.60    1.35
   3   0   5   35.21    1.35
   3   0   5   38.84    1.32
  -3   0  -5   36.86    1.34
   3   0   4   37.80    1.39
  -3   0  -4   37.96    1.28
  -3   0  -4   39.48    1.35
   3   0   4   41.03    1.32
  -3   0  -3    1.91    0.47
   3   0   3    1.66    0.48
  -3   0  -2  325.44    8.83
  -3   0  -2  322.66    8.90
  -3   0  -2  330.74    8.89
   3   0   2  336.05    8.87
   3   0   2  342.63    8.83
  -3   0  -1  101.89    2.83
  -3   0  -1  100.43    2.93
  -3   0  -1  106.85    2.94
   3   0   1  105.39    2.92
   3   0   1  105.45    2.83
  -3   0   0    1.36    0.54
   3   0   0    2.13    0.29
   3   0   0    1.87    0.49
  -3   0   0    1.69    0.49
  -3   0   1  420.11   10.95
   3   0  -1  406.37   10.95
  -3   0   1  420.83   10.94
   3   0  -1  421.13   10.94
   3   0  -1  405.81   10.82
   3   0  -2    0.56    0.43
  -3   0   2    0.07    0.51
   3   0  -2   -0.15    0.14
   3   0  -2    0.45    0.51
  -3   0   2    0.58    0.42
   3   0  -2   -0.11    0.45
   3   0  -2    0.38    0.15
   3   0  -3   33.96    1.17
   3   0  -3   35.98    1.10
   3   0  -3   35.87    1.08
   3   0  -3   33.25    0.98
  -3   0   3   34.18    1.08
   3   0  -4  110.54    3.10
  -3   0   4  106.40    2.98
   3   0  -4  110.57    2.99
   3   0  -4  110.45    2.99
   3   0  -4  109.94    2.96
   3   0  -5  223.96    6.11
   3   0  -5  225.50    5.98
   3   0  -5  225.59    5.98
   3   0  -5  221.49    5.99
   3   0  -6   64.63    1.77
  -3   0   6   62.15    1.84
  -3   0   6   63.51    1.78
   3   0  -6   60.55    1.83
  -3   0   7  120.45    3.26
   3   0  -7  120.02    3.25
  -3   0   7  117.65    3.35
   3   0  -7  120.83    3.34
   3   0  -8   27.46    1.03
  -3   0   8   25.93    1.03
  -3   0   8   26.47    0.86
   3   0  -8   26.55    0.99
  -3   0   9   67.31    2.09
   3   0  -9   69.59    2.10
  -3   0   9   67.52    1.91
   3   0  -9   67.69    2.01
   3   0 -10   55.19    1.62
  -3   0  10   57.06    1.88
  -3   0  10   58.62    1.64
   3   0 -10   58.19    1.74
   3   0 -10   58.42    1.88
  -3   0  11   -0.27    0.69
   3   0 -11    0.40    0.71
   3   0 -11    0.46    0.30
   3   0 -11   -0.52    0.50
  -3   0  11    0.66    0.35
  -3   0  12   21.29    1.13
   3   0 -12   19.50    0.68
  -3   0  12   20.74    0.73
   3   0 -12   21.07    1.13
  -3   0  13    4.19    0.84
   3   0 -13    3.06    0.29
   3   0 -13    2.73    0.85
  -3   0  13    3.56    0.37
  -3   0  14   24.67    1.29
   3   0 -14   22.65    1.25
   3   0 -15   -0.49    0.92
   3   0 -16    0.03    0.95
  -3  -1 -13   -0.17    0.98
  -3  -1 -13    0.59    0.85
  -3  -1 -13   -0.28    0.89
  -3  -1 -12    0.40    0.80
  -3  -1 -12    1.22    0.89
  -3  -1 -12    0.71    0.87
  -3  -1 -12   -0.19    0.96
  -3  -1 -11   -0.39    0.83
  -3  -1 -11    2.05    0.87
  -3  -1 -11    0.64    0.90
  -3  -1 -11    0.94    0.86
   3   1  11    1.13    0.90
  -3  -1 -11    1.72    0.88
   3   1  10    1.52    0.87
  -3  -1 -10    1.26    0.81
  -3  -1 -10    0.76    0.88
  -3  -1 -10   -0.12    0.80
  -3  -1 -10    0.83    0.85
  -3  -1 -10    0.08    0.80
   3   1  10    1.05    0.49
   3   1   9    0.26    0.80
  -3  -1  -9   -0.09    0.77
  -3  -1  -9   -0.40    0.75
  -3  -1  -9    0.05    0.82
   3   1   9    0.11    0.49
  -3  -1  -8   12.99    1.00
   3   1   8   14.95    0.97
  -3  -1  -8   12.53    0.92
  -3  -1  -8   12.65    0.99
   3   1   8   12.53    0.73
   3   1   7    0.76    0.54
  -3  -1  -7    1.31    0.78
  -3  -1  -7   -0.04    0.79
   3   1   7   -0.31    0.72
   3   1   6   71.00    2.15
  -3  -1  -6   70.10    2.27
   3   1   6   72.23    2.23
  -3  -1  -6   72.32    2.28
   3   1   6   72.46    2.29
   3   1   5    1.14    0.57
  -3  -1  -5    1.71    0.67
   3   1   5    2.74    0.72
   3   1   5    1.56    0.62
   3   1   4   65.68    2.17
  -3  -1  -4   69.02    2.14
   3   1   4   73.22    2.10
  -3  -1  -4   69.67    2.07
   3   1   3   12.45    0.65
   3   1   3   10.18    0.76
  -3  -1  -3   12.25    0.65
   3   1   2   75.18    2.20
  -3  -1  -2   71.77    2.17
   3   1   2   73.35    2.08
  -3  -1  -2   72.68    2.08
   3   1   1  145.82    4.02
  -3  -1  -1  143.02    4.00
   3   1   1  145.14    3.89
   3   1   1  149.79    4.01
  -3  -1  -1  141.22    3.89
  -3  -1   0   50.19    1.38
   3   1   0   49.79    1.38
  -3  -1   0   47.27    1.52
   3   1   0   49.52    1.56
   3   1   0   48.14    1.57
   3   1  -1  417.55   11.10
  -3  -1   1  421.40   11.10
   3   1  -1  412.61   11.11
  -3  -1   2   70.59    2.17
   3   1  -2   73.05    2.12
  -3  -1   2   74.77    2.11
   3   1  -2   74.95    2.14
  -3  -1   3  225.74    6.00
   3   1  -3  224.75    6.02
   3   1  -3  220.69    5.99
   3   1  -4 1125.86   29.78
   3   1  -4 1156.10   29.85
   3   1  -4 1144.87   29.89
  -3  -1   4 1132.01   29.90
  -3  -1   5  263.76    7.12
   3   1  -5  262.61    7.18
  -3  -1   5  265.38    7.19
   3   1  -5  273.82    7.13
   3   1  -5  273.50    7.11
  -3  -1   6  160.33    4.36
   3   1  -6  162.88    4.44
  -3  -1   6  162.76    4.41
   3   1  -6  163.85    4.36
  -3  -1   6  165.73    4.45
   3   1  -6  167.79    4.41
   3   1  -7    6.97    0.31
  -3  -1   7    8.01    0.53
   3   1  -7    8.55    0.50
  -3  -1   7    8.09    0.55
   3   1  -7    8.02    0.51
   3   1  -8   28.07    0.89
   3   1  -8   22.73    0.70
  -3  -1   8   27.76    0.96
  -3  -1   8   27.33    0.90
   3   1  -8   27.71    0.95
  -3  -1   9    1.39    0.46
  -3  -1   9    1.83    0.57
   3   1  -9    1.08    0.57
  -3  -1  10   27.26    1.12
  -3  -1  10   27.21    0.98
   3   1 -10   26.46    1.01
   3   1 -10   27.38    1.12
  -3  -1  11   14.77    0.71
  -3  -1  11   14.88    0.92
   3   1 -11   15.69    0.76
   3   1 -11   15.60    0.92
  -3  -1  12   83.57    2.59
  -3  -1  12   84.18    2.37
   3   1 -12   80.44    2.35
   3   1 -12   81.24    2.56
  -3  -1  13   10.12    0.61
  -3  -1  13   12.39    0.94
   3   1 -13   11.62    0.94
   3   1 -13    9.17    0.52
  -3  -1  14    1.26    0.85
   3   1 -14    1.60    0.86
   3   1 -15    4.25    0.92
  -3  -1  15    5.09    0.94
   3   1 -16   15.98    1.18
   3   1 -17    1.64    0.97
  -3  -2 -13    3.55    1.01
  -3  -2 -12    1.38    1.03
  -3  -2 -12    0.60    0.87
  -3  -2 -12    0.07    0.88
  -3  -2 -11    1.03    0.96
   3   2  11    3.64    0.96
  -3  -2 -11    1.60    0.91
  -3  -2 -11    2.03    0.88
  -3  -2 -10   25.53    1.31
   3   2  10   24.76    1.31
  -3  -2 -10   23.76    1.38
   3   2  10   25.09    1.02
  -3  -2 -10   25.75    1.28
  -3  -2  -9    3.63    0.83
  -3  -2  -9    3.80    0.91
  -3  -2  -9    3.40    0.96
   3   2   9    5.00    0.87
   3   2   9    2.97    0.59
  -3  -2  -8   56.02    2.02
   3   2   8   59.42    1.97
  -3  -2  -8   56.62    1.99
  -3  -2  -8   54.99    1.93
   3   2   8   54.86    1.79
  -3  -2  -7  138.47    4.10
   3   2   7  149.59    4.08
  -3  -2  -7  139.31    4.11
   3   2   7  137.94    3.97
   3   2   6    6.03    0.69
  -3  -2  -6    5.40    0.79
  -3  -2  -6    7.42    0.87
   3   2   6    5.52    0.74
   3   2   5   41.02    1.40
  -3  -2  -5   39.02    1.48
   3   2   5   38.89    1.42
  -3  -2  -4  230.88    6.29
   3   2   4  233.53    6.22
   3   2   4  220.99    6.25
  -3  -2  -3   32.74    1.25
   3   2   3   34.31    1.18
  -3  -2  -3   36.04    1.17
   3   2   3   33.64    1.26
   3   2   2   14.42    0.87
   3   2   2   14.39    0.66
  -3  -2  -2   15.48    0.68
   3   2   2   14.28    0.82
   3   2   1  240.60    6.37
   3   2   1  243.33    6.51
  -3  -2  -1  234.36    6.37
   3   2   0   87.41    2.71
   3   2   0   98.17    2.72
  -3  -2   0   95.34    2.68
  -3  -2   0   93.60    2.55
   3   2  -1  102.76    2.62
  -3  -2   1  101.78    2.60
   3   2  -1  101.03    2.64
   3   2  -2    3.52    0.55
   3   2  -2    3.70    0.51
  -3  -2   2    4.07    0.52
   3   2  -3  149.60    4.20
  -3  -2   3  157.22    4.22
   3   2  -3  158.47    4.27
  -3  -2   4    0.61    0.45
   3   2  -4    0.35    0.39
  -3  -2   4    0.31    0.38
   3   2  -4    0.97    0.49
  -3  -2   5   46.10    1.35
   3   2  -5   50.40    1.41
  -3  -2   5   51.39    1.54
   3   2  -5   51.51    1.53
   3   2  -6  203.73    5.30
   3   2  -6  197.13    5.28
  -3  -2   6  193.53    5.31
  -3  -2   6  200.10    5.41
   3   2  -6  200.68    5.40
  -3  -2   7    0.35    0.47
   3   2  -7   -0.11    0.49
   3   2  -7   -0.60    0.42
  -3  -2   7    0.08    0.41
   3   2  -8   50.23    1.52
   3   2  -8   50.34    1.54
  -3  -2   8   48.47    1.53
  -3  -2   8   46.56    1.54
   3   2  -9  154.61    4.16
  -3  -2   9  143.90    4.16
   3   2  -9  152.13    4.16
  -3  -2   9  151.17    4.18
   3   2 -10   14.38    0.80
  -3  -2  10   13.16    0.81
   3   2 -11   76.44    2.24
  -3  -2  11   74.91    2.24
   3   2 -11   66.82    2.10
   3   2 -12   49.80    1.67
  -3  -2  12   47.91    1.68
   3   2 -12   47.03    1.49
   3   2 -12   46.72    1.48
   3   2 -13    6.28    0.50
   3   2 -13    6.33    0.84
  -3  -2  13    4.93    0.81
   3   2 -13    6.76    0.55
   3   2 -14    7.16    0.91
  -3  -2  14    4.23    0.86
  -3  -2  15    3.73    0.93
   3   2 -15    3.14    0.89
   3   2 -16    6.48    1.03
   3   2 -17    1.00    0.96
  -3  -3 -12    4.56    1.01
   3   3  11   33.85    1.54
  -3  -3 -11   33.29    1.65
  -3  -3 -11   34.45    1.58
   3   3  10    4.57    0.92
  -3  -3 -10    7.28    1.04
   3   3  10    6.22    0.97
  -3  -3 -10    5.89    0.94
  -3  -3 -10    7.56    1.02
  -3  -3  -9   14.55    1.15
   3   3   9   17.07    1.10
  -3  -3  -9   14.48    1.15
   3   3   9   16.98    1.10
   3   3   9   14.44    0.91
  -3  -3  -9   17.96    1.10
   3   3   8    6.21    0.88
   3   3   8    9.32    0.92
  -3  -3  -8    7.64    0.97
  -3  -3  -8    7.13    0.85
  -3  -3  -8    9.25    0.99
   3   3   8    6.15    0.75
   3   3   7   28.46    1.21
  -3  -3  -7   21.33    1.23
  -3  -3  -7   25.95    1.28
   3   3   7   26.45    1.24
  -3  -3  -7   24.31    1.18
   3   3   7   23.22    1.10
  -3  -3  -6   63.66    2.05
   3   3   6   61.27    1.98
  -3  -3  -6   58.33    2.06
   3   3   6   60.02    2.02
   3   3   6   57.89    1.95
  -3  -3  -5  276.67    7.37
   3   3   5  274.88    7.30
   3   3   5  251.82    7.35
   3   3   5  265.62    7.31
  -3  -3  -4   25.77    1.17
   3   3   4   27.63    1.06
   3   3   4   25.78    1.17
   3   3   4   22.87    1.13
  -3  -3  -3  240.46    6.30
   3   3   3  219.49    6.29
  -3  -3  -3  227.11    6.20
   3   3   3  226.34    6.29
  -3  -3  -2   43.76    1.47
   3   3   2   40.77    1.47
  -3  -3  -2   41.12    1.32
   3   3   2   40.44    1.49
  -3  -3  -1   40.72    1.45
  -3  -3  -1   41.99    1.28
   3   3   1   40.58    1.48
  -3  -3   0   73.84    2.20
  -3  -3   0   72.78    2.02
   3   3   0   68.82    2.22
   3   3  -1    4.32    0.65
  -3  -3   1    4.65    0.63
  -3  -3   1    5.21    0.52
  -3  -3   1    4.27    0.32
  -3  -3   2   16.92    0.71
  -3  -3   2   18.79    0.84
  -3  -3   2   12.82    0.44
   3   3  -2   18.26    0.82
  -3  -3   3   19.72    0.94
  -3  -3   3   20.17    0.80
   3   3  -3   19.07    0.90
  -3  -3   4    5.20    0.48
   3   3  -4    5.64    0.62
  -3  -3   5    3.29    0.39
  -3  -3   5    2.60    0.24
   3   3  -5    2.46    0.56
   3   3  -6  262.61    6.88
  -3  -3   6  249.21    6.72
   3   3  -7  332.21    8.95
  -3  -3   7  332.61    8.84
   3   3  -7  333.03    8.97
   3   3  -8   15.46    0.68
   3   3  -8   14.21    0.79
  -3  -3   8   13.73    0.68
   3   3  -8   13.83    0.83
   3   3  -9  117.65    3.16
   3   3  -9  118.14    3.11
  -3  -3   9  114.54    3.11
   3   3  -9  113.11    3.16
   3   3 -10    8.70    0.67
  -3  -3  10    7.67    0.67
   3   3 -10    7.97    0.67
   3   3 -11   38.86    1.29
  -3  -3  11   38.74    1.32
   3   3 -12    4.64    0.54
  -3  -3  12    5.50    0.76
   3   3 -12    3.72    0.72
  -3  -3  13   10.08    0.88
   3   3 -13   10.81    0.67
   3   3 -13    9.98    0.86
   3   3 -13   10.87    0.62
  -3  -3  14    8.51    0.88
   3   3 -14    7.58    0.87
   3   3 -15    0.81    0.81
   3   3 -16   14.05    1.08
  -3  -4 -11    1.44    0.94
   3   4  10   18.22    1.18
  -3  -4 -10   17.52    1.29
  -3  -4 -10   16.01    1.21
   3   4   9    7.05    0.92
  -3  -4  -9    8.19    1.08
  -3  -4  -9    9.16    0.96
   3   4   9    7.32    0.84
  -3  -4  -8   28.85    1.36
  -3  -4  -8   27.00    1.39
  -3  -4  -8   25.66    1.37
   3   4   8   26.41    1.30
  -3  -4  -8   26.91    1.31
   3   4   8   27.54    1.23
  -3  -4  -7   28.89    1.36
  -3  -4  -7   30.34    1.35
   3   4   7   26.79    1.31
  -3  -4  -7   27.57    1.30
   3   4   7   25.97    1.23
  -3  -4  -6   17.86    1.06
   3   4   6   15.69    1.04
  -3  -4  -6   16.63    0.97
   3   4   6   15.20    1.00
   3   4   5    0.29    0.74
   3   4   5    0.17    0.76
  -3  -4  -5    1.74    0.75
   3   4   5   -0.06    0.72
  -3  -4  -4   54.46    1.89
  -3  -4  -4   53.77    1.88
   3   4   4   55.22    1.92
   3   4   4   56.85    1.89
  -3  -4  -3  346.87    9.28
   3   4   3  340.90    9.31
   3   4   3  337.30    9.29
  -3  -4  -2   11.81    0.88
   3   4   2   12.24    0.89
  -3  -4  -2   12.91    0.70
   3   4   2   13.53    0.93
  -3  -4  -1   72.89    2.17
  -3  -4  -1   67.34    2.02
   3   4   1   66.79    2.21
  -3  -4   0  113.70    3.19
  -3  -4   0  106.81    3.02
   3   4   0  109.10    3.23
  -3  -4   1   29.02    1.14
  -3  -4   1   27.01    0.89
  -3  -4   2  101.26    2.80
   3   4  -2   96.56    2.81
  -3  -4   2   91.31    2.56
  -3  -4   3  244.21    5.92
  -3  -4   3  222.85    5.79
  -3  -4   3  205.25    5.64
  -3  -4   3  204.01    5.64
   3   4  -3  226.36    5.88
   3   4  -3  233.54    5.94
  -3  -4   4   81.42    2.23
   3   4  -4   81.15    2.37
   3   4  -4   84.88    2.42
  -3  -4   4   73.35    2.09
   3   4  -5  247.68    6.62
  -3  -4   5  250.73    6.49
   3   4  -5  262.89    6.67
   3   4  -6    2.79    0.72
  -3  -4   6    1.47    0.33
  -3  -4   6    2.20    0.37
   3   4  -6    2.29    0.67
   3   4  -7  101.60    2.95
  -3  -4   7   99.33    2.78
   3   4  -7  101.56    2.98
   3   4  -8   35.52    1.45
   3   4  -8   37.23    1.38
  -3  -4   8   38.35    1.24
   3   4  -8   40.65    1.43
   3   4  -9   40.73    1.60
  -3  -4   9   43.83    1.41
   3   4  -9   44.07    1.53
   3   4  -9   44.42    1.53
   3   4 -10   40.42    1.34
   3   4 -10   42.05    1.46
  -3  -4  10   41.15    1.38
   3   4 -10   38.96    1.42
   3   4 -11    0.23    0.57
   3   4 -11    0.73    0.74
  -3  -4  11    1.42    0.60
   3   4 -11    0.62    0.61
   3   4 -12    5.60    0.87
   3   4 -12    7.64    0.76
  -3  -4  12    5.13    0.71
   3   4 -12    6.92    0.63
   3   4 -13   -0.08    0.70
  -3  -4  13    1.07    0.71
   3   4 -13    0.46    0.51
  -3  -4  13   -0.13    0.67
   3   4 -14    1.97    0.78
  -3  -4  14    2.14    0.69
   3   4 -15    7.32    0.91
  -3  -5 -10    0.57    0.91
  -3  -5  -9    0.57    0.85
   3   5   8    0.53    0.85
  -3  -5  -8    1.32    0.86
  -3  -5  -8    2.45    0.87
   3   5   8    2.15    0.83
   3   5   7    0.03    0.83
  -3  -5  -7    0.32    0.75
   3   5   7    1.03    0.81
  -3  -5  -7    1.05    0.81
   3   5   6    9.98    0.94
  -3  -5  -6    9.50    0.86
  -3  -5  -6   10.35    0.94
   3   5   6    7.95    0.90
   3   5   5    2.81    0.81
  -3  -5  -5    2.27    0.80
   3   5   5    2.04    0.81
  -3  -5  -5    1.26    0.73
   3   5   5    2.57    0.79
   3   5   4    0.85    0.78
  -3  -5  -4    0.36    0.73
   3   5   4    0.44    0.77
  -3  -5  -4    0.55    0.71
   3   5   4    0.22    0.78
  -3  -5  -3   21.58    1.11
   3   5   3   23.58    1.15
   3   5   3   20.88    1.10
  -3  -5  -3   21.54    1.13
   3   5   3   23.19    1.15
   3   5   3   23.91    1.19
  -3  -5  -2   45.08    1.60
   3   5   2   42.06    1.57
  -3  -5  -2   42.32    1.61
   3   5   2   45.51    1.63
   3   5   2   41.91    1.65
   3   5   1    4.14    0.81
   3   5   1    3.00    0.73
  -3  -5  -1    5.84    0.75
  -3  -5  -1    3.99    0.53
   3   5   0    2.31    0.77
   3   5   0    0.11    0.48
  -3  -5   0    0.97    0.68
  -3  -5   0    1.82    0.45
  -3  -5   1    2.38    0.69
  -3  -5   1    3.31    0.46
  -3  -5   2   73.31    2.20
   3   5  -2   68.91    2.22
  -3  -5   2   68.64    1.98
  -3  -5   3   22.29    1.05
  -3  -5   3   21.08    0.72
  -3  -5   3   20.79    0.73
   3   5  -3   20.77    1.05
   3   5  -3   21.36    1.12
   3   5  -4    8.95    0.88
  -3  -5   4    9.68    0.46
  -3  -5   4    9.13    0.61
   3   5  -4   10.76    0.83
   3   5  -5   20.66    1.04
  -3  -5   5   19.91    0.82
   3   5  -5   20.93    1.10
  -3  -5   5   20.38    0.70
  -3  -5   6  262.60    7.05
   3   5  -6  273.99    7.25
  -3  -5   6  256.55    7.01
   3   5  -6  274.41    7.26
   3   5  -7   96.13    3.04
   3   5  -7  108.20    3.04
  -3  -5   7   98.54    2.77
  -3  -5   7  102.28    2.81
   3   5  -7  106.16    3.06
  -3  -5   8   -0.18    0.45
   3   5  -8    0.10    0.72
   3   5  -8   -0.71    0.71
   3   5  -8    0.85    0.70
   3   5  -9    0.63    0.71
  -3  -5   9    0.43    0.67
   3   5  -9    0.90    0.71
   3   5  -9   -0.02    0.67
  -3  -5   9    1.03    0.49
   3   5 -10    0.71    0.65
  -3  -5  10    0.14    0.70
   3   5 -10    0.42    0.76
   3   5 -10    0.25    0.67
  -3  -5  10   -0.19    0.56
   3   5 -11   15.54    1.06
  -3  -5  11   16.00    1.01
  -3  -5  11   16.34    0.86
   3   5 -11   17.23    0.98
   3   5 -11   15.08    0.88
  -3  -5  12    0.80    0.73
   3   5 -12    0.09    0.78
   3   5 -12    1.01    0.72
  -3  -5  12    0.57    0.63
   3   5 -12    0.30    0.61
  -3  -5  13    3.19    0.76
   3   5 -13    1.85    0.84
   3   5 -13    3.00    0.60
  -3  -5  14    9.61    0.87
   3   5 -14    9.95    1.04
  -3  -6  -9    3.81    0.94
  -3  -6  -8    1.24    0.89
  -3  -6  -7    1.82    0.84
   3   6   7    2.79    0.93
   3   6   6    2.30    0.87
  -3  -6  -6    3.16    0.81
  -3  -6  -6    2.88    0.85
   3   6   6    2.96    0.91
   3   6   5    4.53    0.87
  -3  -6  -5    4.44    0.76
   3   6   5    5.42    0.88
  -3  -6  -5    4.67    0.84
   3   6   5    5.17    0.90
  -3  -6  -5    4.54    0.84
   3   6   4   -0.99    0.81
   3   6   4   -0.81    0.79
  -3  -6  -4   -0.15    0.77
  -3  -6  -4   -0.27    0.76
   3   6   4   -0.11    0.83
  -3  -6  -4    1.17    0.70
   3   6   3    1.02    0.81
  -3  -6  -3    2.22    0.80
   3   6   3    2.14    0.80
  -3  -6  -3    1.93    0.81
   3   6   3    2.42    0.87
  -3  -6  -2   51.51    1.78
   3   6   2   51.36    1.81
   3   6   2   48.01    1.81
  -3  -6  -2   51.01    1.85
   3   6   2   52.50    1.86
   3   6   2   48.52    1.88
  -3  -6  -1    1.12    0.71
   3   6   1    0.97    0.71
  -3  -6  -1    0.29    0.71
   3   6   1    1.33    0.76
   3   6   1    0.23    0.76
   3   6   1    1.36    0.83
  -3  -6   0    3.53    0.71
  -3  -6   0    3.70    0.73
   3   6   0    3.94    0.79
   3   6   0    3.10    0.75
   3   6   0    3.18    0.87
  -3  -6   1    5.48    0.75
   3   6  -1    5.60    0.78
  -3  -6   1    5.66    0.53
   3   6  -1    5.35    0.88
  -3  -6   2   51.41    1.72
  -3  -6   2   47.39    1.49
  -3  -6   3   46.47    1.58
  -3  -6   3   40.90    1.28
  -3  -6   3   40.93    1.30
   3   6  -3   43.34    1.61
  -3  -6   3   41.43    1.61
   3   6  -3   42.19    1.67
  -3  -6   4   74.06    2.13
   3   6  -4   74.23    2.38
  -3  -6   4   73.13    2.13
   3   6  -4   82.14    2.43
  -3  -6   4   78.29    2.45
   3   6  -4   76.68    2.48
  -3  -6   5   27.20    0.91
   3   6  -5   26.85    1.20
   3   6  -5   26.69    1.25
  -3  -6   5   25.59    1.26
   3   6  -5   26.34    1.29
   3   6  -6   20.64    1.08
  -3  -6   6   21.29    1.16
   3   6  -6   22.31    1.10
  -3  -6   6   19.58    0.81
   3   6  -6   20.92    1.15
  -3  -6   6   19.29    0.76
   3   6  -7    0.24    0.78
  -3  -6   7    0.03    0.75
   3   6  -7    1.77    0.72
  -3  -6   7    0.66    0.43
  -3  -6   7    0.98    0.42
   3   6  -7    1.58    0.73
   3   6  -8    2.08    0.74
  -3  -6   8    1.58    0.78
  -3  -6   8    2.65    0.48
   3   6  -8    1.52    0.74
  -3  -6   8    1.66    0.26
   3   6  -8    1.62    0.81
  -3  -6   9    2.37    0.77
  -3  -6   9    2.79    0.53
   3   6  -9    2.24    0.77
   3   6  -9    4.04    0.79
   3   6  -9    2.66    0.81
  -3  -6  10   10.23    0.93
   3   6 -10    8.90    0.91
   3   6 -10    9.85    0.89
  -3  -6  10    8.84    0.67
   3   6 -10   10.14    0.88
  -3  -6  11   12.23    0.98
   3   6 -11   11.88    1.00
   3   6 -11   10.92    0.92
  -3  -6  11   10.08    0.75
   3   6 -11    9.33    0.85
  -3  -6  12    0.27    0.77
   3   6 -12    1.02    0.86
   3   6 -12    0.35    0.79
   3   6 -12    0.04    0.66
  -3  -6  13    1.36    0.79
   3   6 -13    0.49    0.87
   3   6 -13    0.38    0.76
   3   6 -13    0.88    0.62
   3   6 -14   18.52    1.27
  -3  -6  14   16.50    1.08
  -3  -7  -8    0.20    0.90
  -3  -7  -7    0.21    0.87
  -3  -7  -6    0.11    0.81
   3   7   6   -0.68    0.99
  -3  -7  -5    1.52    0.75
  -3  -7  -5    1.48    0.82
   3   7   5    0.78    0.86
   3   7   5    1.18    0.96
  -3  -7  -4    0.93    0.81
   3   7   4    0.28    0.83
  -3  -7  -4    0.24    0.71
   3   7   4    1.37    0.93
   3   7   4    0.83    0.85
   3   7   3    0.40    0.82
  -3  -7  -3   -0.12    0.76
  -3  -7  -3   -0.20    0.68
  -3  -7  -3   -0.15    0.79
   3   7   3    0.73    0.89
   3   7   3    0.65    0.85
  -3  -7  -2    0.46    0.79
   3   7   2   -0.05    0.76
   3   7   2   -0.23    0.82
  -3  -7  -2   -0.72    0.80
   3   7   2    0.92    0.81
   3   7   2   -1.57    0.93
  -3  -7  -1    0.44    0.76
   3   7   1    1.08    0.75
   3   7   1    1.53    0.83
  -3  -7  -1   -0.46    0.80
   3   7   1    0.78    0.80
   3   7   1    0.12    0.89
  -3  -7   0   13.57    0.97
   3   7   0   12.99    1.02
  -3  -7   0   13.44    0.97
   3   7   0   11.94    1.01
   3   7   0   12.64    1.07
  -3  -7   1    3.49    0.79
   3   7  -1    4.51    0.86
  -3  -7   1    4.26    0.79
   3   7  -1    3.65    0.94
  -3  -7   2   -0.45    0.76
   3   7  -2   -0.13    0.78
  -3  -7   2   -0.60    0.67
  -3  -7   3    5.87    0.85
   3   7  -3    7.80    0.84
  -3  -7   3    7.73    0.56
   3   7  -3    8.32    0.91
   3   7  -3    8.38    1.02
  -3  -7   4   37.61    1.21
   3   7  -4   38.10    1.49
  -3  -7   4   36.89    1.21
   3   7  -4   37.78    1.55
   3   7  -4   35.57    1.60
  -3  -7   5    3.59    0.83
   3   7  -5    5.39    0.80
  -3  -7   5    3.71    0.49
   3   7  -5    3.81    0.86
   3   7  -5    4.26    0.91
  -3  -7   6    0.94    0.83
   3   7  -6    0.66    0.74
   3   7  -6    0.54    0.78
  -3  -7   6    1.01    0.44
   3   7  -6   -0.49    0.87
  -3  -7   7    4.40    0.89
   3   7  -7    5.80    0.87
   3   7  -7    4.40    0.79
  -3  -7   7    4.49    0.51
  -3  -7   7    4.50    0.49
   3   7  -7    4.93    0.91
   3   7  -8   19.91    1.15
   3   7  -8   23.13    1.18
  -3  -7   8   21.37    1.24
  -3  -7   8   20.47    0.75
  -3  -7   8   19.88    0.85
   3   7  -8   23.05    1.21
   3   7  -9   53.97    1.98
  -3  -7   9   54.07    1.72
  -3  -7   9   57.16    2.03
   3   7  -9   59.23    2.01
   3   7  -9   54.91    1.98
  -3  -7  10    2.83    0.88
   3   7 -10    5.26    0.87
   3   7 -10    2.17    0.84
   3   7 -10    4.10    0.85
  -3  -7  11    0.82    0.82
   3   7 -11   -0.03    0.81
   3   7 -11    1.17    0.79
   3   7 -11   -0.34    0.78
  -3  -7  12    3.60    0.91
   3   7 -12    3.15    0.88
   3   7 -12    3.19    0.88
   3   7 -12    3.32    0.80
  -3  -7  13   14.47    1.11
   3   7 -13   13.40    1.13
  -3  -7  14   13.98    1.07
  -3  -8  -6    1.38    0.84
  -3  -8  -5   32.57    1.44
   3   8   5   34.35    1.68
   3   8   4    0.15    0.83
   3   8   4    0.07    1.00
  -3  -8  -4    0.05    0.74
  -3  -8  -3    5.44    0.87
   3   8   3    3.81    0.88
  -3  -8  -3    4.38    0.76
   3   8   3    4.25    1.02
  -3  -8  -2    6.57    0.89
   3   8   2    7.50    0.92
  -3  -8  -2    6.28    0.76
   3   8   2    6.56    1.08
  -3  -8  -1   -0.23    0.78
   3   8   1    1.13    0.80
  -3  -8  -1    0.39    0.82
   3   8   1    0.61    0.87
   3   8   1   -0.66    0.95
  -3  -8   0    0.66    0.77
   3   8   0    1.30    0.76
  -3  -8   0    0.91    0.83
   3   8   0    1.34    0.85
   3   8   0    2.94    0.91
   3   8   0    1.64    0.95
  -3  -8   1   15.52    1.01
  -3  -8   1   17.05    1.08
   3   8  -1   16.10    1.14
   3   8  -1   15.47    1.11
   3   8  -1   11.46    1.18
  -3  -8   2    0.40    0.76
   3   8  -2    1.43    0.84
  -3  -8   2    0.03    0.74
   3   8  -3    0.83    0.80
  -3  -8   3   -0.02    0.71
  -3  -8   3    0.57    0.50
   3   8  -3    0.66    0.95
  -3  -8   4    2.69    0.84
  -3  -8   4    2.30    0.53
  -3  -8   4    1.37    0.67
   3   8  -4    2.83    0.79
   3   8  -4    2.76    0.91
   3   8  -4    1.09    0.95
  -3  -8   5    0.61    0.83
   3   8  -5    1.46    0.77
  -3  -8   5    0.99    0.49
   3   8  -5    0.98    0.85
   3   8  -5    1.91    0.94
  -3  -8   6    7.24    0.98
   3   8  -6    7.20    0.86
   3   8  -6    7.04    0.96
   3   8  -6    8.38    1.03
   3   8  -7   21.61    1.21
   3   8  -7   23.04    1.27
  -3  -8   7   22.46    1.31
   3   8  -7   24.05    1.31
   3   8  -8   38.48    1.62
   3   8  -8   40.90    1.68
  -3  -8   8   42.54    1.74
   3   8  -8   40.42    1.71
   3   8  -9   36.42    1.53
  -3  -8   9   37.48    1.67
   3   8  -9   35.39    1.59
  -3  -8  10    7.23    1.00
   3   8 -10    6.78    0.94
   3   8 -10    7.20    0.96
  -3  -8  11    6.74    1.00
   3   8 -11    6.72    0.95
   3   8 -11    6.31    0.93
  -3  -8  12    1.84    0.91
   3   8 -12    1.62    0.93
   3   8 -12    0.08    0.82
  -3  -8  13    3.32    0.97
   3   9   3    4.04    0.92
   3   9   3    3.37    1.14
   3   9   2    0.44    0.88
   3   9   2   -0.73    1.05
  -3  -9  -1    1.08    0.83
   3   9   1    1.05    0.84
   3   9   1    2.54    1.07
  -3  -9   0    7.44    0.91
   3   9   0    8.45    0.96
   3   9   0    8.70    1.20
  -3  -9   1    2.62    0.85
   3   9  -1    3.04    0.83
  -3  -9   1    3.31    0.87
   3   9  -1    1.67    1.03
  -3  -9   2    4.01    0.87
  -3  -9   3    7.35    0.85
   3   9  -3    5.90    1.08
  -3  -9   4    2.19    0.90
   3   9  -4   -0.35    0.82
  -3  -9   4    1.64    0.71
   3   9  -4    0.45    0.97
   3   9  -5   29.67    1.41
  -3  -9   5   34.78    1.57
   3   9  -5   32.26    1.59
  -3  -9   6    0.89    0.93
   3   9  -6    0.44    0.82
   3   9  -6    2.21    0.98
  -3  -9   7    1.67    0.93
   3   9  -7    1.25    0.83
   3   9  -7    2.73    0.97
  -3  -9   8    7.00    1.05
   3   9  -8    7.69    0.97
   3   9  -8    6.97    1.06
  -3  -9   9    7.44    1.07
   3   9  -9    9.17    0.99
   3   9  -9    8.06    1.06
   3   9 -10   21.92    1.33
  -3  -9  10   26.26    1.48
   3   9 -10   23.79    1.37
  -3  -9  11    0.75    1.00
   3   9 -11    0.73    0.84
   3   9 -11    0.71    0.90
   3  10   0    0.73    0.80
   3  10  -1    2.44    0.83
   3  10  -6   17.89    1.14
   3  10  -7    6.97    0.94
   3  10  -8    4.25    0.92
   3  10  -9   18.42    1.22
  -4  13  -9    0.96    1.01
  -4  13  -8    0.83    1.00
  -4  13  -7   -0.68    1.03
  -4  13  -6   -0.11    1.06
   4 -13   6   -0.43    1.05
  -4  13  -5   -0.90    1.05
   4 -13   5    1.06    1.05
  -4  13  -4    8.17    1.22
   4 -13   4    6.88    1.11
   4 -13   3    2.86    1.02
   4 -13   2    3.39    1.05
   4 -13   1    1.06    0.93
   4 -13   0   31.02    1.49
   4 -12  10   24.57    1.44
  -4  12 -10   24.40    1.32
   4 -12   9    5.03    1.05
   4 -12   9    3.89    0.89
  -4  12  -9    4.83    1.01
  -4  12  -8    0.68    0.92
   4 -12   8    2.12    1.06
  -4  12  -7    5.04    1.02
   4 -12   7    5.63    1.11
  -4  12  -6    0.50    0.97
   4 -12   6    0.67    1.04
  -4  12  -5    6.54    1.08
   4 -12   5    7.13    1.10
  -4  12  -4   11.63    1.21
   4 -12   4   10.82    1.13
  -4  12  -3    1.86    1.07
   4 -12   3    1.33    0.96
  -4  12  -2    8.55    1.18
   4 -12   2    7.49    1.04
  -4  12  -1    0.45    1.07
   4 -12   1    0.57    0.91
   4 -12   0    1.54    0.87
  -4  12   0    2.75    0.81
   4 -12  -1    4.37    0.91
  -4  12   1    5.09    1.14
   4 -12  -2   11.02    0.98
  -4  12   2   11.59    1.27
  -4  12   3    1.66    1.10
   4 -11  12    0.97    0.92
   4 -11  11    3.36    0.95
   4 -11  10    3.11    0.97
   4 -11  10    4.21    0.81
  -4  11 -10    2.70    0.86
   4 -11  10    2.19    1.00
   4 -11   9   21.81    1.34
   4 -11   9   22.68    1.45
   4 -11   9   22.54    1.18
  -4  11  -9   23.15    1.25
   4 -11   9   22.15    1.15
   4 -11   8    1.34    0.91
  -4  11  -8    1.05    0.87
   4 -11   8    1.41    1.03
   4 -11   8    1.07    0.79
  -4  11  -7   14.45    1.15
   4 -11   7   13.49    1.24
   4 -11   7   13.56    1.00
   4 -11   6   25.29    1.44
  -4  11  -6   28.52    1.42
   4 -11   6   25.92    1.31
   4 -11   5    7.11    0.96
  -4  11  -5    7.35    1.01
   4 -11   5    7.15    1.04
   4 -11   5    5.42    0.86
   4 -11   4    5.63    0.92
  -4  11  -4    6.04    1.02
   4 -11   4    6.16    1.01
   4 -11   4    5.50    0.90
  -4  11  -3   10.96    1.15
   4 -11   3    8.52    1.00
   4 -11   3    9.39    0.96
   4 -11   2   18.95    1.17
  -4  11  -2   20.54    1.32
   4 -11   2   16.60    1.11
  -4  11  -1    0.87    1.02
   4 -11   1   -1.16    0.86
   4 -11   1    1.18    0.77
   4 -11   0   14.46    1.07
   4 -11  -1    1.82    0.80
  -4  11   1    1.37    0.75
  -4  11   1    1.33    1.00
   4 -11  -2    2.89    0.78
  -4  11   2    2.20    0.73
  -4  11   2    4.09    1.07
   4 -11  -3    0.37    0.72
  -4  11   3    1.37    1.02
  -4  11   4    1.84    1.03
  -4  11   5    6.63    1.13
  -4  11   6    1.46    1.06
   4 -10  13   -1.27    0.87
   4 -10  12    1.81    0.86
   4 -10  11    7.17    0.82
   4 -10  11    4.98    0.94
   4 -10  10   -0.18    0.85
   4 -10  10    1.98    0.76
  -4  10 -10    0.64    0.74
   4 -10  10    1.44    0.67
  -4  10  -9   12.32    0.97
   4 -10   9   10.43    1.05
   4 -10   9   11.96    0.94
   4 -10   9   12.41    1.13
   4 -10   9   12.09    0.88
   4 -10   8    9.23    1.01
   4 -10   8    8.11    0.99
   4 -10   8    8.73    0.88
   4 -10   8    9.29    1.08
   4 -10   8    8.83    0.84
  -4  10  -7    5.70    0.49
  -4  10  -7    7.51    0.95
   4 -10   7    5.94    1.03
   4 -10   7    6.23    0.93
   4 -10   7    6.13    0.80
  -4  10  -6   -0.13    0.25
   4 -10   6    1.00    0.84
  -4  10  -6    0.19    0.86
   4 -10   6   -0.06    0.93
   4 -10   6   -0.03    0.73
   4 -10   5    8.77    0.97
  -4  10  -5    9.13    0.98
   4 -10   5   10.47    1.07
   4 -10   5    7.49    0.87
   4 -10   4    0.11    0.76
  -4  10  -4    0.48    0.89
   4 -10   4    1.06    0.88
   4 -10   4    1.09    0.76
  -4  10  -3    1.12    0.90
   4 -10   3    1.89    0.85
   4 -10   3    2.18    0.81
  -4  10  -2   -0.53    0.94
   4 -10   2    0.40    0.81
   4 -10   2    0.58    0.80
   4 -10   1   29.63    1.33
  -4  10  -1   31.71    1.53
   4 -10   1   31.77    1.39
   4 -10   0    3.90    0.78
  -4  10   1    1.23    0.95
   4 -10  -1    1.10    0.77
   4 -10  -2    2.73    0.71
  -4  10   2    1.25    0.68
  -4  10   2    1.15    0.98
   4 -10  -2    1.65    0.88
   4 -10  -3    0.89    0.68
  -4  10   3    0.05    0.65
  -4  10   3    1.30    0.96
   4 -10  -3   -0.27    0.88
   4 -10  -4    7.59    0.73
  -4  10   4    7.27    0.71
  -4  10   4    8.33    1.08
   4 -10  -4    7.31    1.03
  -4  10   5    1.79    1.01
  -4  10   6    0.10    0.99
   4 -10  -7    3.01    0.76
   4 -10  -7    2.25    0.99
  -4  10   7    3.06    1.04
  -4  10   8    0.25    0.98
  -4  10   9    0.04    0.97
   4  -9  12    8.62    1.06
   4  -9  12    9.69    0.97
  -4   9 -11   -0.04    0.74
   4  -9  11    1.15    0.84
   4  -9  11   -0.02    0.71
   4  -9  11    0.93    0.89
  -4   9 -10    0.74    0.68
   4  -9  10    0.65    0.85
   4  -9  10    1.30    0.76
   4  -9   9    2.21    0.87
  -4   9  -9    2.56    0.65
   4  -9   9    2.14    0.82
  -4   9  -9    1.93    0.70
   4  -9   9    1.79    0.71
   4  -9   9    1.92    0.65
   4  -9   8   27.28    1.35
  -4   9  -8   27.20    1.07
   4  -9   8   29.84    1.36
   4  -9   8   26.62    1.23
  -4   9  -8   26.92    1.23
   4  -9   8   25.43    1.18
   4  -9   8   29.14    1.39
  -4   9  -7    0.49    0.49
   4  -9   7   -0.05    0.81
   4  -9   7   -0.76    0.80
  -4   9  -7    0.05    0.78
   4  -9   7    0.65    0.90
   4  -9   7    0.38    0.69
   4  -9   6    1.79    0.81
  -4   9  -6    1.70    0.41
  -4   9  -6    1.99    0.78
   4  -9   6    1.69    0.89
   4  -9   6    0.16    0.68
  -4   9  -5    1.11    0.26
  -4   9  -5    1.50    0.82
   4  -9   5    1.09    0.85
   4  -9   5    1.68    0.74
   4  -9   5    1.05    0.79
  -4   9  -4   11.16    0.99
   4  -9   4   11.27    0.99
   4  -9   4   12.52    0.90
   4  -9   3   42.25    1.62
  -4   9  -3   43.47    1.69
   4  -9   3   40.77    1.60
   4  -9   2  128.34    3.75
  -4   9  -2  131.78    3.85
   4  -9   2  125.02    3.78
  -4   9  -1    2.74    0.92
   4  -9   1    1.72    0.75
   4  -9   1    3.31    0.75
   4  -9   0    1.59    0.70
  -4   9   1   -0.65    0.89
   4  -9  -1    0.22    0.66
   4  -9  -2   18.22    0.93
  -4   9   2   16.78    1.20
   4  -9  -2   17.85    1.14
   4  -9  -3   19.76    0.93
  -4   9   3   22.41    1.26
   4  -9  -3   19.60    1.23
   4  -9  -4    1.04    0.56
  -4   9   4    1.32    0.95
   4  -9  -4    1.85    0.91
   4  -9  -5   25.44    1.36
   4  -9  -5   25.52    1.07
  -4   9   5   29.99    1.44
   4  -9  -5   26.07    1.38
   4  -9  -6   -0.08    0.29
   4  -9  -6   -1.19    0.92
   4  -9  -6    1.04    0.65
  -4   9   6    1.67    0.95
   4  -9  -6    0.82    0.91
   4  -9  -7   10.66    0.87
   4  -9  -7   10.41    1.08
  -4   9   7    9.06    1.15
   4  -9  -7    8.61    1.03
   4  -9  -8   19.25    1.09
   4  -9  -8   18.29    1.34
  -4   9   8   20.79    1.30
   4  -9  -8   18.69    1.23
   4  -9  -9    0.90    0.82
   4  -9  -9    1.20    1.04
  -4   9   9    0.67    0.95
   4  -9 -10   -1.41    0.87
  -4   9  10    1.48    0.97
  -4   8 -13    4.34    0.93
   4  -8  13    3.66    0.97
  -4   8 -12   16.91    1.09
   4  -8  12   15.31    1.18
   4  -8  12   15.70    0.98
  -4   8 -11    1.77    0.79
   4  -8  11    3.76    0.84
   4  -8  11    1.29    0.73
   4  -8  11    2.63    0.87
   4  -8  10    2.40    0.90
  -4   8 -10    1.94    0.71
   4  -8  10    0.99    0.80
   4  -8  10    1.43    0.71
  -4   8  -9    3.63    0.68
   4  -8   9    3.52    0.82
   4  -8   9    3.34    0.75
   4  -8   9    3.11    0.87
  -4   8  -8    1.09    0.60
   4  -8   8    1.38    0.79
   4  -8   8    0.95    0.69
  -4   8  -8    1.36    0.64
   4  -8   7    0.96    0.77
   4  -8   7    0.17    0.71
   4  -8   7   -0.58    0.83
  -4   8  -7    1.25    0.54
  -4   8  -7    0.58    0.71
  -4   8  -6    1.05    0.47
   4  -8   6   -0.22    0.80
   4  -8   6    1.70    0.84
  -4   8  -6    1.27    0.72
   4  -8   5   86.54    2.77
  -4   8  -5   91.21    2.75
  -4   8  -4   27.84    0.87
   4  -8   4   32.29    1.32
  -4   8  -4   33.69    1.34
   4  -8   3   66.43    2.20
  -4   8  -3   69.85    2.25
   4  -8   2   85.59    2.63
  -4   8  -2   87.76    2.72
  -4   8  -1    9.63    0.96
   4  -8   1   10.09    0.81
   4  -8   0    8.09    0.76
   4  -8  -1   73.94    2.24
   4  -8  -2   22.30    0.97
  -4   8   2   22.91    1.24
   4  -8  -3   12.67    0.63
   4  -8  -3   10.34    0.70
  -4   8   3   10.64    1.03
   4  -8  -4    0.42    0.51
   4  -8  -4    0.91    0.50
  -4   8   4    1.62    0.86
   4  -8  -5    7.48    0.40
   4  -8  -5    8.31    0.97
   4  -8  -5    8.73    0.66
  -4   8   5    9.46    1.01
   4  -8  -6   10.37    0.50
   4  -8  -6    8.97    0.74
   4  -8  -6   10.54    1.08
  -4   8   6   11.04    1.07
   4  -8  -6   10.39    1.01
   4  -8  -7    2.79    0.44
   4  -8  -7   -0.33    0.93
   4  -8  -7   -0.38    0.65
  -4   8   7    0.06    0.88
   4  -8  -7   -0.44    0.88
   4  -8  -8    8.66    0.89
   4  -8  -8    9.69    1.14
  -4   8   8    9.44    1.05
   4  -8  -8    9.65    1.00
   4  -8  -9   -0.78    0.82
   4  -8  -9    0.79    1.03
  -4   8   9   -0.03    0.86
   4  -8  -9    1.18    0.85
   4  -8 -10    8.17    0.97
   4  -8 -10    9.55    1.18
  -4   8  10    8.41    0.98
   4  -8 -10    8.41    0.98
   4  -8 -11    0.03    0.87
   4  -7  14    2.88    0.97
  -4   7 -13   27.03    1.36
   4  -7  13   27.18    1.44
   4  -7  13   24.34    1.21
  -4   7 -12   23.34    1.24
   4  -7  12   20.68    1.12
   4  -7  12   21.96    1.30
  -4   7 -11    5.53    0.86
   4  -7  11    5.46    0.77
   4  -7  11    5.23    0.89
   4  -7  10   -0.08    0.76
   4  -7  10    0.68    0.71
   4  -7  10    0.38    0.76
  -4   7 -10   -0.19    0.71
  -4   7  -9    1.88    0.68
   4  -7   9    2.87    0.82
   4  -7   9    2.99    0.72
  -4   7  -8    9.62    0.75
   4  -7   8    8.35    0.88
   4  -7   8    7.54    0.78
  -4   7  -7   62.84    1.91
   4  -7   7   60.33    2.10
   4  -7   7   57.88    2.00
   4  -7   7   61.23    2.07
  -4   7  -7   65.68    1.98
  -4   7  -6  146.79    4.15
   4  -7   6  151.28    4.34
   4  -7   6  151.09    4.34
   4  -7   6  147.53    4.29
  -4   7  -6  157.91    4.27
   4  -7   5   29.43    1.30
   4  -7   5   28.83    1.30
  -4   7  -5   30.09    1.24
   4  -7   4    4.29    0.77
   4  -7   4    4.53    0.79
  -4   7  -4    4.80    0.76
  -4   7  -3   20.94    0.68
   4  -7   3   23.24    1.08
   4  -7   3   22.73    1.07
  -4   7  -3   26.44    1.14
   4  -7   2   69.27    2.17
  -4   7  -2   70.13    2.25
   4  -7   1   60.33    1.92
  -4   7  -1   61.02    2.03
   4  -7   0   21.70    0.97
   4  -7  -1   29.21    1.10
   4  -7  -2   80.92    2.25
  -4   7   2   81.28    2.58
   4  -7  -2   82.14    2.36
   4  -7  -3  267.39    7.20
   4  -7  -3  268.25    7.23
  -4   7   3  279.54    7.47
   4  -7  -4   12.14    0.48
   4  -7  -4   11.08    0.46
   4  -7  -4   12.75    0.69
   4  -7  -4   14.17    0.62
  -4   7   4   15.70    1.05
   4  -7  -5   16.90    0.66
   4  -7  -5   14.31    0.62
   4  -7  -5   17.46    1.10
  -4   7   5   17.37    1.07
   4  -7  -6    8.16    0.97
  -4   7   6    7.06    0.90
   4  -7  -7    9.48    0.60
   4  -7  -7   11.10    1.05
  -4   7   7   11.58    0.99
   4  -7  -8    0.65    0.52
   4  -7  -8    2.66    0.97
  -4   7   8    1.35    0.82
   4  -7  -8    1.69    0.86
   4  -7  -9   34.07    1.29
   4  -7  -9   35.24    1.67
  -4   7   9   35.62    1.51
   4  -7  -9   36.64    1.50
   4  -7 -10    2.45    0.67
   4  -7 -10    3.60    1.05
   4  -7 -10    0.90    0.82
   4  -7 -11   10.30    1.20
   4  -6  14    0.88    0.91
   4  -6  13   -0.42    0.75
   4  -6  13    0.30    0.88
  -4   6 -12    0.85    0.85
   4  -6  12    1.10    0.75
  -4   6 -12    1.38    0.85
   4  -6  12   -0.96    0.90
  -4   6 -11   14.71    1.01
  -4   6 -11   15.40    1.06
   4  -6  11   14.11    0.95
   4  -6  11   12.92    1.06
   4  -6  11   12.91    0.62
  -4   6 -10   -0.61    0.75
   4  -6  10    0.49    0.69
   4  -6  10   -0.29    0.77
   4  -6  10   -0.23    0.43
  -4   6  -9    1.54    0.70
   4  -6   9    2.06    0.79
   4  -6   9    2.76    0.70
   4  -6   9    1.88    0.73
   4  -6   8  102.44    3.02
  -4   6  -8   99.48    2.94
   4  -6   8   96.63    2.95
   4  -6   8   97.38    3.04
   4  -6   7  176.85    4.95
   4  -6   7  176.70    4.91
  -4   6  -7  172.32    4.83
   4  -6   7  171.50    4.94
  -4   6  -6    0.81    0.54
   4  -6   6   -0.39    0.73
  -4   6  -6   -0.14    0.39
   4  -6   6    0.15    0.70
   4  -6   6    0.23    0.67
   4  -6   6   -1.18    0.75
   4  -6   5    1.76    0.70
   4  -6   5    2.61    0.76
   4  -6   5    0.67    0.66
  -4   6  -5    1.14    0.25
   4  -6   5    0.78    0.66
   4  -6   4   86.02    2.56
   4  -6   4   82.03    2.55
   4  -6   4   81.53    2.54
  -4   6  -4   84.40    2.52
  -4   6  -3   22.59    0.80
   4  -6   3   24.80    1.07
   4  -6   3   24.05    1.08
  -4   6  -3   25.75    1.09
  -4   6  -2  239.52    6.51
   4  -6   2  249.30    6.69
  -4   6  -1   91.66    2.79
   4  -6   1   93.06    2.70
   4  -6   0  114.27    3.23
   4  -6  -1   42.72    1.24
   4  -6  -1   35.49    1.02
   4  -6  -2   76.75    1.97
  -4   6   2   76.98    2.21
   4  -6  -3    3.66    0.32
  -4   6   3    5.02    0.77
   4  -6  -3    4.21    0.44
   4  -6  -4  118.36    3.23
   4  -6  -4  118.40    3.22
  -4   6   4  120.38    3.51
   4  -6  -5    3.69    0.50
   4  -6  -5    5.12    0.80
  -4   6   5    4.29    0.80
   4  -6  -6    2.41    0.83
  -4   6   6    2.35    0.77
   4  -6  -7   58.63    2.05
  -4   6   7   59.58    2.02
   4  -6  -8   25.99    1.34
   4  -6  -9    2.04    0.96
   4  -6 -10   29.33    1.48
   4  -6 -10   29.59    1.31
   4  -6 -11    3.14    1.07
   4  -6 -11    2.87    0.80
   4  -6 -12   -0.04    1.07
  -4   5 -14   23.30    1.37
   4  -5  14   20.56    1.17
   4  -5  14   21.94    1.34
   4  -5  13   19.78    1.26
  -4   5 -13   20.57    1.26
   4  -5  13   18.25    1.11
   4  -5  12   15.21    1.17
  -4   5 -12   12.79    1.07
  -4   5 -12   12.37    1.07
   4  -5  12   12.56    0.94
   4  -5  12   11.58    1.09
   4  -5  11    0.58    0.89
  -4   5 -11    0.03    0.81
   4  -5  11    1.10    0.74
   4  -5  11   -0.90    0.86
  -4   5 -11    0.68    0.78
   4  -5  11    0.05    0.33
  -4   5 -10    2.53    0.78
   4  -5  10    0.78    0.84
   4  -5  10    2.18    0.73
  -4   5 -10    3.16    0.79
  -4   5  -9    7.05    0.83
  -4   5  -9    6.66    0.82
   4  -5   9    5.90    0.90
   4  -5   9    7.81    0.81
   4  -5   9    6.43    0.84
  -4   5  -8   97.57    2.97
  -4   5  -8   97.08    3.03
   4  -5   8  102.38    3.00
   4  -5   8  105.42    3.08
   4  -5   7   -0.38    0.72
  -4   5  -7    0.23    0.53
   4  -5   7    0.46    0.65
  -4   5  -7    1.00    0.61
   4  -5   7    1.16    0.72
   4  -5   6   62.86    1.96
  -4   5  -6   56.95    1.82
  -4   5  -6   57.13    1.72
   4  -5   6   60.70    1.95
   4  -5   6   58.81    1.93
   4  -5   5   44.28    1.52
   4  -5   5   40.92    1.52
  -4   5  -5   42.98    1.27
   4  -5   5   41.85    1.54
   4  -5   5   39.85    1.48
   4  -5   4    3.15    0.67
   4  -5   4    2.24    0.71
   4  -5   4    2.01    0.66
   4  -5   4    2.79    0.62
   4  -5   3    0.42    0.66
   4  -5   3    0.30    0.61
  -4   5  -3    0.69    0.42
  -4   5  -2   64.71    1.86
   4  -5   2   65.44    2.01
   4  -5   2   66.62    2.03
   4  -5   1  143.53    3.94
  -4   5  -1  139.12    3.81
   4  -5   1  144.05    3.81
   4  -5   1  136.58    3.99
  -4   5  -1  143.08    4.01
   4  -5   0  285.39    7.56
   4  -5   0  278.77    7.66
   4  -5   0  295.55    7.74
   4  -5  -1   59.48    1.77
   4  -5  -2   66.46    1.80
  -4   5   2   60.08    2.05
   4  -5  -2   63.15    1.85
   4  -5  -3  113.68    3.10
   4  -5  -3  115.66    3.09
  -4   5   3  107.22    3.30
   4  -5  -4   65.17    1.83
   4  -5  -4   61.96    1.73
  -4   5   4   63.61    2.05
   4  -5  -5   39.15    1.29
   4  -5  -5   41.04    1.48
   4  -5  -6  130.19    3.78
   4  -5  -7   12.89    0.99
   4  -5  -8    5.63    0.91
   4  -5  -9   -0.03    0.85
   4  -5 -10   30.40    1.46
   4  -5 -11   18.48    1.27
   4  -5 -12   14.73    1.23
   4  -5 -13    4.07    1.11
  -4   4 -15    0.93    0.97
  -4   4 -14   21.03    1.31
  -4   4 -14   20.42    1.28
   4  -4  14   21.30    1.32
  -4   4 -13    6.63    0.98
   4  -4  13    5.51    0.89
  -4   4 -13    5.12    0.94
   4  -4  13    5.55    1.01
   4  -4  12    8.12    1.03
  -4   4 -12    7.70    0.97
  -4   4 -12    6.65    0.94
   4  -4  12    7.41    0.87
   4  -4  12    6.55    0.98
   4  -4  11    2.25    0.89
  -4   4 -11    3.02    0.87
  -4   4 -11    1.95    0.84
   4  -4  11    2.43    0.77
   4  -4  10   11.38    1.02
  -4   4 -10   10.63    0.94
   4  -4  10   11.49    0.90
  -4   4 -10   10.33    0.98
   4  -4   9    0.61    0.80
  -4   4  -9   -0.72    0.67
  -4   4  -9    1.01    0.74
   4  -4   9    0.28    0.74
  -4   4  -9    0.05    0.75
  -4   4  -8    3.18    0.75
  -4   4  -8    3.90    0.65
   4  -4   8    2.64    0.80
   4  -4   8    4.33    0.72
  -4   4  -8    2.96    0.72
  -4   4  -7   -0.18    0.68
  -4   4  -7    0.25    0.56
   4  -4   7    0.54    0.71
   4  -4   7    0.11    0.64
   4  -4   7    0.98    0.46
  -4   4  -6  352.99    9.62
  -4   4  -6  353.38    9.55
   4  -4   6  358.58    9.68
   4  -4   6  348.34    9.57
   4  -4   6  388.33    9.71
  -4   4  -5  135.25    3.59
   4  -4   5  127.57    3.75
   4  -4   5  127.30    3.73
   4  -4   5  124.15    3.64
   4  -4   5  136.69    3.74
   4  -4   4   -0.05    0.61
   4  -4   4    0.07    0.61
   4  -4   4    0.10    0.62
   4  -4   4   -0.40    0.47
   4  -4   3  106.49    2.96
  -4   4  -3  104.25    2.89
   4  -4   3  101.11    2.89
   4  -4   3   99.36    2.98
   4  -4   3  100.63    2.93
  -4   4  -2  296.02    8.16
   4  -4   2  318.90    8.24
   4  -4   2  314.48    8.17
   4  -4   2  294.00    8.27
  -4   4  -1   68.14    1.95
   4  -4   1   70.12    1.96
   4  -4   1   68.68    2.03
   4  -4   1   65.56    2.09
  -4   4   0  333.31    8.90
   4  -4   0  338.82    9.02
   4  -4  -1  155.10    4.21
   4  -4  -1  157.70    4.34
   4  -4  -1  156.30    4.25
   4  -4  -2   14.18    0.62
   4  -4  -2   14.47    0.61
   4  -4  -2   13.47    0.74
   4  -4  -3    1.03    0.42
   4  -4  -3    0.87    0.49
   4  -4  -3    1.48    0.32
   4  -4  -3    1.49    0.63
   4  -4  -4  102.93    2.82
   4  -4  -4  108.58    3.09
   4  -4  -5   15.97    0.77
   4  -4  -5   16.58    0.88
   4  -4  -6   39.42    1.44
   4  -4  -7   37.70    1.45
   4  -4  -8   70.35    2.27
   4  -4  -9   19.95    1.13
   4  -4 -10   12.64    0.57
   4  -4 -10   11.81    1.05
   4  -4 -11    0.78    0.30
   4  -4 -11    1.11    0.90
   4  -4 -12    0.89    0.98
   4  -4 -13   38.15    1.72
   4  -4 -14    8.35    1.17
  -4   3 -15    7.88    1.11
  -4   3 -14    0.29    0.92
  -4   3 -14    0.71    0.96
  -4   3 -13    2.40    0.94
  -4   3 -13    2.45    0.91
   4  -3  13    4.38    0.89
  -4   3 -12    8.34    0.99
   4  -3  12    9.51    0.94
  -4   3 -12    8.34    1.00
   4  -3  12    9.42    1.11
  -4   3 -12    6.87    0.96
  -4   3 -11   19.15    1.13
  -4   3 -11   15.86    1.09
  -4   3 -11   16.68    1.08
   4  -3  11   18.25    1.07
   4  -3  11   20.25    1.22
   4  -3  11   15.22    0.56
  -4   3 -10    6.71    0.89
   4  -3  10    9.63    1.01
  -4   3 -10    9.22    0.94
  -4   3 -10    7.39    0.91
   4  -3  10    8.92    0.88
  -4   3 -10    7.88    0.86
  -4   3  -9    6.90    0.86
   4  -3   9    7.97    0.91
  -4   3  -9    6.61    0.85
  -4   3  -9    5.74    0.80
  -4   3  -9    7.00    0.85
   4  -3   9    6.16    0.86
   4  -3   9    7.42    0.53
  -4   3  -8   41.91    1.57
  -4   3  -8   42.37    1.55
  -4   3  -8   42.79    1.58
  -4   3  -8   41.27    1.48
   4  -3   8   39.70    1.32
   4  -3   8   47.12    1.62
   4  -3   8   41.62    1.56
  -4   3  -7    0.22    0.67
  -4   3  -7    0.60    0.60
   4  -3   7   -0.37    0.73
  -4   3  -7   -0.44    0.72
   4  -3   7   -0.22    0.66
   4  -3   7   -0.08    0.45
  -4   3  -6  245.72    6.45
  -4   3  -6  233.18    6.33
   4  -3   6  229.25    6.41
   4  -3   6  222.99    6.30
   4  -3   6  241.70    6.42
  -4   3  -5   58.23    1.76
  -4   3  -5   60.12    1.90
   4  -3   5   58.98    1.88
   4  -3   5   54.82    1.76
   4  -3   5   59.51    1.87
   4  -3   4  118.94    3.34
   4  -3   4  118.49    3.38
   4  -3   4  113.15    3.29
   4  -3   4  120.05    3.34
   4  -3   3   11.52    0.68
  -4   3  -3   10.15    0.67
   4  -3   3   10.94    0.71
   4  -3   3    8.84    0.76
   4  -3   3   10.43    0.64
   4  -3   2  361.85    9.37
  -4   3  -2  343.65    9.36
   4  -3   2  362.22    9.36
   4  -3   2  333.21    9.39
   4  -3   1  350.46    9.57
  -4   3  -1  352.13    9.50
   4  -3   1  373.42    9.52
   4  -3   1  365.73    9.44
  -4   3   0   -0.33    0.44
   4  -3   0   -0.89    0.56
   4  -3   0   -0.77    0.48
  -4   3   1   96.84    2.75
   4  -3  -1   99.25    2.75
   4  -3  -1  100.41    2.82
   4  -3  -2    0.78    0.51
   4  -3  -2    1.01    0.45
   4  -3  -3    3.05    0.50
   4  -3  -3    2.50    0.48
   4  -3  -3    1.67    0.62
   4  -3  -4   30.80    1.05
   4  -3  -4   27.95    0.82
   4  -3  -4   32.40    1.05
   4  -3  -4   26.88    0.81
   4  -3  -4   29.86    1.00
   4  -3  -4   29.81    1.12
   4  -3  -5    0.86    0.54
   4  -3  -5    1.12    0.55
   4  -3  -5    0.93    0.43
   4  -3  -5    0.69    0.63
   4  -3  -6   20.13    0.76
   4  -3  -6   20.24    0.95
   4  -3  -6   21.98    0.98
   4  -3  -7   42.10    1.48
   4  -3  -7   42.50    1.26
   4  -3  -7   39.77    1.43
   4  -3  -8    0.96    0.34
   4  -3  -8    1.34    0.73
   4  -3  -9  178.59    4.83
   4  -3  -9  191.28    5.13
   4  -3 -10   26.74    1.30
   4  -3 -11    6.69    0.95
   4  -3 -12    2.09    0.91
   4  -3 -13    4.40    1.01
   4  -3 -14   14.90    1.23
   4  -3 -15   16.50    1.30
  -4   2 -14    0.19    0.99
  -4   2 -13   -0.75    0.83
  -4   2 -13   -1.44    0.95
  -4   2 -13   -0.06    0.94
  -4   2 -13    1.56    0.89
  -4   2 -12    0.88    0.87
  -4   2 -12    0.56    0.85
  -4   2 -12   -0.51    0.92
  -4   2 -12    2.22    0.85
  -4   2 -11    3.55    0.88
  -4   2 -11    3.53    0.90
  -4   2 -11    2.44    0.84
   4  -2  11    2.88    0.90
  -4   2 -11    2.15    0.85
  -4   2 -11    4.09    0.90
   4  -2  11    4.10    0.97
   4  -2  11    2.80    0.32
  -4   2 -10   56.92    1.97
  -4   2 -10   53.57    1.94
  -4   2 -10   57.54    1.94
   4  -2  10   56.40    1.94
  -4   2 -10   55.03    1.92
  -4   2 -10   54.77    1.90
   4  -2  10   63.19    2.03
   4  -2  10   50.54    1.59
   4  -2  10   52.20    1.61
  -4   2  -9   -0.40    0.74
  -4   2  -9    0.90    0.75
  -4   2  -9   -1.18    0.79
   4  -2   9   -0.43    0.77
  -4   2  -9    0.07    0.75
  -4   2  -9    0.44    0.79
   4  -2   9    0.38    0.45
   4  -2   9    1.07    0.83
   4  -2   8    9.12    0.87
  -4   2  -8    9.89    0.81
  -4   2  -8    9.81    0.85
  -4   2  -8    8.03    0.87
   4  -2   8    8.49    0.86
  -4   2  -8    7.48    0.84
   4  -2   8    7.10    0.55
   4  -2   7    0.51    0.68
  -4   2  -7    1.10    0.68
   4  -2   7    0.42    0.70
  -4   2  -7    1.08    0.72
  -4   2  -7    0.65    0.73
   4  -2   7    0.78    0.43
   4  -2   6    3.04    0.69
  -4   2  -6    3.03    0.65
  -4   2  -6    2.19    0.73
   4  -2   6    2.83    0.71
  -4   2  -6    2.44    0.74
   4  -2   5    9.10    0.73
  -4   2  -5    8.49    0.68
  -4   2  -5    8.57    0.78
   4  -2   5    8.63    0.77
  -4   2  -5    9.17    0.78
   4  -2   4    1.54    0.67
   4  -2   4    0.63    0.54
   4  -2   4    1.75    0.64
  -4   2  -3   32.00    1.19
   4  -2   3   35.47    1.23
  -4   2  -3   32.20    1.12
   4  -2   3   30.86    1.22
   4  -2   3   34.56    1.14
   4  -2   2    3.95    0.49
   4  -2   2    3.03    0.51
   4  -2   2    4.23    0.59
  -4   2  -2    3.56    0.56
   4  -2   1   56.17    1.64
  -4   2  -1   56.05    1.69
   4  -2   1   56.04    1.63
  -4   2  -1   51.63    1.72
  -4   2   0  523.75   14.21
   4  -2   0  548.59   14.16
   4  -2   0  546.05   14.22
  -4   2   0  525.21   14.24
   4  -2   0  529.30   14.24
  -4   2   1   29.24    1.06
   4  -2  -1   30.85    1.06
  -4   2   1   31.08    1.07
   4  -2  -1   29.80    1.11
  -4   2   2   19.92    0.82
   4  -2  -2   16.46    0.77
   4  -2  -2   20.89    0.86
   4  -2  -3   49.20    1.53
   4  -2  -3   50.70    1.51
   4  -2  -3   47.39    1.60
   4  -2  -4   31.79    1.10
   4  -2  -4   31.33    1.03
   4  -2  -4   31.36    1.04
   4  -2  -4   29.81    0.91
   4  -2  -4   29.07    1.16
   4  -2  -5   12.61    0.73
   4  -2  -5   12.30    0.41
   4  -2  -5   13.40    0.65
   4  -2  -5   12.62    0.80
   4  -2  -6    0.02    0.56
   4  -2  -6   -0.03    0.48
   4  -2  -6   -0.17    0.60
   4  -2  -7   65.26    1.97
   4  -2  -7   63.07    1.97
   4  -2  -8    0.20    0.58
   4  -2  -8    0.22    0.64
   4  -2  -9   75.27    2.26
   4  -2  -9   68.93    2.19
   4  -2 -10    0.28    0.74
   4  -2 -11   22.80    1.18
   4  -2 -12   33.14    1.45
   4  -2 -13    1.33    0.92
   4  -2 -14    4.96    0.99
   4  -2 -15    4.65    1.04
  -4   1 -13    3.37    0.97
  -4   1 -13    3.51    0.90
  -4   1 -13    3.67    1.00
  -4   1 -12    5.56    0.98
  -4   1 -12    6.23    0.99
  -4   1 -12    7.16    0.93
  -4   1 -12    7.66    0.97
  -4   1 -11    9.35    1.00
  -4   1 -11   10.01    0.98
  -4   1 -11   11.32    1.02
  -4   1 -11    9.61    1.01
   4  -1  11    8.67    1.00
   4  -1  11    8.10    0.48
   4  -1  10    0.49    0.48
  -4   1 -10    0.69    0.80
  -4   1 -10    1.42    0.82
   4  -1  10    0.99    0.87
  -4   1 -10    1.90    0.84
  -4   1 -10    2.10    0.85
   4  -1  10    1.12    0.86
   4  -1  10    0.85    0.43
   4  -1   9    1.29    0.53
  -4   1  -9    1.19    0.78
  -4   1  -9    0.37    0.82
  -4   1  -9    1.30    0.81
   4  -1   9    1.44    0.85
  -4   1  -9    0.36    0.83
   4  -1   9    1.47    0.84
  -4   1  -8  109.11    3.32
  -4   1  -8  111.62    3.33
  -4   1  -8  111.79    3.34
   4  -1   8  105.99    3.36
  -4   1  -8  115.55    3.37
   4  -1   8  116.85    3.37
  -4   1  -7    1.81    0.75
   4  -1   7    0.85    0.72
  -4   1  -7    0.11    0.75
  -4   1  -7    1.91    0.79
   4  -1   7    1.54    0.70
  -4   1  -6   10.59    0.80
   4  -1   6   10.11    0.85
  -4   1  -6   10.32    0.85
   4  -1   6   11.54    0.81
  -4   1  -6    9.72    0.86
   4  -1   5   17.38    0.98
  -4   1  -5   15.45    0.92
   4  -1   5   16.32    0.93
  -4   1  -5   15.93    0.86
   4  -1   5   17.96    0.86
  -4   1  -4   55.69    1.75
  -4   1  -4   57.33    1.85
   4  -1   4   60.82    1.90
   4  -1   4   55.72    1.87
   4  -1   4   58.87    1.79
  -4   1  -3   17.58    0.77
  -4   1  -3   18.52    0.87
   4  -1   3   18.91    0.91
   4  -1   3   18.27    0.80
  -4   1  -2    5.31    0.61
   4  -1   2    5.71    0.65
   4  -1   2    4.96    0.59
   4  -1   2    4.92    0.49
  -4   1  -2    5.97    0.52
  -4   1  -1  182.31    5.04
   4  -1   1  189.11    5.00
   4  -1   1  174.49    5.04
   4  -1   1  185.74    4.94
  -4   1   0   70.28    2.12
   4  -1   0   71.94    2.15
  -4   1   0   68.96    2.12
   4  -1   0   69.93    2.15
   4  -1   0   74.32    2.00
  -4   1   1    1.69    0.53
  -4   1   1    1.77    0.46
   4  -1  -1    2.14    0.57
   4  -1  -1    2.17    0.58
   4  -1  -1    1.78    0.32
  -4   1   2   84.94    2.48
   4  -1  -2   85.24    2.49
  -4   1   2   84.24    2.45
   4  -1  -2   88.71    2.48
   4  -1  -3  444.50   11.89
  -4   1   3  448.51   11.85
   4  -1  -3  453.58   11.78
   4  -1  -3  452.90   11.87
   4  -1  -3  429.28   11.82
   4  -1  -4    5.59    0.62
   4  -1  -4    6.03    0.45
   4  -1  -4    5.88    0.43
   4  -1  -4    5.84    0.55
   4  -1  -5   72.65    2.22
   4  -1  -5   73.90    2.05
   4  -1  -5   75.29    2.14
   4  -1  -5   72.97    2.10
   4  -1  -6    7.08    0.72
   4  -1  -6    7.65    0.37
   4  -1  -6    9.76    0.57
   4  -1  -7   -0.27    0.68
   4  -1  -7    0.27    0.20
   4  -1  -7   -0.65    0.56
   4  -1  -7   -0.13    0.49
   4  -1  -8   15.84    0.78
   4  -1  -8   16.21    0.85
   4  -1  -9   47.05    1.59
   4  -1  -9   48.76    1.60
   4  -1 -10   10.35    0.82
   4  -1 -10   10.26    0.74
   4  -1 -11   20.52    0.95
   4  -1 -11   21.13    1.10
   4  -1 -12   11.95    0.97
   4  -1 -12   11.20    0.60
   4  -1 -13    3.48    0.89
   4  -1 -14    4.38    0.95
   4  -1 -15    1.83    0.96
   4  -1 -16    3.60    1.00
  -4   0 -13   -0.21    0.92
  -4   0 -13    0.94    1.07
  -4   0 -12   -0.36    0.86
  -4   0 -12   -0.85    0.87
  -4   0 -12    0.85    0.97
  -4   0 -11    6.96    0.94
  -4   0 -11    7.17    1.03
  -4   0 -11    6.46    0.95
   4   0  11    7.73    1.03
  -4   0 -11    7.69    1.02
  -4   0 -10   -0.19    0.77
  -4   0 -10    0.25    0.90
  -4   0 -10    0.95    0.84
   4   0  10   -0.11    0.85
  -4   0 -10    0.08    0.89
   4   0  10   -0.62    0.52
   4   0   9    1.11    0.55
  -4   0  -9    1.91    0.75
  -4   0  -9    1.25    0.88
  -4   0  -9    0.37    0.82
   4   0   9    0.53    0.85
   4   0   9   -0.21    0.80
  -4   0  -9    2.61    0.88
   4   0   8    7.22    0.67
  -4   0  -8    7.03    0.83
  -4   0  -8    7.25    0.91
  -4   0  -8    7.74    0.90
   4   0   8    7.31    0.93
  -4   0  -8    8.46    0.93
   4   0   8    7.04    0.86
  -4   0  -7   32.62    1.33
   4   0   7   29.00    1.33
  -4   0  -7   29.94    1.34
   4   0   7   30.04    1.26
  -4   0  -7   30.83    1.31
   4   0   7   26.65    1.12
  -4   0  -6   15.44    0.99
   4   0   6   13.22    0.97
  -4   0  -6   15.03    0.98
  -4   0  -6   15.36    0.97
   4   0   6   16.52    0.91
   4   0   5    2.55    0.70
   4   0   5    2.68    0.62
  -4   0  -4   57.28    1.93
   4   0   4   61.26    1.85
  -4   0  -3    3.87    0.65
   4   0   3    3.91    0.65
  -4   0  -3    3.43    0.50
   4   0   3    4.81    0.55
  -4   0  -2   22.63    0.84
  -4   0  -2   22.23    1.01
   4   0   2   23.44    0.99
   4   0   2   24.41    0.87
  -4   0  -1  408.70   10.97
  -4   0  -1  409.65   10.84
   4   0   1  411.69   10.98
   4   0   1  418.71   10.94
   4   0   1  404.28   10.84
  -4   0   0  136.85    3.96
   4   0   0  144.09    3.99
   4   0   0  137.96    3.96
   4   0   0  144.52    3.81
  -4   0   1   13.03    0.69
  -4   0   1   13.07    0.75
   4   0  -1   14.75    0.82
   4   0  -1   13.32    0.73
  -4   0   1   14.26    0.70
   4   0  -1   13.40    0.44
  -4   0   2   14.52    0.77
   4   0  -2   12.83    0.79
  -4   0   2   13.24    0.68
   4   0  -2   14.64    0.74
   4   0  -2   15.30    0.71
  -4   0   3  113.25    2.85
   4   0  -3  107.01    2.82
   4   0  -3   96.89    2.55
  -4   0   3  106.27    2.75
   4   0  -3  111.43    2.75
   4   0  -3  108.12    2.74
   4   0  -4  224.65    5.86
  -4   0   4  209.84    5.76
   4   0  -4  221.44    5.77
   4   0  -4  219.79    5.76
   4   0  -4  207.40    5.65
   4   0  -5  178.15    4.87
  -4   0   5  175.39    4.73
   4   0  -5  180.57    4.75
   4   0  -5  172.12    4.74
   4   0  -5  172.62    4.68
   4   0  -6  180.71    5.07
   4   0  -6  191.50    4.93
   4   0  -6  177.92    4.90
   4   0  -6  179.75    4.91
   4   0  -7   53.35    1.88
   4   0  -7   57.19    1.65
   4   0  -7   58.67    1.66
   4   0  -7   56.50    1.70
   4   0  -8    7.54    0.87
   4   0  -8    4.41    0.55
   4   0  -8    6.85    0.43
   4   0  -8    6.78    0.43
   4   0  -9   14.70    0.57
   4   0  -9   14.13    0.84
   4   0  -9   13.36    0.79
   4   0 -10   -0.51    0.63
   4   0 -10    0.69    0.30
   4   0 -10    0.87    0.62
   4   0 -11   -0.13    0.68
   4   0 -11    0.04    0.25
   4   0 -11   -0.12    0.60
   4   0 -12   14.47    0.48
   4   0 -12   19.19    0.86
   4   0 -12   17.81    0.98
   4   0 -13   10.72    0.92
   4   0 -14    1.35    0.86
   4   0 -15    3.42    0.89
   4   0 -16   18.76    1.21
  -4  -1 -12    4.88    0.99
  -4  -1 -12    5.42    1.08
  -4  -1 -11    0.54    0.94
  -4  -1 -11    2.19    0.90
  -4  -1 -11   -0.15    0.84
  -4  -1 -10    1.00    0.90
  -4  -1 -10   -0.39    0.87
   4   1  10    0.29    0.85
  -4  -1 -10    0.75    0.90
  -4  -1 -10    0.54    0.80
   4   1  10   -0.49    0.57
  -4  -1  -9   10.78    1.03
  -4  -1  -9   11.89    1.03
   4   1   9   10.94    1.00
  -4  -1  -9   10.47    1.04
   4   1   9   11.60    0.78
  -4  -1  -9   10.34    0.92
  -4  -1  -8   22.05    1.24
  -4  -1  -8   23.32    1.28
   4   1   8   24.02    1.21
   4   1   8   21.76    1.02
  -4  -1  -8   22.91    1.14
   4   1   7    5.05    0.70
  -4  -1  -7    4.90    0.87
   4   1   7    6.51    0.92
   4   1   7    4.92    0.79
  -4  -1  -7    5.01    0.89
   4   1   6   48.95    1.80
  -4  -1  -6   48.26    1.76
   4   1   6   50.85    1.69
   4   1   6   47.10    1.65
   4   1   5    2.97    0.68
   4   1   5    3.68    0.80
   4   1   5    3.51    0.66
   4   1   4    0.71    0.56
   4   1   3  133.86    3.67
   4   1   3  126.86    3.55
  -4  -1  -3  123.79    3.54
  -4  -1  -2  170.37    4.67
   4   1   2  176.58    4.80
   4   1   2  173.51    4.82
   4   1   2  170.59    4.67
  -4  -1  -1  271.12    7.28
  -4  -1  -1  256.10    7.42
   4   1   1  274.91    7.42
   4   1   1  282.42    7.44
   4   1   1  279.12    7.28
   4   1   0    0.49    0.57
  -4  -1   0    0.21    0.26
  -4  -1   0    0.51    0.58
   4   1   0   -0.21    0.25
   4   1   0   -0.49    0.61
  -4  -1   1   24.44    1.01
   4   1  -1   24.07    0.99
  -4  -1   1   23.85    0.94
   4   1  -1   22.60    0.96
  -4  -1   2   74.58    2.21
   4   1  -2   71.45    2.14
  -4  -1   2   70.90    2.12
   4   1  -2   72.48    2.17
   4   1  -3    1.61    0.52
  -4  -1   3    1.32    0.61
   4   1  -3    1.46    0.51
   4   1  -4    8.64    0.57
   4   1  -4    8.61    0.62
  -4  -1   5   40.74    1.28
   4   1  -5   39.39    1.24
   4   1  -5   39.52    1.30
   4   1  -6   78.81    2.20
  -4  -1   6   82.22    2.28
   4   1  -6   82.93    2.32
   4   1  -6   80.65    2.26
   4   1  -7  603.85   16.27
  -4  -1   7  615.54   16.06
   4   1  -7  613.61   16.12
   4   1  -7  606.90   16.06
   4   1  -7  603.55   16.06
  -4  -1   8    3.83    0.50
   4   1  -8    0.64    0.79
   4   1  -8    2.65    0.30
   4   1  -8    1.86    0.45
   4   1  -8    2.34    0.45
  -4  -1   9    0.51    0.48
   4   1  -9   -0.26    0.82
   4   1  -9   -0.18    0.18
   4   1  -9    0.69    0.39
   4   1  -9    1.62    0.50
  -4  -1  10    5.55    0.53
   4   1 -10    5.38    0.90
   4   1 -10    6.55    0.63
  -4  -1  11   20.12    0.95
  -4  -1  11   19.59    0.80
   4   1 -11   19.08    0.93
   4   1 -11   21.09    0.94
  -4  -1  12   -0.34    0.44
  -4  -1  12    0.48    0.66
   4   1 -12   -0.23    0.62
   4   1 -12   -0.45    0.66
  -4  -1  13    6.29    0.83
   4   1 -13    5.10    0.64
   4   1 -13    5.22    0.79
   4   1 -14   47.15    1.72
   4   1 -15    1.33    0.82
  -4  -2 -12    2.03    0.94
  -4  -2 -11    2.32    1.01
  -4  -2 -11   -0.13    0.87
  -4  -2 -10    3.10    0.99
   4   2  10    2.62    0.94
  -4  -2 -10    1.20    0.86
   4   2  10    0.90    0.64
  -4  -2  -9   29.41    1.45
   4   2   9   29.03    1.38
  -4  -2  -9   27.07    1.42
   4   2   9   26.57    1.17
  -4  -2  -9   28.85    1.35
  -4  -2  -8    6.73    0.98
   4   2   8    3.80    0.83
  -4  -2  -8    3.52    0.91
  -4  -2  -8    3.79    0.81
   4   2   8    4.95    0.72
   4   2   7    0.04    0.70
  -4  -2  -7    0.26    0.82
   4   2   7    0.77    0.74
  -4  -2  -7   -0.05    0.83
  -4  -2  -7    1.98    0.72
   4   2   6    2.73    0.76
  -4  -2  -6    4.23    0.83
   4   2   6    3.15    0.76
   4   2   6    2.14    0.71
   4   2   5   66.94    2.04
  -4  -2  -5   63.45    2.14
   4   2   5   64.42    2.15
   4   2   5   62.38    2.08
   4   2   4  140.03    1.56
   4   2   4  126.70    1.73
   4   2   3   57.83    1.91
   4   2   3   54.00    1.90
   4   2   3   57.57    1.72
  -4  -2  -3   56.13    1.71
   4   2   3   51.41    1.85
   4   2   2   75.35    2.31
   4   2   2   75.55    2.32
   4   2   2   73.69    2.11
  -4  -2  -2   71.03    2.12
   4   2   1    0.98    0.61
   4   2   1    0.43    0.70
   4   2   1    0.30    0.67
  -4  -2  -1    0.91    0.38
  -4  -2   0   27.97    0.87
   4   2   0   30.51    1.17
   4   2   0   30.90    1.19
   4   2   0   27.93    1.16
   4   2  -1    0.24    0.59
   4   2  -1   -0.14    0.59
   4   2  -2   61.40    1.90
   4   2  -2   62.08    1.94
   4   2  -3  171.03    4.71
  -4  -2   3  171.72    4.71
   4   2  -3  172.31    4.76
   4   2  -4   14.63    0.70
  -4  -2   4   15.45    0.70
   4   2  -4   15.54    0.82
   4   2  -5  113.90    3.17
   4   2  -5  115.64    3.26
   4   2  -6   33.62    1.09
   4   2  -6   35.12    1.21
   4   2  -7  257.55    6.92
  -4  -2   7  262.01    6.99
   4   2  -7  262.70    6.95
   4   2  -7  267.00    7.07
   4   2  -8    2.40    0.42
  -4  -2   8    2.66    0.34
   4   2  -8    3.02    0.56
   4   2  -9  167.89    4.54
   4   2  -9  161.80    4.59
  -4  -2   9  169.71    4.56
   4   2 -10   37.06    1.25
   4   2 -10   33.45    1.23
  -4  -2  10   38.17    1.25
   4   2 -11    7.51    0.92
  -4  -2  11    9.86    0.70
   4   2 -11   10.33    0.73
   4   2 -12   -1.42    0.58
   4   2 -12   -0.69    0.85
  -4  -2  12    0.20    0.61
   4   2 -12   -0.15    0.66
   4   2 -13    8.02    0.64
   4   2 -13    9.14    1.04
  -4  -2  13    9.39    0.83
   4   2 -13   10.32    0.82
   4   2 -13    9.31    0.73
   4   2 -14    9.82    0.89
   4   2 -15    2.68    0.82
  -4  -3 -11    1.15    0.93
  -4  -3 -10    4.86    0.96
   4   3   9   28.42    1.37
   4   3   9   25.10    1.17
  -4  -3  -9   23.58    1.30
   4   3   8    0.86    0.87
   4   3   8    1.13    0.81
  -4  -3  -8    1.74    0.90
  -4  -3  -8   -0.08    0.75
  -4  -3  -8    1.66    0.88
   4   3   8    0.17    0.72
  -4  -3  -7   48.12    1.78
   4   3   7   46.10    1.68
  -4  -3  -7   44.70    1.76
   4   3   7   46.75    1.78
   4   3   7   44.56    1.66
  -4  -3  -7   43.48    1.67
   4   3   6    0.54    0.76
  -4  -3  -6    0.83    0.82
   4   3   6   -0.08    0.81
   4   3   6   -0.44    0.82
   4   3   6   -0.02    0.71
  -4  -3  -5   16.30    1.06
   4   3   5   16.24    1.07
   4   3   5   17.88    0.94
   4   3   5   17.00    1.07
   4   3   5   16.78    1.05
   4   3   4    0.56    0.74
   4   3   4    0.97    0.74
  -4  -3  -4    0.44    0.75
   4   3   4    0.15    0.78
  -4  -3  -4    0.34    0.68
   4   3   3    2.22    0.81
  -4  -3  -3    2.43    0.76
   4   3   3    3.17    0.76
   4   3   3    3.28    0.76
   4   3   3    3.50    0.81
  -4  -3  -3    2.67    0.74
  -4  -3  -2  143.35    4.02
   4   3   2  143.40    4.03
  -4  -3  -2  135.07    3.84
   4   3   2  138.34    4.03
  -4  -3  -1   59.11    1.90
   4   3   1   58.48    1.93
  -4  -3  -1   55.63    1.67
   4   3   1   54.87    1.92
   4   3   0    9.06    0.86
  -4  -3   0   11.22    0.82
   4   3   0   10.61    0.86
   4   3   0   11.81    0.85
  -4  -3   0   10.75    0.48
   4   3  -1   -0.10    0.64
  -4  -3   1    0.11    0.16
  -4  -3   1    0.23    0.67
   4   3  -1   -1.03    0.65
  -4  -3   2   10.72    0.82
   4   3  -2   11.71    0.75
   4   3  -2   11.30    0.83
   4   3  -3    2.45    0.56
   4   3  -3    1.33    0.67
  -4  -3   4  144.16    3.90
   4   3  -4  135.95    3.99
   4   3  -5  260.96    7.07
  -4  -3   5  257.63    6.96
   4   3  -6   29.96    1.18
   4   3  -7    6.95    0.72
   4   3  -7   12.55    0.78
   4   3  -8   79.80    2.25
  -4  -3   8   70.47    2.02
  -4  -3   9    9.71    0.48
  -4  -3   9   11.01    0.58
   4   3  -9    9.83    0.72
   4   3  -9   12.57    0.85
   4   3 -10   26.40    0.95
  -4  -3  10   25.58    0.96
   4   3 -10   24.69    1.05
   4   3 -10   25.55    1.12
   4   3 -11    1.20    0.63
  -4  -3  11    0.35    0.55
   4   3 -11    0.30    0.59
   4   3 -11    1.53    0.56
   4   3 -12    3.22    0.65
  -4  -3  12    2.00    0.61
   4   3 -12    2.86    0.63
   4   3 -13    3.03    0.61
   4   3 -13    2.94    0.71
   4   3 -14    0.87    0.73
  -4  -4 -10   14.02    1.13
  -4  -4  -9    3.93    0.92
   4   4   9    4.95    0.85
  -4  -4  -8    0.94    0.83
   4   4   8    1.20    0.79
   4   4   7    2.00    0.86
  -4  -4  -7    1.20    0.85
  -4  -4  -7    1.44    0.77
   4   4   7    1.29    0.81
   4   4   6    4.67    0.92
  -4  -4  -6    5.69    0.91
   4   4   6    4.96    0.91
  -4  -4  -6    3.49    0.77
   4   4   6    5.28    0.87
   4   4   5    8.25    0.97
  -4  -4  -5    9.63    0.94
   4   4   5    8.59    0.99
  -4  -4  -5   11.32    0.93
   4   4   5    9.53    0.96
   4   4   4    2.87    0.84
   4   4   4    2.75    0.83
  -4  -4  -4    1.46    0.81
   4   4   4    2.10    0.81
  -4  -4  -4    2.96    0.76
   4   4   3    7.23    0.92
   4   4   3    7.37    0.88
  -4  -4  -3    7.05    0.87
  -4  -4  -3    8.06    0.87
   4   4   3    6.70    0.86
   4   4   2    3.56    0.86
   4   4   2    4.80    0.80
  -4  -4  -2    3.75    0.78
  -4  -4  -2    4.03    0.53
  -4  -4  -2    4.00    0.76
  -4  -4  -1   63.39    2.08
  -4  -4  -1   59.35    2.05
  -4  -4  -1   64.78    1.87
   4   4   1   62.43    2.15
  -4  -4   0   59.63    1.97
  -4  -4   0   58.48    1.70
   4   4   0   58.28    2.04
   4   4  -1    1.45    0.74
   4   4  -1    0.72    0.77
  -4  -4   1   -0.09    0.72
  -4  -4   1    1.06    0.27
  -4  -4   2   42.42    1.56
   4   4  -2   42.78    1.57
  -4  -4   3  139.15    3.87
   4   4  -3  131.08    3.84
   4   4  -3  127.66    3.88
   4   4  -4   44.18    1.66
   4   4  -4   48.93    1.66
   4   4  -4   47.55    1.72
   4   4  -5   41.07    1.54
   4   4  -5   43.52    1.54
  -4  -4   5   39.48    1.33
   4   4  -5   41.03    1.58
   4   4  -6    0.02    0.75
   4   4  -6    0.36    0.68
  -4  -4   6    0.52    0.44
   4   4  -6    0.25    0.66
   4   4  -7    0.31    0.75
   4   4  -7   -0.75    0.68
   4   4  -7    0.34    0.64
   4   4  -8   42.39    1.53
   4   4  -8   45.13    1.46
  -4  -4   8   36.16    1.11
   4   4  -8   43.48    1.53
   4   4  -9    3.79    0.78
   4   4  -9    3.31    0.75
  -4  -4   9    2.26    0.38
   4   4  -9    3.39    0.68
   4   4 -10   19.17    1.11
   4   4 -10   20.19    1.00
  -4  -4  10   20.61    0.80
   4   4 -10   19.45    1.06
   4   4 -11    4.02    0.71
  -4  -4  11    4.42    0.74
   4   4 -11    3.72    0.82
  -4  -4  11    3.97    0.55
   4   4 -11    4.38    0.68
   4   4 -12    2.27    0.68
  -4  -4  12    1.90    0.71
   4   4 -12    1.00    0.77
   4   4 -12    1.12    0.66
   4   4 -13    1.31    0.62
  -4  -4  13   -0.56    0.67
   4   4 -13    0.50    0.80
   4   4 -14   22.38    1.31
  -4  -5  -9    0.63    0.84
  -4  -5  -8    2.18    0.83
   4   5   8    1.49    0.85
  -4  -5  -7   -0.03    0.77
   4   5   7   -0.61    0.83
  -4  -5  -6    3.06    0.88
  -4  -5  -6    1.58    0.76
   4   5   6    1.52    0.89
   4   5   6    2.10    0.88
   4   5   5    2.68    0.88
   4   5   5    2.06    0.88
  -4  -5  -5    0.97    0.68
  -4  -5  -5    2.11    0.80
  -4  -5  -5    1.66    0.86
   4   5   5    3.25    0.87
   4   5   4    1.71    0.86
  -4  -5  -4    0.32    0.82
   4   5   4    3.00    0.90
  -4  -5  -4    3.00    0.83
   4   5   4    2.53    0.87
   4   5   3    3.76    0.92
   4   5   3    4.74    0.90
  -4  -5  -3    3.88    0.87
   4   5   3    3.14    0.88
  -4  -5  -3    4.39    0.84
  -4  -5  -2  121.29    3.48
   4   5   2  118.57    3.50
  -4  -5  -2  108.25    3.45
   4   5   2  112.62    3.50
   4   5   2  118.23    3.54
   4   5   1    3.00    0.92
  -4  -5  -1    3.27    0.50
  -4  -5  -1    4.06    0.83
  -4  -5  -1    2.33    0.74
   4   5   0    7.14    0.92
  -4  -5   0    7.87    0.55
  -4  -5   0    7.93    0.88
  -4  -5   0    8.32    0.80
   4   5  -1    3.14    0.86
  -4  -5   1    2.71    0.38
  -4  -5   1    3.58    0.79
  -4  -5   1    3.17    0.71
   4   5  -1    3.40    0.83
  -4  -5   2    2.02    0.27
  -4  -5   2    3.17    0.76
   4   5  -2    1.28    0.78
   4   5  -2    4.02    0.81
  -4  -5   3   16.31    1.01
   4   5  -3   13.82    0.99
   4   5  -3   14.29    1.00
   4   5  -4  306.40    8.60
   4   5  -4  315.04    8.61
   4   5  -4  321.90    8.67
   4   5  -5   29.29    1.35
   4   5  -5   31.81    1.34
   4   5  -5   32.49    1.44
   4   5  -6    4.44    0.89
  -4  -5   6    4.74    0.79
   4   5  -6    2.72    0.76
  -4  -5   6    4.70    0.49
   4   5  -6    3.74    0.77
   4   5  -7    2.39    0.84
  -4  -5   7    3.16    0.79
   4   5  -7    4.52    0.77
  -4  -5   7    3.91    0.46
   4   5  -7    3.96    0.76
   4   5  -8    2.70    0.83
  -4  -5   8    3.45    0.77
   4   5  -8    3.97    0.81
  -4  -5   8    2.18    0.21
   4   5  -8    3.60    0.74
   4   5  -9    8.94    0.90
  -4  -5   9    7.64    0.87
   4   5  -9    6.91    0.87
  -4  -5   9    6.72    0.40
   4   5  -9    9.21    0.84
   4   5 -10    8.95    0.91
  -4  -5  10    8.59    0.88
   4   5 -10    7.75    0.91
   4   5 -10    7.72    0.84
   4   5 -11    1.60    0.78
  -4  -5  11    1.39    0.79
   4   5 -11   -0.46    0.80
   4   5 -11    0.92    0.69
   4   5 -12    2.10    0.75
  -4  -5  12    1.06    0.74
   4   5 -12    1.11    0.84
   4   5 -12    1.72    0.73
  -4  -5  13    3.20    0.78
   4   5 -13    3.27    0.91
   4   5 -13    3.70    0.74
  -4  -6  -8    0.70    0.81
  -4  -6  -7    1.30    0.80
   4   6   7    0.35    0.94
  -4  -6  -6   27.06    1.27
   4   6   6   27.57    1.41
  -4  -6  -5    1.05    0.72
   4   6   5    2.10    0.94
   4   6   5    2.05    0.91
  -4  -6  -4   12.20    1.04
   4   6   4   13.09    1.08
  -4  -6  -4   12.41    0.85
   4   6   4   10.71    1.07
   4   6   3    0.61    0.87
  -4  -6  -3    0.83    0.82
   4   6   3   -0.18    0.85
  -4  -6  -3    0.93    0.79
   4   6   3   -0.18    0.90
  -4  -6  -2    9.07    0.95
   4   6   2    8.46    0.93
   4   6   2    7.91    0.94
  -4  -6  -2    7.60    0.90
   4   6   2    7.90    1.03
   4   6   2    8.12    0.97
  -4  -6  -1   23.60    1.22
   4   6   1   22.39    1.19
   4   6   1   22.26    1.19
  -4  -6  -1   20.81    1.16
   4   6   1   21.94    1.24
   4   6   1   23.04    1.33
   4   6   0    0.27    0.93
  -4  -6   0   -0.04    0.44
  -4  -6   0    0.89    0.78
   4   6   0    0.89    0.80
  -4  -6   0   -0.18    0.74
   4   6  -1    0.03    0.90
  -4  -6   1   -0.65    0.84
   4   6  -1   -0.19    0.76
  -4  -6   1    1.63    0.72
  -4  -6   1    0.09    0.43
  -4  -6   2   28.49    1.30
   4   6  -2   28.33    1.29
  -4  -6   2   26.98    1.19
   4   6  -2   27.60    1.34
  -4  -6   2   25.48    0.87
  -4  -6   3   48.86    1.64
  -4  -6   3   35.44    1.09
   4   6  -3   46.16    1.59
   4   6  -3   47.26    1.62
  -4  -6   3   37.09    1.10
   4   6  -4   14.39    0.96
   4   6  -4   17.22    1.02
   4   6  -4   14.70    1.06
   4   6  -5    0.82    0.89
   4   6  -5    0.47    0.75
   4   6  -5   -0.03    0.77
   4   6  -6   -0.42    0.88
  -4  -6   6    0.03    0.80
   4   6  -6   -0.13    0.75
   4   6  -6   -0.03    0.77
   4   6  -7    3.38    0.91
  -4  -6   7    3.23    0.85
   4   6  -7    3.19    0.82
  -4  -6   7    3.92    0.46
   4   6  -7    4.98    0.85
   4   6  -8    7.28    0.99
  -4  -6   8    7.00    0.94
   4   6  -8    9.70    0.92
   4   6  -8    7.45    0.88
   4   6  -9    1.51    0.87
  -4  -6   9    1.74    0.81
   4   6  -9    3.03    0.82
   4   6  -9    1.57    0.82
   4   6 -10    4.06    0.87
  -4  -6  10    4.84    0.88
   4   6 -10    5.58    0.90
   4   6 -10    5.68    0.90
  -4  -6  11    5.07    0.91
   4   6 -11    3.10    0.91
   4   6 -11    5.95    0.82
   4   6 -11    3.95    0.85
  -4  -6  12   10.96    1.01
   4   6 -12   10.99    1.08
   4   6 -12   11.30    0.94
   4   6 -12    9.40    0.94
  -4  -6  13   53.43    1.98
   4   7   7    7.24    1.07
   4   7   6    6.57    1.11
   4   7   5   18.88    1.29
   4   7   5   17.31    1.29
   4   7   4    8.87    1.09
   4   7   4    8.90    1.11
  -4  -7  -3    1.75    0.66
   4   7   3    1.03    0.90
   4   7   3    2.21    0.98
  -4  -7  -2    1.05    0.89
   4   7   2    0.96    0.88
   4   7   2    1.58    0.99
  -4  -7  -1    1.27    0.86
   4   7   1    1.37    0.82
  -4  -7  -1    1.28    0.82
   4   7   1   -0.60    0.94
  -4  -7   0    2.33    0.82
   4   7   0    1.06    0.84
  -4  -7   0    1.76    0.79
   4   7   0    2.56    0.97
  -4  -7   1    4.71    0.87
   4   7  -1    4.96    0.93
  -4  -7   1    4.07    0.82
  -4  -7   1    4.82    0.51
   4   7  -1    4.85    1.02
  -4  -7   2    0.35    0.82
   4   7  -2    0.75    0.81
  -4  -7   2    1.63    0.75
  -4  -7   2    0.01    0.40
   4   7  -2    1.02    0.87
   4   7  -3   43.32    1.68
   4   7  -3   46.30    1.75
  -4  -7   3   43.31    1.57
   4   7  -3   42.72    1.68
  -4  -7   3   39.69    1.24
   4   7  -4    8.33    0.93
  -4  -7   4    7.73    0.77
   4   7  -4    6.49    0.94
   4   7  -4    7.57    1.07
   4   7  -5    2.93    0.86
   4   7  -5    2.03    0.86
   4   7  -5    2.79    0.97
  -4  -7   6   -0.22    0.88
   4   7  -6   -0.23    0.79
   4   7  -6    0.59    0.86
   4   7  -6    0.74    0.92
  -4  -7   7   -0.45    0.91
   4   7  -7    1.53    0.83
   4   7  -7    1.02    0.84
   4   7  -7   -0.61    0.93
   4   7  -8   21.94    1.24
   4   7  -8   21.82    1.24
  -4  -7   8   23.20    1.31
   4   7  -8   23.25    1.29
  -4  -7   9    9.98    1.04
   4   7  -9    9.23    0.97
   4   7  -9   10.80    1.00
   4   7  -9   11.32    1.04
  -4  -7  10    3.03    0.93
   4   7 -10    3.70    0.89
   4   7 -10    2.57    0.91
  -4  -7  11    4.64    0.94
   4   7 -11    3.29    0.93
   4   7 -11    4.30    0.91
  -4  -7  12    3.25    0.92
   4   7 -12    3.12    0.87
  -4  -7  13    2.64    0.89
   4   8   4    7.15    1.08
   4   8   3    5.55    1.05
   4   8   3    4.41    1.10
   4   8   2    2.49    0.97
   4   8   2    2.40    1.04
   4   8   1   23.40    1.30
   4   8   1   21.28    1.39
   4   8   0   -0.44    0.85
   4   8   0    0.25    0.99
  -4  -8   1    1.44    0.81
   4   8  -1   -0.25    1.01
  -4  -8   2    3.02    0.92
  -4  -8   2    2.25    0.78
  -4  -8   3    0.58    0.71
   4   8  -4    0.66    0.89
  -4  -8   4    0.70    0.67
   4   8  -4    0.31    0.98
   4   8  -5   10.40    1.01
   4   8  -5   10.70    1.16
   4   8  -6    3.03    0.88
   4   8  -6    4.18    1.03
  -4  -8   7    0.14    0.92
   4   8  -7    0.12    0.88
   4   8  -7    0.07    0.97
  -4  -8   8    4.10    0.98
   4   8  -8    4.10    0.97
   4   8  -8    4.35    1.00
  -4  -8   9    1.53    0.96
   4   8  -9    1.12    0.88
   4   8  -9    1.23    0.94
  -4  -8  10    0.18    0.96
   4   8 -10    0.54    0.94
   4   8 -10    0.66    0.97
  -4  -8  11   27.70    1.48
   4   8 -11   26.08    1.40
   4   9   1    3.61    0.97
   4   9   0   -0.25    0.89
   4   9  -1   -0.18    0.85
   4   9  -5    3.14    0.92
   4   9  -6    8.18    1.02
   4   9  -7    2.96    0.97
   4   9  -8    1.09    0.90
   5 -13   5    1.91    1.07
   5 -13   4    0.52    0.99
   5 -13   3    6.82    1.05
   5 -13   2   14.90    1.19
   5 -13   1   45.09    1.81
   5 -12   9    2.28    0.90
  -5  12  -9    1.59    0.91
   5 -12   8   23.12    1.45
   5 -12   8   23.51    1.52
   5 -12   8   23.90    1.34
  -5  12  -8   27.12    1.40
   5 -12   7    0.29    0.96
  -5  12  -7    1.21    0.98
   5 -12   7    0.87    1.07
  -5  12  -6    0.87    1.03
   5 -12   6    1.43    1.03
  -5  12  -5    1.65    1.04
   5 -12   5    1.75    1.00
  -5  12  -4    0.99    1.03
   5 -12   4   -0.40    0.96
  -5  12  -3   18.95    1.35
   5 -12   3   16.77    1.22
  -5  12  -2   16.22    1.31
   5 -12   2   12.42    1.11
  -5  12  -1    6.39    1.16
   5 -12   1    6.78    0.96
   5 -12   0    2.12    0.87
   5 -12  -1   -0.27    0.80
  -5  12   1    0.12    1.05
  -5  12   2   -0.16    1.04
   5 -11  11    0.39    0.99
   5 -11  10    0.21    0.93
   5 -11  10    0.50    0.84
   5 -11   9    0.41    0.91
   5 -11   9    0.78    0.82
  -5  11  -9    0.05    0.86
   5 -11   9   -0.50    1.08
   5 -11   8    6.73    1.05
   5 -11   8    5.99    0.93
  -5  11  -8    8.29    1.01
   5 -11   8    6.62    1.11
   5 -11   8    7.69    0.90
   5 -11   7    0.21    0.95
  -5  11  -7   -0.12    0.90
   5 -11   7    0.77    1.00
   5 -11   7    0.59    0.81
   5 -11   6    0.07    0.92
  -5  11  -6   -0.49    0.93
   5 -11   6    0.31    0.97
   5 -11   6    2.00    0.82
  -5  11  -5    0.16    0.94
   5 -11   5   -0.15    0.95
   5 -11   5    0.18    0.81
  -5  11  -4    0.55    0.98
   5 -11   4    0.95    0.93
   5 -11   4    0.55    0.81
  -5  11  -3    4.11    1.03
   5 -11   3    3.62    0.91
   5 -11   3    3.11    0.87
  -5  11  -2    7.98    1.11
   5 -11   2    7.96    0.95
   5 -11   2    5.55    0.95
  -5  11  -1    1.57    1.04
   5 -11   1    0.58    0.82
   5 -11   0    5.10    0.83
  -5  11   1    0.32    1.03
   5 -11  -1    1.01    0.77
   5 -11  -2    0.10    0.69
  -5  11   2   -1.09    1.06
   5 -11  -3    6.00    0.74
  -5  11   3    5.22    1.13
   5 -11  -4    2.68    1.01
  -5  11   4    3.36    1.10
   5 -11  -5    1.50    0.98
  -5  11   5    0.77    1.06
  -5  11   6    7.29    1.18
   5 -10  12    2.03    0.97
   5 -10  11    0.33    0.92
   5 -10  11    0.29    0.81
   5 -10  10    0.85    0.95
   5 -10  10    0.68    0.84
   5 -10  10    1.01    0.98
   5 -10   9    6.59    0.98
   5 -10   9    5.73    0.90
   5 -10   9    5.82    1.07
   5 -10   9    5.32    0.77
   5 -10   8    9.38    1.05
   5 -10   8    9.68    0.97
  -5  10  -8   11.84    0.98
   5 -10   8   11.89    1.19
   5 -10   8    9.90    0.89
   5 -10   7    8.85    1.04
   5 -10   7    8.70    0.95
  -5  10  -7    8.71    0.98
   5 -10   7    9.27    1.11
   5 -10   7    7.90    0.91
  -5  10  -6    0.30    0.86
   5 -10   6    1.95    0.95
   5 -10   6    0.53    0.90
   5 -10   6    1.45    0.78
   5 -10   5    1.85    0.89
  -5  10  -5    1.05    0.92
   5 -10   5    0.41    0.89
   5 -10   5    1.74    0.80
  -5  10  -4    0.88    0.91
   5 -10   4   -1.18    0.88
  -5  10  -3    0.77    0.95
   5 -10   3   -0.82    0.88
  -5  10  -2    2.89    0.99
   5 -10   2    3.19    0.86
   5 -10   1   15.22    1.00
  -5  10  -1   14.72    1.20
   5 -10   0    4.06    0.79
   5 -10  -1    2.24    0.72
  -5  10   2   10.67    1.16
   5 -10  -2   11.74    1.03
   5 -10  -2    9.35    0.80
   5 -10  -3    0.46    0.63
  -5  10   3    1.21    1.03
   5 -10  -3    1.58    0.92
   5 -10  -4    0.07    0.57
  -5  10   4    0.38    1.01
   5 -10  -5   -0.50    1.00
  -5  10   5    1.43    0.98
   5 -10  -6    2.53    1.07
  -5  10   6    1.67    1.01
   5 -10  -7    1.85    1.04
  -5  10   7    1.88    1.02
  -5  10   8    5.37    1.09
   5  -9  12    0.18    0.80
   5  -9  11    5.29    1.00
   5  -9  11    5.18    0.87
   5  -9  10   37.96    1.63
   5  -9  10   35.46    1.50
   5  -9   9    1.01    0.87
   5  -9   9    1.08    0.83
   5  -9   9    1.01    0.95
   5  -9   9    1.08    0.65
   5  -9   8    0.09    0.87
   5  -9   8    0.43    0.76
   5  -9   8    0.40    0.96
   5  -9   8   -0.09    0.70
   5  -9   7    2.40    0.85
   5  -9   7    2.26    0.79
   5  -9   7    0.12    0.93
   5  -9   6    0.35    0.84
  -5   9  -6    0.96    0.78
   5  -9   6   -0.27    0.92
   5  -9   6   -0.27    0.82
  -5   9  -5   14.58    0.56
   5  -9   5   16.42    1.10
   5  -9   5   15.27    1.10
   5  -9   5   15.93    1.10
  -5   9  -5   17.73    1.07
   5  -9   4   13.50    1.04
   5  -9   4   12.88    1.04
  -5   9  -4   15.98    1.11
   5  -9   4   14.41    1.08
   5  -9   3   51.28    1.87
   5  -9   3   51.11    1.86
  -5   9  -3   54.35    1.96
  -5   9  -2    3.39    0.92
   5  -9   2    2.26    0.79
   5  -9   1   18.58    1.06
  -5   9  -1   19.81    1.24
   5  -9   0   -0.59    0.68
   5  -9  -1   10.06    0.81
   5  -9  -2   83.43    2.48
  -5   9   2   82.83    2.76
  -5   9   3    1.69    0.97
   5  -9  -3    1.91    0.59
   5  -9  -4    4.95    0.59
  -5   9   4    6.57    1.02
   5  -9  -5    7.80    0.60
   5  -9  -5   11.24    1.10
  -5   9   5    8.98    1.06
   5  -9  -6   22.35    0.98
   5  -9  -6   24.95    1.40
  -5   9   6   24.59    1.38
   5  -9  -6   23.64    1.33
   5  -9  -7    2.04    0.65
  -5   9   7    2.51    1.01
   5  -9  -7    3.53    1.00
   5  -9  -7    2.52    1.04
   5  -9  -8   10.39    0.86
   5  -9  -8   10.29    1.18
  -5   9   8   10.49    1.12
  -5   8 -12    0.34    0.80
   5  -8  12    0.86    0.82
   5  -8  12    0.94    0.90
  -5   8 -11   14.95    1.03
   5  -8  11   17.07    1.07
  -5   8 -10    3.26    0.75
   5  -8  10    2.01    0.87
   5  -8  10    2.56    0.81
  -5   8  -9    2.09    0.68
  -5   8  -9    1.62    0.46
   5  -8   9    0.12    0.81
   5  -8   9    1.03    0.77
   5  -8   9    0.09    0.86
   5  -8   9    0.90    0.88
   5  -8   8    7.40    0.94
  -5   8  -8    5.66    0.40
   5  -8   8    6.80    0.93
   5  -8   8    7.24    0.89
   5  -8   8    8.18    0.98
   5  -8   7    1.27    0.86
   5  -8   7    1.45    0.83
   5  -8   7    1.69    0.77
   5  -8   7    1.89    0.91
   5  -8   6   29.12    1.35
   5  -8   6   28.00    1.35
   5  -8   6   25.96    1.31
   5  -8   6   26.63    1.28
   5  -8   5   38.84    1.54
  -5   8  -5   37.21    1.21
   5  -8   5   37.44    1.57
   5  -8   5   38.28    1.57
  -5   8  -5   41.33    1.55
  -5   8  -4   22.91    0.77
   5  -8   4   24.45    1.21
   5  -8   4   21.99    1.21
   5  -8   4   22.82    1.21
  -5   8  -4   24.28    1.22
   5  -8   3    0.91    0.77
  -5   8  -3    0.92    0.17
   5  -8   3    0.95    0.79
  -5   8  -3    0.99    0.82
   5  -8   2   25.42    1.14
  -5   8  -2   23.70    1.26
   5  -8   1   29.94    1.23
  -5   8  -1   30.06    1.39
   5  -8   0    0.95    0.65
   5  -8  -1    0.36    0.62
  -5   8   2    0.38    0.87
   5  -8  -2    1.80    0.59
   5  -8  -3   24.63    0.82
   5  -8  -3   23.56    0.93
  -5   8   3   21.48    1.30
   5  -8  -4   22.59    0.86
  -5   8   4   25.86    1.32
   5  -8  -4   23.94    0.88
   5  -8  -5   47.44    1.33
   5  -8  -5   44.49    1.33
   5  -8  -5   47.41    1.50
   5  -8  -5   60.24    1.91
  -5   8   5   57.02    1.91
   5  -8  -6    2.09    0.39
   5  -8  -6    0.60    0.57
   5  -8  -6    2.55    0.95
   5  -8  -6    0.87    0.33
  -5   8   6    3.56    0.94
   5  -8  -7    0.03    0.48
   5  -8  -7   -1.06    0.66
   5  -8  -7   -0.96    0.40
   5  -8  -7    0.12    0.96
  -5   8   7   -0.48    0.91
   5  -8  -8   -0.13    0.99
   5  -8  -9   -0.17    1.00
   5  -8  -9    0.03    0.89
   5  -8 -10    3.00    1.08
   5  -7  13    3.21    0.85
   5  -7  13    2.63    0.95
  -5   7 -12    0.32    0.85
   5  -7  12    1.10    0.84
   5  -7  12   -0.56    0.89
  -5   7 -11    8.17    0.90
  -5   7 -11    5.65    0.74
   5  -7  11    7.35    0.92
   5  -7  11    8.15    0.96
  -5   7 -10    0.20    0.73
  -5   7 -10    0.29    0.57
   5  -7  10    0.47    0.87
   5  -7  10   -0.78    0.75
  -5   7  -9    1.06    0.71
  -5   7  -9    0.65    0.55
   5  -7   9    1.29    0.86
   5  -7   9    1.80    0.82
   5  -7   9    1.62    0.86
  -5   7  -8   53.50    1.62
   5  -7   8   56.14    1.96
   5  -7   8   50.03    1.95
   5  -7   8   53.37    1.89
   5  -7   8   54.49    1.96
   5  -7   7    7.63    0.87
  -5   7  -7    7.07    0.43
   5  -7   7    7.89    0.91
   5  -7   7    5.93    0.86
   5  -7   7    7.23    0.95
   5  -7   6    8.53    0.90
   5  -7   6    6.27    0.90
   5  -7   6    6.17    0.86
   5  -7   6    7.38    0.94
   5  -7   5   84.14    2.59
  -5   7  -5   81.69    2.37
   5  -7   5   83.48    2.62
   5  -7   5   81.74    2.61
   5  -7   5   77.67    2.57
   5  -7   4   94.50    2.82
  -5   7  -4   90.90    2.58
   5  -7   4   90.35    2.84
   5  -7   4   89.69    2.79
  -5   7  -3   10.51    0.53
   5  -7   3   10.19    0.87
   5  -7   3   10.88    0.89
  -5   7  -2   28.08    0.88
   5  -7   2   30.15    1.23
   5  -7   2   30.34    1.23
  -5   7  -2   33.12    1.33
   5  -7   1    0.60    0.75
   5  -7   1    1.00    0.66
  -5   7  -1   -0.21    0.79
   5  -7   0   54.37    1.75
   5  -7  -1   20.16    0.90
   5  -7  -2   -0.23    0.23
  -5   7   2   -0.12    0.82
   5  -7  -2    0.07    0.53
  -5   7   3    4.33    0.87
   5  -7  -3    6.00    0.55
   5  -7  -4   34.17    1.06
  -5   7   4   33.89    1.52
   5  -7  -4   36.93    1.10
   5  -7  -5    5.31    0.48
   5  -7  -5    6.09    0.92
   5  -7  -6   16.86    0.75
   5  -7  -6   18.35    1.16
   5  -7  -7    1.62    0.56
   5  -7  -7    2.36    0.92
   5  -7  -8    0.22    0.63
   5  -7  -8   -0.09    0.90
   5  -7  -9    0.30    0.69
   5  -7  -9    1.64    1.00
   5  -7 -10   44.18    1.86
   5  -7 -11    5.92    1.11
   5  -6  13    1.69    0.85
  -5   6 -13    1.65    0.92
   5  -6  13    1.18    0.96
  -5   6 -12   14.82    0.97
  -5   6 -12   14.65    1.11
   5  -6  12   15.81    1.11
  -5   6 -12   14.32    1.13
   5  -6  12   14.17    1.17
  -5   6 -11    1.82    0.85
  -5   6 -11   -0.04    0.69
   5  -6  11    0.45    0.82
   5  -6  11   -0.60    0.86
  -5   6 -10   10.27    0.90
  -5   6 -10    9.01    0.78
   5  -6  10   11.01    1.05
   5  -6  10    9.16    0.91
   5  -6  10   11.65    1.00
  -5   6  -9   53.13    1.85
   5  -6   9   53.30    1.91
  -5   6  -9   53.41    1.73
   5  -6   9   58.98    2.02
  -5   6  -8    2.12    0.58
   5  -6   8    2.30    0.80
   5  -6   8    2.42    0.84
  -5   6  -7   21.48    0.86
   5  -6   7   23.83    1.22
   5  -6   7   23.90    1.25
   5  -6   7   22.57    1.18
   5  -6   7   24.73    1.19
   5  -6   6  199.17    5.49
   5  -6   6  192.86    5.52
   5  -6   6  189.91    5.50
   5  -6   6  195.83    5.49
   5  -6   5    8.01    0.87
   5  -6   5    8.20    0.86
   5  -6   5    8.25    0.95
   5  -6   5    7.63    0.85
   5  -6   4   32.71    1.29
  -5   6  -4   32.78    1.11
   5  -6   4   34.09    1.35
   5  -6   4   26.72    1.31
   5  -6   4   29.56    1.32
  -5   6  -3   -0.01    0.45
   5  -6   3   -0.50    0.71
   5  -6   3    0.10    0.74
   5  -6   3    0.77    0.74
  -5   6  -2  277.04    7.47
   5  -6   2  281.26    7.63
   5  -6   2  285.01    7.63
  -5   6  -1   13.98    0.59
   5  -6   1   12.54    0.59
   5  -6   1   13.31    0.84
   5  -6   1   15.48    0.97
   5  -6   0   49.80    1.50
   5  -6   0   56.18    1.80
   5  -6   0   53.61    1.67
   5  -6  -1   55.03    1.78
   5  -6  -1   50.20    1.63
   5  -6  -2    3.33    0.69
   5  -6  -2    3.66    0.52
   5  -6  -3   46.80    1.43
   5  -6  -3   48.39    1.64
   5  -6  -3   50.11    1.46
   5  -6  -4  115.38    3.08
   5  -6  -4  108.99    3.02
   5  -6  -5   34.77    1.16
   5  -6  -5   34.31    1.44
   5  -6  -6   33.29    1.19
   5  -6  -6   35.64    1.44
   5  -6  -7    0.42    0.59
   5  -6  -7    1.19    0.83
   5  -6  -8   32.55    1.26
   5  -6  -8   32.72    1.48
   5  -6  -9   11.07    0.69
   5  -6  -9   15.09    1.15
   5  -6 -10    4.43    0.51
   5  -6 -10    5.23    1.03
   5  -6 -11    0.67    1.00
   5  -6 -12   -0.73    1.05
   5  -5  14    2.67    0.92
  -5   5 -13   12.27    1.00
   5  -5  13   12.63    1.07
   5  -5  13   12.42    1.16
  -5   5 -13   10.42    1.11
  -5   5 -12    2.96    0.95
  -5   5 -12    1.11    0.81
   5  -5  12    1.53    0.87
   5  -5  12    1.33    0.94
  -5   5 -11   46.67    1.82
  -5   5 -11   50.36    1.89
  -5   5 -11   46.62    1.71
   5  -5  11   47.47    1.89
   5  -5  11   47.29    1.82
   5  -5  11   50.75    1.92
  -5   5 -10   13.19    1.00
  -5   5 -10   12.68    0.90
   5  -5  10   13.99    1.07
  -5   5 -10   13.59    1.08
   5  -5  10   15.54    1.14
  -5   5  -9   11.06    0.96
  -5   5  -9    9.99    0.79
   5  -5   9   11.10    1.02
   5  -5   9    9.37    0.91
  -5   5  -8    0.99    0.61
   5  -5   8   -0.03    0.81
   5  -5   8    0.97    0.79
  -5   5  -7   54.39    1.68
   5  -5   7   52.29    1.87
   5  -5   7   55.59    1.90
   5  -5   6    2.37    0.79
   5  -5   6    3.49    0.76
   5  -5   5  157.01    4.36
   5  -5   5  147.77    4.39
   5  -5   5  153.98    4.40
   5  -5   4  103.72    2.91
  -5   5  -4   97.36    2.79
   5  -5   4   90.39    2.92
   5  -5   4   95.98    2.92
   5  -5   3   55.07    1.78
  -5   5  -3   54.88    1.68
   5  -5   3   51.76    1.81
  -5   5  -2   81.34    2.35
   5  -5   2   83.49    2.46
   5  -5   2   84.43    2.37
   5  -5   2   76.57    2.49
   5  -5   1   -0.11    0.67
   5  -5   1   -0.01    0.46
   5  -5   1   -0.44    0.60
  -5   5   0    8.60    0.53
   5  -5   0    8.84    0.53
   5  -5   0    7.27    0.30
   5  -5   0    8.31    0.75
   5  -5   0    6.52    0.67
   5  -5  -1   32.40    1.14
   5  -5  -1   31.92    1.25
   5  -5  -2  155.19    4.21
   5  -5  -2  160.45    4.36
   5  -5  -2  150.87    4.22
   5  -5  -3    0.74    0.46
   5  -5  -3    0.80    0.62
   5  -5  -3    0.81    0.39
   5  -5  -3    1.10    0.70
   5  -5  -4  177.74    4.89
   5  -5  -4  191.99    5.00
   5  -5  -4  178.21    4.80
   5  -5  -4  177.76    5.07
   5  -5  -5   84.12    2.47
   5  -5  -5   86.67    2.53
   5  -5  -5   85.34    2.61
   5  -5  -6   -0.05    0.58
   5  -5  -6   -0.20    0.74
   5  -5  -6   -0.68    0.55
   5  -5  -7    1.71    0.64
   5  -5  -7    1.04    0.49
   5  -5  -7    0.82    0.79
   5  -5  -8   31.76    1.23
   5  -5  -8   29.03    1.08
   5  -5  -8   30.97    1.39
   5  -5  -9   33.53    1.14
   5  -5  -9   36.18    1.51
   5  -5 -10   36.85    1.19
   5  -5 -10   37.73    1.60
   5  -5 -11    0.18    0.95
   5  -5 -12    4.92    1.06
   5  -5 -13    2.16    1.00
  -5   4 -14   -0.03    0.90
   5  -4  14    1.44    0.89
  -5   4 -13    0.22    0.88
   5  -4  13    0.28    0.90
  -5   4 -13    0.79    0.95
  -5   4 -12    1.04    0.91
  -5   4 -12    0.43    0.82
   5  -4  12    0.41    0.85
   5  -4  11   15.31    1.15
  -5   4 -11   14.77    1.12
  -5   4 -11   12.51    1.00
   5  -4  11   12.36    1.07
  -5   4 -10   20.95    1.24
  -5   4 -10   22.57    1.13
   5  -4  10   18.01    1.21
   5  -4  10   24.14    1.28
  -5   4  -9   22.59    1.22
  -5   4  -9   22.20    1.09
   5  -4   9   21.56    1.23
   5  -4   9   23.77    1.26
  -5   4  -8   64.48    2.12
  -5   4  -8   59.22    1.98
   5  -4   8   59.23    2.10
   5  -4   8   67.14    2.14
  -5   4  -7    8.21    0.84
  -5   4  -7    9.35    0.71
   5  -4   7    9.82    0.86
   5  -4   7    7.96    0.85
   5  -4   6   22.25    1.10
   5  -4   6   22.89    1.11
   5  -4   5   83.25    2.64
   5  -4   5   87.82    2.61
   5  -4   4   23.19    1.04
  -5   4  -4   23.35    1.01
   5  -4   4   24.17    1.03
   5  -4   4   22.78    1.12
   5  -4   3   60.50    1.88
  -5   4  -3   58.21    1.83
   5  -4   3   61.83    1.86
   5  -4   3   54.71    1.94
   5  -4   2   12.03    0.70
  -5   4  -2   10.27    0.68
   5  -4   2   10.60    0.70
  -5   4  -1    2.13    0.49
   5  -4   1    1.46    0.54
   5  -4   1    2.78    0.66
   5  -4   1    2.69    0.37
   5  -4   1    2.29    0.57
  -5   4   0    0.33    0.46
   5  -4   0   -0.35    0.35
   5  -4   0    1.42    0.66
   5  -4   0    0.33    0.50
   5  -4   0    0.23    0.59
  -5   4   1   45.77    1.40
   5  -4  -1   42.71    1.39
   5  -4  -1   43.21    1.50
   5  -4  -2    3.94    0.53
   5  -4  -2    5.21    0.65
   5  -4  -3  278.30    7.17
   5  -4  -3  261.43    7.11
   5  -4  -3  265.03    7.22
   5  -4  -3  260.82    7.29
   5  -4  -4   14.12    0.75
   5  -4  -4   14.72    0.76
   5  -4  -4   13.65    0.53
   5  -4  -4   13.01    0.93
   5  -4  -5   34.08    1.21
   5  -4  -5   34.85    1.24
   5  -4  -5   36.06    1.29
   5  -4  -5   34.16    1.39
   5  -4  -6   15.91    0.83
   5  -4  -6   14.86    0.75
   5  -4  -6   14.38    0.86
   5  -4  -6   13.59    0.94
   5  -4  -7   -0.13    0.66
   5  -4  -7   -0.13    0.45
   5  -4  -7   -0.52    0.71
   5  -4  -7    0.84    0.74
   5  -4  -8   38.24    1.41
   5  -4  -8   34.48    1.16
   5  -4  -8   37.87    1.44
   5  -4  -9    0.41    0.76
   5  -4  -9   -0.33    0.39
   5  -4  -9   -0.38    0.82
   5  -4 -10    1.58    0.86
   5  -4 -11    0.69    0.87
   5  -4 -12    3.79    0.94
   5  -4 -13    3.24    1.00
   5  -4 -14    4.95    1.05
  -5   3 -14    1.82    1.02
  -5   3 -13    1.05    0.97
  -5   3 -13    2.29    0.97
   5  -3  13    2.48    0.98
  -5   3 -12    4.04    0.95
  -5   3 -12    4.46    0.94
   5  -3  12    2.97    0.98
  -5   3 -11    2.70    0.88
  -5   3 -11    3.66    0.94
  -5   3 -11    2.53    0.90
   5  -3  11    2.27    0.92
   5  -3  11    2.87    0.97
   5  -3  10    5.17    0.93
  -5   3 -10    4.67    0.87
  -5   3 -10    5.25    0.91
  -5   3 -10    3.98    0.92
   5  -3  10    4.80    0.88
   5  -3   9    5.39    0.91
  -5   3  -9    4.30    0.80
  -5   3  -9    5.52    0.91
  -5   3  -9    5.04    0.88
   5  -3   9    4.99    0.90
   5  -3   8    3.68    0.83
  -5   3  -8    3.14    0.72
  -5   3  -8    3.26    0.89
   5  -3   8    4.60    0.88
  -5   3  -8    4.43    0.81
   5  -3   7   -0.45    0.74
  -5   3  -7    0.10    0.81
   5  -3   7   -0.88    0.78
  -5   3  -7    0.27    0.65
   5  -3   6    0.52    0.70
  -5   3  -6    1.75    0.78
   5  -3   6    0.96    0.71
  -5   3  -5   13.64    0.90
  -5   3  -5   12.20    0.89
   5  -3   5   13.74    0.93
   5  -3   5   13.27    0.86
  -5   3  -4  191.91    5.47
   5  -3   4  207.06    5.49
   5  -3   4  187.84    5.51
   5  -3   4  203.03    5.45
   5  -3   3   -0.03    0.64
  -5   3  -3    1.63    0.61
   5  -3   3    0.53    0.54
   5  -3   2   10.46    0.65
  -5   3  -2    9.81    0.69
   5  -3   2    9.51    0.75
   5  -3   2    8.47    0.59
  -5   3  -1   -0.01    0.51
   5  -3   1   -0.38    0.47
   5  -3   1    0.18    0.49
  -5   3   0   73.61    2.21
   5  -3   0   75.76    2.18
   5  -3   0   74.74    2.29
  -5   3   1   -0.46    0.50
   5  -3  -1    0.20    0.44
   5  -3  -1    0.89    0.53
   5  -3  -1    0.03    0.61
   5  -3  -2   31.97    1.16
   5  -3  -2   32.43    1.20
   5  -3  -2   35.22    1.26
   5  -3  -3    7.18    0.62
   5  -3  -3    7.74    0.66
   5  -3  -4   80.70    2.36
   5  -3  -4   78.50    2.34
   5  -3  -4   80.88    2.22
   5  -3  -4   77.73    2.46
   5  -3  -5   51.03    1.58
   5  -3  -5   49.82    1.50
   5  -3  -5   50.45    1.53
   5  -3  -5   44.33    1.31
   5  -3  -5   48.74    1.66
   5  -3  -6   13.74    0.83
   5  -3  -6   12.86    0.74
   5  -3  -6   11.99    0.90
   5  -3  -7   39.28    1.41
   5  -3  -7   38.01    1.35
   5  -3  -7   37.80    1.45
   5  -3  -8   35.25    1.38
   5  -3  -8   36.71    1.34
   5  -3  -8   36.24    1.38
   5  -3  -9    1.81    0.77
   5  -3  -9    2.04    0.67
   5  -3 -10   28.26    1.27
   5  -3 -10   24.77    1.23
   5  -3 -11    6.18    0.86
   5  -3 -12    6.84    0.93
   5  -3 -13    3.72    0.93
   5  -3 -14    1.47    0.91
   5  -3 -15    1.82    1.00
  -5   2 -13    8.61    1.09
  -5   2 -13    7.84    1.09
  -5   2 -12    1.22    0.93
   5  -2  12   -0.43    0.93
  -5   2 -12    0.16    0.90
  -5   2 -11    4.63    0.95
  -5   2 -11    5.54    0.96
   5  -2  11    3.40    0.98
  -5   2 -11    5.79    1.01
   5  -2  11    4.39    0.98
  -5   2 -11    2.87    0.90
   5  -2  10    6.10    0.61
  -5   2 -10    6.50    0.89
  -5   2 -10    7.81    1.00
   5  -2  10    6.36    0.96
  -5   2 -10    7.21    0.99
   5  -2  10    7.80    1.02
  -5   2 -10    7.19    0.92
  -5   2  -9   -0.91    0.77
  -5   2  -9   -0.28    0.79
  -5   2  -9    0.16    0.86
   5  -2   9    0.67    0.84
  -5   2  -9    0.72    0.88
   5  -2   9    0.62    0.81
  -5   2  -8   13.37    0.99
  -5   2  -8   15.37    1.06
  -5   2  -8   14.51    1.07
   5  -2   8   12.70    1.05
  -5   2  -8   14.66    0.97
   5  -2   8   14.30    0.98
   5  -2   7   12.17    0.90
  -5   2  -7   11.47    0.89
  -5   2  -7   12.35    1.01
   5  -2   7   10.16    0.97
  -5   2  -7   10.59    0.98
   5  -2   6   30.79    1.39
  -5   2  -6   32.19    1.38
  -5   2  -6   32.37    1.40
   5  -2   6   35.59    1.32
  -5   2  -5   31.19    1.32
   5  -2   5   36.08    1.40
  -5   2  -5   29.62    1.30
   5  -2   5   34.34    1.37
  -5   2  -5   32.22    1.35
   5  -2   5   36.56    1.29
  -5   2  -4   88.00    2.66
   5  -2   4   92.96    2.70
   5  -2   4   80.73    2.68
   5  -2   4   90.46    2.60
  -5   2  -3   13.33    0.85
   5  -2   3   15.04    0.93
   5  -2   3   15.77    0.76
  -5   2  -2   76.90    2.38
   5  -2   2   78.82    2.39
   5  -2   2   78.98    2.32
   5  -2   2   81.70    2.30
  -5   2  -1   15.51    0.84
   5  -2   1   15.55    0.78
   5  -2   1   15.55    0.90
   5  -2   1   15.93    0.69
   5  -2   0   30.83    1.03
  -5   2   0   30.18    1.15
   5  -2   0   32.46    1.25
  -5   2   1   -0.09    0.53
   5  -2  -1    0.35    0.39
   5  -2  -1    1.26    0.61
   5  -2  -1    0.69    0.63
  -5   2   2   14.27    0.79
   5  -2  -2   14.62    0.81
   5  -2  -2   14.18    0.59
   5  -2  -2   13.90    0.81
   5  -2  -3   54.33    1.72
   5  -2  -3   53.62    1.72
   5  -2  -4   87.87    2.57
   5  -2  -4   87.60    2.47
   5  -2  -4   88.77    2.57
   5  -2  -4   86.77    2.45
   5  -2  -4   86.11    2.64
   5  -2  -5  142.28    3.94
   5  -2  -5  136.32    3.83
   5  -2  -5  142.46    3.90
   5  -2  -5  138.09    3.76
   5  -2  -5  138.96    3.98
   5  -2  -6   31.84    1.23
   5  -2  -6   29.54    0.90
   5  -2  -6   32.96    1.11
   5  -2  -6   32.75    1.28
   5  -2  -7   25.49    1.13
   5  -2  -7   28.33    1.05
   5  -2  -7   26.12    1.17
   5  -2  -8   -1.55    0.74
   5  -2  -8   -0.89    0.66
   5  -2  -8   -0.46    0.60
   5  -2  -9    3.45    0.77
   5  -2  -9    2.64    0.69
   5  -2  -9    2.41    0.64
   5  -2 -10    4.55    0.72
   5  -2 -10    2.90    0.72
   5  -2 -11    3.03    0.76
   5  -2 -11    1.32    0.83
   5  -2 -11    2.98    0.73
   5  -2 -12    0.89    0.80
   5  -2 -13    1.08    0.85
   5  -2 -14    1.83    0.91
   5  -2 -15    6.64    1.02
  -5   1 -12    5.24    1.05
  -5   1 -12    1.12    0.93
  -5   1 -11    3.80    0.95
  -5   1 -11    5.68    0.99
   5  -1  10    4.80    0.64
  -5   1 -10    3.64    0.93
  -5   1 -10    4.81    0.95
   5  -1  10    4.62    0.95
  -5   1 -10    3.68    0.87
  -5   1 -10    4.38    0.97
   5  -1  10    3.60    0.90
   5  -1   9    0.18    0.61
  -5   1  -9    1.14    0.83
  -5   1  -9    0.22    0.87
   5  -1   9    0.21    0.90
  -5   1  -9    0.48    0.79
  -5   1  -9    1.91    0.90
   5  -1   9    0.19    0.81
  -5   1  -8    0.21    0.81
  -5   1  -8    0.40    0.87
   5  -1   8    2.28    0.89
  -5   1  -8    1.00    0.88
  -5   1  -8    0.19    0.75
   5  -1   8    0.62    0.78
  -5   1  -7    0.99    0.84
   5  -1   7    0.84    0.80
  -5   1  -7    0.65    0.82
   5  -1   7    0.27    0.76
  -5   1  -6   32.50    1.37
   5  -1   6   31.73    1.41
  -5   1  -6   30.29    1.38
   5  -1   6   30.79    1.39
  -5   1  -6   32.48    1.39
   5  -1   6   33.04    1.30
  -5   1  -5    1.24    0.71
   5  -1   5    1.49    0.80
   5  -1   5    1.22    0.79
   5  -1   5    0.18    0.62
   5  -1   4    4.72    0.61
  -5   1  -4    4.91    0.74
   5  -1   4    3.84    0.79
  -5   1  -3   42.03    1.54
   5  -1   3   43.21    1.57
  -5   1  -3   43.82    1.39
   5  -1   3   41.83    1.48
   5  -1   3   43.11    1.40
  -5   1  -2   57.17    1.90
   5  -1   2   59.50    1.91
   5  -1   2   59.38    1.86
   5  -1   2   56.16    1.92
   5  -1   2   60.75    1.77
  -5   1  -1    6.89    0.70
   5  -1   1    6.89    0.67
   5  -1   1    7.15    0.73
   5  -1   1    6.69    0.50
  -5   1   0   13.60    0.83
   5  -1   0   14.45    0.86
   5  -1   0   14.55    0.59
  -5   1   1   40.99    1.45
   5  -1  -1   41.60    1.48
   5  -1  -1   41.56    1.45
   5  -1  -1   42.65    1.23
   5  -1  -2   32.80    0.97
  -5   1   2   31.31    1.22
   5  -1  -2   32.63    1.27
   5  -1  -2   34.13    1.22
   5  -1  -3   51.08    1.67
   5  -1  -3   51.42    1.41
  -5   1   3   49.96    1.58
   5  -1  -3   48.10    1.41
   5  -1  -3   50.84    1.62
   5  -1  -3   48.19    1.55
   5  -1  -4    0.57    0.45
   5  -1  -4    1.43    0.64
  -5   1   4    0.92    0.45
   5  -1  -4    0.55    0.33
   5  -1  -4    0.30    0.54
   5  -1  -5    1.23    0.68
   5  -1  -5    0.76    0.55
   5  -1  -5    0.33    0.38
   5  -1  -5    0.77    0.43
   5  -1  -6  184.48    5.15
   5  -1  -6  180.23    4.96
   5  -1  -6  184.03    5.04
   5  -1  -6  188.77    4.98
   5  -1  -7   24.29    1.16
   5  -1  -7   24.94    0.81
   5  -1  -7   24.93    0.94
   5  -1  -7   22.97    1.12
   5  -1  -7   24.86    0.94
   5  -1  -8    7.75    0.63
   5  -1  -8    6.78    0.87
   5  -1  -8    6.83    0.35
   5  -1  -8    7.31    0.54
   5  -1  -8    7.13    0.75
   5  -1  -9  122.79    3.70
   5  -1  -9  125.88    3.46
   5  -1  -9  126.63    3.62
   5  -1  -9  123.73    3.53
   5  -1 -10   12.46    1.03
   5  -1 -10   13.52    0.64
   5  -1 -10   12.52    0.89
   5  -1 -10   13.56    0.81
   5  -1 -11    9.24    1.03
   5  -1 -11   10.46    0.56
   5  -1 -11    8.33    0.82
   5  -1 -11    8.39    0.77
   5  -1 -12   13.26    1.14
   5  -1 -12   12.76    0.93
   5  -1 -12   14.01    0.60
   5  -1 -12   13.33    0.89
   5  -1 -13    2.07    1.02
   5  -1 -13    0.25    0.78
   5  -1 -14    7.19    1.09
   5  -1 -14    7.12    0.91
  -5   0 -12   14.43    1.25
  -5   0 -12   12.82    1.17
  -5   0 -11   -0.65    0.89
  -5   0 -11    1.20    0.97
   5   0  10    1.31    0.63
  -5   0 -10    2.16    0.94
  -5   0 -10    0.76    0.94
   5   0  10    0.27    0.88
  -5   0 -10   -1.05    0.87
  -5   0  -9   12.01    1.04
   5   0   9   10.05    1.08
   5   0   9   12.42    1.03
  -5   0  -9   10.24    1.08
   5   0   9   10.81    0.81
  -5   0  -9   12.98    1.08
   5   0   8    2.78    0.70
  -5   0  -8    2.40    0.79
  -5   0  -8    2.54    0.88
  -5   0  -8    4.20    0.95
   5   0   8    2.81    0.93
   5   0   8    3.30    0.82
  -5   0  -8    3.56    0.95
  -5   0  -7   33.41    1.33
  -5   0  -7   34.36    1.46
  -5   0  -7   31.75    1.48
   5   0   7   31.79    1.47
  -5   0  -7   31.12    1.47
   5   0   7   33.23    1.35
   5   0   7   27.34    1.24
  -5   0  -6   57.90    2.04
   5   0   6   57.26    2.06
  -5   0  -6   57.37    2.07
   5   0   6   56.81    2.07
  -5   0  -6   59.22    2.05
   5   0   6   63.77    1.96
  -5   0  -5   22.46    1.15
   5   0   5   22.29    1.21
   5   0   5   22.00    1.01
  -5   0  -4   18.08    1.04
   5   0   4   18.48    1.08
   5   0   4   19.19    0.88
  -5   0  -3    3.90    0.50
   5   0   3    4.62    0.81
  -5   0  -3    4.81    0.74
   5   0   3    4.27    0.74
   5   0   3    4.83    0.56
   5   0   2    1.27    0.71
  -5   0  -2    1.91    0.47
  -5   0  -2    1.59    0.66
   5   0   2    0.81    0.68
   5   0   2    1.07    0.70
   5   0   2    1.36    0.45
   5   0   1    4.18    0.73
  -5   0  -1    3.28    0.67
   5   0   1    3.48    0.71
   5   0   1    3.75    0.42
  -5   0   0    1.56    0.67
   5   0   0    2.42    0.68
   5   0   0    2.81    0.34
  -5   0   1  195.66    5.06
   5   0  -1  194.46    5.07
   5   0  -1  196.88    5.03
   5   0  -1  193.34    5.02
  -5   0   2  177.19    5.00
   5   0  -2  182.33    5.01
   5   0  -2  181.79    4.95
   5   0  -2  174.72    4.94
  -5   0   3   52.23    1.78
   5   0  -3   50.84    1.78
   5   0  -3   52.30    1.69
   5   0  -3   55.07    1.68
   5   0  -4    7.68    0.62
   5   0  -4    5.84    0.79
  -5   0   4    7.05    0.57
   5   0  -4    8.63    0.64
   5   0  -5    9.17    0.82
  -5   0   5    9.03    0.59
   5   0  -5    8.93    0.64
   5   0  -5    7.79    0.60
   5   0  -6   60.90    1.98
  -5   0   6   61.15    1.76
   5   0  -6   59.90    1.78
   5   0  -6   59.78    1.77
   5   0  -6   56.28    1.64
   5   0  -7   30.01    1.27
   5   0  -7   32.78    1.00
   5   0  -7   31.24    0.92
   5   0  -8   11.88    0.99
   5   0  -8   11.31    0.57
   5   0  -8   11.74    0.60
   5   0  -8   11.68    0.61
   5   0  -9   84.14    2.62
   5   0  -9   76.56    2.26
   5   0  -9   83.84    2.29
   5   0  -9   81.93    2.34
   5   0 -10    0.29    0.88
   5   0 -10    0.88    0.53
   5   0 -10    0.48    0.35
   5   0 -11    9.32    1.02
   5   0 -11    8.20    0.38
   5   0 -11    9.05    0.71
   5   0 -11    9.63    0.83
   5   0 -12    0.63    0.97
   5   0 -12    1.44    0.67
   5   0 -12    1.20    0.69
   5   0 -13    5.12    1.09
   5   0 -13    6.25    0.80
   5   0 -14    2.40    1.07
   5   0 -14    4.73    0.81
  -5  -1 -11    1.37    0.91
  -5  -1 -10    0.09    0.83
   5   1   9    0.10    0.69
  -5  -1  -9   -0.11    0.79
   5   1   9    1.76    0.85
  -5  -1  -9   -0.03    0.95
   5   1   8    5.89    0.79
  -5  -1  -8    6.79    0.86
  -5  -1  -8    5.46    1.00
   5   1   8    6.31    0.87
  -5  -1  -8    8.35    1.06
   5   1   7    1.00    0.72
  -5  -1  -7    0.52    0.72
  -5  -1  -7    0.29    0.90
   5   1   7    0.16    0.73
   5   1   7    0.80    0.89
  -5  -1  -7    0.94    0.84
   5   1   6   12.01    0.91
   5   1   6   14.24    1.11
   5   1   6   14.40    0.90
  -5  -1  -5   19.26    1.12
   5   1   5   19.69    0.95
  -5  -1  -4   65.57    2.18
  -5  -1  -4   69.62    2.19
   5   1   4   63.10    2.00
  -5  -1  -3    0.16    0.71
   5   1   3    0.14    0.80
   5   1   3    1.13    0.49
   5   1   3    0.80    0.78
  -5  -1  -3    1.06    0.47
  -5  -1  -3    0.76    0.67
  -5  -1  -2   58.04    1.73
  -5  -1  -2   60.32    1.96
   5   1   2   61.06    1.96
   5   1   2   59.69    1.98
  -5  -1  -2   59.79    1.98
   5   1   2   55.51    1.72
   5   1   1    0.37    0.65
  -5  -1  -1    0.06    0.67
  -5  -1  -1   -0.08    0.36
   5   1   1   -0.11    0.73
   5   1   1    0.30    0.36
   5   1   1   -0.44    0.69
   5   1   0    7.34    0.76
  -5  -1   0    7.64    0.77
   5   1   0    8.79    0.82
   5   1   0    7.33    0.34
   5   1   0    8.44    0.77
  -5  -1   1   58.95    1.93
   5   1  -1   59.01    1.91
   5   1  -1   57.39    1.89
  -5  -1   2   31.25    1.24
   5   1  -2   30.30    1.18
   5   1  -2   28.40    1.17
  -5  -1   3  104.38    3.07
   5   1  -3   99.87    3.06
   5   1  -3  104.92    2.99
   5   1  -3  102.29    2.99
   5   1  -4    3.20    0.77
   5   1  -4    3.46    0.59
   5   1  -4    2.87    0.59
   5   1  -5  159.40    4.59
  -5  -1   5  162.80    4.46
   5   1  -5  159.29    4.45
   5   1  -5  163.01    4.47
   5   1  -6   23.25    1.18
  -5  -1   6   24.28    0.92
   5   1  -6   24.65    0.94
   5   1  -6   24.47    0.99
   5   1  -7   -0.05    0.80
  -5  -1   7    0.62    0.45
   5   1  -7    0.32    0.16
   5   1  -7    0.04    0.44
   5   1  -7    0.92    0.50
   5   1  -8  184.64    4.99
   5   1  -8  190.45    5.31
   5   1  -8  192.46    5.04
   5   1  -8  181.39    5.10
   5   1  -9   99.60    2.69
   5   1  -9   99.73    3.02
   5   1  -9   92.27    2.73
   5   1  -9   95.48    2.64
   5   1 -10   14.44    0.66
   5   1 -10   12.33    1.06
   5   1 -10   13.61    0.64
   5   1 -10   10.64    0.40
   5   1 -11    3.24    0.55
   5   1 -11    1.09    0.90
   5   1 -11    2.02    0.73
   5   1 -12   11.18    0.72
   5   1 -12    9.24    1.08
   5   1 -12    9.74    0.84
   5   1 -13    3.95    1.05
   5   1 -13    8.37    0.74
   5   1 -14    0.49    1.03
  -5  -2 -11    0.30    0.87
  -5  -2 -10    1.04    0.84
  -5  -2  -9    1.26    0.82
   5   2   9   -0.31    0.84
   5   2   9    1.10    0.74
   5   2   8    3.02    0.81
  -5  -2  -8    4.64    0.81
   5   2   8    4.39    0.88
  -5  -2  -7   57.19    2.12
   5   2   7   63.17    2.02
   5   2   7   58.42    2.03
  -5  -2  -7   56.46    1.99
   5   2   6    4.76    0.86
   5   2   6    4.66    0.74
   5   2   6    5.21    0.88
   5   2   5    0.91    0.78
   5   2   5    0.50    0.81
   5   2   5    0.84    0.62
   5   2   5   -0.17    0.75
  -5  -2  -5    0.47    0.71
   5   2   4   32.91    1.43
   5   2   4   36.97    1.56
   5   2   4   33.33    1.23
  -5  -2  -4   35.19    1.45
   5   2   4   34.94    1.46
   5   2   3    2.66    0.83
   5   2   3    2.41    0.50
   5   2   3    0.87    0.86
   5   2   3    1.36    0.85
  -5  -2  -3    1.94    0.73
   5   2   2    2.85    0.78
   5   2   2    2.62    0.42
   5   2   2    3.04    0.84
  -5  -2  -2    3.51    0.51
   5   2   2    4.03    0.85
  -5  -2  -2    2.76    0.75
  -5  -2  -1   74.74    2.14
   5   2   1   81.41    2.47
   5   2   1   79.30    2.46
  -5  -2  -1   75.99    2.43
   5   2   1   75.09    2.43
   5   2   0    0.76    0.70
   5   2   0    0.29    0.69
   5   2   0    0.49    0.77
   5   2  -1    5.12    0.76
   5   2  -1    5.91    0.74
   5   2  -2   25.90    1.08
   5   2  -2   24.07    1.11
  -5  -2   3   51.21    1.81
   5   2  -3   52.06    1.69
   5   2  -3   51.26    1.73
   5   2  -4  170.21    4.76
   5   2  -4  174.77    4.83
   5   2  -5    0.28    0.51
   5   2  -5    1.39    0.61
   5   2  -6    4.04    0.53
   5   2  -6    5.88    0.72
  -5  -2   7   -0.21    0.44
   5   2  -7   -0.25    0.45
   5   2  -7   -0.16    0.55
   5   2  -8   27.73    1.31
  -5  -2   8   29.95    1.00
   5   2  -8   28.64    0.95
   5   2  -8   28.38    1.11
   5   2  -9   14.22    1.02
   5   2  -9   13.66    0.75
   5   2 -10    6.04    0.91
   5   2 -10    4.90    0.59
   5   2 -10    5.67    0.46
   5   2 -11    1.60    0.84
   5   2 -11    2.76    0.51
   5   2 -11    1.47    0.52
   5   2 -12    1.83    0.55
   5   2 -12    2.28    0.95
   5   2 -13   -0.92    0.67
   5   2 -13    0.60    0.94
  -5  -3 -10    1.29    0.84
  -5  -3  -9    0.63    0.80
   5   3   8   19.25    1.11
   5   3   8   15.93    1.10
  -5  -3  -8   16.83    1.05
   5   3   7   -0.71    0.82
   5   3   7    0.64    0.78
  -5  -3  -7    0.34    0.73
   5   3   6    1.05    0.81
   5   3   6    1.55    0.88
  -5  -3  -6    0.21    0.85
   5   3   6    0.79    0.84
  -5  -3  -6    1.87    0.68
   5   3   5    0.11    0.82
   5   3   5    0.06    0.83
  -5  -3  -5    0.20    0.84
   5   3   5    0.33    0.83
  -5  -3  -5   -0.03    0.76
   5   3   4    5.40    0.89
   5   3   4    4.57    0.89
  -5  -3  -4    4.35    0.88
   5   3   4    4.75    0.86
  -5  -3  -4    6.05    0.86
  -5  -3  -3   93.08    2.91
   5   3   3   92.28    2.90
   5   3   3   93.03    2.93
  -5  -3  -3   90.02    2.91
   5   3   3   92.62    2.91
   5   3   2   10.94    1.01
   5   3   2    9.18    0.88
  -5  -3  -2   11.00    0.96
   5   3   2    8.79    1.00
  -5  -3  -2   10.51    0.92
  -5  -3  -2   10.70    0.61
   5   3   1    0.59    0.81
   5   3   1    0.68    0.76
  -5  -3  -1    0.05    0.40
  -5  -3  -1   -0.17    0.75
   5   3   1    0.10    0.84
  -5  -3  -1    0.86    0.72
   5   3   0    0.12    0.75
   5   3   0    0.87    0.81
  -5  -3   0    0.47    0.23
   5   3   0    0.50    0.80
   5   3   0   -0.21    0.79
  -5  -3   0    1.06    0.71
   5   3  -1   53.31    1.85
   5   3  -1   50.19    1.79
   5   3  -1   51.07    1.81
   5   3  -2   60.82    2.07
   5   3  -2   62.60    2.05
   5   3  -2   64.62    2.09
   5   3  -3   51.05    1.86
   5   3  -3   54.21    1.79
   5   3  -3   56.28    1.87
   5   3  -4   14.72    0.96
   5   3  -4   16.60    0.88
   5   3  -4   16.94    0.97
   5   3  -5    2.11    0.67
   5   3  -6    6.25    0.75
   5   3  -7   67.48    2.14
  -5  -3   8   49.00    1.53
  -5  -3   9    3.49    0.46
   5   3  -9    4.25    0.69
   5   3 -10    0.59    0.74
   5   3 -10    1.83    0.64
   5   3 -11    2.35    0.76
   5   3 -11    3.38    0.63
   5   3 -12    1.67    0.75
   5   3 -13    7.15    0.81
  -5  -4  -9    1.32    0.80
  -5  -4  -8    1.13    0.77
   5   4   8    2.75    0.88
  -5  -4  -7   14.37    1.00
   5   4   7   14.79    1.12
   5   4   6   11.21    1.12
  -5  -4  -6    9.42    0.85
   5   4   6   12.01    1.07
   5   4   5    0.84    0.86
   5   4   5    0.42    0.89
  -5  -4  -5    0.53    0.63
   5   4   4    1.16    0.88
   5   4   4    0.09    0.87
  -5  -4  -4   -0.82    0.87
   5   4   4    0.68    0.87
  -5  -4  -4    0.67    0.83
   5   4   3    1.71    0.90
  -5  -4  -3   -0.64    0.85
   5   4   3    0.26    0.84
   5   4   3   -0.28    0.92
  -5  -4  -3    1.57    0.79
   5   4   2    1.90    0.94
  -5  -4  -2    2.03    0.84
   5   4   2    2.87    0.93
   5   4   2    2.97    0.85
  -5  -4  -2    2.40    0.82
  -5  -4  -2    2.16    0.48
  -5  -4  -1   72.28    2.31
   5   4   1   70.97    2.33
  -5  -4  -1   69.02    2.28
   5   4   1   67.53    2.30
   5   4   1   67.19    2.35
  -5  -4  -1   65.21    1.95
  -5  -4   0   41.38    1.24
  -5  -4   0   46.56    1.69
   5   4   0   45.37    1.73
  -5  -4   0   44.81    1.64
   5   4   0   44.35    1.68
   5   4   0   45.46    1.75
  -5  -4   1   15.15    1.06
   5   4  -1   15.08    1.07
   5   4  -1   16.39    1.05
  -5  -4   1   12.85    0.94
   5   4  -1   14.98    1.10
  -5  -4   2   15.74    1.08
   5   4  -2   16.31    1.04
  -5  -4   2   16.80    0.97
   5   4  -2   14.89    1.05
  -5  -4   3    6.87    0.90
   5   4  -3    6.71    0.86
   5   4  -4    6.57    0.97
   5   4  -4    6.00    0.80
   5   4  -5    1.96    0.88
   5   4  -5    0.89    0.74
   5   4  -5    1.52    0.72
   5   4  -6   67.68    2.33
   5   4  -6   71.76    2.29
   5   4  -6   74.06    2.39
   5   4  -7   36.02    1.54
   5   4  -7   41.33    1.53
   5   4  -7   38.66    1.59
   5   4  -8    9.60    0.97
   5   4  -8    9.85    0.89
   5   4  -8    9.75    0.85
   5   4  -9    1.75    0.82
   5   4  -9    1.07    0.75
   5   4  -9    1.91    0.73
   5   4 -10   -0.03    0.80
   5   4 -10    0.22    0.77
   5   4 -10    1.07    0.70
   5   4 -11    0.64    0.78
   5   4 -11    0.29    0.80
   5   4 -11    0.50    0.68
   5   4 -12   24.68    1.34
   5   4 -12   24.42    1.23
   5   5   7    5.64    0.99
   5   5   6    8.87    1.09
   5   5   6    7.53    1.07
   5   5   5    5.77    1.04
  -5  -5  -5    4.41    0.72
   5   5   5    6.93    1.03
   5   5   4    1.52    0.93
   5   5   4    2.50    0.94
   5   5   3   -0.76    0.90
   5   5   3    0.66    0.88
  -5  -5  -3    0.22    0.84
   5   5   2    0.57    0.91
  -5  -5  -2   -0.17    0.86
   5   5   2    1.45    0.89
   5   5   2    0.15    0.89
  -5  -5  -2    0.83    0.80
  -5  -5  -1   22.32    1.23
   5   5   1   22.53    1.21
  -5  -5  -1   21.80    1.19
   5   5   1   18.58    1.30
  -5  -5  -1   20.00    0.81
  -5  -5   0   18.03    1.12
  -5  -5   0   17.90    1.09
   5   5   0   17.57    1.15
   5   5   0   17.02    1.22
  -5  -5   0   14.17    0.58
  -5  -5   1   38.93    1.62
  -5  -5   1   40.51    1.57
   5   5  -1   41.79    1.66
   5   5  -1   37.63    1.69
  -5  -5   2   32.46    1.46
  -5  -5   2   30.30    1.31
   5   5  -2   30.54    1.43
  -5  -5   3   25.66    1.32
   5   5  -3   22.68    1.23
  -5  -5   3   24.24    1.14
   5   5  -3   24.21    1.24
   5   5  -4    0.64    0.92
   5   5  -4   -0.56    0.81
   5   5  -4    1.19    0.79
   5   5  -5    8.73    1.04
   5   5  -5    9.28    0.96
   5   5  -5   10.46    0.95
   5   5  -6   12.92    1.02
   5   5  -6   14.21    1.02
   5   5  -6   16.21    1.17
   5   5  -7   47.11    1.85
   5   5  -7   50.10    1.83
   5   5  -7   52.33    1.94
   5   5  -8   23.60    1.30
   5   5  -8   26.88    1.25
   5   5  -8   27.24    1.38
   5   5  -9    8.46    1.00
   5   5  -9    9.41    0.94
   5   5  -9    9.73    0.90
   5   5 -10    2.13    0.88
   5   5 -10    0.84    0.81
   5   5 -10    1.35    0.74
   5   5 -11    4.81    0.90
   5   5 -11    5.38    0.92
   5   5 -12    4.68    0.90
  -5  -5  12    3.17    0.80
   5   6   6    2.17    0.99
   5   6   5    3.10    1.00
   5   6   5    3.66    1.02
   5   6   4    2.90    1.00
   5   6   4    3.64    1.03
   5   6   3    0.50    0.92
   5   6   3    0.21    0.95
   5   6   2   27.03    1.40
   5   6   2   26.78    1.47
   5   6   1   -1.31    0.96
   5   6   1    0.43    0.86
  -5  -6  -1    0.24    0.83
   5   6   0   14.64    1.24
  -5  -6   0   15.40    1.07
   5   6  -1   11.65    1.19
  -5  -6   1   13.75    1.09
  -5  -6   1   13.80    1.03
  -5  -6   2    8.43    0.97
  -5  -6   2    7.45    0.89
   5   6  -2    8.05    0.98
  -5  -6   3   14.51    1.11
   5   6  -3   13.64    1.07
  -5  -6   3   11.68    0.93
   5   6  -3   13.75    1.07
   5   6  -4   10.78    1.12
   5   6  -4   10.80    1.03
  -5  -6   4   12.08    0.87
   5   6  -4   10.29    1.03
   5   6  -5    0.03    0.96
   5   6  -5    0.57    0.85
  -5  -6   5    0.24    0.60
   5   6  -5    0.37    0.82
   5   6  -6    4.35    1.00
   5   6  -6    3.98    0.89
   5   6  -6    3.68    0.87
   5   6  -7    5.06    1.00
   5   6  -7    6.60    0.96
   5   6  -7    4.77    0.91
   5   6  -8    0.19    0.92
   5   6  -8    1.02    0.86
   5   6  -8    0.58    0.82
   5   6  -9    1.21    0.96
   5   6  -9    1.62    0.90
   5   6  -9    1.01    0.81
   5   6 -10   13.11    1.12
   5   6 -10   15.95    1.15
   5   6 -11    7.35    1.02
  -5  -6  12    6.09    0.95
   5   6 -12    5.87    0.98
   5   7   2    5.92    1.05
   5   7   2    6.96    1.15
   5   7   1    3.13    0.98
   5   7   1    2.14    1.04
   5   7   0    2.13    0.93
   5   7   0    3.51    1.04
  -5  -7   1   10.91    1.02
   5   7  -1   11.28    1.20
  -5  -7   2    1.50    0.81
  -5  -7   3    4.13    0.78
   5   7  -4    3.66    1.08
   5   7  -4    3.00    0.90
   5   7  -5   10.11    1.18
   5   7  -5    9.57    1.01
   5   7  -6    4.46    1.06
   5   7  -6    3.33    0.93
   5   7  -7    2.43    1.00
   5   7  -7    1.42    0.89
   5   7  -8    9.61    1.13
   5   7  -8    8.85    1.03
   5   7  -9   13.49    1.18
   5   7  -9   14.54    1.22
   5   7 -10    1.25    0.96
   5   7 -11    2.76    0.96
   5   8  -1    2.19    0.93
   5   8  -5   38.88    1.72
   5   8  -6    0.68    0.97
   6 -13   4    4.10    1.11
   6 -13   3   17.87    1.28
   6 -13   2    2.53    0.97
   6 -12   9    0.13    0.88
   6 -12   8   16.35    1.23
   6 -12   7    9.93    1.09
  -6  12  -7    8.77    1.14
   6 -12   7    9.67    1.23
  -6  12  -6    2.01    1.02
   6 -12   6    1.68    1.08
  -6  12  -5   13.95    1.25
   6 -12   5   14.33    1.24
  -6  12  -4   12.76    1.23
   6 -12   4   10.85    1.11
  -6  12  -3    2.61    1.12
   6 -12   3    0.79    0.90
  -6  12  -2   -0.34    1.12
   6 -12   2    0.77    0.89
  -6  12  -1   13.54    1.33
   6 -12   1   11.63    1.03
   6 -12   0    1.03    0.83
   6 -11  10    0.73    0.93
   6 -11   9    7.45    1.01
   6 -11   8    6.32    1.07
   6 -11   8    4.81    0.95
   6 -11   8    5.36    1.18
   6 -11   7    9.25    1.12
   6 -11   7    5.56    1.00
   6 -11   7    8.55    1.16
   6 -11   6   13.52    1.20
   6 -11   6   13.74    1.21
   6 -11   5    0.42    0.97
  -6  11  -5    3.89    1.02
   6 -11   5    1.79    0.98
  -6  11  -4    6.05    1.07
   6 -11   4    7.01    1.03
  -6  11  -3    1.43    1.00
   6 -11   3    0.52    0.91
  -6  11  -2    0.76    1.04
   6 -11   2    0.60    0.86
  -6  11  -1   -1.21    1.03
   6 -11   1   -0.05    0.81
   6 -11   0    5.02    0.83
   6 -11  -1   -0.20    0.74
  -6  11   2    0.34    1.05
   6 -11  -2    0.47    0.69
  -6  11   3    0.80    1.04
  -6  11   4    1.01    1.07
   6 -10  11    2.79    0.91
   6 -10  10   -0.47    0.99
   6 -10  10    0.24    0.90
   6 -10   9   22.99    1.38
   6 -10   9   21.11    1.42
   6 -10   9   22.33    1.31
   6 -10   8    1.28    0.95
   6 -10   8   -0.09    0.87
   6 -10   8   -0.78    1.03
   6 -10   8   -0.37    0.76
   6 -10   7    2.56    0.88
   6 -10   7    4.28    1.04
   6 -10   6    3.41    0.95
   6 -10   6    3.16    0.92
   6 -10   6    3.42    1.00
   6 -10   5   12.62    1.13
   6 -10   5   13.01    1.14
  -6  10  -4    3.60    0.97
   6 -10   4    2.44    0.95
   6 -10   4    3.86    0.92
   6 -10   3    7.74    0.96
  -6  10  -3    6.06    1.03
   6 -10   3    7.62    0.96
   6 -10   2    2.94    0.96
   6 -10   2    4.21    0.90
  -6  10  -2    4.40    1.01
   6 -10   2    2.41    0.84
   6 -10   1    2.81    0.91
  -6  10  -1    1.56    0.98
   6 -10   1    1.98    0.83
   6 -10   0    8.36    0.83
   6 -10  -1   12.10    0.86
  -6  10   2    5.23    1.06
   6 -10  -2    5.95    0.71
   6 -10  -3   12.68    0.77
  -6  10   3   12.87    1.22
  -6  10   4   -0.29    1.01
   6 -10  -5    1.39    1.02
  -6  10   5   -1.02    1.02
   6 -10  -6    1.58    1.03
   6  -9  12    4.53    0.91
   6  -9  11    4.42    0.90
   6  -9  10    4.57    1.03
   6  -9  10    4.43    0.95
   6  -9  10    5.44    1.10
   6  -9   9    5.85    1.01
   6  -9   9    6.13    0.93
   6  -9   9    5.92    1.11
   6  -9   8    1.14    0.93
   6  -9   8    0.66    0.87
   6  -9   8    0.33    1.00
   6  -9   7    7.90    1.00
   6  -9   7    6.06    1.02
   6  -9   7    5.52    0.91
   6  -9   7    6.86    1.07
  -6   9  -6    0.85    0.48
   6  -9   6    1.00    0.88
   6  -9   6   -0.03    0.88
   6  -9   6    0.97    0.85
   6  -9   6    0.72    0.92
   6  -9   5   21.39    1.20
  -6   9  -5   18.47    0.72
   6  -9   5   22.40    1.26
   6  -9   5   18.78    1.21
   6  -9   5   19.29    1.21
  -6   9  -4    4.95    0.30
   6  -9   4    7.50    0.95
   6  -9   4    8.31    0.99
   6  -9   3   26.64    1.31
   6  -9   3   25.31    1.25
   6  -9   2   -0.03    0.78
   6  -9   2    0.83    0.90
   6  -9   2    0.67    0.83
   6  -9   1   12.51    1.06
   6  -9   1   11.26    0.92
   6  -9   0    1.34    0.86
   6  -9   0    0.29    0.70
   6  -9  -1   11.00    0.99
   6  -9  -1   10.00    0.80
  -6   9   2    2.92    0.98
   6  -9  -2    0.73    0.63
   6  -9  -3   11.91    0.70
   6  -9  -4    5.24    0.52
   6  -9  -4    7.95    0.44
   6  -9  -5    4.50    1.04
   6  -9  -6   -0.92    1.01
   6  -9  -7    1.90    1.03
   6  -9  -8    0.45    1.03
   6  -8  12    0.34    0.89
   6  -8  11   -0.24    0.84
   6  -8  10    1.46    0.89
   6  -8  10    0.59    0.94
   6  -8   9    1.02    0.86
   6  -8   9   -0.13    0.94
   6  -8   8   12.78    1.12
   6  -8   8   14.09    1.09
   6  -8   8   14.29    1.20
   6  -8   8   15.76    1.13
   6  -8   7    5.77    0.92
  -6   8  -7    6.83    0.72
   6  -8   7    5.16    0.97
   6  -8   7    5.34    0.93
   6  -8   7    5.90    1.03
  -6   8  -6   14.13    0.77
   6  -8   6   11.95    1.07
   6  -8   6   12.68    1.08
   6  -8   6   12.43    1.01
   6  -8   6   12.38    1.08
  -6   8  -5    2.99    0.53
   6  -8   5    4.46    0.90
   6  -8   5    3.60    0.86
   6  -8   5    2.15    0.90
   6  -8   5    3.07    0.86
   6  -8   4    3.53    0.85
  -6   8  -4    3.96    0.47
   6  -8   4    4.26    0.87
   6  -8   4    3.66    0.88
  -6   8  -3   50.50    1.50
   6  -8   3   55.72    1.89
   6  -8   3   52.02    1.85
   6  -8   2   25.00    1.20
   6  -8   2   24.31    1.28
   6  -8   2   23.31    1.17
   6  -8   1   14.62    1.07
   6  -8   1   14.69    0.96
   6  -8   0    1.48    0.85
   6  -8   0    1.09    0.68
   6  -8  -1    0.44    0.80
   6  -8  -1    0.69    0.61
   6  -8  -2   19.17    1.11
   6  -8  -2   16.57    0.85
   6  -8  -3   84.21    2.31
   6  -8  -3   77.16    2.01
   6  -8  -4    9.07    0.53
   6  -8  -4   11.88    0.94
   6  -8  -4   10.66    0.55
   6  -8  -5    1.33    0.94
   6  -8  -5    0.50    0.31
   6  -8  -5    0.02    0.74
   6  -8  -6    2.24    0.43
   6  -8  -6    3.67    0.97
   6  -8  -6    2.56    0.76
   6  -8  -7    2.97    1.02
   6  -8  -7    1.83    0.74
   6  -8  -8   -0.26    0.74
   6  -8  -8   -0.25    0.98
   6  -8  -9    9.17    1.17
   6  -8 -10    2.72    1.06
   6  -7  13    0.51    0.88
   6  -7  12    0.38    0.90
   6  -7  11    3.54    0.92
   6  -7  10    3.48    0.90
   6  -7   9    2.52    0.93
   6  -7   9    1.76    0.87
   6  -7   9    1.80    0.97
   6  -7   8   14.64    1.08
   6  -7   8   14.60    1.19
   6  -7   8   14.36    1.09
  -6   7  -7    8.49    0.79
   6  -7   7    7.98    0.99
   6  -7   7    7.42    0.95
   6  -7   7    8.98    1.08
   6  -7   7    8.12    0.94
   6  -7   6    5.46    0.86
  -6   7  -6    4.13    0.64
   6  -7   6    3.56    0.87
   6  -7   6    4.29    0.86
   6  -7   6    4.86    1.00
  -6   7  -5    1.76    0.57
   6  -7   5    1.38    0.84
   6  -7   5    1.86    0.83
   6  -7   5    1.84    0.80
   6  -7   5    1.62    0.90
  -6   7  -4    8.10    0.63
   6  -7   4    7.65    0.95
   6  -7   4    7.74    0.90
   6  -7   4    8.80    0.88
  -6   7  -3    5.51    0.52
   6  -7   3    6.56    0.81
   6  -7   3    4.12    0.87
   6  -7   3    5.14    0.84
  -6   7  -2   68.88    2.02
   6  -7   2   69.82    2.26
   6  -7   2   72.16    2.35
   6  -7   2   71.52    2.26
   6  -7   1    5.09    0.82
   6  -7   1    5.02    0.75
   6  -7   1    3.96    0.74
   6  -7   0   18.39    0.69
   6  -7   0   19.72    1.11
   6  -7   0   18.94    0.94
   6  -7  -1    5.25    0.83
   6  -7  -1    3.09    0.38
   6  -7  -1    3.59    0.64
   6  -7  -2    8.51    0.31
   6  -7  -2   12.19    0.90
   6  -7  -2   11.99    0.70
   6  -7  -3    2.44    0.73
   6  -7  -3    1.94    0.50
   6  -7  -4    2.44    0.45
   6  -7  -4    1.08    0.72
   6  -7  -4    1.81    0.37
   6  -7  -5   26.69    0.97
   6  -7  -5   27.67    1.20
   6  -7  -5   27.24    1.34
   6  -7  -6   26.67    0.99
   6  -7  -6   24.29    1.15
   6  -7  -6   27.12    1.35
   6  -7  -7    4.85    0.64
   6  -7  -7    4.80    0.99
   6  -7  -7    5.20    0.74
   6  -7  -8   27.76    1.13
   6  -7  -8   27.28    1.17
   6  -7  -8   28.43    1.44
   6  -7  -9   15.53    0.92
   6  -7  -9   15.98    0.87
   6  -7  -9   18.09    1.28
   6  -7 -10    3.05    1.05
   6  -7 -11   -0.51    1.02
   6  -6  13    2.43    0.92
   6  -6  12    1.53    0.90
   6  -6  11   27.98    1.52
   6  -6  11   31.59    1.48
  -6   6 -10   22.53    1.05
   6  -6  10   23.17    1.31
   6  -6   9    2.09    0.92
   6  -6   9    3.15    0.91
   6  -6   8   34.21    1.53
   6  -6   8   37.21    1.55
  -6   6  -7   45.53    1.64
   6  -6   7   45.27    1.76
   6  -6   7   45.64    1.76
  -6   6  -6    3.63    0.71
   6  -6   6    3.84    0.86
   6  -6   6    3.98    0.80
   6  -6   5    1.14    0.74
  -6   6  -5   -0.49    0.61
   6  -6   5   -0.27    0.82
   6  -6   5   -0.37    0.81
   6  -6   5    0.13    0.67
  -6   6  -4    1.68    0.59
   6  -6   4    1.41    0.76
   6  -6   4    1.79    0.79
   6  -6   4    2.02    0.69
   6  -6   3   35.07    1.37
  -6   6  -3   35.55    1.22
   6  -6   3   33.25    1.45
   6  -6   3   33.75    1.36
  -6   6  -2   67.09    1.97
   6  -6   2   69.69    2.14
   6  -6   2   65.73    1.98
   6  -6   2   63.85    2.14
   6  -6   2   65.70    2.20
   6  -6   2   62.63    2.15
  -6   6  -1   27.62    1.02
   6  -6   1   29.48    1.05
   6  -6   1   30.03    1.21
   6  -6   1   29.66    1.22
   6  -6   1   30.58    1.31
   6  -6   1   26.50    1.24
   6  -6   0   -0.50    0.50
   6  -6   0    0.54    0.73
   6  -6   0    1.13    0.63
   6  -6   0    0.18    0.67
   6  -6  -1   80.27    2.16
   6  -6  -1   75.90    2.00
   6  -6  -2    8.92    0.83
   6  -6  -2    7.97    0.63
   6  -6  -3   12.00    0.66
   6  -6  -3   12.81    0.90
   6  -6  -3   12.63    0.65
   6  -6  -4    9.55    0.64
   6  -6  -4    7.25    0.77
   6  -6  -4    7.32    0.45
   6  -6  -5   15.05    0.77
   6  -6  -5   13.88    0.87
   6  -6  -5   15.27    1.04
   6  -6  -6   29.62    1.13
   6  -6  -6   29.69    1.20
   6  -6  -6   31.75    1.35
   6  -6  -7   66.07    2.04
   6  -6  -7   62.10    2.04
   6  -6  -7   69.48    2.22
   6  -6  -8   20.06    1.00
   6  -6  -8   18.20    0.91
   6  -6  -8   21.15    1.24
   6  -6  -9    0.52    0.71
   6  -6  -9    0.31    0.47
   6  -6  -9    0.03    0.88
   6  -6 -10    0.78    0.73
   6  -6 -10   -0.23    0.92
   6  -6 -11    0.80    0.80
   6  -6 -11    2.99    1.01
   6  -6 -12    3.39    1.06
   6  -5  13    7.69    1.04
   6  -5  12    5.23    1.03
  -6   5 -12    4.38    0.99
  -6   5 -11    5.62    0.96
  -6   5 -11    5.31    0.86
   6  -5  11    5.22    1.00
  -6   5 -10   11.64    0.91
   6  -5  10   11.99    1.10
   6  -5   9   10.72    1.03
   6  -5   9    7.46    0.98
   6  -5   8    0.19    0.82
   6  -5   8    0.58    0.84
  -6   5  -7    6.50    0.82
   6  -5   7    5.69    0.86
   6  -5   7    5.10    0.88
  -6   5  -6   15.02    0.91
   6  -5   6   12.40    1.02
   6  -5   6   13.67    0.96
  -6   5  -5   11.52    0.84
   6  -5   5   12.69    0.98
   6  -5   5   12.49    0.89
   6  -5   4   66.37    2.07
  -6   5  -4   62.08    2.01
   6  -5   4   62.87    2.18
   6  -5   3   21.86    1.04
  -6   5  -3   20.33    0.95
   6  -5   3   21.17    1.00
   6  -5   3   18.82    1.14
   6  -5   3   19.01    1.03
   6  -5   2   47.90    1.62
  -6   5  -2   47.39    1.54
   6  -5   2   48.28    1.58
   6  -5   2   48.99    1.74
   6  -5   2   43.77    1.69
  -6   5  -1   40.54    1.39
   6  -5   1   44.33    1.48
   6  -5   1   43.32    1.43
   6  -5   1   41.95    1.58
   6  -5   1   39.28    1.55
  -6   5   0   61.74    1.87
   6  -5   0   61.28    1.93
   6  -5   0   61.09    1.73
   6  -5   0   63.85    2.05
   6  -5   0   65.59    2.07
   6  -5   0   56.26    1.99
   6  -5  -1    6.75    0.78
   6  -5  -2    0.32    0.68
   6  -5  -2   -0.09    0.56
   6  -5  -3  118.05    3.30
   6  -5  -3  120.61    3.42
   6  -5  -3  114.34    3.25
   6  -5  -3  117.02    3.48
   6  -5  -4    9.01    0.68
   6  -5  -4    6.96    0.47
   6  -5  -4    7.90    0.74
   6  -5  -4    6.58    0.91
   6  -5  -5   15.05    0.76
   6  -5  -5    9.72    0.75
   6  -5  -5   11.61    0.79
   6  -5  -5    8.24    0.32
   6  -5  -5   12.73    1.00
   6  -5  -6    5.84    0.69
   6  -5  -6    6.50    0.79
   6  -5  -6    6.01    0.65
   6  -5  -6    7.30    0.91
   6  -5  -7   10.74    0.84
   6  -5  -7    9.92    0.71
   6  -5  -7    9.97    0.89
   6  -5  -8   31.18    1.24
   6  -5  -8   25.21    1.00
   6  -5  -8   29.67    1.33
   6  -5  -9    1.69    0.76
   6  -5  -9    1.82    0.43
   6  -5  -9    3.05    0.87
   6  -5 -10    1.73    0.81
   6  -5 -10    2.15    0.91
   6  -5 -11   -0.02    0.80
   6  -5 -11   -0.43    0.90
   6  -5 -12    1.81    0.87
   6  -5 -12    1.67    0.96
   6  -5 -13    6.43    1.02
   6  -4  13   -0.04    0.99
  -6   4 -12   14.61    1.09
   6  -4  12   14.78    1.23
  -6   4 -12   14.38    1.21
  -6   4 -11    4.47    0.89
   6  -4  11    3.89    1.00
  -6   4 -11    4.14    0.96
   6  -4  10    2.99    0.95
  -6   4 -10    2.32    0.80
  -6   4 -10    2.63    0.88
   6  -4  10    1.75    0.95
   6  -4   9    1.75    0.87
   6  -4   9   -0.42    0.87
  -6   4  -9    0.17    0.79
   6  -4   8    8.27    0.93
  -6   4  -8    8.91    0.89
   6  -4   8    7.07    1.00
   6  -4   7    1.55    0.79
  -6   4  -7    1.55    0.79
   6  -4   7    0.33    0.80
  -6   4  -6   -0.20    0.73
   6  -4   6    0.20    0.72
   6  -4   6    0.76    0.77
  -6   4  -5    5.26    0.77
   6  -4   5    5.45    0.76
   6  -4   5    4.47    0.86
  -6   4  -4    0.50    0.66
   6  -4   4    0.86    0.77
   6  -4   4    1.21    0.79
   6  -4   4    0.94    0.63
  -6   4  -3   83.20    2.59
   6  -4   3   88.21    2.62
   6  -4   3   87.50    2.58
   6  -4   2  160.19    4.35
  -6   4  -2  150.40    4.35
   6  -4   2  154.55    4.35
  -6   4  -1    0.46    0.58
   6  -4   1    0.45    0.65
   6  -4   1    0.72    0.46
   6  -4   1    0.80    0.76
   6  -4   1    0.98    0.56
  -6   4   0   23.48    0.99
   6  -4   0   23.04    0.97
   6  -4   0   23.55    0.86
   6  -4   0   21.66    1.10
  -6   4   1   49.13    1.57
   6  -4  -1   46.73    1.53
   6  -4  -1   47.47    1.69
   6  -4  -2    8.01    0.68
   6  -4  -2    8.31    0.82
   6  -4  -3   81.48    2.40
   6  -4  -3   79.86    2.46
   6  -4  -3   84.84    2.52
   6  -4  -3   75.92    2.53
   6  -4  -4   -0.23    0.60
   6  -4  -4   -0.38    0.60
   6  -4  -4   -0.20    0.77
   6  -4  -5    0.92    0.25
   6  -4  -5    2.65    0.66
   6  -4  -5    1.43    0.57
   6  -4  -5    2.03    0.59
   6  -4  -5    1.48    0.30
   6  -4  -5    0.60    0.78
   6  -4  -6   29.36    1.21
   6  -4  -6   30.44    1.17
   6  -4  -6   29.09    1.34
   6  -4  -7   11.71    0.87
   6  -4  -7   10.96    0.78
   6  -4  -7   11.02    0.98
   6  -4  -8    2.86    0.78
   6  -4  -8    3.80    0.70
   6  -4  -8    3.32    0.85
   6  -4  -9   13.74    0.96
   6  -4  -9   11.49    0.92
   6  -4  -9   15.35    0.96
   6  -4 -10    9.77    0.94
   6  -4 -10    7.79    0.91
   6  -4 -11    3.14    0.83
   6  -4 -11    2.48    0.86
   6  -4 -12    7.95    0.97
   6  -4 -12    9.95    0.98
   6  -4 -13    1.48    0.90
   6  -4 -13    2.89    0.88
   6  -4 -14    0.92    0.90
  -6   3 -13    6.55    1.05
  -6   3 -12   -0.18    0.96
  -6   3 -12    2.27    0.95
   6  -3  12    1.41    1.01
  -6   3 -11    1.78    0.94
  -6   3 -11    3.82    0.93
   6  -3  11    3.13    1.01
  -6   3 -10    3.36    0.93
   6  -3  10    5.03    0.99
   6  -3  10    4.55    0.97
  -6   3  -9    0.31    0.84
  -6   3  -9    1.70    0.96
   6  -3   9   -0.50    0.91
   6  -3   9    0.34    0.86
   6  -3   8    9.02    0.95
  -6   3  -8    7.73    0.98
  -6   3  -8    7.90    1.05
   6  -3   8    7.55    1.01
  -6   3  -8    7.89    0.92
   6  -3   7    0.09    0.74
  -6   3  -7    0.33    0.79
  -6   3  -7   -1.11    0.91
  -6   3  -7    1.21    0.74
   6  -3   7    0.20    0.85
   6  -3   6    4.94    0.79
  -6   3  -6    5.56    0.82
  -6   3  -6    3.29    0.88
  -6   3  -6    4.49    0.74
   6  -3   6    2.93    0.86
  -6   3  -5   -0.20    0.73
   6  -3   5    0.43    0.66
   6  -3   5   -1.70    0.84
   6  -3   5   -0.25    0.74
  -6   3  -4   64.60    2.14
   6  -3   4   68.00    2.18
   6  -3   4   65.50    2.08
  -6   3  -3    2.70    0.69
   6  -3   3    3.63    0.80
  -6   3  -3    3.87    0.73
   6  -3   3    3.11    0.62
  -6   3  -2   67.48    2.12
   6  -3   2   68.24    2.13
   6  -3   2   63.80    2.01
  -6   3  -2   67.04    2.19
   6  -3   2   68.12    2.03
   6  -3   1   -0.36    0.51
  -6   3  -1    0.16    0.62
   6  -3   1   -0.40    0.58
   6  -3   1   -0.35    0.72
   6  -3   0   33.09    1.13
  -6   3   0   32.84    1.25
   6  -3   0   31.68    1.14
   6  -3   0   32.19    1.34
  -6   3   1   15.29    0.85
   6  -3  -1   14.58    0.72
   6  -3  -1   15.90    0.95
  -6   3   2   72.63    2.21
   6  -3  -2   73.92    2.21
   6  -3  -2   69.80    2.08
   6  -3  -2   70.09    2.24
   6  -3  -3    1.26    0.65
   6  -3  -3    1.12    0.70
   6  -3  -3    1.49    0.74
   6  -3  -4    0.38    0.39
   6  -3  -4    0.14    0.53
   6  -3  -4   -1.25    0.69
   6  -3  -4   -0.73    0.68
   6  -3  -4   -0.69    0.77
   6  -3  -5    6.66    0.76
   6  -3  -5    9.40    0.67
   6  -3  -5    9.20    0.48
   6  -3  -5    9.38    0.75
   6  -3  -5    8.25    0.89
   6  -3  -6    2.75    0.69
   6  -3  -6    3.64    0.27
   6  -3  -6    3.84    0.62
   6  -3  -6    5.19    0.71
   6  -3  -6    4.05    0.87
   6  -3  -7   -0.46    0.70
   6  -3  -7   -0.40    0.61
   6  -3  -7    0.61    0.81
   6  -3  -8    6.89    0.81
   6  -3  -8    8.06    0.71
   6  -3  -8    6.26    0.90
   6  -3  -9    4.32    0.81
   6  -3  -9    3.98    0.76
   6  -3  -9    3.00    0.68
   6  -3 -10    3.65    0.83
   6  -3 -10    3.05    0.75
   6  -3 -10    3.89    0.72
   6  -3 -11   14.50    1.05
   6  -3 -11   18.22    0.99
   6  -3 -12    1.55    0.76
   6  -3 -12   -0.68    0.81
   6  -3 -13    3.55    0.88
   6  -3 -13    6.12    0.90
  -6   2 -12   11.84    1.15
  -6   2 -11    0.98    0.91
   6  -2  11    1.56    1.01
  -6   2 -10    9.56    1.03
   6  -2  10   11.06    1.15
   6  -2  10   12.95    1.10
  -6   2  -9    2.20    0.98
   6  -2   9    2.12    0.93
  -6   2  -9    1.85    0.84
  -6   2  -9    1.57    0.97
   6  -2   9    2.29    0.92
  -6   2  -8   27.24    1.30
  -6   2  -8   29.52    1.41
  -6   2  -8   25.89    1.41
   6  -2   8   28.06    1.44
  -6   2  -8   28.03    1.44
   6  -2   8   28.19    1.34
  -6   2  -7    1.57    0.76
  -6   2  -7   -0.43    0.82
  -6   2  -7   -0.23    0.86
   6  -2   7    0.18    0.85
  -6   2  -7    0.61    0.91
   6  -2   7    1.13    0.77
  -6   2  -6   66.22    2.33
   6  -2   6   71.57    2.37
  -6   2  -6   69.37    2.36
   6  -2   6   70.47    2.40
   6  -2   6   74.22    2.26
  -6   2  -5   22.35    1.18
   6  -2   5   21.68    1.24
   6  -2   5   20.45    1.19
   6  -2   5   23.34    1.06
  -6   2  -4   40.70    1.58
   6  -2   4   44.00    1.65
   6  -2   4   41.44    1.46
  -6   2  -3   64.71    2.14
   6  -2   3   69.76    2.17
  -6   2  -3   64.01    2.14
   6  -2   3   63.02    1.99
  -6   2  -2   27.45    1.21
   6  -2   2   28.54    1.23
   6  -2   2   27.71    1.11
  -6   2  -2   26.17    1.21
   6  -2   2   27.46    1.24
   6  -2   2   24.67    1.00
  -6   2  -1    0.66    0.66
   6  -2   1    0.74    0.66
   6  -2   1    1.03    0.46
   6  -2   1    1.26    0.72
  -6   2   0    3.15    0.69
   6  -2   0    3.26    0.66
   6  -2   0    3.38    0.74
   6  -2   0    3.04    0.45
   6  -2  -1    1.32    0.40
  -6   2   1    0.94    0.66
   6  -2  -1    0.17    0.74
   6  -2  -1   -0.14    0.68
  -6   2   2  128.29    3.61
   6  -2  -2  121.09    3.41
   6  -2  -2  127.93    3.62
   6  -2  -2  127.59    3.62
   6  -2  -3  103.21    3.05
   6  -2  -3  102.03    2.84
   6  -2  -3  108.55    3.05
   6  -2  -3   99.97    2.94
   6  -2  -4   53.99    1.85
   6  -2  -4   55.06    1.62
   6  -2  -4   58.84    1.82
   6  -2  -4   51.38    1.67
   6  -2  -5    5.03    0.46
   6  -2  -5    5.77    0.79
   6  -2  -5    7.77    0.55
   6  -2  -5    7.38    0.72
   6  -2  -5    7.76    0.88
   6  -2  -6   77.50    2.34
   6  -2  -6   68.70    2.09
   6  -2  -6   78.37    2.27
   6  -2  -6   76.40    2.16
   6  -2  -6   77.76    2.41
   6  -2  -7    0.19    0.71
   6  -2  -7    0.48    0.57
   6  -2  -7    1.05    0.82
   6  -2  -7    0.15    0.56
   6  -2  -7   -0.13    0.26
   6  -2  -8   38.48    1.48
   6  -2  -8   36.04    1.31
   6  -2  -8   39.13    1.32
   6  -2  -8   38.77    1.54
   6  -2  -9   10.97    0.93
   6  -2  -9   10.03    0.66
   6  -2  -9   10.58    0.73
   6  -2  -9   10.65    0.90
   6  -2 -10    8.78    0.73
   6  -2 -10    7.97    0.94
   6  -2 -10    7.00    0.58
   6  -2 -10    8.18    0.83
   6  -2 -11    4.68    0.91
   6  -2 -11    6.48    0.72
   6  -2 -11    5.48    0.52
   6  -2 -11    4.98    0.79
   6  -2 -12   -0.79    0.93
   6  -2 -12   -0.10    0.68
   6  -2 -13   -1.10    0.97
  -6   1 -11   18.37    1.23
  -6   1 -10    4.60    0.91
   6  -1  10    5.78    1.08
   6  -1   9    1.52    0.70
  -6   1  -9    2.31    0.81
   6  -1   9    1.54    1.02
   6  -1   9    0.94    0.84
  -6   1  -8    9.68    0.92
  -6   1  -8   10.33    1.03
  -6   1  -8    9.95    1.11
   6  -1   8   11.42    1.12
  -6   1  -8    9.78    1.08
   6  -1   8   11.70    0.99
  -6   1  -7   25.09    1.22
  -6   1  -7   25.83    1.31
  -6   1  -7   24.06    1.35
   6  -1   7   27.46    1.39
  -6   1  -7   24.94    1.36
   6  -1   7   26.17    1.23
  -6   1  -6    2.27    0.83
  -6   1  -6    2.42    0.87
   6  -1   6    0.44    0.92
   6  -1   6    1.27    0.90
   6  -1   6    1.69    0.73
  -6   1  -5   51.26    1.93
   6  -1   5   55.87    2.00
   6  -1   5   53.06    1.79
   6  -1   4   14.59    1.09
  -6   1  -4   13.34    1.00
  -6   1  -4   14.32    0.96
   6  -1   4   13.09    0.79
  -6   1  -3    4.43    0.77
   6  -1   3    5.15    0.90
   6  -1   3    4.69    0.80
  -6   1  -3    4.62    0.76
   6  -1   3    5.23    0.90
  -6   1  -3    4.91    0.78
   6  -1   3    3.37    0.58
   6  -1   2    4.81    0.51
   6  -1   2    5.43    0.87
  -6   1  -2    4.09    0.76
   6  -1   2    5.27    0.79
  -6   1  -2    4.47    0.79
   6  -1   2    5.66    0.85
  -6   1  -1    9.86    0.82
   6  -1   1    9.82    0.86
  -6   1  -1    9.18    0.83
   6  -1   1    9.08    0.86
   6  -1   1    8.95    0.54
   6  -1   0    4.73    0.44
  -6   1   0    4.74    0.74
   6  -1   0    5.96    0.73
   6  -1   0    5.44    0.77
  -6   1   1   62.38    2.01
   6  -1  -1   61.95    2.03
   6  -1  -1   59.23    2.00
   6  -1  -1   60.37    1.71
   6  -1  -2    2.34    0.63
  -6   1   2    1.43    0.70
   6  -1  -2    2.55    0.79
   6  -1  -2    1.42    0.25
   6  -1  -2    2.16    0.67
  -6   1   3   35.81    1.30
   6  -1  -3   35.70    1.34
   6  -1  -3   34.24    1.22
   6  -1  -3   26.84    0.85
   6  -1  -3   33.91    1.16
   6  -1  -3   29.13    0.85
   6  -1  -4   12.52    0.43
   6  -1  -4   13.26    0.94
   6  -1  -4   14.90    0.83
   6  -1  -4   12.24    0.73
   6  -1  -4   11.73    0.44
   6  -1  -5   17.16    1.03
   6  -1  -5   15.54    0.54
   6  -1  -5   17.71    0.88
   6  -1  -5   16.30    0.75
   6  -1  -5   15.09    0.55
   6  -1  -6   71.57    2.23
   6  -1  -6   69.99    2.08
   6  -1  -6   66.64    1.98
   6  -1  -6   65.90    1.89
   6  -1  -7  111.77    3.03
   6  -1  -7  106.42    2.82
   6  -1  -7  106.13    2.70
   6  -1  -8    3.49    0.90
   6  -1  -8    3.38    0.53
   6  -1  -8    3.99    0.51
   6  -1  -8    2.69    0.82
   6  -1  -8    3.70    0.40
   6  -1  -9    0.03    0.83
   6  -1  -9    0.86    0.51
   6  -1  -9    1.53    0.44
   6  -1  -9    0.40    0.24
   6  -1 -10   16.77    1.13
   6  -1 -10   12.88    0.65
   6  -1 -10   14.15    0.95
   6  -1 -10   14.42    0.75
   6  -1 -11   -0.03    0.89
   6  -1 -11   -1.24    0.59
   6  -1 -11    1.04    0.75
   6  -1 -12    0.70    0.94
   6  -1 -12   -0.69    0.65
   6  -1 -12    1.82    0.79
   6  -1 -13   10.44    1.14
  -6   0 -11    0.13    0.94
  -6   0 -10    0.27    0.82
   6   0   9    1.67    0.74
   6   0   9    1.70    0.87
   6   0   9    0.95    1.00
  -6   0  -9    1.43    0.83
   6   0   8    1.83    0.78
   6   0   8    2.02    0.99
   6   0   8    3.09    0.85
  -6   0  -8    1.97    0.78
  -6   0  -7    3.02    0.76
   6   0   7    2.37    0.82
  -6   0  -7    3.52    0.89
  -6   0  -7    4.07    0.98
   6   0   7    2.54    0.97
   6   0   7    2.83    0.81
  -6   0  -7    3.15    0.94
  -6   0  -6    7.69    0.92
  -6   0  -6    8.78    0.96
   6   0   6    7.44    1.01
   6   0   6    6.60    1.01
   6   0   6    7.08    0.78
  -6   0  -5    0.11    0.80
   6   0   5    0.54    0.90
   6   0   5    0.42    0.64
  -6   0  -4    1.58    0.80
   6   0   4    1.89    0.89
  -6   0  -4    1.72    0.75
   6   0   4    2.49    0.59
  -6   0  -4    1.99    0.74
  -6   0  -3   14.78    1.01
   6   0   3   16.45    1.11
   6   0   3   15.17    1.03
  -6   0  -3   14.95    0.98
   6   0   3   16.36    1.09
  -6   0  -3   14.43    0.99
   6   0   3   15.42    0.76
   6   0   2    3.36    0.85
  -6   0  -2    3.91    0.81
   6   0   2    3.25    0.83
  -6   0  -2    4.21    0.81
   6   0   2    3.16    0.83
   6   0   2    2.47    0.42
  -6   0  -2    3.64    0.77
  -6   0  -1   21.75    1.11
   6   0   1   23.61    1.13
  -6   0  -1   20.43    1.11
   6   0   1   22.99    1.16
  -6   0  -1   21.12    1.11
   6   0   1   21.71    0.79
   6   0   0   -0.57    0.71
  -6   0   0    0.16    0.72
  -6   0   0    0.30    0.70
   6   0   0    0.01    0.27
   6   0   0   -0.09    0.73
   6   0   0    0.17    0.73
  -6   0   1   30.66    1.30
   6   0  -1   32.33    1.37
   6   0  -1   30.27    1.28
   6   0  -1   28.99    1.25
   6   0  -2   -0.47    0.66
  -6   0   2   -1.12    0.73
   6   0  -2    0.42    0.79
   6   0  -2    0.77    0.68
   6   0  -3    6.59    0.69
  -6   0   3    8.54    0.85
   6   0  -3    7.68    0.90
   6   0  -3    7.19    0.72
   6   0  -4    0.04    0.78
   6   0  -4   -0.33    0.62
   6   0  -5    4.73    0.87
   6   0  -5    4.24    0.64
   6   0  -5    3.54    0.58
   6   0  -6   15.02    1.05
   6   0  -6   15.28    0.79
   6   0  -6   15.14    0.77
   6   0  -7   43.93    1.57
   6   0  -7   39.86    1.22
   6   0  -8    1.12    0.28
   6   0  -8    1.39    0.49
   6   0  -8    2.19    0.47
   6   0  -9    8.08    1.01
   6   0  -9    8.09    0.56
   6   0  -9    6.73    0.50
   6   0  -9    6.38    0.45
   6   0 -10   20.75    1.22
   6   0 -10   17.09    0.68
   6   0 -10   19.23    0.73
   6   0 -10   19.25    1.06
   6   0 -10   16.97    0.74
   6   0 -11    7.12    1.04
   6   0 -11    8.21    0.87
   6   0 -11    5.73    0.55
   6   0 -12    1.08    0.97
   6   0 -12    0.92    0.81
   6   0 -13    0.27    1.00
  -6  -1 -10    0.68    0.83
   6   1   9   -0.79    0.87
  -6  -1  -9   -0.11    0.80
   6   1   8    7.01    0.89
   6   1   8    6.97    0.90
  -6  -1  -8    5.87    0.85
   6   1   7    3.23    0.86
   6   1   7    2.37    0.76
   6   1   7    2.18    0.99
  -6  -1  -7    3.01    0.75
   6   1   6    9.47    0.94
  -6  -1  -6    8.97    1.02
  -6  -1  -6    9.81    1.04
   6   1   6   10.19    0.85
  -6  -1  -6    9.17    0.81
   6   1   5    5.79    0.86
  -6  -1  -5    5.41    0.91
   6   1   5    6.24    0.72
  -6  -1  -5    5.60    0.88
  -6  -1  -4   12.39    1.01
  -6  -1  -4   13.37    1.01
   6   1   4   14.59    1.13
   6   1   4   11.91    0.74
  -6  -1  -4   11.82    0.98
   6   1   3    0.83    0.84
  -6  -1  -3   -0.51    0.79
   6   1   3    0.73    0.83
   6   1   3   -0.28    0.84
  -6  -1  -3    0.09    0.76
   6   1   3    1.44    0.50
   6   1   3    1.09    0.85
  -6  -1  -3    0.27    0.79
  -6  -1  -2   23.45    1.20
   6   1   2   24.84    1.22
  -6  -1  -2   23.36    0.86
   6   1   2   24.83    1.23
   6   1   2   25.92    1.24
   6   1   2   19.49    0.82
  -6  -1  -2   25.72    1.19
   6   1   2   23.83    1.22
  -6  -1  -1   24.62    1.21
   6   1   1   25.62    1.26
   6   1   1   23.16    0.79
   6   1   1   23.06    1.19
  -6  -1  -1   23.53    1.17
   6   1   1   22.88    1.20
   6   1   0   -0.75    0.75
  -6  -1   0   -0.96    0.79
   6   1   0    0.06    0.78
  -6  -1   0    0.42    0.72
   6   1   0   -0.30    0.79
  -6  -1   0    1.90    0.72
   6   1  -1    3.79    0.77
  -6  -1   1    3.20    0.81
  -6  -1   1    4.49    0.77
   6   1  -1    3.55    0.76
  -6  -1   1    2.93    0.75
  -6  -1   2   54.33    1.88
   6   1  -2   51.69    1.91
  -6  -1   2   54.39    1.84
   6   1  -2   54.87    1.82
   6   1  -2   50.33    1.80
   6   1  -3    5.45    0.72
  -6  -1   3    6.31    0.88
   6   1  -3    4.78    0.92
   6   1  -3    5.75    0.75
   6   1  -4   91.35    2.93
   6   1  -4   96.00    2.80
   6   1  -4   94.55    2.82
   6   1  -5   37.90    1.60
   6   1  -5   38.08    1.38
   6   1  -5   41.23    1.42
   6   1  -6   16.95    1.09
   6   1  -6   14.27    0.80
   6   1  -6   14.57    0.83
   6   1  -7    6.99    0.94
   6   1  -7    5.35    0.56
   6   1  -7    6.11    0.64
   6   1  -8   -0.11    0.87
   6   1  -8    0.53    0.46
   6   1  -8    0.26    0.53
   6   1  -9    1.76    0.91
   6   1  -9    1.70    0.45
   6   1  -9    1.28    0.51
   6   1 -10    4.01    0.97
   6   1 -10    3.74    0.53
   6   1 -11   36.16    1.64
   6   1 -12    1.52    1.02
   6   1 -12    2.15    0.79
   6   1 -13    1.05    1.04
   6   2   8    0.76    0.84
  -6  -2  -8   -0.69    0.75
   6   2   7    7.75    0.97
   6   2   7    7.18    0.84
  -6  -2  -7    6.62    0.82
   6   2   6    1.05    0.86
   6   2   6    0.66    0.71
  -6  -2  -6    1.10    0.66
   6   2   5    5.35    0.89
   6   2   5    4.37    0.68
   6   2   4    1.67    0.84
   6   2   4    2.24    0.58
   6   2   4    3.29    0.96
  -6  -2  -4    2.52    0.85
   6   2   3    0.73    0.84
   6   2   3   -0.66    0.88
   6   2   3   -0.37    0.90
   6   2   3    0.78    0.91
  -6  -2  -3    2.83    0.86
   6   2   2    2.64    0.85
   6   2   2    2.32    0.91
   6   2   2    1.49    0.88
  -6  -2  -2    2.17    0.82
  -6  -2  -2    2.00    0.45
   6   2   1    7.19    0.93
   6   2   1    6.86    0.97
   6   2   1    5.33    0.91
  -6  -2  -1    3.91    0.83
   6   2   0    4.42    0.87
  -6  -2   0    3.49    0.88
   6   2   0    4.64    0.91
   6   2   0    5.18    0.87
  -6  -2   0    3.73    0.81
   6   2  -1    5.35    0.85
  -6  -2   1    4.87    0.89
   6   2  -1    6.41    0.92
   6   2  -1    6.19    0.85
  -6  -2   1    5.77    0.80
  -6  -2   2  201.06    5.67
   6   2  -2  197.20    5.59
  -6  -2   2  201.23    5.60
   6   2  -2  198.03    5.61
   6   2  -3    2.67    0.78
  -6  -2   3    1.94    0.86
   6   2  -3    3.09    0.73
   6   2  -4   31.87    1.27
   6   2  -4   34.12    1.36
   6   2  -5   -1.00    0.80
   6   2  -5    0.43    0.58
   6   2  -5    0.08    0.66
   6   2  -6    0.22    0.80
   6   2  -6    0.54    0.56
   6   2  -6    1.62    0.65
   6   2  -7    0.31    0.80
   6   2  -7    0.58    0.47
   6   2  -7   -0.09    0.63
   6   2  -8    0.79    0.82
   6   2  -8    0.51    0.49
   6   2  -8    0.81    0.63
   6   2  -9    6.14    0.96
   6   2  -9    7.18    0.71
   6   2 -10   19.50    1.26
   6   2 -10   19.98    0.92
   6   2 -11    2.45    0.97
   6   2 -12   23.23    1.39
   6   3   7    9.98    1.02
   6   3   6   11.11    1.09
   6   3   6   11.04    1.11
   6   3   5    0.98    0.92
   6   3   5    1.07    0.91
   6   3   4    1.18    0.94
   6   3   4    0.86    0.87
   6   3   3   10.70    1.07
   6   3   3   10.39    1.08
   6   3   3   10.05    1.02
   6   3   3   10.71    1.10
  -6  -3  -3   10.06    1.01
   6   3   2    0.82    0.90
   6   3   2    1.79    0.90
  -6  -3  -2    1.57    0.43
   6   3   2    1.49    0.82
   6   3   2    1.57    0.92
  -6  -3  -2    2.82    0.87
   6   3   1    2.72    0.94
   6   3   1    5.66    0.93
   6   3   1    4.82    1.00
  -6  -3  -1    3.63    0.29
  -6  -3  -1    5.07    0.88
   6   3   0   10.40    1.00
   6   3   0   10.87    1.06
   6   3   0    9.65    1.06
  -6  -3   0   11.47    0.97
   6   3  -1   41.82    1.72
   6   3  -1   45.05    1.69
  -6  -3   1   42.26    1.64
   6   3  -1   44.08    1.70
   6   3  -2   11.29    0.98
   6   3  -2   11.03    0.95
  -6  -3   2   11.15    0.90
   6   3  -3    3.50    0.75
  -6  -3   3    3.69    0.74
   6   3  -3    4.49    0.83
   6   3  -4    0.26    0.65
   6   3  -4    0.10    0.74
   6   3  -5   23.08    1.16
   6   3  -6    0.18    0.74
   6   3  -7   48.50    1.72
   6   3  -8    0.04    0.70
   6   3  -9    5.88    0.75
   6   3 -10    0.31    0.87
   6   3 -10    0.69    0.63
   6   3 -11    2.83    0.85
   6   3 -11    1.40    0.91
   6   3 -12   10.56    1.00
   6   4   7   -0.10    0.94
   6   4   6    1.54    0.99
   6   4   5    2.36    1.01
   6   4   5    1.07    0.99
   6   4   4    2.75    0.97
   6   4   4    2.40    0.95
   6   4   3    0.63    0.95
   6   4   3   -0.20    0.89
   6   4   2    0.93    0.96
   6   4   2    1.43    0.88
   6   4   1    0.53    0.95
   6   4   1    1.11    0.84
  -6  -4  -1    2.26    0.85
  -6  -4   0   15.06    1.15
   6   4   0   15.16    1.23
  -6  -4   0   14.65    1.11
   6   4   0   16.31    1.16
   6   4   0   16.29    1.23
   6   4  -1    0.56    0.87
   6   4  -1    1.56    0.97
  -6  -4   1    1.05    0.89
   6   4  -1    0.26    0.96
  -6  -4   1    2.25    0.83
  -6  -4   2   49.94    1.85
   6   4  -2   44.70    1.84
  -6  -4   2   44.70    1.70
   6   4  -2   47.34    1.83
  -6  -4   3   33.41    1.51
   6   4  -3   29.99    1.43
  -6  -4   3   30.32    1.30
   6   4  -3   31.67    1.44
   6   4  -4   11.50    1.15
   6   4  -4   14.04    1.05
  -6  -4   4   14.16    0.90
   6   4  -4   13.57    1.02
   6   4  -5   14.97    1.18
   6   4  -5   14.07    1.05
   6   4  -5   15.48    1.03
   6   4  -6   15.13    1.10
   6   4  -6   17.99    1.06
   6   4  -6   17.65    1.21
   6   4  -7   10.12    1.06
   6   4  -7   10.78    1.00
   6   4  -7   11.85    0.96
   6   4  -8    2.97    0.94
   6   4  -8    2.37    0.85
   6   4  -8    3.68    0.78
   6   4  -9    2.22    0.96
   6   4  -9    2.56    0.86
   6   4  -9    3.74    0.77
   6   4 -10    0.03    0.89
   6   4 -11   -0.24    0.90
   6   4 -12    4.01    0.93
   6   5   4    1.11    0.99
   6   5   3    2.58    1.02
   6   5   3    1.19    0.97
   6   5   2   11.99    1.17
   6   5   2   10.22    1.10
   6   5   1    1.17    1.02
   6   5   1    1.35    0.93
   6   5   0    2.13    1.01
  -6  -5   0    3.63    0.93
  -6  -5   1   27.14    1.37
   6   5  -1   26.98    1.53
  -6  -5   2   12.70    1.03
  -6  -5   3    2.27    0.76
   6   5  -4   21.78    1.30
  -6  -5   4   22.39    1.10
   6   5  -4   23.60    1.43
   6   5  -5    0.17    0.98
   6   5  -5    0.52    0.83
   6   5  -5   -0.03    0.86
   6   5  -6    0.24    0.98
   6   5  -6   -0.40    0.86
   6   5  -6   -0.28    0.81
   6   5  -7    0.31    0.96
   6   5  -7    0.60    0.85
   6   5  -7   -0.25    0.81
   6   5  -8    2.59    1.00
   6   5  -8    1.92    0.89
   6   5  -8    2.25    0.82
   6   5  -9    0.89    1.00
   6   5  -9    0.03    0.86
   6   5  -9    0.59    0.80
   6   5 -10    6.81    1.03
   6   5 -11    2.04    0.95
   6   5 -12   16.88    1.22
   6   6   0    9.11    1.09
   6   6  -1    0.68    1.04
  -6  -6   2   17.74    1.14
   6   6  -2   19.59    1.38
   6   6  -4    9.80    1.23
   6   6  -4    8.50    1.08
   6   6  -5   13.59    1.26
   6   6  -5   11.64    1.11
   6   6  -6    5.75    1.11
   6   6  -6    6.05    0.99
   6   6  -7    5.22    1.11
   6   6  -7    4.99    1.00
   6   6  -8    5.93    1.10
   7 -12   5   25.32    1.47
   7 -12   4    7.08    1.13
   7 -12   3    3.87    1.00
   7 -12   2    2.85    0.93
   7 -11   7    5.93    1.03
   7 -11   7    3.26    1.13
   7 -11   6   19.54    1.36
   7 -11   6   19.81    1.32
   7 -11   5    1.11    0.95
   7 -11   5    1.54    1.03
   7 -11   4   -1.11    0.99
   7 -11   3    0.29    0.99
   7 -11   3    0.16    0.91
   7 -11   2    3.30    1.03
   7 -11   2    1.56    0.90
   7 -11   1   -0.57    1.00
   7 -11   1    1.26    0.83
   7 -11   0    2.05    0.99
   7 -11   0    2.91    0.81
   7 -11  -1    5.37    1.03
   7 -11  -2    0.51    0.95
   7 -11  -3   13.05    1.17
   7 -11  -4    2.86    0.97
   7 -11  -5    0.74    0.92
   7 -11  -6    7.01    1.02
   7 -10   9   -0.47    0.95
   7 -10   8   13.88    1.20
   7 -10   8   13.01    1.28
   7 -10   7   14.69    1.22
   7 -10   7   12.85    1.17
   7 -10   7   15.37    1.30
   7 -10   6    0.94    0.99
   7 -10   6    1.18    0.92
   7 -10   6    0.51    1.01
   7 -10   5    0.73    0.94
   7 -10   5    1.30    0.98
   7 -10   4    1.13    0.95
   7 -10   4    1.88    0.93
   7 -10   3    6.77    1.06
   7 -10   3    6.48    0.99
   7 -10   2    0.40    0.96
   7 -10   2    0.29    0.85
   7 -10   1   16.43    1.23
   7 -10   1   15.25    1.05
   7 -10   0    0.52    0.91
   7 -10   0    0.15    0.77
   7 -10  -1   -0.35    0.92
   7 -10  -1    0.73    0.68
   7 -10  -2    4.33    0.96
   7 -10  -3    4.27    0.98
   7 -10  -4    0.86    0.91
   7 -10  -5    0.41    0.99
   7 -10  -5    0.93    0.87
   7 -10  -6    2.07    1.08
   7 -10  -6    1.50    0.89
   7  -9  10    1.27    0.93
   7  -9   9    0.34    0.95
   7  -9   9    1.48    1.07
   7  -9   8    8.70    1.12
   7  -9   8    7.93    1.07
   7  -9   8    7.61    1.13
   7  -9   7    2.86    0.99
   7  -9   7    3.24    0.97
   7  -9   7    4.10    1.07
   7  -9   6    7.27    1.06
   7  -9   6    7.19    1.01
   7  -9   6    7.27    1.07
   7  -9   5    9.51    1.07
   7  -9   5    9.89    1.11
   7  -9   4    0.73    0.84
   7  -9   4    0.60    0.91
   7  -9   4    2.53    0.95
   7  -9   3   28.20    1.42
   7  -9   3   30.96    1.51
   7  -9   3   30.00    1.43
   7  -9   3   30.69    1.49
   7  -9   2    8.20    0.99
   7  -9   2    8.50    1.03
   7  -9   2    8.14    0.96
   7  -9   1   36.50    1.52
   7  -9   1   35.67    1.61
   7  -9   1   36.10    1.47
   7  -9   0    1.68    0.88
   7  -9   0    0.63    0.72
   7  -9  -1    1.01    0.85
   7  -9  -1    1.52    0.68
   7  -9  -2    0.03    0.87
   7  -9  -2    0.89    0.61
   7  -9  -3    0.95    0.84
   7  -9  -3    0.36    0.53
   7  -9  -4    3.14    0.87
   7  -9  -5    4.09    1.04
   7  -9  -5    4.71    0.88
   7  -9  -6    4.26    1.05
   7  -9  -6    3.81    0.88
   7  -9  -7    0.13    1.01
   7  -9  -7    0.82    0.81
   7  -9  -8    6.81    1.14
   7  -8  11   -0.27    0.93
   7  -8  10    1.23    0.94
   7  -8   9   -0.49    0.93
   7  -8   9   -0.11    1.08
   7  -8   8   18.74    1.25
   7  -8   8   16.18    1.31
   7  -8   7    6.51    1.01
   7  -8   7    7.25    1.09
   7  -8   6   10.61    1.02
   7  -8   6    8.21    1.06
   7  -8   6    9.45    1.07
   7  -8   6    9.88    1.10
  -7   8  -5    3.53    0.62
   7  -8   5    2.49    0.90
   7  -8   5    5.29    0.95
   7  -8   5    4.09    0.99
  -7   8  -4    3.70    0.55
   7  -8   4    4.29    0.90
   7  -8   4    2.67    0.92
   7  -8   4    2.28    0.86
   7  -8   3    6.06    0.89
  -7   8  -3    5.91    0.55
   7  -8   3    6.69    0.99
   7  -8   3    6.41    0.97
   7  -8   3    6.30    0.91
   7  -8   2    4.72    0.98
   7  -8   2    4.16    0.93
   7  -8   2    3.96    0.86
   7  -8   2    4.17    0.84
   7  -8   1    1.38    0.89
   7  -8   1    0.79    0.78
   7  -8   1    0.21    0.77
   7  -8   0   26.43    1.24
   7  -8   0   25.57    1.31
   7  -8   0   23.79    1.15
   7  -8  -1    3.88    0.86
   7  -8  -1    2.54    0.67
   7  -8  -2    2.43    0.31
   7  -8  -2    2.31    0.84
   7  -8  -2    2.95    0.62
   7  -8  -3    1.98    0.32
   7  -8  -3    1.54    0.80
   7  -8  -3    3.06    0.57
   7  -8  -4    3.16    0.83
   7  -8  -4    2.29    0.40
   7  -8  -5    4.12    1.01
   7  -8  -5    4.34    0.83
   7  -8  -6    1.58    1.00
   7  -8  -6    1.08    0.78
   7  -8  -7   78.99    2.55
   7  -8  -7   82.83    2.73
   7  -8  -8    0.66    1.04
   7  -8  -9   11.58    1.22
   7  -7  11    1.53    0.96
   7  -7  10    0.90    0.91
  -7   7  -9    1.35    0.80
   7  -7   9   -0.33    0.92
   7  -7   9    1.58    1.07
  -7   7  -8    2.09    0.77
   7  -7   8   -0.03    0.89
   7  -7   8    1.02    1.06
  -7   7  -7    1.49    0.74
   7  -7   7    1.27    0.93
   7  -7   7    1.93    1.04
   7  -7   7    1.55    0.88
  -7   7  -6    2.23    0.69
   7  -7   6    1.50    0.87
   7  -7   6    1.27    0.98
   7  -7   6    1.83    0.84
   7  -7   5    0.75    0.80
  -7   7  -5    0.35    0.63
   7  -7   5    1.87    0.91
   7  -7   5   -0.68    0.94
  -7   7  -4    1.48    0.58
   7  -7   4    0.38    0.82
   7  -7   4    1.74    0.92
   7  -7   4    1.01    0.87
  -7   7  -3    1.38    0.58
   7  -7   3    0.47    0.90
   7  -7   3    1.22    0.88
   7  -7   3    0.69    0.82
   7  -7   3    0.99    0.76
  -7   7  -2    0.99    0.53
   7  -7   2    0.98    0.72
   7  -7   2    0.06    0.84
   7  -7   2   -0.42    0.83
  -7   7  -1   13.10    0.70
   7  -7   1   13.42    0.94
   7  -7   1   11.61    0.70
   7  -7   1   13.55    1.04
   7  -7   1   10.78    0.92
   7  -7   0    1.22    0.71
   7  -7   0   -0.20    0.52
   7  -7   0    0.21    0.79
   7  -7   0    0.58    0.69
   7  -7   0    0.37    0.87
   7  -7  -1    4.18    0.54
   7  -7  -1    2.87    0.84
   7  -7  -1    3.60    0.67
   7  -7  -2    1.15    0.48
   7  -7  -2    1.89    0.81
   7  -7  -2    2.62    0.60
   7  -7  -3    0.95    0.78
   7  -7  -3    0.66    0.52
   7  -7  -4   -0.16    0.73
   7  -7  -4    0.39    0.39
   7  -7  -5   -0.40    0.85
   7  -7  -5    0.26    0.54
   7  -7  -5    0.88    0.72
   7  -7  -6    5.20    0.65
   7  -7  -6    3.46    0.92
   7  -7  -6    5.12    0.79
   7  -7  -7   16.25    0.87
   7  -7  -7   18.25    1.01
   7  -7  -7   17.01    1.15
   7  -7  -8    0.69    0.65
   7  -7  -8    0.43    0.92
   7  -7  -9    7.59    1.06
   7  -7 -10    1.81    0.94
   7  -7 -11    3.33    1.03
   7  -6  11    7.14    1.09
   7  -6  10    3.66    1.02
  -7   6  -9   27.04    1.35
   7  -6   9   27.42    1.44
  -7   6  -8    2.69    0.85
   7  -6   8    2.42    0.92
   7  -6   8    2.42    0.94
  -7   6  -7    0.80    0.77
   7  -6   7    0.52    0.83
   7  -6   7   -0.22    0.89
   7  -6   7    0.50    0.71
  -7   6  -6    1.96    0.79
   7  -6   6    0.36    0.87
   7  -6   6    0.41    0.80
   7  -6   6   -0.72    0.73
  -7   6  -5    8.64    0.81
   7  -6   5    8.75    0.99
   7  -6   5    8.68    0.87
   7  -6   5    8.74    0.89
   7  -6   4   17.63    1.03
  -7   6  -4   16.62    0.94
   7  -6   4   16.56    1.16
   7  -6   4   16.05    1.02
  -7   6  -3    0.71    0.59
   7  -6   3    0.22    0.75
   7  -6   3    0.97    0.67
   7  -6   3   -0.56    0.75
  -7   6  -2    4.91    0.64
   7  -6   2    4.42    0.69
   7  -6   2    4.95    0.92
   7  -6   2    5.00    0.77
   7  -6   2    2.58    0.82
  -7   6  -1   12.57    0.78
   7  -6   1   13.99    0.90
   7  -6   1   14.09    0.83
   7  -6   1   14.66    1.06
   7  -6   1   14.98    1.05
   7  -6   1   11.24    0.99
  -7   6   0   16.44    0.84
   7  -6   0   17.36    0.86
   7  -6   0   18.27    0.98
   7  -6   0   15.99    0.97
   7  -6   0   17.51    1.07
   7  -6   0   17.90    1.12
   7  -6   0   16.03    1.04
   7  -6  -1    3.93    0.33
   7  -6  -1    3.14    0.80
   7  -6  -1    4.72    0.71
   7  -6  -1    3.57    0.87
   7  -6  -1    2.86    0.74
   7  -6  -1    4.02    0.71
   7  -6  -2    1.31    0.76
   7  -6  -2    2.27    0.61
   7  -6  -3   -0.69    0.75
   7  -6  -3   -0.03    0.52
   7  -6  -3   -1.20    0.81
   7  -6  -4   12.63    0.75
   7  -6  -4   12.76    0.92
   7  -6  -4   12.47    0.61
   7  -6  -4   13.87    1.10
   7  -6  -5   10.38    0.73
   7  -6  -5   10.25    0.85
   7  -6  -5    8.06    0.81
   7  -6  -5    7.52    0.33
   7  -6  -5    8.17    1.00
   7  -6  -6   -1.02    0.74
   7  -6  -6   -0.40    0.66
   7  -6  -7    4.46    0.72
   7  -6  -7    4.29    0.82
   7  -6  -8    3.73    0.72
   7  -6  -8    3.51    0.65
   7  -6  -8    4.33    0.84
   7  -6  -9    6.63    0.85
   7  -6  -9    9.51    0.98
   7  -6 -10    0.86    0.87
   7  -6 -11   -0.78    0.95
   7  -5  10   10.91    1.14
   7  -5   9    6.75    1.06
   7  -5   8    0.96    0.88
  -7   5  -8    0.73    0.85
   7  -5   8    0.42    0.95
   7  -5   8   -0.20    0.69
  -7   5  -7    3.12    0.81
   7  -5   7    5.77    0.89
   7  -5   7    3.99    0.96
   7  -5   7    3.02    0.75
  -7   5  -6    3.48    0.81
   7  -5   6    4.07    0.84
   7  -5   6    3.68    0.89
   7  -5   6    3.66    0.76
  -7   5  -5   23.03    1.14
   7  -5   5   24.08    1.29
   7  -5   5   20.97    1.14
   7  -5   5   24.24    1.16
  -7   5  -4   11.65    0.90
   7  -5   4   12.88    0.98
   7  -5   4   13.11    1.09
   7  -5   4   12.64    0.95
   7  -5   4   13.01    0.90
  -7   5  -3   11.59    0.83
   7  -5   3   10.32    0.93
   7  -5   3   11.21    0.93
   7  -5   3   12.65    0.87
  -7   5  -2   -1.07    0.66
   7  -5   2    0.55    0.68
   7  -5   2    0.04    0.73
   7  -5   2   -0.62    0.76
   7  -5   1   73.27    2.21
  -7   5  -1   70.13    2.20
   7  -5   1   73.81    2.23
   7  -5   1   71.38    2.38
   7  -5   1   65.17    2.31
  -7   5   0   -0.65    0.63
   7  -5   0    0.02    0.62
   7  -5   0   -0.03    0.65
   7  -5   0    0.90    0.45
   7  -5   0   -0.99    0.82
   7  -5   0   -0.89    0.75
   7  -5  -1   12.06    0.81
   7  -5  -1   13.35    0.64
   7  -5  -1   12.70    0.99
   7  -5  -1   13.78    0.95
   7  -5  -2    0.63    0.58
   7  -5  -2    0.10    0.78
   7  -5  -3   14.14    0.86
   7  -5  -3   14.12    1.01
   7  -5  -3   15.13    1.06
   7  -5  -4   -1.73    0.68
   7  -5  -4    0.20    0.48
   7  -5  -4   -0.07    0.81
   7  -5  -4   -1.69    0.91
   7  -5  -5   20.20    0.97
   7  -5  -5   16.96    0.65
   7  -5  -5   20.61    0.95
   7  -5  -5   18.08    0.62
   7  -5  -5   19.37    1.21
   7  -5  -6    6.83    0.75
   7  -5  -6    5.36    0.71
   7  -5  -6    5.16    0.97
   7  -5  -7    4.60    0.75
   7  -5  -7    3.99    0.69
   7  -5  -8    1.15    0.75
   7  -5  -8    0.31    0.68
   7  -5  -8    0.36    0.89
   7  -5  -9   10.23    0.93
   7  -5  -9   11.24    0.88
   7  -5 -10    2.66    0.83
   7  -5 -10    0.88    0.79
   7  -5 -11    1.03    0.85
   7  -5 -11   -0.54    0.82
  -7   4 -11    5.16    1.00
   7  -4  10    1.34    0.99
   7  -4   9   11.70    1.16
   7  -4   8   12.80    1.04
  -7   4  -8   13.09    1.06
   7  -4   8   11.79    1.14
   7  -4   8   10.51    0.87
   7  -4   7    0.18    0.82
  -7   4  -7    0.93    0.84
   7  -4   7   -0.39    0.94
   7  -4   7   -0.27    0.69
   7  -4   6    4.79    0.84
  -7   4  -6    5.66    0.89
   7  -4   6    3.92    0.77
  -7   4  -5    0.45    0.76
   7  -4   5   -1.65    0.74
   7  -4   5   -0.52    0.84
   7  -4   5    0.62    0.86
   7  -4   5   -1.15    0.75
  -7   4  -4   14.90    0.98
   7  -4   4   14.75    1.06
   7  -4   4   14.64    0.99
   7  -4   4   15.83    0.92
  -7   4  -3   16.54    0.99
   7  -4   3   15.55    1.05
   7  -4   3   15.45    1.01
   7  -4   3   17.48    0.94
  -7   4  -2   98.92    3.00
   7  -4   2  104.42    3.03
   7  -4   2  104.01    3.12
   7  -4   2   96.24    3.04
   7  -4   2   97.46    2.92
   7  -4   1    1.56    0.59
  -7   4  -1   -0.04    0.73
   7  -4   1    2.07    0.78
   7  -4   1   -0.57    0.59
   7  -4   1    1.24    0.83
   7  -4   1    0.68    0.74
   7  -4   0  111.54    3.24
  -7   4   0  110.96    3.32
   7  -4   0  116.63    3.21
   7  -4   0  121.24    3.46
   7  -4   0  107.91    3.40
   7  -4  -1    6.42    0.61
  -7   4   1    4.56    0.73
   7  -4  -1    4.83    0.65
   7  -4  -1    7.53    0.91
   7  -4  -1    5.88    0.79
   7  -4  -2    9.74    0.92
   7  -4  -2    8.82    0.66
   7  -4  -3   21.48    1.04
   7  -4  -3   18.71    0.85
   7  -4  -3   20.17    1.10
   7  -4  -3   20.22    1.13
   7  -4  -4   77.28    2.36
   7  -4  -4   81.82    2.29
   7  -4  -4   79.75    2.44
   7  -4  -4   69.19    2.18
   7  -4  -4   74.62    2.50
   7  -4  -5   46.04    1.62
   7  -4  -5   49.64    1.57
   7  -4  -5   51.89    1.73
   7  -4  -5   43.05    1.38
   7  -4  -5   48.30    1.81
   7  -4  -6   -0.06    0.72
   7  -4  -6    0.70    0.65
   7  -4  -6    1.16    0.76
   7  -4  -6    0.93    0.24
   7  -4  -6    1.74    0.92
   7  -4  -6    0.33    0.21
   7  -4  -7   -0.44    0.76
   7  -4  -7    1.44    0.66
   7  -4  -7    1.72    0.73
   7  -4  -7    1.54    0.90
   7  -4  -8    0.53    0.77
   7  -4  -8    0.41    0.66
   7  -4  -8    1.22    0.71
   7  -4  -8    1.17    0.90
   7  -4  -9    0.26    0.80
   7  -4  -9    0.58    0.71
   7  -4  -9    0.87    0.65
   7  -4  -9    1.52    0.87
   7  -4 -10   13.73    1.04
   7  -4 -10   15.60    0.94
   7  -4 -10   12.52    0.89
   7  -4 -10   17.14    1.08
   7  -4 -11    3.66    0.74
   7  -4 -11    2.91    0.85
   7  -4 -12    2.47    0.85
   7  -4 -13    6.51    0.97
  -7   3 -11    1.00    0.94
   7  -3  10    4.55    1.08
  -7   3 -10    4.17    0.97
   7  -3   9    1.50    1.00
  -7   3  -9    3.51    0.85
   7  -3   9    3.07    0.94
   7  -3   8    1.82    0.99
   7  -3   8   -0.23    0.69
   7  -3   8    0.94    0.85
   7  -3   7    0.69    0.78
  -7   3  -7    1.46    0.87
   7  -3   7    0.66    0.93
   7  -3   7    1.89    0.71
   7  -3   6    2.55    0.75
  -7   3  -6    0.80    0.82
   7  -3   6    1.14    0.91
   7  -3   6    1.89    0.73
  -7   3  -5   14.16    1.02
   7  -3   5   11.10    1.08
   7  -3   5   12.71    1.08
   7  -3   5   11.68    0.91
   7  -3   5   12.93    0.91
  -7   3  -4   13.46    0.99
   7  -3   4   12.28    1.06
  -7   3  -4   13.38    1.01
   7  -3   4   10.99    0.92
   7  -3   4   12.67    0.85
  -7   3  -3   30.40    1.28
   7  -3   3   30.65    1.35
  -7   3  -3   27.23    1.32
   7  -3   3   26.40    1.25
   7  -3   3   25.82    1.12
  -7   3  -2    0.51    0.73
   7  -3   2    0.57    0.81
   7  -3   2   -0.11    0.69
  -7   3  -2    1.11    0.81
   7  -3   2   -0.03    0.59
   7  -3   2    1.96    0.85
   7  -3   2    0.82    0.75
  -7   3  -1  116.48    3.38
   7  -3   1  116.63    3.39
   7  -3   1  114.34    3.26
  -7   3  -1  116.88    3.44
   7  -3   1  119.45    3.46
   7  -3   1  104.55    3.39
   7  -3   1  110.32    3.21
  -7   3   0    3.34    0.75
   7  -3   0    2.67    0.68
  -7   3   0    2.38    0.76
   7  -3   0    4.74    0.90
   7  -3   0    2.50    0.79
   7  -3   0    3.38    0.52
   7  -3  -1    0.24    0.45
  -7   3   1   -0.72    0.75
   7  -3  -1   -0.22    0.76
   7  -3  -1    0.38    0.71
  -7   3   2   -0.26    0.75
   7  -3  -2    2.08    0.77
   7  -3  -2   -0.30    0.44
   7  -3  -2    0.64    0.79
   7  -3  -3    0.58    0.56
   7  -3  -3    0.34    0.45
   7  -3  -3    1.21    0.75
   7  -3  -3    0.28    0.78
   7  -3  -4   16.14    1.00
   7  -3  -4   14.34    0.68
   7  -3  -4   15.27    0.74
   7  -3  -4   16.46    1.01
   7  -3  -4   14.19    0.76
   7  -3  -4   15.47    1.11
   7  -3  -5   17.70    1.02
   7  -3  -5   18.76    1.01
   7  -3  -5   16.34    0.79
   7  -3  -5   16.30    0.74
   7  -3  -5   17.36    1.14
   7  -3  -6   15.66    1.04
   7  -3  -6   16.16    0.64
   7  -3  -6   18.46    0.97
   7  -3  -6   18.16    0.84
   7  -3  -6   18.87    1.17
   7  -3  -7    5.52    0.82
   7  -3  -7    4.53    0.26
   7  -3  -7    5.51    0.72
   7  -3  -7    5.27    0.63
   7  -3  -7    5.04    0.96
   7  -3  -8    2.45    0.75
   7  -3  -8    1.90    0.66
   7  -3  -8    1.99    0.90
   7  -3  -8    2.60    0.64
   7  -3  -9    6.21    0.88
   7  -3  -9    4.65    0.66
   7  -3  -9    6.39    0.93
   7  -3  -9    5.99    0.69
   7  -3 -10    0.04    0.62
   7  -3 -10   -0.97    0.81
   7  -3 -10   -0.35    0.55
   7  -3 -10    1.03    0.80
   7  -3 -11    3.64    0.88
   7  -3 -11    3.43    0.79
   7  -3 -12   14.67    1.11
  -7   2 -10    4.74    0.97
   7  -2   9    3.08    1.04
  -7   2  -9    2.34    0.85
  -7   2  -8    5.94    0.85
   7  -2   8    6.83    1.08
   7  -2   8    5.54    0.78
   7  -2   8    4.90    0.90
  -7   2  -7   25.31    1.18
   7  -2   7   25.10    1.43
   7  -2   7   25.16    1.26
   7  -2   7   25.00    1.20
  -7   2  -6   10.26    1.03
   7  -2   6    9.96    1.12
   7  -2   6    9.81    1.09
   7  -2   6   12.13    0.92
  -7   2  -5   24.58    1.31
   7  -2   5   26.39    1.41
   7  -2   5   25.70    1.15
  -7   2  -4   15.25    1.09
   7  -2   4   16.59    1.16
  -7   2  -4   13.85    1.05
   7  -2   4   16.32    0.88
  -7   2  -3   13.81    1.01
   7  -2   3   12.70    1.10
  -7   2  -3   12.99    1.02
   7  -2   3   15.39    1.12
   7  -2   3   12.34    0.77
   7  -2   2    4.04    0.57
  -7   2  -2    4.93    0.82
   7  -2   2    5.14    0.94
   7  -2   2    5.14    0.81
  -7   2  -2    5.70    0.87
   7  -2   2    4.99    0.91
   7  -2   1    5.78    0.54
  -7   2  -1    6.97    0.84
   7  -2   1    5.50    0.79
  -7   2  -1    3.81    0.84
   7  -2   1    5.50    0.89
  -7   2   0   16.21    1.00
   7  -2   0   15.23    0.91
  -7   2   0   14.16    0.96
   7  -2   0   16.65    1.02
  -7   2   1   39.07    1.49
  -7   2   1   40.29    1.52
   7  -2  -1   39.55    1.52
   7  -2  -1   35.96    1.17
   7  -2  -2    0.44    0.65
  -7   2   2    0.07    0.75
   7  -2  -2    0.39    0.84
  -7   2   2   -0.46    0.70
   7  -2  -2    0.39    0.77
   7  -2  -2    0.25    0.36
   7  -2  -3    0.72    0.32
   7  -2  -3    0.35    0.58
   7  -2  -3   -0.20    0.34
   7  -2  -3    0.18    0.84
   7  -2  -3   -0.11    0.75
   7  -2  -4   10.22    0.48
   7  -2  -4   10.52    0.96
   7  -2  -4   10.10    0.50
   7  -2  -4    9.66    0.69
   7  -2  -4   11.10    0.88
   7  -2  -5    8.48    0.62
   7  -2  -5    8.12    0.45
   7  -2  -5    9.08    0.95
   7  -2  -5    7.60    0.47
   7  -2  -5    8.26    0.81
   7  -2  -5    7.17    1.00
   7  -2  -6   10.39    0.97
   7  -2  -6   11.08    0.81
   7  -2  -6    9.80    0.60
   7  -2  -6    9.85    0.55
   7  -2  -6   10.60    1.03
   7  -2  -7   18.64    1.13
   7  -2  -7   14.81    0.64
   7  -2  -7   19.62    0.95
   7  -2  -7   18.17    0.74
   7  -2  -7   20.51    1.19
   7  -2  -8    8.94    0.63
   7  -2  -8   12.04    0.99
   7  -2  -8   10.40    0.77
   7  -2  -8    9.85    1.04
   7  -2  -9    3.39    0.58
   7  -2  -9    6.71    0.94
   7  -2  -9    5.33    0.64
   7  -2  -9    2.96    0.92
   7  -2 -10    0.76    0.89
   7  -2 -10    0.94    0.51
   7  -2 -10    0.51    0.77
   7  -2 -11    1.69    0.89
   7  -2 -11   -1.39    0.73
   7  -2 -12    1.56    0.92
  -7   1 -10   10.58    1.06
  -7   1  -9   14.25    1.06
  -7   1  -8    3.84    0.83
   7  -1   8    4.15    1.08
   7  -1   8    2.91    0.84
   7  -1   7    4.86    1.06
   7  -1   7    4.52    0.82
  -7   1  -7    4.50    0.77
   7  -1   6    0.25    1.02
   7  -1   6    1.84    0.72
  -7   1  -6    1.25    0.67
  -7   1  -5    0.27    0.87
   7  -1   5    0.73    1.04
   7  -1   5   -0.61    0.67
  -7   1  -4   -0.08    0.86
   7  -1   4    0.46    0.96
  -7   1  -4   -0.31    0.77
   7  -1   4   -0.09    0.91
   7  -1   4    0.15    0.58
  -7   1  -3    2.87    0.85
   7  -1   3    1.12    0.94
  -7   1  -3    1.82    0.78
   7  -1   3    0.74    0.91
   7  -1   3    1.67    0.56
  -7   1  -2   -0.47    0.79
   7  -1   2    0.49    0.88
   7  -1   2    0.10    0.79
  -7   1  -2    1.35    0.81
   7  -1   2    0.76    0.88
   7  -1   2    0.80    0.48
  -7   1  -1   21.97    1.18
   7  -1   1   20.88    1.12
  -7   1  -1   22.10    1.18
   7  -1   1   23.09    1.21
   7  -1   1   20.41    0.80
  -7   1   0   28.08    1.28
   7  -1   0   25.52    1.23
  -7   1   0   27.17    1.27
   7  -1   0   27.79    1.31
   7  -1   0   25.81    0.87
  -7   1   1   50.75    1.74
   7  -1  -1   48.96    1.66
  -7   1   1   48.75    1.70
   7  -1  -1   49.05    1.70
   7  -1  -1   48.51    1.68
   7  -1  -1   41.50    1.25
   7  -1  -2    0.04    0.71
  -7   1   2    0.62    0.78
   7  -1  -2   -0.34    0.88
  -7   1   2    0.21    0.75
   7  -1  -2    0.59    0.74
   7  -1  -3   99.60    3.20
  -7   1   3  109.49    3.17
   7  -1  -3  104.05    3.15
   7  -1  -3  106.99    3.12
   7  -1  -4   38.65    1.56
   7  -1  -4   34.87    1.42
   7  -1  -4   37.19    1.35
   7  -1  -5    4.68    0.92
   7  -1  -5    5.49    0.70
   7  -1  -5    6.41    0.64
   7  -1  -6    2.11    0.90
   7  -1  -6    3.66    0.65
   7  -1  -6    2.32    0.54
   7  -1  -7   -1.22    0.93
   7  -1  -7    0.53    0.58
   7  -1  -7   -0.55    0.47
   7  -1  -8    9.94    1.01
   7  -1  -8    8.95    0.55
   7  -1  -8    8.26    0.69
   7  -1  -8    9.67    1.02
   7  -1  -9   -0.03    0.90
   7  -1  -9    0.89    0.55
   7  -1  -9   -0.86    0.85
   7  -1 -10    6.00    1.00
   7  -1 -10    2.04    0.84
   7  -1 -11   17.73    1.27
   7  -1 -11   18.54    1.13
   7  -1 -12    2.09    1.00
   7   0   8    4.27    0.89
   7   0   7    2.69    0.89
  -7   0  -7    3.01    0.75
   7   0   7    1.59    1.05
   7   0   6    0.84    1.04
  -7   0  -6    0.21    0.66
   7   0   6    0.59    0.70
   7   0   5    3.93    1.08
   7   0   5    4.23    0.71
  -7   0  -4   15.33    1.15
   7   0   4   16.88    1.29
  -7   0  -4   15.05    1.11
   7   0   4   16.78    1.20
  -7   0  -4   16.66    1.12
   7   0   4   14.25    0.81
  -7   0  -3    3.61    0.88
   7   0   3    5.47    1.04
  -7   0  -3    3.03    0.84
   7   0   3    4.62    0.56
   7   0   3    4.47    0.93
  -7   0  -3    3.20    0.88
   7   0   2    3.57    0.88
  -7   0  -2    3.62    0.86
   7   0   2    2.78    0.97
   7   0   2    1.86    0.88
  -7   0  -2    3.23    0.84
   7   0   2    2.64    0.44
   7   0   2    2.05    0.90
  -7   0  -2    2.59    0.86
   7   0   1    5.31    0.89
  -7   0  -1    5.23    0.90
   7   0   1    6.62    0.92
  -7   0  -1    6.19    0.89
   7   0   1    5.10    0.40
   7   0   1    5.15    0.92
   7   0   0    0.60    0.80
  -7   0   0    0.03    0.81
   7   0   0    0.20    0.81
  -7   0   0   -0.38    0.79
   7   0   0   -0.11    0.84
   7   0  -1   12.66    0.95
  -7   0   1   13.92    1.03
   7   0  -1   15.17    1.03
  -7   0   1   12.67    0.98
   7   0  -1   12.75    1.01
   7   0  -2   -0.84    0.79
  -7   0   2    0.11    0.80
   7   0  -2    0.50    0.89
  -7   0   2    0.96    0.75
   7   0  -2   -0.50    0.79
  -7   0   3   74.25    2.42
   7   0  -3   71.45    2.41
  -7   0   3   69.86    2.30
   7   0  -3   69.81    2.31
   7   0  -3   71.27    2.28
   7   0  -4    0.59    0.69
   7   0  -4    0.05    0.94
  -7   0   4   -0.31    0.70
   7   0  -4    0.02    0.69
   7   0  -5   19.54    1.23
   7   0  -5   18.88    1.01
   7   0  -5   22.17    1.01
   7   0  -6   17.56    1.16
   7   0  -6   16.92    0.93
   7   0  -6   17.06    0.89
   7   0  -7    1.14    0.90
   7   0  -7    0.21    0.60
   7   0  -7   -0.06    0.55
   7   0  -8    9.57    1.09
   7   0  -8    8.96    0.68
   7   0  -8    9.18    0.66
   7   0  -9    3.18    0.98
   7   0  -9    1.93    0.53
   7   0 -10   21.97    1.32
   7   0 -10   18.64    1.13
   7   0 -11    5.83    1.07
   7   0 -11    4.57    0.83
   7   1   7   -1.00    0.91
   7   1   6   -0.36    0.91
   7   1   6    2.04    1.01
   7   1   5    0.60    0.87
   7   1   5    1.14    0.99
   7   1   5    0.18    1.01
   7   1   4   21.17    1.33
   7   1   4   19.32    1.33
   7   1   3   -0.54    0.95
   7   1   3    1.77    0.97
  -7  -1  -3   -0.19    0.85
   7   1   2   12.58    1.06
  -7  -1  -2   11.67    1.06
   7   1   2   11.14    1.08
   7   1   2   12.47    1.08
  -7  -1  -2   10.74    1.03
   7   1   2   10.94    1.07
  -7  -1  -2   13.10    1.04
   7   1   1    3.75    0.86
  -7  -1  -1    4.13    0.89
   7   1   1    4.16    0.94
  -7  -1  -1    3.99    0.87
   7   1   1    3.03    0.89
  -7  -1  -1    4.16    0.86
   7   1   0    1.39    0.85
  -7  -1   0    1.58    0.86
   7   1   0    2.22    0.91
  -7  -1   0    2.09    0.82
   7   1   0    0.68    0.88
  -7  -1   0    2.32    0.83
   7   1  -1    0.31    0.80
  -7  -1   1   -0.11    0.83
   7   1  -1    0.83    0.88
  -7  -1   1   -1.44    0.81
   7   1  -1    0.23    0.80
  -7  -1   2   19.73    1.17
  -7  -1   2   20.03    1.13
   7   1  -2   19.99    1.11
   7   1  -2   17.31    1.09
  -7  -1   3   16.14    1.14
   7   1  -3   15.85    1.20
  -7  -1   3   15.17    1.02
   7   1  -3   15.35    1.04
   7   1  -3   16.12    1.01
   7   1  -4    8.72    1.06
  -7  -1   4    7.91    0.82
   7   1  -4    9.98    0.85
   7   1  -4    9.39    0.88
   7   1  -5   15.61    1.19
  -7  -1   5   18.99    1.00
   7   1  -5   16.57    0.96
   7   1  -5   17.64    0.97
   7   1  -6    5.74    1.02
   7   1  -6    7.57    0.73
   7   1  -6    8.64    0.77
   7   1  -7   -0.62    0.95
   7   1  -7    0.80    0.59
   7   1  -7   -0.34    0.64
   7   1  -8    3.96    1.02
   7   1  -8    3.56    0.57
   7   1  -8    5.32    0.69
   7   1  -9   -0.31    0.96
   7   1 -10    2.21    0.99
   7   1 -11   33.30    1.64
   7   2   7    4.76    1.01
   7   2   6    1.04    0.97
   7   2   5    0.75    0.96
   7   2   4    3.32    0.97
   7   2   3    1.29    0.94
   7   2   3    0.69    1.00
   7   2   2    1.97    0.95
   7   2   2   -0.03    0.97
   7   2   2   -0.88    0.96
   7   2   1    3.37    0.93
   7   2   1    1.68    0.95
  -7  -2  -1    1.00    0.87
   7   2   1    1.37    0.93
  -7  -2  -1    3.45    0.88
   7   2   0   13.27    1.06
   7   2   0   11.51    1.15
  -7  -2   0   11.04    1.03
   7   2   0   10.65    1.09
  -7  -2   0   11.47    1.01
   7   2  -1    0.84    0.82
  -7  -2   1    2.16    0.88
   7   2  -1    1.81    0.95
  -7  -2   1    0.68    0.84
   7   2  -1    1.76    0.89
  -7  -2   1    0.44    0.81
   7   2  -2    0.45    0.81
  -7  -2   2   -0.03    0.85
   7   2  -2    0.83    0.93
  -7  -2   2    0.43    0.79
   7   2  -2   -0.03    0.83
   7   2  -3    3.82    0.84
  -7  -2   3    4.22    0.94
   7   2  -3    3.76    0.94
  -7  -2   3    4.08    0.84
   7   2  -4    8.08    0.99
  -7  -2   4    8.64    0.89
   7   2  -4    9.67    0.89
   7   2  -4    8.47    0.89
   7   2  -5    1.01    0.90
  -7  -2   5    2.02    0.70
   7   2  -5   -0.25    0.66
   7   2  -5    0.23    0.75
   7   2  -6    3.53    0.95
  -7  -2   6    3.42    0.70
   7   2  -6    3.80    0.68
   7   2  -6    3.37    0.76
   7   2  -7    0.28    0.91
   7   2  -7    0.33    0.58
   7   2  -7    0.94    0.68
   7   2  -8    1.85    0.95
   7   2  -8    1.32    0.69
   7   2  -9   -0.88    0.99
   7   2 -10    0.27    1.00
   7   3   6    4.79    1.07
   7   3   5    1.57    1.01
   7   3   4    1.79    0.99
   7   3   3    0.28    0.96
   7   3   3    0.18    0.95
   7   3   2    0.98    0.99
   7   3   2    2.47    0.95
   7   3   1    6.47    1.07
   7   3   0   -0.38    0.97
  -7  -3   0    0.55    0.83
   7   3  -1    7.54    1.09
  -7  -3   1    9.09    0.98
   7   3  -2    8.69    1.13
  -7  -3   2    9.72    0.94
   7   3  -2    8.36    1.00
   7   3  -3    2.57    0.88
  -7  -3   4    8.10    0.92
   7   3  -4    7.56    0.93
  -7  -3   5    0.67    0.73
   7   3  -5    0.37    0.79
  -7  -3   6    2.29    0.72
   7   3  -6    2.05    0.80
   7   3  -7    2.98    0.76
   7   3  -8    0.17    0.89
   7   3  -8    1.00    0.75
   7   3  -9    0.69    0.95
   7   3  -9   -0.35    0.92
   7   3 -10    4.06    0.97
   7   3 -11    3.89    0.95
   7   3 -12    1.22    0.94
   7   4   1    0.60    1.02
   7   4   0    0.83    1.01
   7   4  -1    5.77    1.09
   7   4  -2    7.59    1.15
  -7  -4   2    8.50    0.97
  -7  -4   3   18.43    1.11
   7   4  -4   15.68    1.29
   7   4  -4   15.70    1.18
   7   4  -5    1.01    1.05
   7   4  -5    1.49    0.88
   7   4  -6    0.39    1.02
   7   4  -6    0.42    0.87
   7   4  -7   -0.43    1.01
   7   4  -8    4.95    1.05
   7   4  -9    2.39    1.01
   8 -12   4    9.60    1.15
   8 -11   5   11.02    1.20
   8 -11   4   13.46    1.22
   8 -11   3    8.44    1.06
   8 -10   6    4.83    1.10
   8 -10   5    1.21    1.00
   8 -10   4    4.11    0.99
   8 -10   3   14.05    1.23
   8 -10   3   12.88    1.20
   8 -10   3   11.80    1.10
   8 -10   2    5.19    1.05
   8 -10   2    4.40    1.04
   8 -10   2    4.54    0.95
   8 -10   1    1.09    0.96
   8 -10   1    1.30    0.84
   8 -10   0    7.01    1.06
   8 -10  -1    5.84    1.01
   8 -10  -2    8.09    1.07
   8 -10  -3    1.84    0.95
   8 -10  -4    7.18    0.99
   8 -10  -5    3.86    0.96
   8  -9   7   -1.24    1.04
   8  -9   6    3.33    1.05
   8  -9   6    4.19    1.09
   8  -9   5    1.91    0.99
   8  -9   5    4.03    1.01
   8  -9   4   11.16    1.18
   8  -9   4    9.15    1.09
   8  -9   4    8.41    1.09
   8  -9   3    6.97    1.06
   8  -9   3    4.05    0.99
   8  -9   3    7.11    1.02
   8  -9   2    1.43    0.97
   8  -9   2    0.93    0.86
   8  -9   1    7.45    1.03
   8  -9   1    5.38    0.89
   8  -9   1    6.67    0.97
   8  -9   0    2.59    0.96
   8  -9   0    1.46    0.86
   8  -9   0    3.01    1.01
   8  -9   0    1.62    0.78
   8  -9  -1    0.03    0.92
   8  -9  -1    1.64    0.70
   8  -9  -2   -0.37    0.89
   8  -9  -3    2.44    0.90
   8  -9  -4   -0.09    0.82
   8  -9  -5    0.19    0.99
   8  -9  -5    1.39    0.86
   8  -9  -6    0.10    0.97
   8  -9  -6    1.27    0.83
   8  -9  -7    3.29    1.01
   8  -8   7   -0.54    0.97
   8  -8   7    0.66    1.05
   8  -8   6    0.74    0.92
   8  -8   6   -0.36    1.00
   8  -8   5    4.13    1.03
   8  -8   5    3.78    1.03
   8  -8   4    5.49    0.92
   8  -8   4    3.44    1.00
   8  -8   4    2.90    1.01
   8  -8   3    0.44    0.95
   8  -8   3    0.97    0.85
   8  -8   3   -0.20    0.93
   8  -8   3    0.38    0.90
   8  -8   2   -1.12    0.94
   8  -8   2    0.10    0.87
   8  -8   2   -0.84    0.77
   8  -8   1    0.87    0.81
   8  -8   1   -0.03    0.92
   8  -8   1   -0.16    0.80
   8  -8   0    1.13    0.80
   8  -8   0    0.25    0.89
   8  -8   0    1.14    0.94
   8  -8   0    1.67    0.76
   8  -8  -1    6.20    0.84
   8  -8  -1    6.23    0.97
   8  -8  -1    5.33    1.01
   8  -8  -1    5.04    0.76
   8  -8  -2    1.11    0.86
   8  -8  -2    0.19    0.63
   8  -8  -3    3.11    0.90
   8  -8  -4    5.80    0.92
   8  -8  -5   25.91    1.29
   8  -8  -5   24.89    1.36
   8  -8  -6    0.86    0.93
   8  -8  -6    0.56    0.80
   8  -8  -7    0.53    0.89
   8  -8  -8    1.98    0.96
   8  -7   7    1.55    0.97
   8  -7   7    2.80    1.10
   8  -7   6   -0.03    0.95
   8  -7   6   -0.40    1.03
   8  -7   5    0.41    0.97
   8  -7   5    2.70    1.03
   8  -7   5    1.46    0.82
   8  -7   4    0.38    0.77
   8  -7   4   -0.55    0.93
   8  -7   4    0.30    0.95
   8  -7   4   -0.06    0.81
  -8   7  -3    4.46    0.69
   8  -7   3    4.53    0.85
   8  -7   3    3.60    0.97
   8  -7   3    4.54    0.88
  -8   7  -2    2.67    0.62
   8  -7   2    2.80    0.81
   8  -7   2    3.28    0.91
   8  -7   2    2.76    0.86
  -8   7  -1    1.48    0.62
   8  -7   1    1.99    0.67
   8  -7   1    1.31    0.82
   8  -7   1    2.25    0.96
   8  -7   1    1.36    0.86
   8  -7   1    0.95    0.76
   8  -7   0    4.86    0.67
   8  -7   0    5.48    0.94
   8  -7   0    4.36    0.77
   8  -7   0    3.83    0.83
   8  -7   0    4.11    0.98
   8  -7   0    2.57    0.83
   8  -7  -1   -0.02    0.73
   8  -7  -1   -0.58    0.61
   8  -7  -1   -0.06    0.83
   8  -7  -1   -0.96    0.93
   8  -7  -1   -0.57    0.69
   8  -7  -2    5.05    0.65
   8  -7  -2    6.87    0.92
   8  -7  -2    4.23    0.97
   8  -7  -2    5.90    0.71
   8  -7  -2    5.82    0.78
   8  -7  -3   19.59    1.16
   8  -7  -3   18.16    0.86
   8  -7  -3   18.88    1.24
   8  -7  -4    4.29    0.87
   8  -7  -5   -0.44    0.75
   8  -7  -5    0.13    0.78
   8  -7  -6   -0.20    0.75
   8  -7  -6   -1.48    0.84
   8  -7  -7    0.34    0.75
   8  -7  -8   10.29    0.98
  -8   6  -7    1.54    0.86
   8  -6   7    0.81    0.93
   8  -6   7   -1.59    0.77
  -8   6  -6    1.97    0.82
   8  -6   6    2.82    0.86
   8  -6   6    1.85    0.96
   8  -6   6    2.54    0.84
  -8   6  -5    6.31    0.85
   8  -6   5    6.70    1.03
   8  -6   5    5.28    0.83
   8  -6   5    4.94    0.87
  -8   6  -4    0.85    0.71
   8  -6   4    0.46    0.95
   8  -6   4    0.43    0.82
   8  -6   4    1.32    0.77
  -8   6  -3   11.77    0.87
   8  -6   3    9.26    0.93
   8  -6   3   10.68    1.00
   8  -6   3   13.26    0.92
  -8   6  -2    9.51    0.83
   8  -6   2   10.72    0.86
   8  -6   2    8.36    0.88
   8  -6   2    8.90    1.07
   8  -6   2    7.39    0.94
   8  -6   1   15.91    0.98
  -8   6  -1   17.19    0.94
   8  -6   1   17.30    1.01
   8  -6   1   17.80    1.22
   8  -6   1   15.70    1.12
   8  -6   0    6.01    0.76
   8  -6   0    6.18    0.98
   8  -6   0    4.09    0.86
   8  -6   0    6.36    0.75
   8  -6  -1    0.37    0.66
   8  -6  -1    1.21    0.38
   8  -6  -1   -0.37    0.68
   8  -6  -1    0.75    0.74
   8  -6  -1    0.70    0.87
   8  -6  -1    0.09    0.78
   8  -6  -2    2.63    0.70
   8  -6  -2    4.06    0.70
   8  -6  -2    2.29    0.91
   8  -6  -3    4.08    0.69
   8  -6  -3    2.36    0.89
   8  -6  -3    3.78    0.63
   8  -6  -4    0.32    0.85
   8  -6  -4   -0.21    0.52
   8  -6  -5    3.00    0.71
   8  -6  -5    3.85    0.90
   8  -6  -6   -1.01    0.69
   8  -6  -6    0.44    0.68
   8  -6  -6    0.65    0.85
   8  -6  -7    3.15    0.73
   8  -6  -7    1.42    0.70
   8  -6  -7    3.27    0.89
   8  -6  -8   14.98    0.97
   8  -5   7   -0.40    0.85
   8  -5   7    0.47    0.98
   8  -5   7    1.40    0.80
  -8   5  -6   18.10    1.20
   8  -5   6   19.28    1.29
   8  -5   6   19.79    1.16
   8  -5   6   20.74    1.16
  -8   5  -5    1.80    0.83
   8  -5   5    1.28    0.78
   8  -5   5    1.86    0.92
   8  -5   5    0.50    0.79
  -8   5  -4    7.87    0.87
   8  -5   4    6.60    0.95
   8  -5   4    9.18    0.88
   8  -5   4    8.73    0.92
  -8   5  -3    8.91    0.89
   8  -5   3    9.40    1.00
   8  -5   3   10.82    0.84
   8  -5   3   11.27    0.98
  -8   5  -2    6.10    0.83
   8  -5   2    7.85    0.92
   8  -5   2    6.01    1.01
   8  -5   2    6.44    0.89
   8  -5   2    6.95    0.76
   8  -5   1   35.96    1.32
  -8   5  -1   33.92    1.37
   8  -5   1   35.61    1.44
   8  -5   1   34.48    1.57
   8  -5   1   31.79    1.49
  -8   5   0    0.34    0.70
   8  -5   0    0.93    0.77
   8  -5   0    0.79    0.55
   8  -5   0    0.23    0.65
   8  -5   0    1.50    0.93
   8  -5   0    0.06    0.80
   8  -5  -1    1.29    0.58
   8  -5  -1    0.30    0.89
   8  -5  -1    0.28    0.60
   8  -5  -1    0.03    0.78
   8  -5  -2    1.02    0.60
   8  -5  -2    0.43    0.57
   8  -5  -2    1.32    0.90
   8  -5  -3    1.59    0.59
   8  -5  -3    1.82    0.85
   8  -5  -4   -0.14    0.56
   8  -5  -4    0.50    0.47
   8  -5  -4    0.02    0.66
   8  -5  -4   -0.59    0.72
   8  -5  -4    0.17    0.56
   8  -5  -4    0.54    0.83
   8  -5  -4   -0.12    0.88
   8  -5  -5    6.07    0.77
   8  -5  -5    6.51    0.76
   8  -5  -5    7.50    0.93
   8  -5  -6   -1.45    0.75
   8  -5  -6    1.09    0.67
   8  -5  -6    0.39    0.80
   8  -5  -7    3.42    0.76
   8  -5  -7    2.66    0.74
   8  -5  -7    3.80    0.85
   8  -5  -8    0.90    0.77
   8  -5  -8    1.18    0.78
   8  -5  -9    6.08    0.88
   8  -5  -9    6.85    0.88
   8  -4   7    0.83    0.84
   8  -4   7    1.36    1.00
   8  -4   7    1.60    0.78
   8  -4   6    0.92    0.81
   8  -4   6    1.29    0.98
   8  -4   6    0.47    0.80
   8  -4   5    1.50    0.75
  -8   4  -5    0.45    0.87
   8  -4   5    0.36    0.96
   8  -4   5    1.51    0.82
  -8   4  -4    4.59    0.87
   8  -4   4    4.42    0.77
   8  -4   4    3.70    0.97
   8  -4   4    4.41    0.88
  -8   4  -3    2.86    0.81
   8  -4   3    3.89    0.93
   8  -4   3    2.34    0.69
   8  -4   3    4.51    0.99
   8  -4   3    1.86    0.83
  -8   4  -2    6.82    0.85
   8  -4   2    6.33    0.97
   8  -4   2    5.58    0.69
   8  -4   2    5.83    0.96
   8  -4   2    4.73    0.87
  -8   4  -1   -0.05    0.77
   8  -4   1    1.53    0.85
   8  -4   1   -0.80    0.72
   8  -4   1    2.32    0.92
   8  -4   1    0.69    0.59
   8  -4   1    0.73    0.81
  -8   4   0   27.81    1.27
   8  -4   0   32.54    1.33
   8  -4   0   24.95    1.11
   8  -4   0   31.42    1.45
   8  -4   0   27.23    1.36
   8  -4   0   26.92    1.09
   8  -4  -1   84.75    2.55
  -8   4   1   91.27    2.76
   8  -4  -1   85.83    2.58
   8  -4  -1   94.04    2.85
   8  -4  -1   85.75    2.80
   8  -4  -2    9.51    0.66
   8  -4  -2    9.40    1.02
   8  -4  -3   10.13    0.75
   8  -4  -3   11.53    1.00
   8  -4  -3    8.89    0.64
   8  -4  -4    4.06    0.57
   8  -4  -4    3.88    0.63
   8  -4  -4    6.36    0.86
   8  -4  -4    3.73    0.91
   8  -4  -4    4.24    0.56
   8  -4  -4    4.33    0.96
   8  -4  -5    5.53    0.84
   8  -4  -5    4.63    0.64
   8  -4  -5    4.72    0.87
   8  -4  -5    5.33    0.99
   8  -4  -6    2.13    0.79
   8  -4  -6    3.18    0.64
   8  -4  -6    3.38    0.85
   8  -4  -7   20.16    1.16
   8  -4  -7   23.89    1.19
   8  -4  -8   -2.04    0.86
   8  -4  -8    0.93    0.77
   8  -4  -9   17.94    1.14
   8  -4  -9   20.45    1.09
   8  -4 -10   -0.52    0.86
   8  -4 -11    1.16    0.86
   8  -3   7   17.46    1.31
   8  -3   7   14.16    1.03
   8  -3   6    5.68    1.08
   8  -3   6    5.27    0.87
   8  -3   5   22.16    1.36
   8  -3   5   20.44    1.19
   8  -3   5   21.15    1.09
   8  -3   4    0.91    0.66
  -8   3  -4    0.71    0.86
   8  -3   4    0.35    0.98
   8  -3   4    0.82    0.80
  -8   3  -3   14.80    1.06
   8  -3   3   13.42    1.15
   8  -3   3   14.11    1.16
   8  -3   3   13.35    0.83
   8  -3   3   13.20    1.05
   8  -3   2    4.98    0.62
  -8   3  -2    4.03    0.86
   8  -3   2    4.24    0.97
  -8   3  -2    4.10    0.89
   8  -3   2    4.33    0.96
   8  -3   2    3.72    0.86
   8  -3   1   15.13    1.11
  -8   3  -1   14.25    1.04
   8  -3   1   11.64    0.89
  -8   3  -1   12.96    1.04
   8  -3   1   14.86    1.12
   8  -3   1   12.10    1.02
   8  -3   1   12.91    0.73
  -8   3   0   17.14    1.07
   8  -3   0   13.43    0.93
   8  -3   0   14.92    1.14
   8  -3   0   13.44    1.06
   8  -3   0   13.60    0.72
  -8   3   1   19.40    1.12
   8  -3  -1   18.65    0.99
   8  -3  -1   20.63    1.18
   8  -3  -1   18.51    1.11
   8  -3  -1   15.61    0.75
   8  -3  -2   12.54    1.02
   8  -3  -2   12.39    0.87
   8  -3  -2    9.84    0.57
   8  -3  -3    0.17    0.35
   8  -3  -3    1.42    0.64
   8  -3  -3    1.56    0.45
   8  -3  -3    2.74    0.86
   8  -3  -3    2.38    0.85
   8  -3  -4    0.84    0.58
   8  -3  -4    0.13    0.34
   8  -3  -4    0.32    0.43
   8  -3  -4   -0.43    0.82
   8  -3  -4   -0.48    0.87
   8  -3  -5    4.75    0.57
   8  -3  -5    6.71    0.91
   8  -3  -5    4.82    0.49
   8  -3  -5    5.43    0.85
   8  -3  -5    4.54    0.99
   8  -3  -6   -0.28    0.83
   8  -3  -6    0.50    0.76
   8  -3  -7    6.79    0.95
   8  -3  -7   10.64    0.88
   8  -3  -8    7.54    0.99
   8  -3  -8    8.71    0.86
   8  -3  -9    2.24    0.89
   8  -3 -10   18.89    1.16
   8  -3 -11   18.08    1.15
   8  -2   6    4.69    1.11
   8  -2   5    7.25    1.15
   8  -2   4    0.59    1.02
   8  -2   4    2.11    1.02
  -8   2  -3    2.16    0.88
   8  -2   3    2.68    1.01
   8  -2   3    3.04    0.98
  -8   2  -2    1.02    0.87
   8  -2   2    2.58    0.99
   8  -2   2    0.98    0.80
  -8   2  -2    2.64    0.91
   8  -2   2    1.56    0.93
   8  -2   2    0.77    0.51
  -8   2  -1    1.52    0.83
   8  -2   1    2.45    0.94
   8  -2   1   -0.08    0.81
  -8   2  -1    1.12    0.87
   8  -2   1   -1.12    0.91
   8  -2   1    0.49    0.47
  -8   2   0    4.52    0.89
   8  -2   0    4.49    0.85
  -8   2   0    5.74    0.92
   8  -2   0    4.16    0.92
   8  -2   0    3.66    0.43
   8  -2  -1    7.58    0.89
  -8   2   1    9.51    0.98
   8  -2  -1    9.56    0.90
  -8   2   1    9.05    0.98
   8  -2  -1    8.75    0.97
   8  -2  -1    7.60    0.44
   8  -2  -2    1.09    0.74
  -8   2   2    1.09    0.89
  -8   2   2    2.31    0.80
   8  -2  -2    1.30    0.83
   8  -2  -3   30.05    1.46
   8  -2  -3   29.78    1.36
   8  -2  -3   28.18    1.24
   8  -2  -4    0.74    0.65
   8  -2  -4    0.63    0.88
   8  -2  -4   -0.74    0.76
   8  -2  -4    1.35    0.84
   8  -2  -5    2.81    0.62
   8  -2  -5    2.09    0.93
   8  -2  -6    7.09    0.99
   8  -2  -6    7.83    0.85
   8  -2  -7   -0.45    0.89
   8  -2  -7    1.08    0.70
   8  -2  -8   -1.41    0.96
   8  -2  -8   -0.47    0.65
   8  -2  -9    9.37    1.12
   8  -2 -10    3.36    0.99
   8  -1   6    0.46    1.07
   8  -1   5    2.09    1.08
   8  -1   5    0.47    1.00
   8  -1   4    2.43    1.08
   8  -1   4    3.81    1.06
   8  -1   3   28.68    1.53
   8  -1   3   28.92    1.52
   8  -1   2    0.46    0.99
   8  -1   2   -1.66    0.92
   8  -1   2    0.88    0.93
  -8   1  -1   13.21    1.09
   8  -1   1   16.47    1.17
   8  -1   1   12.85    1.06
  -8   1  -1   14.73    1.11
   8  -1   1   13.47    1.17
   8  -1   1   15.61    1.11
   8  -1   0    0.32    0.81
  -8   1   0    1.78    0.90
   8  -1   0    1.00    0.93
  -8   1   0    2.13    0.85
   8  -1   0    0.45    0.92
  -8   1   1   49.02    1.85
   8  -1  -1   45.93    1.78
  -8   1   1   49.22    1.85
   8  -1  -1   51.52    1.89
   8  -1  -1   45.61    1.77
   8  -1  -2   -0.63    0.80
  -8   1   2    0.63    0.88
   8  -1  -2    1.45    0.88
  -8   1   2    1.71    0.83
   8  -1  -2   -0.85    0.86
   8  -1  -3    5.77    0.81
   8  -1  -3    7.87    1.03
  -8   1   3    7.48    0.91
   8  -1  -3    6.38    0.91
   8  -1  -4   -0.10    0.70
   8  -1  -4    0.54    0.92
  -8   1   4    0.65    0.74
   8  -1  -4    0.84    0.79
   8  -1  -5    0.35    0.94
   8  -1  -5    1.59    0.76
   8  -1  -5    1.48    0.66
   8  -1  -6    4.34    1.02
   8  -1  -6    4.72    0.78
   8  -1  -7    4.09    1.00
   8  -1  -7    6.18    0.77
   8  -1  -8    8.36    1.08
   8  -1  -8    7.16    0.75
   8  -1  -9    1.17    1.03
   8  -1 -10    1.29    1.03
   8   0   6    3.02    0.98
   8   0   4    1.49    1.09
   8   0   4    0.26    1.00
   8   0   3    2.29    1.09
   8   0   3    1.63    0.98
   8   0   2    5.22    1.10
   8   0   2    4.26    0.97
   8   0   2    6.14    1.02
   8   0   1    0.19    1.00
   8   0   1   -0.55    0.96
   8   0   1    0.89    0.93
   8   0   0    5.64    0.93
   8   0   0    6.22    1.01
  -8   0   0    5.88    0.94
   8   0   0    4.32    0.98
   8   0  -1    5.62    0.91
   8   0  -1    7.45    1.01
  -8   0   1    7.22    0.94
   8   0  -1    4.78    0.95
   8   0  -2    0.05    0.81
   8   0  -2    1.64    0.88
  -8   0   2   -0.35    0.80
   8   0  -2    0.80    0.83
   8   0  -3   11.05    0.95
  -8   0   3   10.25    0.95
   8   0  -3   11.80    0.98
   8   0  -4    2.58    0.78
   8   0  -4    1.90    0.97
  -8   0   4    4.63    0.81
   8   0  -4    4.36    0.84
   8   0  -5    0.95    0.96
  -8   0   5   -0.10    0.70
   8   0  -5    0.45    0.74
   8   0  -5    0.11    0.69
   8   0  -6    2.11    1.01
   8   0  -6    0.93    0.73
   8   0  -7    9.36    1.14
   8   0  -7   10.00    0.84
   8   0  -8    3.72    1.03
   8   0  -9    2.34    1.05
   8   1   5    0.73    0.97
   8   1   4    2.75    1.01
   8   1   3    1.27    1.06
   8   1   2    3.17    1.09
   8   1   2    2.43    1.04
   8   1   1    8.61    1.14
   8   1   1    9.55    1.11
   8   1   0    1.58    0.93
   8   1  -1   10.09    1.05
   8   1  -2   11.43    1.03
  -8  -1   2   12.02    1.04
   8   1  -2   10.54    1.02
   8   1  -3    0.86    0.82
  -8  -1   3    1.42    0.81
   8   1  -3    1.82    0.82
   8   1  -4    0.17    1.01
  -8  -1   4    1.21    0.79
   8   1  -4    0.03    0.78
   8   1  -4    0.08    0.75
   8   1  -5    1.63    1.02
  -8  -1   5    0.18    0.73
   8   1  -5    0.21    0.73
   8   1  -5   -0.77    0.74
   8   1  -6    1.23    1.02
   8   1  -6    0.76    0.70
   8   1  -7    6.50    1.09
   8   1  -8   -0.48    1.02
   8   2   1   -0.37    0.98
   8   2   1   -0.35    0.98
   8   2   0    1.67    0.98
   8   2   0   -0.03    0.97
   8   2  -1    5.45    0.98
   8   2  -2    1.20    0.89
   8   2  -3   -0.28    0.87
   8   2  -4    3.23    1.02
  -8  -2   4    3.90    0.86
   8   2  -4    5.66    0.89
   8   2  -5    1.40    1.00
   8   2  -5    2.09    0.79
   8   2  -5    0.61    0.80
   9 -10   4   -1.05    1.05
   9 -10   3   -0.74    0.95
   9  -9   4    0.84    1.00
   9  -9   3    7.66    1.06
   9  -9   2    5.88    0.99
   9  -9   0    0.64    0.98
   9  -9  -1    8.62    1.10
   9  -9  -2    1.18    0.95
   9  -9  -3    0.23    0.94
   9  -9  -4   -0.03    0.88
   9  -9  -4    2.40    0.96
   9  -8   5    0.88    1.05
   9  -8   4    1.08    1.03
   9  -8   3    2.04    0.98
   9  -8   2    1.66    0.95
   9  -8   1    1.39    0.80
   9  -8   1    1.04    0.85
   9  -8   0    5.44    1.07
   9  -8   0    4.63    0.86
   9  -8  -1    1.65    0.99
   9  -8  -2    1.57    1.00
   9  -7   4    3.26    1.03
   9  -7   3    0.36    0.98
   9  -7   2    0.76    1.01
   9  -7   2   -0.76    0.92
   9  -7   1    0.97    1.01
   9  -7   1    1.32    0.89
   9  -7   0    1.24    1.00
   9  -7   0    1.24    0.85
   9  -7  -1    6.02    1.06
   9  -7  -1    6.57    0.85
   9  -7  -2    4.05    1.01
   9  -7  -3    6.75    1.05
   9  -7  -4    3.48    0.98
   9  -7  -5    3.49    0.99
   9  -7  -6    1.14    0.93
   9  -6   3    3.29    0.89
   9  -6   3    2.51    1.01
   9  -6   2    0.40    0.84
   9  -6   2    1.21    0.99
   9  -6   1    1.26    0.83
   9  -6   1    0.45    0.98
   9  -6   0    8.56    0.90
   9  -6   0    7.04    1.06
   9  -6  -1    2.79    0.81
   9  -6  -1    2.41    0.97
   9  -6  -2   13.28    0.93
   9  -6  -2   11.06    1.16
   9  -6  -3   -0.36    0.94
   9  -6  -4   -0.80    0.92
   9  -6  -5    1.85    0.92
   9  -6  -6   -0.79    0.92
   9  -6  -7   -0.90    0.84
   9  -6  -8    1.62    0.88
   9  -5   4   -0.36    0.97
  -9   5  -3    0.68    0.83
   9  -5   3   -0.27    0.93
   9  -5   3    0.85    0.99
  -9   5  -2   -0.16    0.79
   9  -5   2    1.12    0.91
   9  -5   2    0.87    0.98
  -9   5  -1    1.81    0.82
   9  -5   1    2.03    0.90
   9  -5   1    0.91    0.94
  -9   5   0    0.49    0.82
   9  -5   0    1.90    0.91
   9  -5   0   -0.77    0.96
   9  -5  -1    8.37    0.95
   9  -5  -1   10.04    1.11
   9  -5  -2    6.48    1.02
   9  -5  -3    2.61    0.93
   9  -5  -4    0.75    0.90
   9  -5  -5   12.41    0.97
   9  -5  -5    8.80    1.06
   9  -5  -6    0.07    0.77
   9  -5  -6    0.57    0.88
   9  -5  -7    1.86    0.91
   9  -4   5    7.95    1.10
   9  -4   4    0.34    0.98
   9  -4   3    1.20    0.95
   9  -4   3    1.57    1.00
   9  -4   2    0.28    0.98
   9  -4   2    1.72    0.98
  -9   4  -1    5.00    0.92
   9  -4   1    4.45    0.98
   9  -4   1    5.83    1.03
  -9   4   0    6.66    0.92
   9  -4   0    6.54    0.98
   9  -4   0    5.41    1.01
  -9   4   1   14.62    1.11
   9  -4  -1   12.46    1.14
   9  -4  -2    8.87    1.07
   9  -4  -3   14.52    1.13
   9  -4  -4    0.36    0.91
   9  -4  -5    7.29    0.97
   9  -4  -5    5.53    0.95
   9  -4  -6    3.05    0.92
   9  -4  -6    1.00    0.88
   9  -4  -7    6.36    0.94
   9  -4  -7    5.90    0.91
   9  -4  -8    3.33    0.88
   9  -3   4   15.71    1.33
   9  -3   3    0.41    1.05
   9  -3   3    1.18    1.04
   9  -3   2    2.22    1.05
   9  -3   2    1.82    1.00
   9  -3   1   11.35    1.12
   9  -3   1   10.57    1.13
   9  -3   0   23.48    1.34
   9  -3   0   22.03    1.35
   9  -3  -1    4.40    0.84
   9  -3  -1    3.66    0.97
   9  -3  -2   32.35    1.54
   9  -3  -2   33.41    1.39
   9  -3  -3   20.91    1.24
   9  -3  -4    0.69    0.86
   9  -3  -5    7.33    1.05
   9  -3  -5    7.21    0.94
   9  -3  -6    4.84    0.99
   9  -3  -6    4.48    0.86
   9  -3  -7    0.86    0.94
   9  -3  -7    0.74    0.79
   9  -3  -8    1.16    0.97
   9  -2   3    0.03    1.06
   9  -2   2    0.99    1.05
   9  -2   2    1.78    1.02
   9  -2   1    4.28    1.08
   9  -2   1    3.55    1.04
   9  -2   0    0.27    1.01
   9  -2   0    1.65    0.99
   9  -2  -1    5.47    0.89
   9  -2  -1    4.97    1.05
   9  -2  -2    4.10    0.86
   9  -2  -2    3.25    0.90
   9  -2  -2    3.69    0.97
   9  -2  -3    2.23    0.89
   9  -2  -3    1.32    0.93
   9  -2  -4    0.68    0.83
   9  -2  -5    1.27    1.03
   9  -2  -5    0.89    0.81
   9  -2  -6    0.12    0.98
   9  -2  -6   -0.51    0.79
   9  -2  -7    1.43    1.02
   9  -1   1    3.16    1.09
   9  -1   1    0.89    1.00
   9  -1   0    0.55    1.03
   9  -1   0    0.91    0.95
   9  -1  -1    1.27    0.89
   9  -1  -1    0.79    0.95
   9  -1  -2    2.58    0.93
   9  -1  -2    1.85    0.95
   9  -1  -3    0.60    0.87
   9  -1  -4    0.68    0.88
   9  -1  -5    1.83    1.05
   9  -1  -5    2.28    0.86
   9  -1  -6    6.28    1.10
   9  -1  -6    5.34    0.87
   9   0   0    6.10    1.08
   9   0  -1    2.26    0.96
   9   0  -2    2.26    0.94
   9   0  -3    1.53    0.92
   9   0  -4    0.60    0.86
   9   0  -5   11.08    1.00
   9   1  -2    1.58    0.96
   9   1  -3    2.34    0.93
   9   1  -4    1.17    0.88
  10  -5   2   -0.39    0.99
  10  -5   1    2.34    1.02
  10  -4   1   -0.13    0.99
  10  -4   0    1.76    1.02
  10  -4  -1    2.53    0.98
   0   0   0    0.00    0.00
TITL exp_415_BP-RR in P-1
REM P-1 (#2 in standard setting)
CELL 0.71073   7.067905   9.685631  12.151022 101.5603  93.3023 111.2702
ZERR    3.00   0.000249   0.000389   0.000459   0.0033   0.0030   0.0035
LATT  1
SFAC C H N O
UNIT 33.00 30.00 3.00 3.00
TREF
HKLF 4
END
_computing_structure_solution     'SHELXT 2014/5 (Sheldrick, 2014)'
;
_shelx_hkl_checksum              33250
_shelx_res_file
;
TITL exp_415_bp-rr_a.res in P-1
    shelx.res
    created by SHELXL-2018/3 at 01:30:10 on 25-Nov-2019
CELL  0.71073   7.0679   9.6856  12.1510  101.560   93.302  111.270
ZERR     2.00   0.0002   0.0004   0.0005    0.003    0.003    0.004
LATT   1
SFAC  C    H    N    O
UNIT  36 32 4 4
MERG   2
EQIV $1 -x+1, -y, -z+2
HTAB N1 O1_$1
HTAB C1 O1_$1
EQIV $2 -x+2, -y+1, -z+1
HTAB N2 O2_$2
FMAP   2   53   53
PLAN   20
SIZE     0.130   0.150   0.180
ACTA
HTAB    2.00000
BOND   $H
LIST   4
L.S.   4
WGHT    0.076700    0.136400
FVAR       0.94255
N1    3    0.694981    0.137600    0.870049    11.00000    0.03702    0.03599 =
         0.03399    0.01424    0.00902    0.01319
AFIX  43
H1    2    0.592279    0.131280    0.906260    11.00000   -1.20000
AFIX   0
N2    3    0.948519    0.529128    0.692204    11.00000    0.04027    0.03018 =
         0.02831    0.00657    0.00530    0.00645
AFIX  43
H2    2    0.897693    0.470214    0.625766    11.00000   -1.20000
AFIX   0
O2    4    1.189392    0.674247    0.530439    11.00000    0.06737    0.05326 =
         0.04447    0.01208    0.01803    0.00662
O1    4    0.633403   -0.104998    0.988265    11.00000    0.06022    0.06808 =
         0.08616    0.04998    0.02973    0.02766
C8    1    0.872802    0.504577    0.789422    11.00000    0.04275    0.03215 =
         0.02982    0.00904    0.00671    0.01337
C13   1    0.533485    0.303983    0.686207    11.00000    0.03343    0.03718 =
         0.03605    0.01542    0.01324    0.01223
C6    1    0.801094    0.042292    0.864530    11.00000    0.04283    0.03946 =
         0.04104    0.01475    0.00568    0.01720
C3    1    0.778087    0.243288    0.809251    11.00000    0.04037    0.03554 =
         0.03001    0.01263    0.00945    0.01349
C2    1    0.691955    0.361692    0.794321    11.00000    0.04188    0.03364 =
         0.03037    0.01289    0.01302    0.01568
C11   1    1.119748    0.663167    0.716040    11.00000    0.04200    0.03155 =
         0.03976    0.00897    0.00416    0.00692
C14   1    0.461116    0.404341    0.648148    11.00000    0.04513    0.04048 =
         0.05177    0.01677    0.00840    0.01757
AFIX  43
H14   2    0.512212    0.506479    0.686836    11.00000   -1.20000
AFIX   0
C18   1    0.453791    0.152548    0.626415    11.00000    0.04805    0.03790 =
         0.04845    0.01244    0.00656    0.01411
AFIX  43
H18   2    0.500715    0.083660    0.650140    11.00000   -1.20000
AFIX   0
C7    1    0.759217   -0.076478    0.923898    11.00000    0.04573    0.04454 =
         0.05891    0.02372    0.00904    0.02013
AFIX  43
H7    2    0.835458   -0.137403    0.912050    11.00000   -1.20000
AFIX   0
C12   1    1.231708    0.725539    0.631781    11.00000    0.04566    0.03445 =
         0.04935    0.01056    0.01045    0.00315
AFIX  43
H12   2    1.348509    0.814225    0.657358    11.00000   -1.20000
AFIX   0
C9    1    0.996106    0.624970    0.877977    11.00000    0.06163    0.04197 =
         0.03009    0.00568    0.00368    0.01325
AFIX  43
H9    2    0.978635    0.637712    0.954118    11.00000   -1.20000
AFIX   0
C5    1    0.954148    0.090020    0.798910    11.00000    0.05299    0.05834 =
         0.05599    0.02463    0.02017    0.03203
AFIX  43
H5    2    1.049116    0.046264    0.780729    11.00000   -1.20000
AFIX   0
C1    1    0.584607    0.400461    0.896729    11.00000    0.06362    0.05176 =
         0.04147    0.01908    0.02695    0.03060
AFIX 137
H1A   2    0.677390    0.429200    0.965753    11.00000   -1.50000
H1B   2    0.465129    0.312760    0.898067    11.00000   -1.50000
H1C   2    0.544689    0.483480    0.889915    11.00000   -1.50000
AFIX   0
C10   1    1.150814    0.723222    0.831948    11.00000    0.05600    0.03857 =
         0.04043    0.00355   -0.00154    0.00501
AFIX  43
H10   2    1.255985    0.812989    0.871959    11.00000   -1.20000
AFIX   0
C4    1    0.940688    0.216036    0.764686    11.00000    0.05221    0.05694 =
         0.05536    0.03035    0.02700    0.02763
AFIX  43
H4    2    1.025661    0.271584    0.720018    11.00000   -1.20000
AFIX   0
C15   1    0.313881    0.353943    0.553329    11.00000    0.04737    0.06199 =
         0.06254    0.02704    0.00639    0.02515
AFIX  43
H15   2    0.267142    0.422408    0.528760    11.00000   -1.20000
AFIX   0
C17   1    0.305264    0.101962    0.531807    11.00000    0.05210    0.04811 =
         0.05894    0.00361    0.00089    0.00997
AFIX  43
H17   2    0.252517   -0.000256    0.493242    11.00000   -1.20000
AFIX   0
C16   1    0.236080    0.202752    0.495068    11.00000    0.04330    0.07185 =
         0.05480    0.01427   -0.00164    0.01650
AFIX  43
H16   2    0.137392    0.169268    0.431307    11.00000   -1.20000
AFIX   0
HKLF 4
REM  exp_415_bp-rr_a.res in P-1
REM wR2 = 0.1422, GooF = S = 1.032, Restrained GooF = 1.032 for all data
REM R1 = 0.0498 for 3307 Fo > 4sig(Fo) and 0.0642 for all 4208 data
REM 200 parameters refined using 0 restraints
END
WGHT      0.0766      0.1365
REM Instructions for potential hydrogen bonds
HTAB N1 O1_$1
HTAB N2 O2_$2
REM Highest difference peak  0.318,  deepest hole -0.190,  1-sigma level  0.042
Q1    1   0.7683  0.4363  0.7864  11.00000  0.05    0.32
Q2    1   0.6086  0.3383  0.7422  11.00000  0.05    0.30
Q3    1   0.5228  0.2348  0.6398  11.00000  0.05    0.27
Q4    1   0.7695 -0.0225  0.8810  11.00000  0.05    0.27
Q5    1   0.7331  0.3030  0.8012  11.00000  0.05    0.27
Q6    1   0.8549  0.0467  0.8159  11.00000  0.05    0.27
Q7    1   0.8250  0.2066  0.7607  11.00000  0.05    0.26
Q8    1   1.0205  0.6140  0.6988  11.00000  0.05    0.25
Q9    1   0.7328  0.2049  0.8415  11.00000  0.05    0.25
Q10   1   1.1671  0.7041  0.6757  11.00000  0.05    0.25
Q11   1   0.6350  0.3810  0.8445  11.00000  0.05    0.24
Q12   1   1.1205  0.7139  0.7699  11.00000  0.05    0.24
Q13   1   0.9571  0.1587  0.7789  11.00000  0.05    0.24
Q14   1   0.9132  0.5727  0.8340  11.00000  0.05    0.24
Q15   1   0.5246  0.3533  0.6543  11.00000  0.05    0.23
Q16   1   1.0775  0.6765  0.8590  11.00000  0.05    0.23
Q17   1   0.7114  0.0590  0.8486  11.00000  0.05    0.23
Q18   1   0.3456  0.3649  0.6180  11.00000  0.05    0.22
Q19   1   0.3136  0.1644  0.5021  11.00000  0.05    0.22
Q20   1   0.4176  0.1418  0.5631  11.00000  0.05    0.21
;
_shelx_res_checksum              45798
loop_
_space_group_symop_operation_xyz
'x, y, z'
'-x, -y, -z'
loop_
_atom_site_type_symbol
_atom_site_label
_atom_site_fract_x
_atom_site_fract_y
_atom_site_fract_z
_atom_site_U_iso_or_equiv
_atom_site_adp_type
_atom_site_calc_flag
_atom_site_occupancy
N N1 0.69498(16) 0.13760(11) 0.87005(8) 0.0348(2) Uani d 1
H H1 0.592279 0.131280 0.906260 0.042 Uiso calc 1
N N2 0.94852(16) 0.52913(11) 0.69220(8) 0.0350(2) Uani d 1
H H2 0.897693 0.470214 0.625766 0.042 Uiso calc 1
O O2 1.18939(19) 0.67425(13) 0.53044(9) 0.0593(3) Uani d 1
O O1 0.63340(19) -0.10500(15) 0.98826(12) 0.0649(3) Uani d 1
C C8 0.87280(19) 0.50458(13) 0.78942(10) 0.0349(3) Uani d 1
C C13 0.53349(18) 0.30398(14) 0.68621(10) 0.0346(3) Uani d 1
C C6 0.8011(2) 0.04229(15) 0.86453(11) 0.0399(3) Uani d 1
C C3 0.77809(19) 0.24329(14) 0.80925(10) 0.0347(3) Uani d 1
C C2 0.69195(19) 0.36169(13) 0.79432(10) 0.0338(2) Uani d 1
C C11 1.1197(2) 0.66317(14) 0.71604(11) 0.0398(3) Uani d 1
C C14 0.4611(2) 0.40434(16) 0.64815(12) 0.0445(3) Uani d 1
H H14 0.512212 0.506479 0.686836 0.053 Uiso calc 1
C C18 0.4538(2) 0.15255(16) 0.62642(12) 0.0452(3) Uani d 1
H H18 0.500715 0.083660 0.650140 0.054 Uiso calc 1
C C7 0.7592(2) -0.07648(17) 0.92390(13) 0.0471(3) Uani d 1
H H7 0.835458 -0.137403 0.912050 0.057 Uiso calc 1
C C12 1.2317(2) 0.72554(15) 0.63178(13) 0.0464(3) Uani d 1
H H12 1.348509 0.814225 0.657358 0.056 Uiso calc 1
C C9 0.9961(2) 0.62497(16) 0.87798(11) 0.0470(3) Uani d 1
H H9 0.978635 0.637712 0.954118 0.056 Uiso calc 1
C C5 0.9541(2) 0.09002(19) 0.79891(13) 0.0505(3) Uani d 1
H H5 1.049116 0.046264 0.780729 0.061 Uiso calc 1
C C1 0.5846(3) 0.40046(18) 0.89673(12) 0.0478(3) Uani d 1
H H1A 0.677390 0.429200 0.965753 0.072 Uiso calc 1
H H1B 0.465129 0.312760 0.898067 0.072 Uiso calc 1
H H1C 0.544689 0.483480 0.889915 0.072 Uiso calc 1
C C10 1.1508(2) 0.72322(16) 0.83195(12) 0.0500(3) Uani d 1
H H10 1.255985 0.812989 0.871959 0.060 Uiso calc 1
C C4 0.9407(2) 0.21604(18) 0.76469(13) 0.0495(3) Uani d 1
H H4 1.025661 0.271584 0.720018 0.059 Uiso calc 1
C C15 0.3139(2) 0.3539(2) 0.55333(14) 0.0543(4) Uani d 1
H H15 0.267142 0.422408 0.528760 0.065 Uiso calc 1
C C17 0.3053(2) 0.10196(19) 0.53181(15) 0.0574(4) Uani d 1
H H17 0.252517 -0.000256 0.493242 0.069 Uiso calc 1
C C16 0.2361(2) 0.2028(2) 0.49507(15) 0.0587(4) Uani d 1
H H16 0.137392 0.169268 0.431307 0.070 Uiso calc 1
loop_
_atom_site_aniso_label
_atom_site_aniso_U_11
_atom_site_aniso_U_22
_atom_site_aniso_U_33
_atom_site_aniso_U_12
_atom_site_aniso_U_13
_atom_site_aniso_U_23
N1 0.0370(5) 0.0360(5) 0.0340(5) 0.0132(4) 0.0090(4) 0.0142(4)
N2 0.0403(5) 0.0302(5) 0.0283(5) 0.0065(4) 0.0053(4) 0.0066(4)
O2 0.0674(7) 0.0533(6) 0.0445(6) 0.0066(5) 0.0180(5) 0.0121(5)
O1 0.0602(7) 0.0681(7) 0.0862(9) 0.0277(6) 0.0297(6) 0.0500(7)
C8 0.0428(6) 0.0322(5) 0.0298(5) 0.0134(5) 0.0067(4) 0.0090(4)
C13 0.0334(5) 0.0372(6) 0.0361(6) 0.0122(5) 0.0132(4) 0.0154(5)
C6 0.0428(6) 0.0395(6) 0.0410(6) 0.0172(5) 0.0057(5) 0.0147(5)
C3 0.0404(6) 0.0355(6) 0.0300(5) 0.0135(5) 0.0095(4) 0.0126(4)
C2 0.0419(6) 0.0336(5) 0.0304(5) 0.0157(5) 0.0130(4) 0.0129(4)
C11 0.0420(6) 0.0316(6) 0.0398(6) 0.0069(5) 0.0042(5) 0.0090(5)
C14 0.0451(7) 0.0405(7) 0.0518(8) 0.0176(6) 0.0084(6) 0.0168(6)
C18 0.0481(7) 0.0379(6) 0.0485(7) 0.0141(6) 0.0066(6) 0.0124(5)
C7 0.0457(7) 0.0445(7) 0.0589(8) 0.0201(6) 0.0090(6) 0.0237(6)
C12 0.0457(7) 0.0344(6) 0.0493(8) 0.0031(5) 0.0105(6) 0.0106(5)
C9 0.0616(8) 0.0420(7) 0.0301(6) 0.0133(6) 0.0037(6) 0.0057(5)
C5 0.0530(8) 0.0583(9) 0.0560(8) 0.0320(7) 0.0202(6) 0.0246(7)
C1 0.0636(9) 0.0518(8) 0.0415(7) 0.0306(7) 0.0270(6) 0.0191(6)
C10 0.0560(8) 0.0386(7) 0.0404(7) 0.0050(6) -0.0015(6) 0.0036(5)
C4 0.0522(8) 0.0569(8) 0.0554(8) 0.0276(7) 0.0270(6) 0.0303(7)
C15 0.0474(8) 0.0620(9) 0.0625(9) 0.0251(7) 0.0064(7) 0.0270(8)
C17 0.0521(8) 0.0481(8) 0.0589(9) 0.0100(7) 0.0009(7) 0.0036(7)
C16 0.0433(8) 0.0718(11) 0.0548(9) 0.0165(7) -0.0016(6) 0.0143(8)
loop_
_atom_type_symbol
_atom_type_description
_atom_type_scat_dispersion_real
_atom_type_scat_dispersion_imag
_atom_type_scat_source
C C 0.0033 0.0016 'International Tables Vol C Tables 4.2.6.8 and 6.1.1.4'
H H 0.0000 0.0000 'International Tables Vol C Tables 4.2.6.8 and 6.1.1.4'
N N 0.0061 0.0033 'International Tables Vol C Tables 4.2.6.8 and 6.1.1.4'
O O 0.0106 0.0060 'International Tables Vol C Tables 4.2.6.8 and 6.1.1.4'
loop_
_geom_angle_atom_site_label_1
_geom_angle_atom_site_label_2
_geom_angle_atom_site_label_3
_geom_angle
C3 N1 C6 109.44(10)
C3 N1 H1 125.3
C6 N1 H1 125.3
C8 N2 C11 109.55(10)
C8 N2 H2 125.2
C11 N2 H2 125.2
N2 C8 C9 107.91(11)
N2 C8 C2 123.11(10)
C9 C8 C2 128.86(11)
C18 C13 C14 118.02(12)
C18 C13 C2 122.18(11)
C14 C13 C2 119.76(11)
N1 C6 C5 107.49(11)
N1 C6 C7 123.62(12)
C5 C6 C7 128.80(13)
N1 C3 C4 107.70(11)
N1 C3 C2 122.84(10)
C4 C3 C2 129.42(11)
C3 C2 C8 106.88(10)
C3 C2 C13 111.23(10)
C8 C2 C13 111.41(9)
C3 C2 C1 110.70(9)
C8 C2 C1 108.65(10)
C13 C2 C1 107.96(11)
N2 C11 C10 107.32(11)
N2 C11 C12 123.89(12)
C10 C11 C12 128.73(13)
C15 C14 C13 120.75(14)
C15 C14 H14 119.6
C13 C14 H14 119.6
C13 C18 C17 121.17(14)
C13 C18 H18 119.4
C17 C18 H18 119.4
O1 C7 C6 125.90(14)
O1 C7 H7 117.0
C6 C7 H7 117.0
O2 C12 C11 126.24(13)
O2 C12 H12 116.9
C11 C12 H12 116.9
C8 C9 C10 107.53(12)
C8 C9 H9 126.2
C10 C9 H9 126.2
C6 C5 C4 107.65(12)
C6 C5 H5 126.2
C4 C5 H5 126.2
C2 C1 H1A 109.5
C2 C1 H1B 109.5
H1A C1 H1B 109.5
C2 C1 H1C 109.5
H1A C1 H1C 109.5
H1B C1 H1C 109.5
C11 C10 C9 107.68(12)
C11 C10 H10 126.2
C9 C10 H10 126.2
C3 C4 C5 107.72(12)
C3 C4 H4 126.1
C5 C4 H4 126.1
C16 C15 C14 120.39(15)
C16 C15 H15 119.8
C14 C15 H15 119.8
C16 C17 C18 120.05(15)
C16 C17 H17 120.0
C18 C17 H17 120.0
C17 C16 C15 119.60(15)
C17 C16 H16 120.2
C15 C16 H16 120.2
loop_
_geom_bond_atom_site_label_1
_geom_bond_atom_site_label_2
_geom_bond_distance
N1 C3 1.3622(14)
N1 C6 1.3793(16)
N1 H1 0.8600
N2 C8 1.3533(15)
N2 C11 1.3795(16)
N2 H2 0.8600
O2 C12 1.2071(18)
O1 C7 1.2113(18)
C8 C9 1.3888(18)
C8 C2 1.5202(16)
C13 C18 1.3867(19)
C13 C14 1.3907(18)
C13 C2 1.5410(17)
C6 C5 1.3798(19)
C6 C7 1.4288(18)
C3 C4 1.3850(18)
C3 C2 1.5152(17)
C2 C1 1.5470(16)
C11 C10 1.3833(19)
C11 C12 1.4261(18)
C14 C15 1.384(2)
C14 H14 0.9300
C18 C17 1.388(2)
C18 H18 0.9300
C7 H7 0.9300
C12 H12 0.9300
C9 C10 1.394(2)
C9 H9 0.9300
C5 C4 1.398(2)
C5 H5 0.9300
C1 H1A 0.9600
C1 H1B 0.9600
C1 H1C 0.9600
C10 H10 0.9300
C4 H4 0.9300
C15 C16 1.380(3)
C15 H15 0.9300
C17 C16 1.374(3)
C17 H17 0.9300
C16 H16 0.9300
loop_
_geom_hbond_atom_site_label_D
_geom_hbond_atom_site_label_H
_geom_hbond_atom_site_label_A
_geom_hbond_site_symmetry_A
_geom_hbond_distance_DH
_geom_hbond_distance_HA
_geom_hbond_distance_DA
_geom_hbond_angle_DHA
_geom_hbond_publ_flag
N1 H1 O1 2_657 0.86 2.08 2.9321(16) 171 yes
N2 H2 O2 2_766 0.86 2.03 2.8838(15) 173 yes
C1 H1B O1 2_657 0.96 2.58 3.3419(18) 137 yes

_cod_database_fobs_code 1556639
