#------------------------------------------------------------------------------
#$Date: 2019-12-13 10:13:05 +0200 (Fri, 13 Dec 2019) $
#$Revision: 245046 $
#$URL: file:///home/coder/svn-repositories/cod/cif/1/55/65/1556545.cif $
#------------------------------------------------------------------------------
#
# This file is available in the Crystallography Open Database (COD),
# http://www.crystallography.net/
#
# All data on this site have been placed in the public domain by the
# contributors.
#
data_1556545
loop_
_publ_author_name
'Kahr, J.'
'Belaj, F.'
'Pietschnig, R.'
_publ_section_title
;
 Preparation and Molecular Structure of a Cyclopentyl-Substituted Cage
 Hexasilsesquioxane T6 (T = cyclopentyl-SiO1.5) Starting from the
 Corresponding Silanetriol
;
_journal_name_full               Inorganics
_journal_page_first              66
_journal_paper_doi               10.3390/inorganics5040066
_journal_volume                  5
_journal_year                    2017
_chemical_compound_source        'synthetical product'
_chemical_formula_moiety         'C10 H22 O5 Si2'
_chemical_formula_sum            'C10 H22 O5 Si2'
_chemical_formula_weight         278.45
_chemical_name_common
' 1,3-di-cyclopentyl-1,1,3,3-tetrahydroxysiloxane'
_chemical_name_systematic
' 1,3-di-cyclopentyl-1,1,3,3-tetrahydroxysiloxane'
_space_group_crystal_system      monoclinic
_space_group_IT_number           14
_space_group_name_Hall           '-P 2ybc'
_space_group_name_H-M_alt        'P 1 21/c 1'
_atom_sites_solution_hydrogens   mixed
_atom_sites_solution_primary     direct
_atom_sites_solution_secondary   difmap
_cell_angle_alpha                90
_cell_angle_beta                 115.830(4)
_cell_angle_gamma                90
_cell_formula_units_Z            2
_cell_length_a                   11.5359(16)
_cell_length_b                   6.7079(9)
_cell_length_c                   10.1493(13)
_cell_measurement_reflns_used    3194
_cell_measurement_temperature    100(2)
_cell_measurement_theta_max      25.77
_cell_measurement_theta_min      3.62
_cell_volume                     706.90(17)
_computing_cell_refinement       'Bruker SAINT'
_computing_data_collection       'Bruker APEX2'
_computing_data_reduction        'Bruker SAINT'
_computing_molecular_graphics    'modified ORTEP (Johnson, 1965)'
_computing_publication_material  'SHELXL-2014/6 (Sheldrick, 2015)'
_computing_structure_refinement  'SHELXL-2014/6 (Sheldrick, 2015)'
_computing_structure_solution    'SHELXS-97 (Sheldrick, 2008)'
_diffrn_ambient_temperature      100(2)
_diffrn_measured_fraction_theta_full 0.992
_diffrn_measured_fraction_theta_max 0.992
_diffrn_measurement_device_type  'Bruker APEX-II CCD'
_diffrn_measurement_method       '\f and \w scans'
_diffrn_radiation_monochromator  graphite
_diffrn_radiation_source         'fine-focus sealed tube'
_diffrn_radiation_type           MoK\a
_diffrn_radiation_wavelength     0.71073
_diffrn_reflns_av_R_equivalents  0.0235
_diffrn_reflns_av_unetI/netI     0.0215
_diffrn_reflns_Laue_measured_fraction_full 0.992
_diffrn_reflns_Laue_measured_fraction_max 0.992
_diffrn_reflns_limit_h_max       13
_diffrn_reflns_limit_h_min       -13
_diffrn_reflns_limit_k_max       7
_diffrn_reflns_limit_k_min       -8
_diffrn_reflns_limit_l_max       12
_diffrn_reflns_limit_l_min       -12
_diffrn_reflns_number            5362
_diffrn_reflns_point_group_measured_fraction_full 0.992
_diffrn_reflns_point_group_measured_fraction_max 0.992
_diffrn_reflns_theta_full        25.50
_diffrn_reflns_theta_max         25.50
_diffrn_reflns_theta_min         3.62
_exptl_absorpt_coefficient_mu    0.258
_exptl_absorpt_correction_T_max  1.000
_exptl_absorpt_correction_T_min  0.821
_exptl_absorpt_correction_type   multi-scan
_exptl_absorpt_process_details   'Bruker SADABS'
_exptl_crystal_colour            colourless
_exptl_crystal_density_diffrn    1.308
_exptl_crystal_description       plate
_exptl_crystal_F_000             300
_exptl_crystal_size_max          0.200
_exptl_crystal_size_mid          0.140
_exptl_crystal_size_min          0.060
_refine_diff_density_max         0.235
_refine_diff_density_min         -0.247
_refine_diff_density_rms         0.047
_refine_ls_extinction_method     none
_refine_ls_goodness_of_fit_ref   1.095
_refine_ls_hydrogen_treatment    refU
_refine_ls_matrix_type           full
_refine_ls_number_parameters     125
_refine_ls_number_reflns         1303
_refine_ls_number_restraints     28
_refine_ls_restrained_S_all      1.091
_refine_ls_R_factor_all          0.0413
_refine_ls_R_factor_gt           0.0326
_refine_ls_shift/su_max          0.001
_refine_ls_shift/su_mean         0.000
_refine_ls_structure_factor_coef Fsqd
_refine_ls_weighting_details
'w=1/[\s^2^(Fo^2^)+(0.0314P)^2^+0.6472P] where P=(Fo^2^+2Fc^2^)/3'
_refine_ls_weighting_scheme      calc
_refine_ls_wR_factor_gt          0.0829
_refine_ls_wR_factor_ref         0.0873
_reflns_Friedel_coverage         0.000
_reflns_number_gt                1107
_reflns_number_total             1303
_reflns_threshold_expression     'I > 2\s(I)'
_cod_data_source_file            Inorganics-2017-5-66.cif
_cod_data_source_block           JK22_3
_cod_original_sg_symbol_H-M      'P 21/c'
_cod_database_code               1556545
_shelx_space_group_comment
;
The symmetry employed for this shelxl refinement is uniquely defined
by the following loop, which should always be used as a source of
symmetry information in preference to the above space-group names.
They are only intended as comments.
;
_shelx_estimated_absorpt_t_min   0.950
_shelx_estimated_absorpt_t_max   0.985
_shelxl_version_number           2014/6
_shelx_res_file
;
TITL JK22_3_0ma in P2(1)/c  J.Kahr [Cyclopentyl-Si(OH)2-O]2 colorless 100K
CELL 0.71073  11.5359   6.7079  10.1493  90.000 115.830  90.000
ZERR     2     0.0016   0.0009   0.0013   0.000   0.004   0.000
LATT  1
SYMM -X, 0.5+Y, 0.5-Z
EQIV $1 X, 1.5-Y, 0.5+Z
EQIV $2 1-X, 2-Y, 1-Z
SFAC C H O SI
UNIT 20 44 10 4
SIZE 0.20 0.14 0.06
TEMP -173.140
ACTA 51.005
MERG 2
OMIT -2 51.005
OMIT -4 0 4
OMIT -1 3 2
OMIT  1 2 2
OMIT -4 1 8
L.S. 4
BOND $H
CONF
HTAB O2 O3_$1
HTAB O3 O2_$2
FMAP 2
PLAN 20
DFIX 0.84 0.0001 O2 H2 O3 H3
WGHT    0.031400    0.647200
FVAR       0.28868   0.05714   0.06145   0.09863
SI1   4    0.405471    0.689780    0.452520    11.00000    0.02878    0.01478 =
         0.01674   -0.00007    0.01437   -0.00023
O1    3    0.500000    0.500000    0.500000    10.50000    0.03796    0.02487 =
         0.03761    0.00417    0.01831    0.00919
O2    3    0.435681    0.830250    0.594515    11.00000    0.05229    0.02161 =
         0.02110   -0.00354    0.02357   -0.00606
H2    2    0.440427    0.780612    0.672695    11.00000   41.00000
O3    3    0.434958    0.825498    0.337445    11.00000    0.05066    0.02251 =
         0.02341   -0.00225    0.02468   -0.00811
H3    2    0.477753    0.931765    0.359080    11.00000   41.00000
SAME .006 .02 C1 C51 < C21
SAME .006 .02 C1 C22 > C52
C1    1    0.238191    0.599557    0.369300    11.00000    0.02925    0.03545 =
         0.02485    0.00024    0.01379   -0.00031
AFIX  13
H1    2    0.180002    0.716790    0.327814    11.00000    0.05403
AFIX   0
PART 1 10.5
C21   1    0.214971    0.451216    0.242196    10.50000    0.03475    0.05492 =
         0.01678   -0.00217    0.01069   -0.00901
AFIX  23
H211  2    0.163838    0.515889    0.146509    10.50000   21.00000
H212  2    0.298182    0.407499    0.245551    10.50000   21.00000
AFIX   0
C31   1    0.143166    0.275934    0.261927    10.50000    0.09057    0.03475 =
         0.06749   -0.01020    0.05359   -0.01114
AFIX  23
H311  2    0.200271    0.157956    0.294861    10.50000   31.00000
H312  2    0.068548    0.242963    0.168297    10.50000   31.00000
AFIX   0
C41   1    0.097994    0.333605    0.376017    10.50000    0.03993    0.04341 =
         0.03394   -0.00466    0.02300   -0.01232
AFIX  23
H411  2    0.010386    0.391587    0.329025    10.50000   31.00000
H412  2    0.096443    0.215729    0.433923    10.50000   31.00000
AFIX   0
C51   1    0.193112    0.484801    0.472047    10.50000    0.02642    0.04934 =
         0.03135   -0.00471    0.02132   -0.00182
AFIX  23
H511  2    0.266897    0.418496    0.552132    10.50000   21.00000
H512  2    0.152011    0.576784    0.515338    10.50000   21.00000
AFIX   0
PART 2 10.5
C22   1    0.195601    0.482741    0.222854    10.50000    0.02905    0.04730 =
         0.01843   -0.00070    0.00857   -0.00690
AFIX  23
H221  2    0.156829    0.573659    0.137846    10.50000   21.00000
H222  2    0.269752    0.413367    0.218861    10.50000   21.00000
AFIX   0
C32   1    0.097838    0.335532    0.224144    10.50000    0.03807    0.03201 =
         0.02717   -0.00366    0.01546   -0.00918
AFIX  23
H321  2    0.094223    0.217183    0.164192    10.50000   31.00000
H322  2    0.011226    0.396993    0.184851    10.50000   31.00000
AFIX   0
C42   1    0.142633    0.277627    0.382970    10.50000    0.09216    0.04348 =
         0.04428    0.00145    0.03488   -0.01444
AFIX  23
H421  2    0.067866    0.244868    0.402470    10.50000   31.00000
H422  2    0.199669    0.159555    0.406727    10.50000   31.00000
AFIX   0
C52   1    0.214275    0.452610    0.473554    10.50000    0.03126    0.04809 =
         0.02869   -0.00398    0.02294   -0.00826
AFIX  23
H521  2    0.297230    0.408903    0.553078    10.50000   21.00000
H522  2    0.162872    0.518078    0.517933    10.50000   21.00000
AFIX   0
HKLF 4
 
REM  JK22_3_0ma in P2(1)/c  J.Kahr [Cyclopentyl-Si(OH)2-O]2 colorless 100K
REM R1 =  0.0326 for    1107 Fo > 4sig(Fo)  and  0.0413 for all    1303 data
REM    125 parameters refined using     28 restraints
 
END
 
WGHT      0.0314      0.6473
 
REM Highest difference peak  0.235,  deepest hole -0.247,  1-sigma level  0.047
Q1    1   0.3066  0.6504  0.3979  11.00000  0.05    0.23
Q2    1   0.4802  0.9476  0.6148  11.00000  0.05    0.21
Q3    1   0.2269  0.5534  0.2966  11.00000  0.05    0.21
Q4    1   0.2203  0.5469  0.4286  11.00000  0.05    0.19
Q5    1   0.4814  0.5881  0.4992  11.00000  0.05    0.19
Q6    1   0.4305  0.7941  0.2695  11.00000  0.05    0.18
Q7    1   0.4203  0.8193  0.3993  11.00000  0.05    0.17
Q8    1   0.2602  0.1879  0.3878  11.00000  0.05    0.17
Q9    1   0.5609  0.5216  0.5358  11.00000  0.05    0.16
Q10   1   0.1248  0.1551  0.4135  11.00000  0.05    0.15
Q11   1   0.2233  0.4906  0.1575  11.00000  0.05    0.14
Q12   1   0.3153  0.2938  0.4668  11.00000  0.05    0.13
Q13   1   0.4929  0.5429  0.4417  11.00000  0.05    0.13
Q14   1   0.3602  0.7891  0.5386  11.00000  0.05    0.12
Q15   1   0.4501  0.7157  0.3628  11.00000  0.05    0.12
Q16   1   0.2793  0.3248  0.2861  11.00000  0.05    0.12
Q17   1   0.3408  0.9616  0.3381  11.00000  0.05    0.12
Q18   1   0.4157  0.7610  0.5387  11.00000  0.05    0.12
Q19   1   0.4141  0.9551  0.6855  11.00000  0.05    0.11
Q20   1   0.4788  0.7474  0.6048  11.00000  0.05    0.11
;
_shelx_res_checksum              23977
_shelx_hkl_file
;
   0   0   1   -0.02    0.06
   0   0  -1   -0.01    0.06
   0   0  -2   54.54    1.45
   0   0   2   54.10    1.45
   0   0  -3    0.07    0.15
   0   0  -3    0.03    0.13
   0   0   3   -0.03    0.13
   0   0   3    0.03    0.12
   0   0  -4    0.96    0.18
   0   0   4    1.12    0.14
   0   0   4    0.89    0.17
   0   0  -4    0.84    0.17
   0   0  -5   -0.04    0.18
   0   0   5   -0.23    0.17
   0   0  -5   -0.06    0.18
   0   0   5   -0.25    0.13
   0   0  -6    1.47    0.26
   0   0   6    2.12    0.28
   0   0   6    1.84    0.21
   0   0  -6    1.83    0.25
   0   0   7   -0.36    0.20
   0   0   7   -0.16    0.30
   0   0  -7   -0.15    0.25
   0   0   8    1.68    0.39
   0   0  -8    1.06    0.34
   0   0   8    1.09    0.27
   0   0   9    0.31    0.39
   0   0   9   -0.33    0.28
   0   0  -9   -0.57    0.34
   0   0  10   19.57    0.89
   0   0  10   21.79    0.77
   0   0 -10   19.36    0.79
   0   0 -11   -0.38    0.43
   0  -1   0    0.06    0.06
   0  -1   0    0.00    0.06
   0   1  -1  185.06    4.86
   0  -1   1  181.76    4.54
   0  -1  -1  183.99    4.69
   0   1  -2   22.84    0.64
   0   1  -2   24.11    0.69
   0  -1   2   23.83    0.64
   0  -1   2   21.55    0.67
   0  -1  -2   23.73    0.65
   0   1   3  170.37    4.24
   0   1   3  174.65    4.50
   0   1  -3  172.23    4.61
   0   1  -3  182.34    4.35
   0  -1  -3  174.64    4.49
   0  -1   3  178.85    4.34
   0  -1   3  176.79    4.62
   0  -1  -3  171.34    4.27
   0   1  -4    1.98    0.21
   0   1   4    1.85    0.17
   0   1   4    1.97    0.20
   0   1  -4    1.79    0.21
   0  -1  -4    1.85    0.16
   0  -1   4    1.99    0.18
   0  -1   4    1.41    0.19
   0  -1  -4    1.71    0.20
   0   1   5    3.02    0.32
   0   1  -5    3.33    0.32
   0   1  -5    2.90    0.30
   0  -1  -5    2.76    0.32
   0  -1   5    3.11    0.28
   0  -1   5    2.77    0.32
   0  -1  -5    2.83    0.25
   0   1   6   71.56    1.85
   0   1   6   69.29    2.02
   0   1  -6   73.54    1.91
   0   1  -6   79.15    2.05
   0   1   6   74.59    1.91
   0  -1   6   73.52    2.04
   0  -1  -6   76.43    2.03
   0  -1   6   71.25    1.88
   0  -1  -6   69.82    1.86
   0   1   7   10.68    0.42
   0   1   7    9.59    0.41
   0   1   7    9.37    0.55
   0   1  -7    9.32    0.50
   0  -1   7   10.07    0.57
   0  -1  -7    9.47    0.45
   0   1  -8   54.62    1.55
   0   1   8   55.72    1.68
   0   1   8   59.28    1.53
   0  -1  -8   54.88    1.52
   0  -1   8   54.85    1.67
   0  -1   8   54.98    1.57
   0   1   9    2.00    0.46
   0   1  -9    2.07    0.43
   0  -1   9    2.27    0.47
   0  -1  -9    1.79    0.36
   0  -1   9    2.01    0.35
   0   1 -10   -0.06    0.41
   0  -1  10    0.34    0.34
   0  -1 -10   -0.02    0.35
   0  -1  10    0.43    0.45
   0   1 -11    3.78    0.53
   0  -1  11    3.67    0.45
   0   2   0  101.90    2.59
   0  -2   0  106.42    2.58
   0  -2   0  107.03    2.63
   0   2  -1    6.23    0.27
   0   2  -1    5.57    0.26
   0  -2   1    5.81    0.26
   0  -2  -1    5.83    0.21
   0  -2   1    5.13    0.26
   0  -2  -1    6.24    0.20
   0   2   2    0.05    0.09
   0   2  -2    0.06    0.14
   0   2  -2   -0.03    0.15
   0  -2   2    0.04    0.13
   0  -2   2   -0.07    0.13
   0   2   3  198.09    4.86
   0   2  -3  198.45    5.25
   0   2  -3  204.37    4.95
   0  -2  -3  199.27    5.10
   0  -2   3  204.81    4.94
   0  -2   3  196.77    5.26
   0   2   4   55.18    1.38
   0   2  -4   53.49    1.51
   0   2  -4   53.99    1.43
   0  -2   4   53.48    1.52
   0  -2   4   54.35    1.42
   0  -2  -4   53.57    1.47
   0   2  -5   32.31    0.96
   0   2  -5   34.03    1.03
   0  -2   5   32.01    1.02
   0  -2   5   33.26    0.95
   0  -2  -5   34.05    1.00
   0   2  -6    9.83    0.53
   0   2  -6    8.65    0.49
   0  -2  -6    8.32    0.36
   0  -2  -6    9.62    0.50
   0  -2   6    8.19    0.49
   0   2  -7    0.41    0.34
   0  -2   7    1.10    0.34
   0  -2  -7    1.25    0.24
   0   2  -8   19.01    0.76
   0  -2   8   18.63    0.80
   0  -2  -8   19.01    0.65
   0  -2   8   18.90    0.73
   0   2  -9   -0.34    0.39
   0  -2  -9    0.68    0.30
   0  -2   9   -0.24    0.32
   0  -2   9   -0.03    0.41
   0   2  10    6.92    0.54
   0   2 -10    7.67    0.59
   0  -2  10    6.59    0.62
   0  -2  10    6.75    0.54
   0  -3   0   -0.02    0.11
   0  -3   0    0.05    0.11
   0  -3   0   -0.03    0.09
   0   3  -1    2.45    0.24
   0   3   1    2.81    0.16
   0  -3  -1    3.00    0.18
   0  -3  -1    2.72    0.18
   0  -3   1    2.73    0.19
   0  -3   1    2.71    0.21
   0  -3  -1    2.67    0.15
   0  -3   1    2.90    0.22
   0   3  -2    2.66    0.27
   0   3  -2    2.80    0.26
   0  -3   2    2.55    0.25
   0  -3  -2    2.65    0.17
   0  -3  -2    2.59    0.15
   0  -3   2    2.40    0.25
   0   3  -3   15.52    0.56
   0   3  -3   16.94    0.55
   0   3   3   16.13    0.46
   0  -3   3   15.91    0.54
   0  -3   3   15.17    0.56
   0   3  -4   15.31    0.56
   0   3  -4   14.83    0.58
   0   3   4   14.60    0.46
   0  -3   4   13.99    0.53
   0  -3  -4   14.93    0.56
   0  -3   4   14.47    0.56
   0   3  -5    0.40    0.24
   0   3  -5    0.65    0.29
   0   3   5    0.44    0.20
   0  -3  -5    0.93    0.26
   0  -3   5    0.82    0.27
   0   3   6   20.49    0.66
   0   3  -6   19.35    0.74
   0  -3   6   19.91    0.77
   0  -3  -6   21.42    0.78
   0   3  -7   12.14    0.61
   0   3   7   12.51    0.53
   0  -3   7   11.87    0.63
   0   3  -8    8.03    0.57
   0   3   8    8.70    0.50
   0  -3   8    8.38    0.54
   0  -3   8    8.43    0.62
   0   3   9    9.29    0.55
   0   3  -9    8.47    0.61
   0  -3   9    8.64    0.56
   0  -3   9    9.03    0.65
   0   3 -10    0.71    0.44
   0   3  10    0.90    0.36
   0  -3  10    0.86    0.36
   0  -4   0    1.33    0.18
   0  -4   0    1.42    0.14
   0   4  -1   -0.03    0.18
   0  -4  -1   -0.04    0.13
   0  -4  -1    0.07    0.10
   0  -4   1   -0.05    0.15
   0  -4   1   -0.02    0.13
   0   4  -2    4.48    0.34
   0  -4  -2    5.28    0.25
   0  -4  -2    5.07    0.25
   0  -4   2    4.96    0.33
   0  -4   2    4.80    0.28
   0  -4   2    5.13    0.34
   0   4  -3   57.69    1.58
   0   4  -3   60.40    1.68
   0  -4   3   60.33    1.58
   0  -4   3   59.70    1.67
   0   4  -4   30.58    0.94
   0   4   4   29.81    0.84
   0   4  -4   32.49    0.99
   0  -4   4   30.20    0.98
   0   4   5  121.74    3.19
   0   4  -5  124.65    3.18
   0  -4  -5  132.26    3.43
   0  -4   5  126.12    3.37
   0   4   6    0.25    0.22
   0   4  -6    0.82    0.34
   0  -4   6    0.69    0.32
   0   4  -7   13.27    0.64
   0   4   7   11.74    0.52
   0  -4   7   12.60    0.62
   0  -4   7   11.76    0.65
   0   4   8   -0.13    0.28
   0   4  -8    0.12    0.38
   0  -4   8    0.10    0.39
   0  -4   8    0.17    0.33
   0   4  -9    0.60    0.43
   0  -4   9    0.76    0.36
   0  -4   9    0.17    0.42
   0  -5   0   -0.26    0.18
   0  -5   0   -0.11    0.13
   0  -5   0   -0.02    0.18
   0  -5   1   29.39    0.86
   0  -5  -1   31.65    0.87
   0  -5  -1   31.05    0.84
   0  -5  -1   30.55    0.90
   0  -5   1   29.61    0.94
   0  -5   1   32.54    0.95
   0   5  -2    1.80    0.29
   0  -5  -2    1.52    0.19
   0  -5  -2    1.47    0.20
   0  -5   2    1.88    0.22
   0  -5   2    1.61    0.26
   0   5  -3   74.97    2.00
   0  -5  -3   76.56    1.94
   0  -5   3   77.00    2.12
   0  -5   3   77.66    2.00
   0   5  -4    0.17    0.30
   0  -5   4    0.21    0.28
   0   5  -5    4.17    0.47
   0  -5   5    4.88    0.46
   0  -5   5    4.57    0.45
   0   5  -6    8.92    0.59
   0  -5   6    8.83    0.56
   0  -5   6    8.48    0.55
   0   5  -7    4.12    0.47
   0  -5   7    3.58    0.42
   0  -5   7    4.44    0.48
   0   5  -8   11.21    0.67
   0  -5   8   10.70    0.63
   0  -5   8   11.24    0.68
   0  -6   0   82.65    2.17
   0  -6   0   87.88    2.29
   0  -6   0   84.81    2.33
   0  -6  -1    0.99    0.24
   0  -6   1    0.93    0.25
   0  -6  -1    0.09    0.23
   0  -6   1    0.90    0.27
   0  -6   1    0.83    0.19
   0  -6   2   15.31    0.56
   0  -6   2   14.86    0.64
   0  -6   2   15.61    0.62
   0  -6  -2   14.97    0.56
   0  -6   3   13.07    0.62
   0  -6   3   13.86    0.54
   0  -6   3   12.90    0.59
   0  -6   4    0.54    0.32
   0  -6   4    0.62    0.31
   0   6  -5   11.67    0.62
   0  -6   5   10.57    0.59
   0  -6   5   11.61    0.62
   0   6  -6   -0.24    0.38
   0  -6   6   -0.01    0.32
   0  -6   6    0.41    0.33
   0   6  -7    9.09    0.63
   0  -6   7    8.13    0.57
   0  -6   7    7.98    0.58
   0  -7   0   -0.06    0.21
   0  -7   0    0.01    0.25
   0  -7   1    6.60    0.50
   0  -7   1    6.89    0.45
   0  -7  -1    6.69    0.43
   0  -7  -1    6.92    0.45
   0  -7  -2    2.41    0.28
   0  -7   2    2.99    0.34
   0  -7  -2    2.47    0.30
   0  -7   2    2.37    0.36
   0  -7   3   -0.07    0.26
   0  -7   3    0.08    0.30
   0  -7   4    1.08    0.35
   0  -7   4    0.92    0.32
   0  -7   5    0.82    0.35
   0  -7   5    0.40    0.32
   0  -8   0   27.05    0.94
   0  -8   1    0.90    0.31
   0  -8   2    6.83    0.57
  -1   0  11    0.19    0.45
   1   0 -11   -0.34    0.41
  -1   0  10    2.44    0.48
   1   0 -10    1.91    0.42
  -1   0  10    2.16    0.34
  -1   0   9    0.01    0.36
   1   0  -9   -0.28    0.32
  -1   0   7   -0.10    0.18
   1   0  -7    0.01    0.24
  -1   0   7   -0.21    0.26
   1   0  -7    0.25    0.26
   1   0  -6    7.36    0.40
  -1   0   6    7.46    0.43
  -1   0   6    7.94    0.36
   1   0  -6    7.65    0.44
  -1   0   5   -0.04    0.16
   1   0  -5   -0.08    0.17
   1   0  -5   -0.01    0.17
  -1   0   5    0.00    0.13
  -1   0   4   12.02    0.39
   1   0  -4   11.54    0.43
   1   0  -4   12.07    0.41
  -1   0   4   12.09    0.44
  -1   0   3   -0.05    0.11
   1   0  -3   -0.02    0.13
   1   0  -3   -0.02    0.12
  -1   0   3    0.02    0.12
  -1   0   2  983.24   23.88
   1   0  -2  973.22   25.36
  -1   0   1    0.02    0.06
  -1   0   1   -0.02    0.06
   1   0  -1   -0.01    0.06
  -1   0   1   -0.02    0.06
  -1   0  -1   -0.01    0.07
  -1   0  -1    0.01    0.06
   1   0   1   -0.01    0.06
   1   0   1   -0.05    0.06
   1   0   1    0.01    0.06
   1   0   2    6.08    0.26
  -1   0  -2    6.25    0.26
   1   0   2    6.61    0.26
  -1   0  -2    6.73    0.33
   1   0   2    6.51    0.31
   1   0   3    0.01    0.15
  -1   0  -3    0.02    0.13
  -1   0  -3   -0.01    0.14
   1   0   3   -0.13    0.11
   1   0   3    0.05    0.11
   1   0   4   42.13    1.22
  -1   0  -4   41.99    1.12
  -1   0  -4   44.14    1.22
   1   0   4   42.36    1.11
   1   0   4   42.65    1.15
  -1   0  -5    0.07    0.21
   1   0   5   -0.01    0.14
   1   0   5   -0.06    0.15
   1   0   5   -0.04    0.21
  -1   0  -5   -0.04    0.19
   1   0   6    0.00    0.21
  -1   0  -6    0.52    0.25
   1   0   6    0.02    0.29
   1   0   6    0.29    0.19
  -1   0  -6    0.19    0.26
  -1   0  -7   -0.25    0.28
   1   0   7   -0.03    0.32
   1   0   7   -0.34    0.23
   1   0   8  110.54    2.82
   1   0   8  106.54    2.99
  -1   0  -8  105.11    2.75
   1   0   9    0.30    0.43
   1   0   9    0.26    0.30
  -1   0  -9   -0.34    0.35
   1   0  10   13.88    0.80
  -1   0 -10   14.39    0.67
   1   0  10   15.52    0.63
   1   1 -11    0.66    0.43
  -1  -1  11    0.70    0.35
  -1   1  10    8.94    0.64
   1   1 -10    8.33    0.59
   1  -1 -10    8.84    0.55
  -1  -1  10    9.22    0.56
  -1  -1  10    7.94    0.66
   1   1  -9    6.63    0.52
  -1   1   9    7.69    0.56
  -1   1   9    8.14    0.43
  -1  -1   9    6.74    0.60
   1  -1  -9    6.29    0.49
   1   1  -8  106.71    2.75
  -1   1   8  108.06    2.96
  -1  -1   8  104.30    2.94
   1  -1  -8  110.74    2.76
   1   1  -7    3.83    0.39
  -1   1   7    3.29    0.31
  -1   1   7    3.43    0.36
   1  -1  -7    2.95    0.31
   1  -1  -7    3.42    0.40
  -1  -1   7    3.82    0.36
  -1   1   6   16.42    0.52
   1   1  -6   15.96    0.58
   1   1  -6   17.01    0.63
  -1   1   6   16.18    0.60
  -1  -1   6   17.72    0.58
   1  -1  -6   16.39    0.61
   1  -1  -6   15.50    0.55
  -1  -1   6   16.41    0.63
   1   1  -5   84.01    2.15
  -1   1   5   86.42    2.09
  -1   1   5   83.92    2.25
   1   1  -5   85.16    2.29
   1  -1  -5   82.84    2.10
   1  -1  -5   85.96    2.25
  -1  -1   5   84.71    2.14
  -1  -1   5   82.09    2.29
   1   1  -4   40.34    1.08
   1   1  -4   38.58    1.14
  -1   1   4   40.43    1.02
  -1   1   4   39.08    1.10
   1  -1  -4   41.49    1.10
   1  -1  -4   37.26    1.02
  -1  -1   4   42.17    1.07
  -1  -1   4   40.69    1.14
   1   1  -3  120.75    3.13
   1   1  -3  122.72    2.95
  -1   1   3  115.33    3.04
  -1  -1   3  122.68    2.94
  -1  -1   3  113.60    3.13
   1  -1  -3  113.30    2.86
   1  -1  -3  116.80    3.03
   1   1  -2    0.01    0.11
  -1   1   2    0.25    0.07
  -1   1   2    0.10    0.09
   1   1  -2    0.06    0.12
   1  -1  -2    0.31    0.08
  -1  -1   2    0.02    0.10
   1  -1  -2    0.09    0.06
  -1  -1   2    0.08    0.11
  -1   1   1  170.38    4.34
   1   1  -1  173.99    4.52
  -1  -1   1  171.96    4.30
  -1  -1   1  171.88    4.25
  -1   1   0   33.23    0.86
  -1   1   0   31.78    0.92
  -1  -1   0   34.31    0.86
  -1  -1   0   33.72    0.84
   1  -1   0   30.61    0.92
  -1   1  -1  145.87    3.61
  -1   1  -1  144.83    3.84
  -1  -1  -1  147.82    3.56
   1  -1   1  144.72    3.85
   1  -1   1  146.37    3.73
   1  -1   1  148.33    3.60
   1   1   2  210.03    4.92
  -1   1  -2  202.84    5.30
  -1   1  -2  203.03    4.99
  -1  -1  -2  197.35    5.16
   1  -1   2  203.45    4.98
   1  -1   2  202.56    5.17
   1  -1   2  199.80    5.31
  -1   1  -3   25.25    0.72
  -1   1  -3   26.45    0.78
   1   1   3   25.16    0.66
   1  -1   3   26.06    0.75
   1  -1   3   25.10    0.77
  -1  -1  -3   26.45    0.77
  -1  -1  -3   24.10    0.66
   1  -1   3   25.41    0.72
  -1   1  -4    1.20    0.21
   1   1   4    0.85    0.12
   1   1   4    0.90    0.12
  -1   1  -4    1.05    0.21
   1  -1   4    1.20    0.17
   1  -1   4    0.87    0.19
   1  -1   4    0.96    0.17
  -1  -1  -4    0.77    0.15
  -1  -1  -4    1.07    0.20
  -1   1  -5    0.04    0.23
  -1   1  -5    0.04    0.22
   1   1   5   -0.02    0.13
   1   1   5    0.26    0.14
  -1  -1  -5    0.11    0.18
   1  -1   5    0.12    0.22
   1  -1   5    0.09    0.17
  -1  -1  -5   -0.13    0.21
   1  -1   5   -0.02    0.18
   1   1   6   29.21    0.84
  -1   1  -6   30.00    0.98
   1   1   6   31.31    0.86
  -1   1  -6   30.12    0.91
   1  -1   6   30.88    1.00
  -1  -1  -6   29.52    0.86
   1  -1   6   30.47    0.93
   1  -1   6   30.55    0.89
  -1  -1  -6   30.96    0.99
  -1   1  -7    0.49    0.32
   1   1   7    1.00    0.22
  -1  -1  -7    0.89    0.27
   1  -1   7    0.72    0.27
   1  -1   7    0.80    0.34
  -1   1  -8   12.05    0.60
  -1  -1  -8   11.14    0.52
   1  -1   8   12.11    0.57
   1  -1   8   11.69    0.67
  -1   1  -9    7.85    0.56
  -1  -1  -9    8.57    0.52
   1  -1   9    7.60    0.64
   1  -1   9    8.12    0.52
  -1   1 -10    4.08    0.49
   1  -1  10    3.96    0.54
   1  -1  10    4.28    0.47
   1   2 -11   15.52    0.76
  -1  -2  11   16.13    0.71
   1   2 -10    9.75    0.64
  -1  -2  10    9.40    0.68
  -1  -2  10    9.80    0.59
   1   2  -9    1.07    0.40
   1  -2  -9    2.28    0.35
  -1  -2   9    1.96    0.43
   1   2  -8   16.66    0.69
  -1  -2   8   15.01    0.70
   1  -2  -8   17.04    0.60
   1   2  -7    0.38    0.31
  -1  -2   7    0.81    0.31
   1  -2  -7    0.53    0.24
   1  -2  -7    0.39    0.27
   1   2  -6    1.58    0.28
   1   2  -6    1.81    0.29
   1  -2  -6    1.62    0.21
  -1  -2   6    1.44    0.29
   1  -2  -6    1.68    0.26
   1   2  -5   67.34    1.91
   1   2  -5   70.64    1.80
  -1  -2   5   65.64    1.90
   1  -2  -5   68.99    1.86
   1  -2  -5   69.07    1.73
  -1  -2   5   72.20    1.79
   1   2  -4    6.00    0.36
   1   2  -4    5.89    0.34
  -1  -2   4    6.24    0.32
   1  -2  -4    5.67    0.24
   1  -2  -4    6.16    0.32
  -1  -2   4    6.25    0.34
   1   2  -3   50.32    1.36
   1   2  -3   50.30    1.28
  -1  -2   3   48.50    1.27
  -1  -2   3   45.86    1.35
   1  -2  -3   49.43    1.29
   1   2  -2   60.84    1.68
  -1   2   2   60.82    1.57
   1   2  -2   62.17    1.58
  -1  -2   2   61.40    1.57
  -1  -2   2   63.50    1.68
   1  -2  -2   62.39    1.58
   1   2  -1    5.97    0.25
  -1  -2   1    6.33    0.24
   1  -2  -1    5.72    0.23
  -1  -2   1    6.23    0.25
  -1  -2   1    6.07    0.27
   1   2   0   68.09    1.72
   1   2   0   66.84    1.70
   1  -2   0   68.07    1.82
   1  -2   0   66.82    1.70
  -1  -2   0   69.34    1.71
   1  -2   0   67.40    1.76
  -1  -2   0   71.08    1.70
  -1   2  -1   27.82    0.82
   1   2   1   29.48    0.76
  -1   2  -1   28.48    0.79
   1  -2   1   29.79    0.82
  -1  -2  -1   29.42    0.76
   1  -2   1   28.78    0.82
   1  -2   1   29.54    0.79
  -1   2  -2    1.21    0.17
   1   2   2    1.45    0.14
  -1   2  -2    1.18    0.18
   1  -2   2    1.26    0.15
   1  -2   2    0.99    0.15
   1  -2   2    1.15    0.16
  -1  -2  -2    1.30    0.13
  -1   2  -3   71.89    1.88
  -1   2  -3   67.16    1.76
   1   2   3   68.81    1.72
  -1  -2  -3   69.20    1.83
   1  -2   3   65.83    1.86
   1  -2   3   67.55    1.82
   1  -2   3   69.50    1.76
  -1   2  -4    2.18    0.24
  -1   2  -4    1.79    0.24
   1   2   4    1.68    0.20
   1  -2   4    1.51    0.21
  -1  -2  -4    2.55    0.25
   1  -2   4    1.74    0.20
   1  -2   4    1.88    0.23
  -1   2  -5   66.23    1.75
  -1   2  -5   65.67    1.86
   1   2   5   67.78    1.74
   1  -2   5   64.92    1.73
   1  -2   5   66.10    1.86
  -1  -2  -5   68.48    1.85
   1  -2   5   64.98    1.80
  -1   2  -6   13.48    0.59
   1   2   6   14.32    0.56
   1  -2   6   14.77    0.64
   1  -2   6   12.69    0.57
   1   2   7    1.06    0.17
  -1   2  -7    2.03    0.38
   1   2   7    1.47    0.33
   1  -2   7    1.73    0.31
   1  -2   7    2.29    0.39
   1   2   8   14.70    0.66
  -1   2  -8   14.81    0.68
   1  -2   8   13.67    0.65
   1  -2   8   15.42    0.75
  -1   2  -9   -0.36    0.41
   1   2   9   -0.02    0.36
   1  -2   9   -0.35    0.44
   1  -2   9   -0.20    0.35
  -1   2 -10    8.41    0.61
   1  -2  10    8.69    0.56
   1   3 -10    2.39    0.48
  -1   3  10    1.68    0.38
  -1  -3  10    2.32    0.39
  -1  -3  10    2.30    0.49
  -1   3   9   12.70    0.58
   1   3  -9   12.04    0.68
  -1  -3   9   12.42    0.68
   1   3  -8    7.63    0.55
  -1   3   8    8.77    0.46
  -1  -3   8    6.80    0.54
   1   3  -7   18.97    0.73
  -1   3   7   19.76    0.64
   1  -3  -7   18.41    0.60
  -1  -3   7   18.10    0.74
  -1   3   6    7.83    0.37
   1   3  -6    7.55    0.48
  -1  -3   6    7.32    0.48
   1  -3  -6    8.63    0.49
   1   3  -5   28.34    0.91
   1   3  -5   28.08    0.86
  -1   3   5   26.92    0.76
   1  -3  -5   28.53    0.87
  -1  -3   5   26.29    0.89
   1   3  -4    7.90    0.43
   1   3  -4    8.06    0.41
   1  -3  -4    8.03    0.29
   1  -3  -4    8.30    0.39
  -1  -3   4    8.02    0.41
  -1  -3   4    8.64    0.41
   1   3  -3  223.23    6.03
   1   3  -3  239.00    5.68
  -1  -3   3  231.40    5.67
  -1  -3   3  233.94    6.04
   1   3  -2    1.24    0.17
  -1  -3   2    1.19    0.18
   1  -3  -2    1.11    0.12
  -1  -3   2    1.09    0.15
   1   3  -1    2.76    0.22
  -1  -3   1    2.98    0.19
  -1  -3   1    3.01    0.22
  -1  -3   1    2.57    0.22
   1  -3  -1    2.88    0.19
   1  -3  -1    2.52    0.20
   1   3   0    0.74    0.13
   1   3   0    1.10    0.13
  -1  -3   0    0.96    0.12
   1  -3   0    0.98    0.13
   1  -3   0    0.87    0.14
   1  -3   0    0.86    0.10
  -1  -3   0    0.88    0.12
   1  -3   0    0.88    0.12
   1   3   1   13.14    0.40
  -1   3  -1   13.09    0.45
   1  -3   1   12.74    0.44
   1  -3   1   13.18    0.46
  -1  -3  -1   13.36    0.40
   1  -3   1   13.52    0.44
  -1  -3  -1   13.73    0.38
   1   3   2   20.36    0.57
  -1   3  -2   20.02    0.64
  -1   3  -2   19.64    0.63
   1  -3   2   20.95    0.65
   1  -3   2   20.62    0.62
   1  -3   2   20.90    0.65
  -1  -3  -2   20.34    0.57
   1   3   3    5.76    0.27
  -1   3  -3    6.13    0.37
  -1   3  -3    5.57    0.36
   1  -3   3    5.43    0.36
   1  -3   3    5.55    0.36
   1  -3   3    4.96    0.35
   1   3   4   45.03    1.19
  -1   3  -4   44.08    1.31
  -1   3  -4   44.93    1.24
   1  -3   4   43.16    1.30
   1  -3   4   44.20    1.28
  -1  -3  -4   47.26    1.31
  -1   3  -5    1.02    0.28
  -1   3  -5    1.21    0.30
   1   3   5    1.15    0.24
  -1  -3  -5    1.05    0.30
   1  -3   5    1.20    0.30
   1  -3   5    1.24    0.27
  -1   3  -6    1.93    0.37
   1   3   6    2.24    0.29
   1  -3   6    2.47    0.37
   1  -3   6    2.13    0.32
  -1   3  -7   14.54    0.67
   1   3   7   14.92    0.61
   1  -3   7   14.88    0.71
   1  -3   7   14.67    0.65
   1   3   8    0.35    0.32
  -1   3  -8    0.44    0.41
   1  -3   8    0.75    0.43
   1  -3   8    0.22    0.32
  -1   3  -9   11.43    0.68
   1  -3   9   10.36    0.62
   1  -3   9   11.36    0.72
   1   4 -10   -0.29    0.47
  -1  -4  10    0.20    0.39
   1   4  -9   13.12    0.71
  -1  -4   9   12.55    0.72
   1   4  -8    0.66    0.39
  -1   4   8    0.03    0.25
  -1  -4   8    0.50    0.39
  -1   4   7    6.74    0.39
   1   4  -7    8.05    0.54
  -1  -4   7    6.52    0.50
   1   4  -6    8.19    0.53
  -1  -4   6    7.76    0.52
   1  -4  -6    8.64    0.54
   1   4  -5   34.18    1.05
  -1  -4   5   33.62    1.10
   1  -4  -5   36.87    1.09
   1   4  -4   19.84    0.70
   1   4  -4   21.25    0.74
  -1  -4   4   19.12    0.72
   1  -4  -4   20.55    0.70
   1   4  -3    1.50    0.25
  -1  -4   3    0.82    0.23
  -1  -4   3    1.08    0.21
   1  -4  -3    1.05    0.16
  -1  -4   3    1.13    0.21
   1   4  -2    1.02    0.21
   1  -4  -2    0.89    0.15
  -1  -4   2    1.09    0.21
  -1  -4   2    1.00    0.17
   1   4  -1    0.00    0.16
   1  -4  -1    0.01    0.13
  -1  -4   1   -0.06    0.16
   1  -4  -1   -0.02    0.14
  -1  -4   1   -0.02    0.12
   1  -4   0    0.97    0.13
  -1  -4   0    1.08    0.14
   1  -4   0    1.10    0.17
   1  -4   0    1.08    0.18
   1   4   1   23.38    0.66
  -1  -4  -1   24.21    0.65
  -1  -4  -1   23.75    0.66
   1  -4   1   22.29    0.72
   1  -4   1   23.53    0.74
  -1   4  -2    6.75    0.39
   1   4   2    6.86    0.29
   1  -4   2    7.01    0.38
  -1  -4  -2    6.71    0.30
   1  -4   2    6.87    0.40
   1  -4   2    6.26    0.36
   1   4   3  179.99    4.57
  -1   4  -3  183.69    4.56
  -1   4  -3  186.69    4.82
   1  -4   3  185.84    4.83
   1  -4   3  183.56    4.72
  -1   4  -4   -0.12    0.22
   1   4   4   -0.01    0.18
  -1   4  -4   -0.11    0.28
   1  -4   4   -0.05    0.25
   1  -4   4   -0.11    0.24
  -1   4  -5   80.29    2.11
   1   4   5   79.52    2.10
   1  -4   5   77.99    2.17
   1  -4   5   81.70    2.23
   1   4   6   -0.01    0.24
  -1   4  -6    0.50    0.35
   1  -4   6    0.04    0.28
   1  -4   6    0.16    0.31
   1   4   7    0.67    0.28
  -1   4  -7    1.13    0.40
   1  -4   7    1.22    0.40
   1  -4   7    1.04    0.34
   1   4   8   -0.06    0.30
  -1   4  -8    0.08    0.41
   1  -4   8   -0.05    0.40
   1  -4   8   -0.21    0.32
  -1   4  -9    1.79    0.48
   1  -4   9    3.31    0.50
   1  -4   9    2.78    0.42
   1   5  -9    2.78    0.47
  -1  -5   9    2.66    0.41
   1   5  -8   10.34    0.64
  -1  -5   8   10.22    0.67
   1   5  -7    0.02    0.37
  -1  -5   7    0.09    0.35
   1   5  -6    3.72    0.42
  -1  -5   6    3.91    0.46
   1   5  -5   62.88    1.75
  -1  -5   5   66.93    1.77
  -1  -5   5   61.86    1.85
   1  -5  -5   65.49    1.87
   1   5  -4    3.52    0.35
  -1  -5   4    3.38    0.37
  -1  -5   4    2.75    0.35
   1  -5  -4    2.90    0.28
   1   5  -3   80.54    2.09
  -1  -5   3   81.54    2.23
  -1  -5   3   78.60    2.09
   1  -5  -3   81.49    2.05
   1  -5  -3   80.51    2.12
   1   5  -2    0.32    0.25
   1  -5  -2    0.26    0.18
  -1  -5   2    0.79    0.19
  -1  -5   2    0.32    0.23
   1  -5  -2    0.32    0.19
   1   5  -1   28.87    0.83
   1  -5  -1   28.25    0.85
   1  -5  -1   27.65    0.85
  -1  -5   1   28.18    0.81
  -1  -5   1   28.25    0.89
  -1  -5   0   22.33    0.74
   1  -5   0   22.82    0.72
  -1  -5   0   22.20    0.66
   1  -5   0   21.97    0.65
   1  -5   0   22.76    0.74
  -1  -5  -1    6.48    0.31
   1  -5   1    5.98    0.41
   1  -5   1    6.10    0.37
   1  -5   1    6.31    0.31
  -1  -5  -1    6.48    0.33
   1   5   2    3.85    0.26
  -1  -5  -2    3.58    0.28
   1  -5   2    4.10    0.31
   1  -5   2    3.23    0.35
   1  -5   2    3.63    0.39
  -1  -5  -2    3.05    0.28
  -1  -5  -2    3.72    0.29
  -1   5  -3   16.52    0.63
   1   5   3   16.71    0.53
  -1  -5  -3   15.74    0.54
   1  -5   3   15.57    0.62
   1  -5   3   16.84    0.68
  -1   5  -4    0.45    0.32
   1   5   4    0.02    0.17
   1  -5   4   -0.22    0.25
   1  -5   4    0.16    0.26
  -1   5  -5    9.42    0.56
   1  -5   5    9.38    0.53
   1  -5   5    8.59    0.54
   1   5   6   -0.07    0.22
  -1   5  -6    0.47    0.38
   1  -5   6    0.01    0.31
   1  -5   6   -0.01    0.35
  -1   5  -7   13.00    0.69
   1  -5   7   13.35    0.68
   1  -5   7   13.73    0.72
  -1   5  -8    6.02    0.57
   1  -5   8    6.80    0.54
   1  -5   8    7.15    0.62
  -1  -6   8    0.73    0.40
   1   6  -7   12.11    0.69
  -1  -6   7   14.02    0.71
  -1  -6   7   12.50    0.67
   1   6  -6    5.61    0.55
  -1  -6   6    5.54    0.50
   1   6  -5   10.33    0.62
  -1  -6   5   11.26    0.59
   1   6  -4    1.58    0.35
  -1  -6   4    1.63    0.33
  -1  -6   4    1.44    0.27
   1   6  -3    1.97    0.33
  -1  -6   3    1.87    0.31
   1  -6  -3    1.65    0.24
  -1  -6   3    1.14    0.25
  -1  -6   2   15.79    0.57
   1  -6  -2   15.67    0.60
   1  -6  -2   15.84    0.60
  -1  -6   2   16.20    0.64
  -1  -6   1    0.07    0.19
  -1  -6   1    0.47    0.24
   1  -6  -1   -0.15    0.21
   1  -6  -1    0.28    0.23
   1  -6   0   52.75    1.49
   1  -6   0   51.21    1.38
  -1  -6   0   53.37    1.54
   1  -6   0   53.00    1.50
  -1  -6   0   54.26    1.49
  -1  -6   0   51.81    1.41
  -1  -6  -1    5.35    0.33
   1  -6   1    6.23    0.40
   1  -6   1    5.63    0.46
  -1  -6  -1    6.89    0.39
   1  -6   1    5.03    0.33
   1  -6   2   11.16    0.59
   1  -6   2   12.23    0.48
  -1  -6  -2   12.62    0.47
  -1  -6  -2   11.35    0.45
   1  -6   2   12.10    0.54
   1  -6   3   19.99    0.78
   1  -6   3   18.92    0.73
   1  -6   3   20.37    0.69
   1  -6   4    3.53    0.38
   1  -6   4    3.23    0.39
   1  -6   5   15.51    0.72
   1  -6   5   16.69    0.72
   1  -6   6    3.62    0.43
   1  -6   6    3.41    0.43
   1  -6   7    0.68    0.38
   1  -6   7    0.34    0.35
   1   7  -6   10.13    0.69
  -1  -7   6   10.26    0.64
  -1  -7   6    9.98    0.65
  -1  -7   5   -0.20    0.32
  -1  -7   5    0.44    0.33
  -1  -7   4    2.09    0.36
  -1  -7   4    1.89    0.36
  -1  -7   3    1.97    0.36
   1  -7  -3    2.15    0.28
  -1  -7   3    2.06    0.34
   1  -7  -2    0.11    0.25
  -1  -7   2    0.29    0.29
  -1  -7   2    0.07    0.26
   1  -7  -2    0.02    0.22
   1  -7  -1    6.64    0.48
  -1  -7   1    6.29    0.48
  -1  -7   1    6.79    0.46
   1  -7  -1    6.08    0.40
   1  -7   0    3.13    0.37
  -1  -7   0    3.27    0.34
   1  -7   0    3.00    0.36
  -1  -7   0    3.55    0.41
  -1  -7  -1    0.53    0.26
   1  -7   1   -0.08    0.30
  -1  -7  -1    1.01    0.26
   1  -7   1    0.72    0.27
   1  -7   2   16.19    0.73
   1  -7   2   16.85    0.67
   1  -7   3    0.25    0.27
   1  -7   3   -0.26    0.32
   1  -7   4    2.80    0.41
   1  -7   4    2.78    0.37
   1  -7   5    2.58    0.39
   1  -7   5    1.97    0.40
  -1  -8   2   10.26    0.57
  -1  -8   2   11.19    0.60
  -1  -8   1    1.49    0.33
  -1  -8   1    1.61    0.32
   1  -8   0   18.84    0.78
  -1  -8   0   19.14    0.74
  -1  -8   0   18.06    0.73
   1  -8   1    1.66    0.36
  -1  -8  -1    1.89    0.31
  -2   0  11   -0.02    0.43
   2   0 -11    0.28    0.39
   2   0 -10   -0.15    0.38
  -2   0  10    0.12    0.41
  -2   0   9   -0.09    0.32
   2   0  -9    0.01    0.33
  -2   0   8   10.12    0.56
   2   0  -8    9.76    0.53
   2   0  -7   -0.13    0.26
  -2   0   7   -0.02    0.24
  -2   0   7   -0.02    0.19
   2   0  -7   -0.15    0.24
  -2   0   6  164.20    4.41
  -2   0   6  170.93    4.14
   2   0  -6  167.94    4.15
   2   0  -6  169.61    4.41
  -2   0   5    0.00    0.16
  -2   0   5    0.01    0.14
   2   0  -5   -0.14    0.17
   2   0  -5   -0.11    0.17
   2   0  -4   32.48    0.93
  -2   0   4   32.16    0.93
   2   0  -4   31.92    0.88
  -2   0   4   34.10    0.88
  -2   0   3    0.02    0.12
  -2   0   3    0.06    0.11
   2   0  -3   -0.01    0.13
   2   0  -3    0.02    0.13
   2   0  -2   54.86    1.45
  -2   0   2   54.12    1.38
  -2   0   2   53.87    1.45
   2   0  -2   53.85    1.36
   2   0  -2   52.52    1.38
  -2   0   2   56.02    1.41
  -2   0   2   54.89    1.36
  -2   0   1    0.02    0.06
  -2   0   1    0.00    0.06
   2   0  -1   -0.03    0.06
  -2   0   0   28.11    0.77
  -2   0   0   29.30    0.76
  -2   0  -1   -0.03    0.10
  -2   0  -1    0.02    0.12
   2   0   1   -0.09    0.10
   2   0   1    0.01    0.11
  -2   0  -2   26.04    0.72
   2   0   2   26.04    0.73
  -2   0  -2   24.78    0.77
   2   0   2   25.95    0.70
   2   0   2   25.54    0.78
   2   0   3   -0.06    0.12
   2   0   3    0.01    0.16
   2   0   3   -0.04    0.11
  -2   0  -3    0.01    0.16
  -2   0  -3   -0.02    0.15
   2   0   4    6.44    0.31
   2   0   4    6.40    0.32
   2   0   4    6.71    0.40
  -2   0  -4    6.83    0.39
  -2   0  -4    6.99    0.34
  -2   0  -5   -0.03    0.22
  -2   0  -5    0.06    0.21
   2   0   5   -0.15    0.18
   2   0   5   -0.31    0.24
   2   0   5   -0.05    0.16
   2   0   6   54.03    1.45
  -2   0  -6   53.22    1.42
   2   0   6   51.76    1.56
   2   0   6   52.17    1.40
   2   0   7    0.27    0.25
  -2   0  -7   -0.40    0.29
   2   0   7   -0.19    0.35
   2   0   8   49.97    1.56
  -2   0  -8   49.10    1.40
   2   0   9    0.24    0.31
  -2   0  -9   -0.33    0.36
  -2   1  11    0.04    0.42
   2   1 -11    0.42    0.42
  -2  -1  11   -0.03    0.44
   2  -1 -11    0.33    0.40
   2   1 -10   11.28    0.64
  -2   1  10   12.19    0.69
  -2  -1  10   12.82    0.71
   2  -1 -10   12.07    0.63
  -2   1   9    0.66    0.36
   2   1  -9    0.07    0.35
   2  -1  -9   -0.02    0.34
  -2  -1   9    0.54    0.37
   2   1  -8   59.86    1.61
  -2   1   8   59.33    1.69
   2  -1  -8   55.21    1.57
  -2  -1   8   58.24    1.70
  -2   1   7    0.86    0.18
  -2   1   7    1.42    0.29
   2   1  -7    0.71    0.28
   2   1  -7    0.50    0.26
   2  -1  -7    0.53    0.25
   2  -1  -7    0.59    0.25
  -2  -1   7    1.04    0.29
   2   1  -6   80.79    2.14
  -2   1   6   75.65    1.95
   2   1  -6   77.61    2.01
  -2   1   6   78.34    2.10
  -2  -1   6   73.62    1.99
   2  -1  -6   80.80    2.11
   2  -1  -6   75.27    1.97
  -2  -1   6   79.36    2.13
   2   1  -5   63.01    1.70
   2   1  -5   61.61    1.60
  -2   1   5   63.59    1.58
  -2   1   5   60.68    1.66
  -2   1   5   60.99    1.55
  -2  -1   5   59.44    1.59
   2  -1  -5   58.48    1.55
   2  -1  -5   62.45    1.66
  -2  -1   5   62.39    1.70
   2   1  -4    0.50    0.16
  -2   1   4    0.63    0.14
  -2   1   4    0.60    0.10
   2   1  -4    0.61    0.16
  -2  -1   4    0.39    0.15
   2  -1  -4    0.51    0.14
  -2  -1   4    0.71    0.14
   2  -1  -4    0.35    0.12
   2   1  -3  118.25    3.13
  -2   1   3  115.93    3.04
   2   1  -3  118.86    2.94
  -2  -1   3  122.22    3.13
   2  -1  -3  117.23    2.96
   2  -1  -3  117.43    2.86
  -2  -1   3  112.57    2.93
   2  -1  -3  119.02    3.04
   2   1  -2   22.49    0.64
   2   1  -2   25.32    0.69
   2   1  -2   23.18    0.64
  -2   1   2   23.71    0.63
  -2   1   2   22.13    0.64
  -2  -1   2   22.62    0.63
   2  -1  -2   22.65    0.64
  -2  -1   2   23.36    0.64
  -2  -1   2   23.53    0.68
   2  -1  -2   23.11    0.63
   2   1  -1  135.29    3.48
   2   1  -1  137.86    3.51
  -2   1   1  140.88    3.53
  -2   1   1  140.53    3.58
  -2  -1   1  141.03    3.51
  -2  -1   1  146.99    3.48
   2  -1  -1  143.25    3.60
   2  -1  -1  137.70    3.54
   2   1   0  945.36   23.94
  -2   1   0  949.25   25.61
  -2   1   0  963.99   24.17
   2   1   0 1000.00   23.60
   2   1   0  946.84   24.29
   2  -1   0  969.15   24.28
   2  -1   0  919.52   25.65
  -2  -1   0  985.54   23.54
  -2  -1   0  975.00   24.19
  -2   1  -1    0.78    0.14
   2   1   1    1.04    0.10
   2   1   1    1.21    0.14
  -2   1  -1    0.90    0.14
   2  -1   1    0.40    0.15
   2  -1   1    0.84    0.13
   2  -1   1    1.02    0.15
  -2  -1  -1    0.94    0.15
  -2   1  -2   11.62    0.43
   2   1   2   12.23    0.41
   2   1   2   12.12    0.37
  -2   1  -2   11.74    0.42
  -2  -1  -2   11.60    0.37
   2  -1   2   11.19    0.43
   2  -1   2   11.49    0.42
   2  -1   2   11.66    0.42
   2   1   3    0.80    0.17
  -2   1  -3    0.86    0.20
  -2   1  -3    0.77    0.18
   2   1   3    0.80    0.14
   2   1   3    0.73    0.11
  -2  -1  -3    0.66    0.12
   2  -1   3    0.90    0.18
   2  -1   3    0.78    0.15
   2  -1   3    0.70    0.17
  -2  -1  -3    0.83    0.20
  -2   1  -4    2.94    0.31
   2   1   4    2.39    0.24
  -2   1  -4    2.47    0.25
   2   1   4    2.40    0.23
   2   1   4    2.36    0.20
   2  -1   4    2.41    0.23
   2  -1   4    2.54    0.26
   2  -1   4    2.63    0.28
  -2  -1  -4    2.72    0.27
  -2   1  -5   -0.05    0.25
  -2   1  -5    0.04    0.23
   2   1   5    0.04    0.24
   2   1   5   -0.08    0.17
   2   1   5    0.24    0.15
  -2  -1  -5    0.22    0.20
   2  -1   5    0.22    0.21
   2  -1   5   -0.03    0.18
   2  -1   5    0.07    0.26
  -2  -1  -5   -0.21    0.24
   2   1   6    2.29    0.24
   2   1   6    2.43    0.27
  -2   1  -6    2.86    0.35
  -2  -1  -6    2.83    0.32
   2  -1   6    2.54    0.37
   2  -1   6    2.40    0.29
   2   1   7    6.17    0.37
  -2   1  -7    5.34    0.47
   2  -1   7    6.12    0.44
   2  -1   7    5.67    0.54
  -2  -1  -7    5.75    0.40
   2   1   8    0.53    0.26
   2   1   8    0.10    0.36
  -2   1  -8    1.50    0.40
   2  -1   8    0.46    0.32
   2  -1   8    0.56    0.41
  -2   1  -9    1.22    0.42
   2   1   9    0.91    0.41
   2  -1   9    1.64    0.48
   2  -1   9    1.20    0.37
   2  -1  10   10.21    0.58
   2   2 -11   14.35    0.74
   2   2 -10    6.61    0.56
   2  -2 -10    6.44    0.51
  -2  -2  10    6.87    0.60
   2   2  -9    4.16    0.44
  -2  -2   9    4.51    0.46
   2  -2  -9    4.40    0.42
   2   2  -8   23.76    0.84
  -2  -2   8   24.60    0.90
   2  -2  -8   24.56    0.80
   2   2  -7    0.88    0.31
  -2  -2   7    1.02    0.29
   2  -2  -7    0.92    0.27
   2  -2  -7    1.01    0.25
   2   2  -6   25.47    0.85
   2   2  -6   25.21    0.79
   2  -2  -6   23.70    0.72
  -2  -2   6   25.00    0.84
   2  -2  -6   25.41    0.79
   2   2  -5   70.34    1.85
   2   2  -5   67.07    1.73
   2  -2  -5   64.84    1.65
   2  -2  -5   65.15    1.76
  -2  -2   5   67.11    1.72
  -2  -2   5   61.59    1.82
   2   2  -4    7.40    0.36
   2   2  -4    8.08    0.38
   2  -2  -4    7.24    0.28
   2  -2  -4    7.45    0.31
  -2  -2   4    7.38    0.35
  -2  -2   4    7.38    0.36
   2   2  -3   45.53    1.20
  -2   2   3   47.68    1.18
   2   2  -3   45.67    1.28
  -2  -2   3   46.22    1.28
   2  -2  -3   46.05    1.17
  -2  -2   3   44.72    1.21
   2  -2  -3   44.47    1.20
  -2  -2   3   44.47    1.20
   2   2  -2    0.02    0.13
  -2   2   2   -0.01    0.10
  -2  -2   2    0.09    0.12
   2  -2  -2   -0.04    0.10
  -2  -2   2   -0.03    0.14
  -2  -2   2    0.03    0.11
   2   2  -1   27.25    0.75
   2   2  -1   27.53    0.73
  -2   2   1   27.10    0.75
  -2  -2   1   27.94    0.75
  -2  -2   1   28.25    0.73
   2  -2  -1   27.38    0.76
   2   2   0  154.45    3.81
   2   2   0  154.27    3.81
  -2   2   0  152.03    4.06
  -2   2   0  152.52    3.92
  -2  -2   0  154.03    3.81
  -2  -2   0  162.23    3.80
   2  -2   0  153.98    4.07
   2  -2   0  152.19    3.93
   2   2   1    0.70    0.12
  -2   2  -1    0.55    0.13
   2  -2   1    0.75    0.15
  -2  -2  -1    0.66    0.09
   2  -2   1    0.47    0.12
   2  -2   1    0.66    0.15
  -2  -2  -1    0.62    0.14
  -2   2  -2    3.33    0.28
   2   2   2    3.95    0.24
   2  -2   2    3.19    0.25
   2  -2   2    2.88    0.26
   2  -2   2    3.30    0.27
  -2  -2  -2    3.55    0.24
  -2   2  -3   65.16    1.79
  -2   2  -3   64.79    1.69
   2   2   3   66.95    1.67
   2  -2   3   64.67    1.75
   2  -2   3   64.05    1.68
   2  -2   3   65.85    1.79
  -2   2  -4   22.32    0.74
   2   2   4   22.00    0.68
  -2   2  -4   21.10    0.70
   2  -2   4   21.65    0.70
  -2  -2  -4   21.83    0.76
   2  -2   4   21.29    0.74
   2  -2   4   20.93    0.72
  -2   2  -5   45.80    1.31
   2   2   5   43.83    1.22
  -2   2  -5   42.25    1.22
  -2  -2  -5   43.94    1.32
   2  -2   5   42.26    1.31
   2  -2   5   43.53    1.27
  -2   2  -6   49.52    1.38
   2   2   6   49.80    1.39
   2  -2   6   48.80    1.40
   2  -2   6   46.19    1.46
  -2   2  -7    0.29    0.37
   2   2   7    0.62    0.33
   2  -2   7    0.59    0.39
   2  -2   7    0.55    0.31
   2   2   8   25.27    0.93
  -2   2  -8   24.92    0.91
   2  -2   8   25.84    0.91
   2  -2   8   25.59    0.99
  -2   2  -9    8.55    0.59
   2   2   9    7.94    0.58
   2  -2   9    8.11    0.66
   2  -2   9    8.35    0.57
   2   3 -10    7.20    0.60
  -2   3  10    6.03    0.49
  -2  -3  10    6.18    0.59
   2   3  -9    4.42    0.48
  -2   3   9    3.82    0.41
  -2  -3   9    4.43    0.49
   2  -3  -9    4.49    0.43
   2   3  -8    1.64    0.38
  -2   3   8    1.87    0.28
   2  -3  -8    1.83    0.29
  -2  -3   8    1.62    0.38
  -2   3   7    3.97    0.32
   2   3  -7    4.43    0.44
   2  -3  -7    4.27    0.33
  -2  -3   7    4.71    0.45
   2  -3  -7    4.16    0.43
   2   3  -6    0.29    0.28
  -2   3   6    0.28    0.18
  -2  -3   6    0.33    0.27
   2  -3  -6    0.43    0.23
   2  -3  -6    0.30    0.19
   2   3  -5  124.99    3.19
   2   3  -5  115.90    2.98
   2  -3  -5  121.23    3.12
  -2  -3   5  112.84    3.17
   2  -3  -5  116.43    2.92
   2   3  -4   -0.02    0.20
   2   3  -4    0.19    0.20
  -2  -3   4   -0.02    0.17
   2  -3  -4    0.23    0.15
  -2  -3   4   -0.03    0.19
  -2  -3   4    0.02    0.17
  -2   3   3  237.21    5.87
   2   3  -3  250.25    6.18
   2   3  -3  231.21    5.79
  -2  -3   3  226.85    6.17
   2  -3  -3  231.18    5.89
  -2  -3   3  241.42    5.86
  -2  -3   3  234.89    5.79
  -2   3   2    3.06    0.23
   2   3  -2    3.25    0.25
  -2  -3   2    2.85    0.26
  -2  -3   2    3.63    0.24
   2  -3  -2    3.19    0.23
   2   3  -1   12.57    0.42
   2   3  -1   12.32    0.40
   2  -3  -1   12.10    0.39
  -2  -3   1   12.54    0.39
   2  -3  -1   12.30    0.42
  -2  -3   1   13.20    0.41
   2   3   0   43.46    1.14
   2   3   0   42.76    1.10
  -2  -3   0   43.51    1.13
   2  -3   0   43.34    1.14
   2  -3   0   43.03    1.18
  -2  -3   0   45.58    1.10
   2  -3   0   42.26    1.18
  -2   3  -1    5.35    0.28
   2   3   1    5.86    0.25
   2  -3   1    5.66    0.33
   2  -3   1    5.20    0.26
   2  -3   1    5.45    0.32
  -2  -3  -1    5.93    0.26
   2   3   2   31.35    0.85
  -2   3  -2   30.09    0.91
   2  -3   2   30.90    0.91
   2  -3   2   31.33    0.92
  -2  -3  -2   30.51    0.85
   2  -3   2   32.16    0.89
  -2   3  -3    6.64    0.40
   2   3   3    7.11    0.33
   2  -3   3    6.74    0.40
   2  -3   3    7.29    0.40
   2  -3   3    6.13    0.38
   2   3   4    0.04    0.21
  -2   3  -4    0.17    0.28
  -2   3  -4    0.14    0.23
  -2  -3  -4   -0.06    0.28
   2  -3   4   -0.07    0.24
   2  -3   4    0.22    0.25
  -2   3  -5   69.96    1.88
   2   3   5   72.35    1.89
   2  -3   5   69.56    1.98
   2  -3   5   69.81    1.94
  -2   3  -6    0.27    0.35
   2   3   6    1.21    0.29
   2  -3   6    0.35    0.30
   2  -3   6    0.84    0.35
  -2   3  -7   14.57    0.68
   2   3   7   15.32    0.66
   2  -3   7   15.61    0.68
   2  -3   7   15.72    0.76
   2   3   8    0.14    0.33
  -2   3  -8    0.50    0.43
   2  -3   8    0.50    0.43
   2  -3   8    0.47    0.35
   2   3   9    6.08    0.51
   2  -3   9    6.71    0.54
   2  -3   9    6.99    0.63
   2   4 -10    0.25    0.43
   2   4  -9    6.89    0.59
  -2  -4   9    7.97    0.61
   2   4  -8    0.07    0.37
  -2  -4   8   -0.10    0.33
   2   4  -7    4.70    0.48
  -2  -4   7    4.61    0.48
   2  -4  -7    5.27    0.33
   2   4  -6    0.55    0.32
  -2  -4   6    1.15    0.32
   2  -4  -6    0.65    0.21
   2  -4  -6    1.24    0.28
   2   4  -5    4.72    0.42
  -2  -4   5    4.79    0.42
  -2  -4   5    4.67    0.40
   2  -4  -5    5.45    0.39
   2   4  -4    2.47    0.28
   2   4  -4    2.27    0.29
  -2  -4   4    2.36    0.26
   2  -4  -4    2.00    0.24
  -2  -4   4    2.45    0.30
   2   4  -3    0.74    0.22
  -2  -4   3    0.66    0.20
   2  -4  -3    0.56    0.17
  -2  -4   3    0.77    0.23
   2   4  -2    5.19    0.33
  -2  -4   2    4.81    0.33
   2  -4  -2    5.06    0.31
  -2  -4   2    4.85    0.30
   2   4  -1   24.45    0.70
   2  -4  -1   23.19    0.70
  -2  -4   1   24.10    0.77
   2  -4  -1   24.33    0.73
  -2  -4   1   25.17    0.71
   2   4   0    0.53    0.16
   2   4   0    0.26    0.15
   2  -4   0    0.51    0.18
  -2  -4   0    0.56    0.15
   2  -4   0    0.63    0.15
  -2  -4   0    0.33    0.14
   2   4   1   15.95    0.51
  -2  -4  -1   15.68    0.46
   2  -4   1   16.35    0.56
   2  -4   1   15.14    0.58
   2  -4   1   15.05    0.53
  -2  -4  -1   16.23    0.51
   2   4   2    4.12    0.26
  -2   4  -2    3.71    0.33
   2  -4   2    3.84    0.37
   2  -4   2    3.39    0.30
  -2  -4  -2    4.12    0.29
  -2   4  -3  111.43    2.91
   2   4   3  107.03    2.77
   2  -4   3  111.52    2.88
  -2  -4  -3  107.13    2.77
   2  -4   3  107.86    2.91
  -2   4  -4    1.81    0.28
   2   4   4    1.25    0.23
   2  -4   4    1.75    0.31
   2  -4   4    1.65    0.31
   2   4   5    4.22    0.36
   2  -4   5    4.47    0.41
   2  -4   5    4.33    0.45
  -2   4  -6    2.41    0.41
   2   4   6    1.98    0.30
   2  -4   6    2.57    0.37
   2  -4   6    2.69    0.40
   2   4   7    2.87    0.35
   2  -4   7    3.74    0.41
   2  -4   7    3.66    0.48
   2   4   8    1.43    0.33
   2  -4   8    2.08    0.40
   2  -4   8    2.28    0.47
   2   5  -9    0.48    0.42
  -2  -5   9    0.61    0.41
   2   5  -8    7.48    0.60
  -2  -5   8    6.05    0.57
   2   5  -7   12.42    0.66
  -2  -5   7   12.86    0.67
   2   5  -6    3.04    0.39
  -2  -5   6    2.90    0.39
   2   5  -5   44.40    1.32
  -2  -5   5   44.44    1.39
   2  -5  -5   49.25    1.38
  -2  -5   5   44.94    1.32
   2   5  -4   -0.09    0.27
  -2  -5   4   -0.06    0.27
  -2  -5   4   -0.13    0.22
   2   5  -3   78.61    2.06
  -2  -5   3   80.98    2.08
   2  -5  -3   79.50    2.11
  -2  -5   3   78.25    2.20
   2   5  -2    3.25    0.29
   2  -5  -2    2.75    0.26
  -2  -5   2    2.76    0.29
   2  -5  -2    2.51    0.26
  -2  -5   2    2.54    0.30
   2   5  -1    5.42    0.37
   2  -5  -1    5.84    0.39
  -2  -5   1    5.03    0.37
  -2  -5   1    5.80    0.32
   2  -5  -1    5.36    0.31
   2  -5   0   21.68    0.65
   2  -5   0   22.86    0.72
  -2  -5   0   22.57    0.69
  -2  -5   0   24.61    0.68
   2  -5   0   22.59    0.76
   2   5   1    8.44    0.37
   2  -5   1    7.91    0.40
  -2  -5  -1    8.79    0.38
  -2  -5  -1    7.74    0.34
   2  -5   1    7.73    0.47
   2   5   2    2.37    0.24
  -2  -5  -2    2.81    0.30
   2  -5   2    2.40    0.28
   2  -5   2    1.95    0.31
   2   5   3   10.70    0.44
  -2   5  -3   11.73    0.52
   2  -5   3   11.00    0.51
   2  -5   3   10.54    0.56
  -2  -5  -3   10.59    0.46
   2   5   4    7.81    0.38
   2  -5   4    7.82    0.52
   2  -5   4    8.10    0.47
   2  -5   5   15.63    0.70
   2  -5   5   16.21    0.70
   2   5   6    0.45    0.25
   2  -5   6    0.74    0.37
   2  -5   6    0.52    0.35
   2  -5   7    7.29    0.55
   2  -5   7    7.91    0.63
   2  -5   8    0.39    0.48
   2   6  -8    9.52    0.63
  -2  -6   8    9.80    0.64
   2   6  -7    4.51    0.47
  -2  -6   7    3.99    0.47
   2   6  -6   17.46    0.75
  -2  -6   6   17.87    0.78
   2   6  -5    4.84    0.50
  -2  -6   5    4.75    0.47
   2   6  -4    0.55    0.31
  -2  -6   4    1.07    0.32
   2   6  -3    2.41    0.33
  -2  -6   3    2.81    0.28
   2  -6  -3    2.36    0.28
  -2  -6   3    2.69    0.34
   2   6  -2   14.77    0.60
   2  -6  -2   14.73    0.55
  -2  -6   2   14.33    0.62
  -2  -6   2   15.03    0.56
   2  -6  -2   14.23    0.59
  -2  -6   1    8.36    0.47
   2  -6  -1    7.11    0.39
   2  -6  -1    7.84    0.48
  -2  -6   1    7.69    0.38
   2  -6   0   36.53    1.09
   2  -6   0   34.99    0.99
   2  -6   0   37.85    1.13
  -2  -6   0   37.94    1.16
  -2  -6   0   36.59    1.04
   2  -6   1   35.03    1.04
   2  -6   1   34.93    1.09
  -2  -6  -1   33.09    0.99
   2  -6   1   33.89    0.96
   2   6   2    0.20    0.22
   2  -6   2   -0.02    0.28
   2  -6   2   -0.02    0.23
  -2  -6  -2    0.49    0.19
  -2  -6  -2    0.07    0.20
   2   6   3   17.17    0.58
   2  -6   3   15.10    0.70
   2  -6   3   16.48    0.67
   2   6   4    2.28    0.26
   2  -6   4    2.33    0.38
   2  -6   4    2.04    0.34
   2  -6   5    3.38    0.40
   2  -6   5    2.81    0.41
   2  -6   6    7.79    0.57
   2  -6   6    7.84    0.59
   2   7  -6    2.20    0.43
  -2  -7   6    4.14    0.44
   2   7  -5    0.63    0.38
  -2  -7   5    1.28    0.35
   2   7  -4    0.04    0.33
  -2  -7   4   -0.14    0.28
  -2  -7   3    1.75    0.33
   2  -7  -2    2.45    0.32
  -2  -7   2    2.36    0.34
   2  -7  -1    0.39    0.29
   2  -7  -1   -0.20    0.23
  -2  -7   1    0.50    0.26
  -2  -7   0   53.45    1.49
   2  -7   0   50.76    1.53
   2  -7   0   52.24    1.50
  -2  -7   0   51.42    1.56
   2  -7   1    0.31    0.24
  -2  -7  -1    0.80    0.24
  -2  -7  -1   -0.19    0.25
   2  -7   1   -0.28    0.32
   2  -7   2   17.31    0.67
   2  -7   2   16.66    0.76
   2  -7   3    1.04    0.36
   2  -7   3    1.26    0.31
   2  -7   4    0.43    0.31
   2  -7   4    0.24    0.34
  -2  -8   2    7.84    0.54
  -2  -8   2    8.19    0.54
   2  -8  -1    2.12    0.35
  -2  -8   1    2.78    0.34
  -2  -8   1    2.24    0.34
  -2  -8   0    5.65    0.44
   2  -8   0    4.64    0.51
  -2  -8  -1    0.24    0.29
   2  -8   1    0.49    0.36
   3   0 -12    4.51    0.52
  -3   0  11   -0.28    0.40
   3   0 -11    0.18    0.41
   3   0 -10    0.17    0.39
  -3   0  10    0.85    0.40
  -3   0   9   -0.14    0.32
   3   0  -9    0.02    0.32
  -3   0   8  166.07    4.54
   3   0  -8  177.15    4.29
  -3   0   7    0.02    0.24
   3   0  -7   -0.03    0.24
   3   0  -7   -0.12    0.23
  -3   0   7   -0.09    0.17
  -3   0   6  111.84    2.95
   3   0  -6  106.84    2.95
   3   0  -6  111.62    2.78
  -3   0   6  113.31    2.77
   3   0  -5    0.08    0.16
  -3   0   5    0.03    0.13
   3   0  -5   -0.05    0.16
  -3   0   5    0.00    0.15
  -3   0   4   13.47    0.43
  -3   0   4   12.43    0.43
   3   0  -4   12.52    0.42
  -3   0   4   13.10    0.42
   3   0  -4   12.91    0.45
  -3   0   4   12.64    0.43
   3   0  -3    0.06    0.12
   3   0  -3   -0.01    0.13
  -3   0   3   -0.02    0.12
  -3   0   3    0.20    0.12
  -3   0   3   -0.04    0.12
  -3   0   2    7.92    0.29
  -3   0   2    8.32    0.31
   3   0  -2    8.06    0.30
   3   0  -2    8.07    0.28
  -3   0   2    8.34    0.28
   3   0  -1    0.02    0.10
  -3   0   1    0.18    0.11
  -3   0   1    0.04    0.11
   3   0  -1    0.00    0.11
  -3   0   0  462.59   11.75
  -3   0   0  505.75   12.04
   3   0   0  482.60   11.77
   3   0   0  467.92   12.05
  -3   0  -1    0.09    0.15
   3   0   1   -0.07    0.13
   3   0   1   -0.02    0.14
  -3   0  -1   -0.08    0.12
  -3   0  -2   13.17    0.50
  -3   0  -2   12.32    0.44
   3   0   2   13.07    0.45
   3   0   2   13.21    0.46
   3   0   2   12.68    0.42
  -3   0  -3   -0.06    0.13
  -3   0  -3   -0.01    0.18
   3   0   3   -0.06    0.17
   3   0   3   -0.07    0.14
   3   0   3   -0.17    0.12
   3   0   4    2.37    0.26
  -3   0  -4    2.04    0.28
   3   0   4    1.94    0.23
   3   0   5   -0.15    0.17
  -3   0  -5   -0.14    0.25
   3   0   5    0.03    0.21
   3   0   6   32.52    0.98
   3   0   7   -0.11    0.26
   3   0   8    3.26    0.36
   3   0   9    0.18    0.33
   3   1 -11    1.06    0.43
  -3   1  11    0.34    0.41
  -3  -1  11    0.91    0.44
   3  -1 -11    1.80    0.42
  -3   1  10   14.28    0.71
   3   1 -10   13.64    0.70
   3  -1 -10   15.20    0.68
  -3  -1  10   14.52    0.72
   3   1  -9    2.12    0.39
  -3   1   9    1.91    0.37
   3  -1  -9    1.91    0.36
  -3  -1   9    2.16    0.38
   3   1  -8   67.10    1.78
  -3   1   8   66.74    1.87
  -3  -1   8   64.20    1.87
   3  -1  -8   65.02    1.76
  -3   1   7   12.93    0.50
  -3   1   7   12.93    0.53
   3   1  -7   12.87    0.55
   3   1  -7   12.98    0.60
   3  -1  -7   12.96    0.55
  -3  -1   7   13.07    0.56
   3  -1  -7   12.56    0.51
   3   1  -6    0.05    0.22
   3   1  -6   -0.08    0.22
  -3   1   6    0.06    0.19
  -3   1   6    0.24    0.14
  -3  -1   6    0.41    0.18
   3  -1  -6    0.06    0.19
   3  -1  -6    0.38    0.20
  -3  -1   6    0.11    0.21
  -3   1   5   65.38    1.78
   3   1  -5   66.84    1.73
   3   1  -5   68.76    1.84
  -3   1   5   66.40    1.72
  -3  -1   5   67.39    1.72
  -3  -1   5   65.06    1.82
   3  -1  -5   66.36    1.69
   3  -1  -5   67.01    1.78
  -3   1   4   43.81    1.15
  -3   1   4   43.52    1.18
  -3   1   4   43.46    1.12
   3   1  -4   44.63    1.16
   3   1  -4   44.86    1.24
   3  -1  -4   43.37    1.18
   3  -1  -4   43.38    1.12
  -3  -1   4   44.13    1.23
  -3  -1   4   45.06    1.16
  -3  -1   4   42.02    1.17
  -3   1   3  174.46    4.72
  -3   1   3  183.65    4.48
   3   1  -3  193.78    4.79
  -3   1   3  184.90    4.56
   3   1  -3  174.00    4.50
   3  -1  -3  180.48    4.57
  -3  -1   3  181.13    4.50
  -3  -1   3  184.61    4.79
  -3  -1   3  188.98    4.55
   3  -1  -3  177.43    4.71
  -3   1   2  197.45    4.87
  -3   1   2  197.36    4.80
   3   1  -2  192.50    4.84
   3   1  -2  197.79    4.79
   3  -1  -2  189.98    4.87
  -3  -1   2  193.08    4.78
  -3  -1   2  193.98    4.84
  -3  -1   2  200.53    4.95
  -3  -1   2  194.18    5.10
   3  -1  -2  191.66    4.80
  -3   1   1    1.38    0.16
  -3   1   1    1.37    0.13
   3   1  -1    1.59    0.13
   3   1  -1    0.92    0.14
   3   1  -1    1.40    0.14
   3  -1  -1    1.53    0.15
  -3  -1   1    1.38    0.15
  -3  -1   1    1.28    0.14
   3  -1  -1    1.47    0.16
   3   1   0  218.19    5.38
   3   1   0  218.08    5.51
  -3   1   0  211.48    5.71
  -3   1   0  216.33    5.53
  -3  -1   0  226.10    5.50
   3  -1   0  224.16    5.42
   3  -1   0  221.67    5.55
  -3  -1   0  213.42    5.38
   3   1   1   51.99    1.32
  -3   1  -1   50.31    1.37
  -3   1  -1   49.56    1.38
   3   1   1   49.88    1.32
  -3  -1  -1   52.66    1.34
  -3  -1  -1   50.99    1.33
   3  -1   1   49.18    1.38
   3  -1   1   51.54    1.37
   3   1   2   37.73    1.00
   3   1   2   36.12    0.93
  -3   1  -2   34.83    1.03
  -3   1  -2   35.09    1.01
   3   1   2   36.36    0.98
   3  -1   2   35.80    1.04
  -3  -1  -2   35.75    0.97
   3  -1   2   36.77    1.03
   3  -1   2   37.27    0.99
   3   1   3    0.86    0.17
  -3   1  -3    0.89    0.20
   3   1   3    0.75    0.12
   3   1   3    0.83    0.20
  -3  -1  -3    0.75    0.23
   3  -1   3    0.85    0.19
  -3  -1  -3    0.71    0.14
   3  -1   3    0.87    0.22
   3  -1   3    0.81    0.18
   3   1   4    5.24    0.36
   3   1   4    5.05    0.34
   3   1   4    5.62    0.27
  -3   1  -4    5.54    0.41
   3  -1   4    5.23    0.42
   3  -1   4    5.02    0.37
  -3  -1  -4    4.97    0.43
   3  -1   4    5.54    0.35
  -3   1  -5    2.71    0.32
   3   1   5    2.80    0.31
   3   1   5    2.80    0.26
   3   1   5    2.27    0.21
   3  -1   5    2.79    0.30
   3  -1   5    2.87    0.36
   3  -1   5    2.48    0.26
   3   1   6    2.25    0.35
   3   1   6    1.99    0.21
   3   1   6    2.18    0.28
   3  -1   6    2.19    0.32
   3  -1   6    2.90    0.40
   3   1   7    1.90    0.36
   3   1   7    1.19    0.30
   3  -1   7    2.09    0.43
   3  -1   7    1.96    0.34
   3  -1   8   16.78    0.83
   3  -1   8   17.25    0.72
   3  -1   9    1.51    0.50
   3  -1   9    1.91    0.37
   3   2 -11   15.66    0.76
  -3  -2  11   15.97    0.79
   3   2 -10    2.29    0.45
  -3  -2  10    2.11    0.43
   3  -2 -10    2.08    0.39
  -3   2   9    4.21    0.47
   3   2  -9    4.46    0.45
   3  -2  -9    4.28    0.45
  -3  -2   9    4.29    0.50
   3   2  -8   47.20    1.34
  -3   2   8   48.03    1.40
  -3  -2   8   44.81    1.41
   3  -2  -8   46.50    1.31
  -3   2   7   10.29    0.48
   3   2  -7    9.63    0.50
  -3  -2   7    8.09    0.49
   3  -2  -7    9.88    0.49
   3  -2  -7    9.55    0.43
  -3   2   6    6.39    0.37
  -3   2   6    6.57    0.31
   3   2  -6    7.13    0.46
   3   2  -6    7.16    0.43
   3  -2  -6    6.71    0.37
   3  -2  -6    6.75    0.35
  -3  -2   6    7.04    0.42
   3   2  -5   62.24    1.62
  -3   2   5   61.01    1.58
  -3   2   5   58.59    1.64
   3   2  -5   66.10    1.73
   3  -2  -5   60.83    1.64
  -3  -2   5   61.11    1.71
  -3  -2   5   60.17    1.62
  -3  -2   5   60.52    1.61
   3  -2  -5   61.01    1.55
   3   2  -4    6.99    0.35
   3   2  -4    7.59    0.39
  -3   2   4    7.09    0.32
   3  -2  -4    7.02    0.28
   3  -2  -4    7.41    0.28
  -3  -2   4    6.35    0.35
  -3  -2   4    6.69    0.33
  -3  -2   4    7.26    0.34
  -3   2   3  196.83    4.77
   3   2  -3  194.62    5.03
   3   2  -3  189.10    4.72
   3  -2  -3  191.16    4.78
  -3  -2   3  188.38    4.77
  -3  -2   3  187.13    5.03
  -3  -2   3  195.57    4.72
   3   2  -2    0.53    0.14
   3   2  -2    0.69    0.14
  -3   2   2    0.70    0.13
  -3  -2   2    0.89    0.14
  -3  -2   2    0.98    0.13
  -3  -2   2    0.69    0.16
   3  -2  -2    0.63    0.14
  -3   2   1    0.74    0.15
   3   2  -1    0.79    0.12
   3   2  -1    0.87    0.14
   3  -2  -1    0.71    0.14
  -3  -2   1    0.79    0.14
   3  -2  -1    0.98    0.10
  -3  -2   1    0.84    0.11
   3   2   0   13.67    0.40
  -3   2   0   13.45    0.42
  -3   2   0   14.10    0.48
   3   2   0   14.41    0.44
  -3  -2   0   14.25    0.43
  -3  -2   0   14.18    0.45
   3  -2   0   12.74    0.42
   3  -2   0   14.42    0.48
  -3   2  -1    8.56    0.38
  -3   2  -1    9.01    0.35
   3   2   1    9.18    0.35
   3  -2   1    9.48    0.40
  -3  -2  -1    9.42    0.37
  -3  -2  -1    9.80    0.33
   3  -2   1    9.26    0.39
   3  -2   1    8.71    0.35
   3   2   2   99.28    2.57
   3   2   2  104.01    2.55
  -3   2  -2  106.02    2.70
   3  -2   2  102.32    2.56
   3  -2   2   98.28    2.70
   3  -2   2  101.62    2.66
  -3  -2  -2  103.01    2.58
  -3  -2  -2   96.41    2.55
  -3   2  -3  114.19    3.00
   3   2   3  111.21    2.84
   3  -2   3  112.92    2.94
   3  -2   3  112.37    3.01
   3  -2   3  113.29    2.84
  -3   2  -4   83.46    2.23
   3   2   4   81.96    2.13
   3  -2   4   79.67    2.23
   3  -2   4   82.38    2.09
   3  -2   4   79.58    2.17
  -3  -2  -4   80.60    2.25
   3   2   5    3.35    0.37
   3  -2   5    3.89    0.45
   3  -2   5    3.48    0.40
   3   2   6   16.71    0.67
   3  -2   6   16.63    0.68
   3  -2   6   16.45    0.73
   3   2   7   19.07    0.76
   3  -2   7   19.25    0.76
   3  -2   7   18.72    0.83
   3  -2   8   20.04    0.89
   3  -2   8   19.83    0.80
   3  -2   9    8.93    0.67
   3  -2   9   10.11    0.59
   3   3 -11    1.44    0.45
   3   3 -10    2.11    0.43
  -3  -3  10    2.13    0.46
   3   3  -9    6.21    0.54
  -3  -3   9    6.19    0.53
   3  -3  -9    6.78    0.48
   3   3  -8    5.55    0.49
   3  -3  -8    6.89    0.47
  -3  -3   8    5.45    0.48
   3  -3  -8    6.14    0.42
   3   3  -7   -0.25    0.29
   3  -3  -7    0.08    0.25
   3  -3  -7    0.24    0.23
  -3  -3   7   -0.01    0.28
   3   3  -6    0.09    0.27
   3  -3  -6    0.57    0.21
  -3  -3   6    0.45    0.27
  -3  -3   6    0.07    0.21
   3  -3  -6    0.57    0.21
   3   3  -5  132.09    3.35
   3   3  -5  124.15    3.13
   3  -3  -5  122.67    3.25
  -3  -3   5  124.27    3.12
  -3  -3   5  120.99    3.16
  -3  -3   5  123.61    3.33
   3  -3  -5  122.21    3.16
  -3   3   4    8.19    0.33
   3   3  -4    8.27    0.42
   3   3  -4    8.15    0.39
   3  -3  -4    8.51    0.31
  -3  -3   4    7.59    0.38
  -3  -3   4    7.60    0.38
  -3  -3   4    7.65    0.40
   3  -3  -4    7.79    0.33
  -3   3   3   18.76    0.55
   3   3  -3   17.79    0.57
   3  -3  -3   17.54    0.55
  -3  -3   3   17.69    0.62
  -3  -3   3   17.52    0.58
   3   3  -2   19.22    0.60
   3   3  -2   19.39    0.58
  -3   3   2   19.83    0.59
  -3  -3   2   20.02    0.60
   3  -3  -2   18.95    0.60
  -3  -3   2   19.99    0.65
   3   3  -1    6.07    0.27
   3   3  -1    5.91    0.30
  -3   3   1    6.50    0.32
   3  -3  -1    5.20    0.32
  -3  -3   1    6.23    0.29
  -3   3   0   12.52    0.48
   3   3   0   12.85    0.39
   3   3   0   13.09    0.43
  -3   3   0   12.23    0.41
   3  -3   0   13.13    0.48
  -3  -3   0   13.22    0.44
  -3  -3   0   13.98    0.39
   3  -3   0   12.51    0.48
   3  -3   0   12.34    0.41
   3   3   1  113.07    2.86
  -3   3  -1  112.96    3.01
  -3  -3  -1  113.18    2.86
   3  -3   1  114.29    3.01
   3  -3   1  114.68    2.87
   3  -3   1  113.55    2.97
  -3  -3  -1  117.83    2.90
  -3   3  -2    2.81    0.24
   3   3   2    2.43    0.25
   3  -3   2    2.33    0.25
   3  -3   2    2.60    0.24
  -3  -3  -2    2.31    0.23
   3  -3   2    2.55    0.23
  -3   3  -3   96.96    2.63
   3   3   3   99.41    2.51
   3  -3   3   97.62    2.64
   3  -3   3   98.81    2.60
   3   3   4    3.65    0.35
  -3   3  -4    4.27    0.42
   3  -3   4    3.23    0.34
   3  -3   4    3.70    0.43
   3   3   5   97.45    2.56
   3  -3   5   99.65    2.66
   3  -3   5   92.97    2.57
   3   3   6    0.09    0.29
   3  -3   6    0.46    0.36
   3  -3   6    0.35    0.31
   3   3   7    2.32    0.37
   3  -3   7    3.13    0.46
   3  -3   7    2.78    0.40
   3   3   8    0.09    0.34
   3  -3   8    0.55    0.37
   3  -3   8   -0.02    0.43
   3   4 -10    2.19    0.45
  -3  -4  10    1.81    0.45
   3   4  -9    7.50    0.58
  -3  -4   9    7.39    0.57
   3   4  -8    0.44    0.36
   3  -4  -8    0.45    0.28
  -3  -4   8    0.64    0.37
   3   4  -7    7.73    0.52
  -3  -4   7    7.93    0.53
   3  -4  -7    8.40    0.41
   3   4  -6    0.14    0.30
  -3  -4   6   -0.23    0.27
   3  -4  -6    0.32    0.22
   3  -4  -6    0.11    0.22
  -3  -4   6   -0.10    0.23
   3   4  -5    3.73    0.40
  -3  -4   5    4.18    0.38
   3  -4  -5    4.62    0.34
  -3  -4   5    3.58    0.41
   3   4  -4   21.65    0.70
   3  -4  -4   20.11    0.65
  -3  -4   4   21.18    0.75
  -3  -4   4   21.48    0.70
   3  -4  -4   20.24    0.64
   3   4  -3   60.25    1.59
  -3  -4   3   60.85    1.72
   3  -4  -3   60.48    1.62
  -3  -4   3   61.57    1.62
   3   4  -2    9.23    0.39
  -3  -4   2    8.50    0.44
   3  -4  -2    8.46    0.41
  -3  -4   2    9.05    0.39
   3   4  -1   15.22    0.53
   3   4  -1   15.69    0.51
  -3  -4   1   15.60    0.53
   3  -4  -1   15.41    0.56
   3  -4  -1   15.37    0.49
  -3  -4   1   16.85    0.50
   3   4   0   17.29    0.52
   3   4   0   16.97    0.57
   3  -4   0   16.92    0.60
  -3  -4   0   18.88    0.52
  -3  -4   0   18.02    0.57
   3  -4   0   16.84    0.62
   3  -4   0   16.59    0.54
   3   4   1    3.16    0.27
  -3   4  -1    2.71    0.29
   3  -4   1    2.81    0.28
   3  -4   1    2.74    0.27
  -3  -4  -1    3.22    0.29
   3   4   2    1.05    0.20
  -3   4  -2    1.22    0.21
   3  -4   2    1.27    0.27
  -3  -4  -2    1.30    0.22
   3  -4   2    0.92    0.22
  -3   4  -3   22.90    0.79
   3   4   3   24.37    0.75
  -3  -4  -3   24.53    0.77
   3  -4   3   24.24    0.83
   3  -4   3   23.39    0.80
   3   4   4    2.24    0.28
  -3   4  -4    2.63    0.29
   3  -4   4    2.84    0.34
   3  -4   4    2.76    0.34
   3   4   5    3.51    0.36
   3  -4   5    3.64    0.40
   3  -4   5    3.58    0.38
   3   4   6    0.19    0.29
   3  -4   6    0.75    0.38
   3  -4   6    0.72    0.34
   3   4   7   13.05    0.62
   3  -4   7   15.32    0.76
   3  -4   7   13.16    0.67
   3   4   8    2.60    0.37
   3  -4   8    3.33    0.44
   3  -4   8    4.69    0.53
   3   5  -9    8.34    0.62
  -3  -5   9   10.20    0.65
   3   5  -8   10.10    0.63
  -3  -5   8   11.88    0.67
   3   5  -7    8.63    0.57
  -3  -5   7   10.23    0.60
   3  -5  -7    9.75    0.44
   3   5  -6    0.05    0.32
   3  -5  -6    0.40    0.25
  -3  -5   6    0.78    0.33
   3   5  -5   47.41    1.35
   3  -5  -5   48.04    1.39
  -3  -5   5   48.04    1.37
  -3  -5   5   47.59    1.45
   3   5  -4    3.18    0.33
  -3  -5   4    2.75    0.36
   3  -5  -4    2.56    0.25
  -3  -5   4    2.80    0.29
   3  -5  -4    2.37    0.25
   3   5  -3   77.00    1.96
   3  -5  -3   75.82    2.03
  -3  -5   3   75.30    1.98
  -3  -5   3   72.93    2.10
   3  -5  -3   75.60    2.03
   3   5  -2    5.47    0.38
  -3  -5   2    5.05    0.36
   3  -5  -2    5.81    0.29
   3  -5  -2    4.89    0.41
  -3  -5   2    4.68    0.43
   3   5  -1    7.76    0.39
   3   5  -1    8.42    0.41
  -3  -5   1    6.87    0.43
  -3  -5   1    7.83    0.38
   3  -5  -1    7.84    0.35
   3  -5  -1    7.34    0.45
   3   5   0   13.11    0.47
   3   5   0   12.11    0.49
  -3  -5   0   13.81    0.46
  -3  -5   0   12.66    0.49
   3  -5   0   12.28    0.57
   3  -5   0   12.01    0.47
   3   5   1    9.88    0.44
   3  -5   1    9.45    0.43
   3  -5   1    9.26    0.53
  -3  -5  -1   10.24    0.44
   3   5   2    4.75    0.34
  -3   5  -2    4.93    0.37
   3  -5   2    4.28    0.35
  -3  -5  -2    4.96    0.37
   3  -5   2    4.06    0.45
   3   5   3   19.25    0.66
  -3   5  -3   21.12    0.72
   3  -5   3   19.51    0.76
   3  -5   3   19.72    0.71
  -3  -5  -3   19.62    0.69
   3   5   4    4.98    0.36
   3  -5   4    5.38    0.49
   3  -5   4    5.26    0.47
   3   5   5   12.33    0.54
   3  -5   5   13.98    0.68
   3  -5   5   13.69    0.67
   3   5   6    0.16    0.26
   3  -5   6   -0.01    0.35
   3  -5   6   -0.07    0.36
   3  -5   7    0.17    0.36
   3  -5   7   -0.32    0.37
   3   6  -8   23.90    0.94
  -3  -6   8   26.47    1.00
   3   6  -7    0.15    0.37
  -3  -6   7    0.93    0.38
   3   6  -6    9.83    0.60
  -3  -6   6    9.26    0.59
   3   6  -5    2.63    0.37
  -3  -6   5    3.61    0.41
   3   6  -4    0.74    0.31
   3  -6  -4    1.00    0.24
  -3  -6   4    1.23    0.34
   3   6  -3   15.75    0.63
   3  -6  -3   16.38    0.65
  -3  -6   3   16.04    0.69
  -3  -6   3   15.84    0.62
   3  -6  -3   16.06    0.56
   3   6  -2   12.03    0.53
  -3  -6   2   12.16    0.50
   3  -6  -2   11.90    0.47
   3  -6  -2   11.85    0.57
  -3  -6   2   11.52    0.57
   3   6  -1   37.07    1.05
  -3  -6   1   37.12    1.18
  -3  -6   1   35.95    1.06
   3  -6  -1   36.82    1.14
   3  -6  -1   37.84    1.07
   3  -6   0    2.07    0.24
   3  -6   0    2.63    0.30
   3  -6   0    1.85    0.33
   3   6   1    7.18    0.41
   3  -6   1    6.46    0.38
   3  -6   1    7.02    0.36
   3  -6   1    6.15    0.52
  -3  -6  -1    7.36    0.41
   3   6   2    6.78    0.39
   3  -6   2    6.27    0.52
   3  -6   2    6.49    0.42
   3   6   3    6.87    0.41
   3  -6   3    7.45    0.56
   3  -6   3    6.27    0.45
   3   6   4    0.01    0.23
   3  -6   4    0.43    0.34
   3  -6   4    0.18    0.30
   3  -6   5    1.34    0.38
   3  -6   5    1.20    0.37
   3  -6   6    1.77    0.45
   3  -6   6    1.07    0.44
   3   7  -6   -0.18    0.35
  -3  -7   6   -0.28    0.32
   3   7  -5    1.01    0.36
  -3  -7   5    1.26    0.35
   3   7  -4    2.93    0.39
  -3  -7   4    2.53    0.38
   3   7  -3    0.39    0.31
  -3  -7   3    0.31    0.30
   3  -7  -3    0.42    0.29
  -3  -7   2   16.97    0.72
   3  -7  -2   16.74    0.71
   3  -7  -1   -0.02    0.30
  -3  -7   1    0.24    0.29
   3  -7   0   52.76    1.58
  -3  -7   0   54.59    1.63
   3  -7   1    1.21    0.37
   3  -7   2    6.51    0.58
   3  -7   3    4.89    0.55
   3  -7   4    3.85    0.50
  -3  -8   2    1.69    0.36
  -3  -8   1    1.01    0.31
   3  -8  -1    0.71    0.36
  -3  -8   1    0.77    0.31
   4   0 -12    0.44    0.42
  -4   0  12    1.06    0.43
  -4   0  11   -0.02    0.38
   4   0 -11    0.31    0.40
   4   0 -10   21.67    0.84
  -4   0  10   21.92    0.86
  -4   0   9    0.02    0.29
   4   0  -9   -0.12    0.32
  -4   0   8  288.61    7.46
   4   0  -8  289.23    7.03
   4   0  -8  280.87    7.46
  -4   0   7   -0.02    0.19
   4   0  -7    0.15    0.25
   4   0  -7    0.02    0.24
  -4   0   7   -0.01    0.23
  -4   0   6  173.81    4.32
  -4   0   6  177.11    4.36
  -4   0   6  177.73    4.59
   4   0  -6  177.64    4.60
   4   0  -6  170.72    4.33
   4   0  -5   -0.04    0.17
   4   0  -5   -0.04    0.16
  -4   0   5    0.01    0.14
  -4   0   5   -0.06    0.14
  -4   0   5   -0.02    0.16
  -4   0   5   -0.03    0.15
   4   0  -4    1.73    0.17
  -4   0   4    1.95    0.23
   4   0  -4    1.95    0.18
  -4   0   4    2.17    0.26
  -4   0   4    1.60    0.17
   4   0  -3    0.01    0.13
   4   0  -3   -0.02    0.12
  -4   0   3   -0.02    0.12
  -4   0   3    0.04    0.12
   4   0  -3   -0.02    0.12
  -4   0   3   -0.08    0.12
   4   0  -2   23.44    0.69
   4   0  -2   24.12    0.67
  -4   0   2   24.14    0.67
  -4   0   2   24.37    0.70
  -4   0   1   -0.01    0.14
  -4   0   1    0.05    0.14
   4   0  -1   -0.04    0.12
   4   0  -1    0.04    0.13
   4   0   0    8.50    0.35
  -4   0   0    8.66    0.37
   4   0   0    8.42    0.32
  -4   0   0    9.18    0.41
   4   0   1   -0.09    0.15
   4   0   1   -0.06    0.14
  -4   0  -1   -0.16    0.13
  -4   0  -1   -0.06    0.16
   4   0   2   41.75    1.13
   4   0   2   39.70    1.13
   4   0   2   40.18    1.07
  -4   0  -2   39.88    1.17
  -4   0  -2   41.16    1.13
   4   0   3   -0.02    0.19
  -4   0  -3   -0.17    0.20
   4   0   3   -0.02    0.19
   4   0   3   -0.29    0.15
   4   0   4    5.38    0.33
  -4   0  -4    5.11    0.46
   4   0   4    4.77    0.40
   4   0   4    4.85    0.39
   4   0   5   -0.16    0.28
   4   0   5   -0.26    0.25
   4   0   6    5.75    0.47
   4   0   6    5.38    0.44
   4   0   7   -0.03    0.34
   4   0   7   -0.03    0.29
   4   0   8    3.02    0.38
   4   1 -12    3.35    0.47
  -4   1  12    4.47    0.52
   4  -1 -12    3.47    0.45
  -4   1  11    7.58    0.59
   4   1 -11    7.20    0.61
  -4  -1  11    8.03    0.59
  -4   1  10   14.41    0.69
   4   1 -10   14.11    0.69
  -4  -1  10   14.21    0.70
   4  -1 -10   15.39    0.68
   4   1  -9   14.79    0.68
  -4   1   9   15.27    0.66
  -4  -1   9   15.13    0.68
   4  -1  -9   15.25    0.65
   4   1  -8    2.08    0.35
  -4   1   8    2.98    0.33
   4  -1  -8    1.67    0.33
  -4  -1   8    2.04    0.33
   4  -1  -8    2.52    0.31
   4   1  -7   11.68    0.56
  -4   1   7   13.01    0.52
   4   1  -7   13.25    0.54
  -4  -1   7   12.33    0.52
  -4  -1   7   12.21    0.55
   4  -1  -7   13.49    0.54
   4  -1  -7   13.11    0.52
   4   1  -6   79.11    2.10
  -4   1   6   78.24    1.95
   4   1  -6   77.64    1.98
  -4   1   6   79.54    1.99
  -4   1   6   76.76    2.05
  -4  -1   6   76.21    1.99
  -4  -1   6   76.21    2.09
   4  -1  -6   75.73    1.95
   4  -1  -6   75.63    2.06
  -4  -1   6   68.77    1.96
  -4   1   5   90.21    2.27
  -4   1   5   87.79    2.33
   4   1  -5   90.78    2.40
  -4   1   5   91.46    2.23
   4   1  -5   83.36    2.25
   4  -1  -5   85.58    2.21
   4  -1  -5   89.09    2.34
  -4  -1   5   88.49    2.39
  -4  -1   5   89.77    2.25
  -4  -1   5   89.95    2.28
   4   1  -4    1.03    0.18
  -4   1   4    0.99    0.13
  -4   1   4    0.91    0.12
  -4   1   4    1.26    0.15
   4   1  -4    0.94    0.18
   4  -1  -4    0.97    0.14
  -4  -1   4    1.12    0.16
  -4  -1   4    1.14    0.17
  -4  -1   4    1.13    0.16
   4  -1  -4    1.22    0.15
   4  -1  -4    1.05    0.14
   4   1  -3   26.81    0.76
   4   1  -3   27.19    0.76
  -4   1   3   27.89    0.78
  -4   1   3   26.25    0.75
  -4   1   3   27.83    0.72
   4  -1  -3   27.07    0.72
   4  -1  -3   28.14    0.76
  -4  -1   3   26.58    0.79
  -4  -1   3   26.54    0.77
  -4  -1   3   27.92    0.77
   4  -1  -3   28.22    0.77
  -4  -1   3   27.92    0.81
  -4   1   2   11.53    0.36
  -4   1   2   11.66    0.43
   4   1  -2   10.53    0.37
   4   1  -2   10.96    0.38
   4  -1  -2   11.53    0.35
  -4  -1   2   10.98    0.39
  -4  -1   2   11.01    0.41
   4  -1  -2   10.51    0.40
  -4   1   1   50.69    1.34
  -4   1   1   49.96    1.28
   4   1  -1   49.62    1.30
   4   1  -1   47.37    1.32
   4   1  -1   48.49    1.27
  -4  -1   1   49.72    1.30
   4  -1  -1   50.40    1.28
  -4  -1   1   51.94    1.33
   4  -1  -1   49.19    1.33
   4   1   0  355.55    9.08
  -4   1   0  348.76    9.37
  -4   1   0  359.14    9.11
   4   1   0  378.40    8.88
  -4  -1   0  349.10    8.86
   4  -1   0  378.01    8.91
  -4  -1   0  367.07    9.07
   4  -1   0  361.15    9.13
   4   1   1   -0.01    0.15
   4   1   1    0.04    0.14
  -4   1  -1    0.01    0.15
  -4   1  -1    0.04    0.15
  -4  -1  -1    0.02    0.15
  -4  -1  -1   -0.04    0.17
   4  -1   1    0.06    0.16
   4  -1   1   -0.12    0.16
  -4   1  -2   11.78    0.49
   4   1   2   12.88    0.46
   4   1   2   12.47    0.47
  -4   1  -2   11.38    0.48
   4  -1   2   13.68    0.49
   4  -1   2   12.71    0.50
   4  -1   2   13.27    0.48
  -4  -1  -2   12.09    0.47
   4   1   3    6.73    0.36
   4   1   3    6.42    0.38
   4   1   3    6.79    0.31
  -4   1  -3    6.62    0.44
  -4  -1  -3    6.77    0.35
   4  -1   3    7.52    0.41
  -4  -1  -3    6.70    0.45
   4  -1   3    6.36    0.39
   4  -1   3    6.20    0.44
   4   1   4   41.86    1.17
   4   1   4   40.92    1.20
  -4   1  -4   41.83    1.25
   4   1   4   41.70    1.10
  -4  -1  -4   43.09    1.29
   4  -1   4   40.05    1.21
   4  -1   4   40.90    1.27
   4  -1   4   42.07    1.16
   4   1   5   12.22    0.55
   4   1   5   13.33    0.59
   4   1   5   13.25    0.47
   4  -1   5   13.14    0.58
   4  -1   5   12.37    0.63
   4   1   6   32.49    1.06
   4   1   6   34.35    1.00
   4  -1   6   32.11    1.04
   4  -1   6   32.87    1.12
   4   1   7    2.71    0.41
   4   1   7    2.53    0.34
   4  -1   7    2.80    0.38
   4  -1   8   13.91    0.65
   4  -1   9   -0.12    0.41
   4   2 -11   26.43    0.99
  -4   2  11   26.07    0.99
  -4  -2  11   26.42    1.01
  -4   2  10    6.79    0.54
   4   2 -10    6.23    0.56
  -4  -2  10    6.50    0.57
   4  -2 -10    7.16    0.53
   4   2  -9    3.05    0.41
  -4   2   9    3.30    0.39
  -4  -2   9    3.13    0.41
   4  -2  -9    2.65    0.37
   4   2  -8    5.15    0.48
  -4   2   8    5.99    0.42
   4  -2  -8    6.77    0.46
   4  -2  -8    5.47    0.42
  -4  -2   8    6.42    0.46
  -4  -2   8    5.96    0.48
   4   2  -7   13.23    0.57
  -4   2   7   12.25    0.50
  -4  -2   7   12.19    0.56
   4  -2  -7   12.58    0.52
   4  -2  -7   12.33    0.49
  -4  -2   7   11.72    0.52
  -4   2   6   26.00    0.75
  -4   2   6   26.16    0.72
   4   2  -6   25.20    0.79
  -4   2   6   25.09    0.77
   4   2  -6   26.65    0.86
  -4  -2   6   25.90    0.84
  -4  -2   6   23.86    0.79
   4  -2  -6   24.72    0.74
   4  -2  -6   25.19    0.78
  -4   2   5   63.36    1.78
  -4   2   5   68.20    1.75
   4   2  -5   68.02    1.75
   4   2  -5   71.97    1.88
   4  -2  -5   66.20    1.70
  -4  -2   5   65.01    1.77
  -4  -2   5   67.29    1.75
   4  -2  -5   65.34    1.78
  -4  -2   5   68.55    1.86
   4  -2  -5   66.77    1.74
   4   2  -4   60.18    1.57
   4   2  -4   54.64    1.46
  -4   2   4   54.29    1.46
   4  -2  -4   53.35    1.47
   4  -2  -4   54.79    1.45
  -4  -2   4   55.85    1.46
  -4  -2   4   57.07    1.56
  -4  -2   4   54.35    1.48
   4   2  -3   64.10    1.68
  -4   2   3   66.03    1.69
   4   2  -3   64.13    1.66
  -4  -2   3   65.75    1.69
  -4  -2   3   62.33    1.66
   4  -2  -3   66.92    1.68
  -4  -2   3   63.76    1.77
  -4   2   2    2.78    0.29
   4   2  -2    2.63    0.23
   4   2  -2    2.78    0.23
   4  -2  -2    2.91    0.16
  -4  -2   2    2.93    0.24
  -4  -2   2    2.53    0.26
  -4  -2   2    2.74    0.25
   4  -2  -2    2.59    0.27
   4   2  -1    8.99    0.35
  -4   2   1    9.03    0.40
   4   2  -1    9.08    0.32
  -4  -2   1    8.69    0.36
   4  -2  -1    9.45    0.31
  -4  -2   1    9.22    0.36
   4  -2  -1    9.30    0.40
   4   2   0  212.14    5.10
  -4   2   0  204.46    5.24
   4   2   0  200.00    5.03
  -4   2   0  204.67    5.37
   4  -2   0  206.00    5.39
  -4  -2   0  203.81    5.10
  -4  -2   0  207.75    5.20
   4  -2   0  211.82    5.11
   4  -2   0  207.90    5.26
  -4   2  -1    0.59    0.16
  -4   2  -1    0.55    0.18
   4   2   1    0.61    0.17
   4   2   1    0.62    0.14
  -4  -2  -1    0.45    0.19
   4  -2   1    0.71    0.19
  -4  -2  -1    0.89    0.15
   4  -2   1    0.36    0.19
   4  -2   1    0.82    0.17
   4   2   2   41.38    1.15
   4   2   2   40.14    1.11
  -4   2  -2   41.94    1.19
  -4  -2  -2   40.01    1.16
   4  -2   2   42.10    1.20
   4  -2   2   41.93    1.19
  -4  -2  -2   43.17    1.14
   4  -2   2   42.24    1.16
  -4   2  -3    6.26    0.41
   4   2   3    6.15    0.38
   4   2   3    6.34    0.31
   4  -2   3    6.52    0.43
  -4  -2  -3    6.41    0.34
   4  -2   3    5.78    0.42
   4  -2   3    6.11    0.42
   4   2   4    3.89    0.28
  -4   2  -4    4.23    0.41
   4   2   4    4.28    0.38
   4  -2   4    3.82    0.43
   4  -2   4    3.88    0.42
   4   2   5   15.72    0.64
   4  -2   5   15.77    0.66
   4  -2   5   15.89    0.71
   4   2   6    6.34    0.47
   4  -2   6    6.35    0.50
   4  -2   6    6.25    0.56
   4   2   7   10.60    0.61
   4  -2   7   11.82    0.62
   4  -2   7   12.80    0.70
   4  -2   8    0.83    0.45
   4  -2   8    0.91    0.37
   4   3 -10    1.91    0.44
  -4  -3  10    1.63    0.42
   4  -3 -10    1.51    0.38
   4   3  -9    1.31    0.40
   4  -3  -9    1.70    0.35
  -4  -3   9    2.17    0.39
   4   3  -8   -0.03    0.32
   4  -3  -8    0.08    0.27
  -4  -3   8    0.11    0.33
   4  -3  -8   -0.02    0.26
   4   3  -7   -0.15    0.30
  -4  -3   7   -0.14    0.28
  -4  -3   7    0.01    0.23
   4  -3  -7   -0.04    0.24
   4  -3  -7    0.01    0.22
   4   3  -6    1.01    0.29
   4  -3  -6    0.62    0.19
  -4  -3   6    0.89    0.29
   4  -3  -6    1.00    0.24
  -4  -3   6    0.92    0.23
   4   3  -5   29.51    0.91
  -4   3   5   31.17    0.87
   4   3  -5   30.98    0.98
   4  -3  -5   29.93    0.86
  -4  -3   5   31.50    0.93
   4  -3  -5   30.83    0.86
  -4  -3   5   28.31    0.95
  -4   3   4   16.35    0.53
   4   3  -4   15.46    0.55
  -4  -3   4   14.62    0.54
   4  -3  -4   15.63    0.52
  -4  -3   4   15.24    0.55
  -4  -3   4   15.64    0.59
  -4   3   3    7.82    0.36
   4   3  -3    7.11    0.35
   4   3  -3    6.88    0.36
   4  -3  -3    6.69    0.35
  -4  -3   3    7.05    0.40
  -4  -3   3    6.75    0.35
  -4   3   2   31.01    0.90
   4   3  -2   30.96    0.89
   4   3  -2   30.61    0.85
  -4  -3   2   31.89    0.89
   4  -3  -2   31.21    0.90
  -4   3   1  113.61    2.95
   4   3  -1  114.39    2.89
   4   3  -1  113.52    2.83
   4  -3  -1  113.27    2.84
  -4  -3   1  121.25    2.95
  -4  -3   1  112.84    2.88
   4  -3  -1  111.19    2.95
   4   3   0   13.83    0.41
   4   3   0   13.53    0.48
  -4   3   0   13.36    0.43
   4  -3   0   13.46    0.53
  -4  -3   0   14.12    0.47
   4  -3   0   12.67    0.43
  -4  -3   0   13.77    0.49
  -4   3  -1   25.63    0.79
   4   3   1   26.47    0.78
  -4  -3  -1   28.58    0.77
   4  -3   1   26.59    0.84
   4  -3   1   26.83    0.82
  -4  -3  -1   26.58    0.81
   4  -3   1   25.33    0.79
  -4   3  -2    0.33    0.20
   4   3   2    0.35    0.21
  -4  -3  -2    1.00    0.16
   4  -3   2    0.18    0.21
   4  -3   2    0.15    0.23
  -4  -3  -2    0.48    0.22
  -4   3  -3  124.09    3.16
   4   3   3  117.20    3.04
   4  -3   3  115.74    3.15
   4  -3   3  116.72    3.11
   4   3   4    0.16    0.26
  -4   3  -4    0.21    0.25
   4  -3   4    0.25    0.30
   4  -3   4    0.06    0.29
   4   3   5   18.42    0.70
   4  -3   5   18.46    0.74
   4  -3   5   19.48    0.77
   4   3   6    0.47    0.32
   4  -3   6    0.41    0.34
   4  -3   6    0.84    0.38
   4   3   7   -0.21    0.33
   4  -3   7   -0.06    0.40
   4  -3   7   -0.02    0.35
   4  -3   8    0.51    0.38
   4  -3   8    1.63    0.46
   4   4 -10    1.23    0.43
  -4  -4  10    1.19    0.42
   4   4  -9    4.52    0.48
  -4  -4   9    5.78    0.55
   4  -4  -9    5.59    0.45
   4   4  -8    0.18    0.35
  -4  -4   8    0.22    0.34
   4  -4  -8    0.31    0.29
   4   4  -7    9.67    0.55
   4  -4  -7    9.77    0.46
  -4  -4   7    9.94    0.58
   4  -4  -7   11.10    0.50
   4   4  -6    1.08    0.31
   4  -4  -6    0.88    0.20
  -4  -4   6    0.35    0.25
   4  -4  -6    0.85    0.21
  -4  -4   6    0.91    0.31
   4   4  -5   32.72    0.98
   4  -4  -5   32.02    0.92
  -4  -4   5   31.57    0.98
   4  -4  -5   32.56    0.92
  -4  -4   5   32.20    1.04
   4   4  -4   33.05    0.97
  -4  -4   4   32.94    1.05
  -4  -4   4   33.98    1.00
   4  -4  -4   32.13    0.96
   4   4  -3  184.25    4.58
  -4  -4   3  189.09    4.65
  -4  -4   3  183.15    4.90
   4  -4  -3  186.73    4.75
   4   4  -2    5.28    0.35
   4   4  -2    5.27    0.33
  -4  -4   2    4.16    0.39
  -4  -4   2    5.10    0.34
   4  -4  -2    4.28    0.39
   4   4  -1    2.52    0.26
   4   4  -1    2.64    0.28
   4  -4  -1    2.37    0.27
  -4  -4   1    2.99    0.27
  -4  -4   1    2.76    0.29
   4   4   0   -0.11    0.13
   4   4   0    0.04    0.19
  -4  -4   0    0.15    0.19
   4  -4   0   -0.09    0.22
  -4  -4   0   -0.04    0.13
   4  -4   0   -0.08    0.14
  -4   4  -1    5.18    0.32
   4   4   1    4.97    0.33
   4  -4   1    4.82    0.43
   4  -4   1    4.38    0.32
  -4  -4  -1    5.72    0.38
  -4   4  -2    0.85    0.20
   4   4   2    0.44    0.22
  -4  -4  -2    0.87    0.24
   4  -4   2    0.28    0.27
   4  -4   2    0.36    0.22
   4   4   3    1.25    0.27
  -4   4  -3    1.86    0.25
   4  -4   3    1.70    0.29
   4  -4   3    1.47    0.32
  -4  -4  -3    1.36    0.27
   4   4   4   -0.10    0.24
   4  -4   4    0.19    0.31
   4  -4   4    0.20    0.30
   4   4   5    1.64    0.31
   4  -4   5    2.39    0.39
   4  -4   5    1.88    0.37
   4   4   6   -0.25    0.29
   4  -4   6    0.16    0.38
   4  -4   6    0.32    0.36
   4   4   7    9.82    0.56
   4  -4   7   11.07    0.67
   4  -4   7    9.99    0.62
   4   5  -9   10.12    0.65
  -4  -5   9   10.27    0.66
   4   5  -8   -0.10    0.36
  -4  -5   8    0.42    0.36
   4   5  -7   10.52    0.58
   4  -5  -7   11.08    0.50
  -4  -5   7    9.14    0.58
   4   5  -6    1.02    0.33
  -4  -5   6    1.64    0.35
   4   5  -5   68.49    1.85
   4  -5  -5   67.93    1.89
  -4  -5   5   72.22    2.00
   4   5  -4    0.07    0.25
  -4  -5   4    0.16    0.24
  -4  -5   4   -0.24    0.28
   4  -5  -4   -0.20    0.23
   4   5  -3   15.93    0.59
  -4  -5   3   15.40    0.65
   4  -5  -3   15.38    0.63
  -4  -5   3   16.04    0.61
   4   5  -2    3.19    0.28
  -4  -5   2    2.78    0.28
  -4  -5   2    3.25    0.35
   4  -5  -2    2.30    0.31
   4   5  -1   11.65    0.50
   4   5  -1   11.73    0.46
  -4  -5   1   11.33    0.49
   4  -5  -1   10.86    0.56
   4   5   0   50.43    1.42
   4   5   0   51.12    1.34
  -4  -5   0   51.21    1.42
  -4  -5   0   57.03    1.35
   4  -5   0   49.58    1.41
   4  -5   0   50.58    1.49
   4   5   1   29.98    0.92
  -4  -5  -1   29.93    0.93
   4  -5   1   29.47    0.89
   4  -5   1   30.80    1.00
  -4   5  -2    0.12    0.18
   4   5   2    0.03    0.22
   4  -5   2    0.06    0.29
   4  -5   2    0.21    0.22
  -4  -5  -2    0.11    0.23
   4   5   3   11.71    0.50
  -4  -5  -3   12.06    0.56
   4  -5   3   12.05    0.62
   4  -5   3   11.84    0.56
   4   5   4   -0.19    0.24
   4  -5   4   -0.02    0.34
   4  -5   4   -0.09    0.29
   4  -5   5    9.50    0.62
   4  -5   5    9.79    0.62
   4  -5   6    2.83    0.43
   4  -5   6    2.80    0.43
   4   6  -8   27.98    1.02
   4   6  -7    0.39    0.35
  -4  -6   7    0.56    0.37
   4   6  -6   19.67    0.78
  -4  -6   6   19.27    0.82
   4   6  -5    9.16    0.54
   4  -6  -5    7.20    0.47
  -4  -6   5    9.72    0.58
   4   6  -4    0.24    0.29
   4  -6  -4    0.52    0.28
  -4  -6   4    0.38    0.32
   4   6  -3   21.06    0.74
   4  -6  -3   21.16    0.78
  -4  -6   3   21.48    0.82
  -4  -6   3   21.45    0.75
   4   6  -2   -0.13    0.23
  -4  -6   2    0.06    0.22
  -4  -6   2   -0.14    0.27
   4  -6  -2   -0.07    0.28
   4   6  -1    7.09    0.42
  -4  -6   1    7.28    0.43
   4  -6  -1    6.05    0.51
  -4  -6   1    6.74    0.47
   4   6   0   12.19    0.54
   4  -6   0   12.35    0.62
  -4  -6   0   11.71    0.53
   4  -6   0   12.23    0.47
   4   6   1   -0.04    0.24
   4  -6   1    0.13    0.31
   4  -6   1   -0.01    0.21
   4   6   2    1.99    0.29
   4  -6   2    1.48    0.27
   4  -6   2    1.60    0.37
   4   6   3    0.14    0.24
   4  -6   3    0.19    0.28
   4  -6   3    0.02    0.34
   4   6   4   -0.20    0.23
   4  -6   4    0.12    0.31
   4  -6   4   -0.07    0.35
   4  -6   5    2.84    0.44
   4  -6   5    3.21    0.42
   4   7  -6    3.22    0.41
  -4  -7   6    3.47    0.43
   4   7  -5    0.25    0.31
  -4  -7   5    0.37    0.35
   4   7  -4    1.18    0.32
  -4  -7   4    1.85    0.38
   4   7  -3    0.70    0.30
   4  -7  -3    0.49    0.32
  -4  -7   3    0.74    0.32
   4   7  -2   17.73    0.68
  -4  -7   2   17.87    0.75
   4  -7  -2   17.85    0.76
  -4  -7   1    1.74    0.35
   4  -7  -1    1.90    0.38
  -4  -7   0   21.25    0.83
   4  -7   0   21.65    0.86
   4  -7   1    8.55    0.60
   4  -7   2    0.40    0.37
   4  -7   3    2.55    0.44
   5   0 -12    1.44    0.44
  -5   0  12    1.51    0.44
  -5   0  11   -0.56    0.36
   5   0 -11   -0.40    0.38
   5   0 -10   54.62    1.58
  -5   0  10   54.30    1.64
  -5   0   9   -0.19    0.22
  -5   0   9    0.26    0.30
   5   0  -9   -0.11    0.31
  -5   0   8  186.12    4.88
   5   0  -8  182.51    4.61
  -5   0   8  187.16    4.65
   5   0  -8  185.33    4.90
  -5   0   7   -0.16    0.18
   5   0  -7   -0.01    0.24
  -5   0   7    0.13    0.23
   5   0  -7   -0.26    0.24
   5   0  -6    6.14    0.36
  -5   0   6    6.00    0.35
   5   0  -6    5.61    0.38
  -5   0   6    5.27    0.34
  -5   0   5   -0.11    0.14
  -5   0   5   -0.16    0.16
  -5   0   5   -0.01    0.16
   5   0  -5    0.01    0.17
   5   0  -5    0.07    0.17
   5   0  -4   47.70    1.30
   5   0  -4   47.23    1.26
  -5   0   4   46.60    1.31
  -5   0   4   48.20    1.26
   5   0  -4   47.84    1.26
  -5   0   4   50.27    1.31
   5   0  -3   -0.02    0.13
   5   0  -3    0.04    0.13
  -5   0   3   -0.10    0.14
  -5   0   3   -0.01    0.14
  -5   0   3    0.10    0.13
  -5   0   2   14.20    0.51
  -5   0   2   13.90    0.46
   5   0  -2   13.71    0.48
   5   0  -2   14.38    0.45
  -5   0   1    0.02    0.15
   5   0  -1   -0.09    0.13
   5   0  -1    0.04    0.12
  -5   0   1   -0.09    0.14
   5   0   0  204.62    5.04
   5   0   0  198.57    4.91
  -5   0   0  202.63    5.04
  -5   0   0  186.02    4.91
  -5   0  -1   -0.06    0.16
  -5   0  -1   -0.03    0.19
   5   0   1   -0.04    0.16
   5   0   1   -0.19    0.17
  -5   0  -2   47.62    1.41
   5   0   2   49.86    1.37
   5   0   2   49.38    1.35
   5   0   3   -0.31    0.23
  -5   0  -3   -0.16    0.23
   5   0   3    0.07    0.23
   5   0   3   -0.07    0.18
   5   0   4    0.34    0.28
   5   0   4   -0.10    0.28
   5   0   5   -0.54    0.28
   5   0   5    0.02    0.30
   5   0   6    1.34    0.37
   5   0   6    1.65    0.35
   5   0   7   -0.44    0.34
   5   0   8    0.04    0.36
   5   1 -12    2.70    0.47
  -5   1  12    2.70    0.44
  -5  -1  12    2.15    0.44
   5  -1 -12    1.91    0.44
  -5   1  11   15.05    0.72
   5   1 -11   13.66    0.72
  -5  -1  11   16.24    0.75
   5  -1 -11   16.21    0.74
  -5   1  10    0.03    0.23
  -5   1  10    0.44    0.36
   5   1 -10    0.04    0.37
   5  -1 -10   -0.24    0.36
  -5  -1  10    0.53    0.37
   5   1  -9   13.99    0.65
  -5   1   9   15.83    0.60
  -5   1   9   14.91    0.64
  -5  -1   9   14.87    0.66
   5  -1  -9   14.58    0.64
   5   1  -8   53.80    1.49
  -5   1   8   54.31    1.53
  -5   1   8   54.98    1.48
   5  -1  -8   51.67    1.55
  -5  -1   8   53.62    1.49
  -5  -1   8   52.88    1.56
  -5   1   7    1.79    0.26
   5   1  -7    1.80    0.28
  -5   1   7    1.32    0.21
   5   1  -7    1.49    0.28
  -5  -1   7    1.73    0.29
   5  -1  -7    1.90    0.25
   5  -1  -7    1.27    0.27
  -5  -1   7    1.81    0.24
  -5   1   6   18.45    0.60
   5   1  -6   18.57    0.63
   5   1  -6   18.48    0.66
  -5   1   6   19.04    0.61
  -5   1   6   18.39    0.58
  -5  -1   6   18.00    0.63
   5  -1  -6   17.48    0.61
  -5  -1   6   18.52    0.63
  -5  -1   6   18.55    0.64
   5  -1  -6   17.01    0.59
  -5   1   5    3.00    0.24
  -5   1   5    2.92    0.30
   5   1  -5    3.48    0.30
  -5   1   5    2.98    0.23
   5   1  -5    3.13    0.33
   5  -1  -5    3.13    0.27
   5  -1  -5    3.01    0.28
  -5  -1   5    2.73    0.29
  -5  -1   5    2.99    0.29
  -5  -1   5    2.96    0.23
   5  -1  -5    2.91    0.25
  -5   1   4    0.75    0.17
   5   1  -4    0.77    0.18
  -5   1   4    0.72    0.14
  -5   1   4    0.76    0.13
   5   1  -4    0.64    0.17
   5  -1  -4    0.60    0.13
  -5  -1   4    0.59    0.16
  -5  -1   4    0.44    0.16
  -5  -1   4    0.64    0.16
  -5  -1   4    0.42    0.17
   5  -1  -4    0.79    0.14
   5  -1  -4    0.51    0.15
   5   1  -3    0.61    0.16
  -5   1   3    0.74    0.11
  -5   1   3    0.95    0.17
   5   1  -3    0.65    0.16
  -5   1   3    0.70    0.14
  -5  -1   3    0.68    0.17
  -5  -1   3    0.59    0.16
   5  -1  -3    0.44    0.13
  -5  -1   3    0.49    0.17
   5  -1  -3    0.65    0.16
   5   1  -2   37.04    1.06
   5   1  -2   37.92    1.03
  -5   1   2   39.81    1.08
   5   1  -2   37.28    1.01
  -5   1   2   38.07    1.01
  -5  -1   2   38.54    1.07
   5  -1  -2   38.00    1.06
   5  -1  -2   39.66    1.01
  -5  -1   2   37.38    1.04
   5   1  -1    0.07    0.15
  -5   1   1    0.14    0.17
   5   1  -1   -0.03    0.13
  -5   1   1    0.04    0.15
   5  -1  -1    0.12    0.16
   5  -1  -1    0.07    0.14
  -5  -1   1   -0.02    0.16
  -5  -1   1   -0.11    0.15
   5   1   0  116.79    3.04
  -5   1   0  119.92    3.07
   5   1   0  119.45    2.99
  -5   1   0  113.74    3.11
   5  -1   0  124.31    2.99
  -5  -1   0  120.32    3.05
  -5  -1   0  116.06    2.99
   5  -1   0  116.87    3.07
   5   1   1   10.36    0.43
  -5   1  -1   10.37    0.48
   5   1   1   10.81    0.42
  -5   1  -1   10.28    0.45
  -5  -1  -1    9.48    0.44
   5  -1   1   10.38    0.43
   5  -1   1    9.85    0.47
  -5  -1  -1   11.25    0.48
   5   1   2   24.63    0.76
  -5   1  -2   24.84    0.80
   5   1   2   24.17    0.78
   5  -1   2   25.76    0.78
   5  -1   2   24.51    0.78
   5  -1   2   24.58    0.81
   5   1   3   18.82    0.64
   5   1   3   18.92    0.67
   5   1   3   19.16    0.59
  -5   1  -3   18.61    0.70
   5  -1   3   17.85    0.69
   5  -1   3   17.81    0.66
  -5  -1  -3   18.34    0.75
   5  -1   3   19.22    0.66
   5   1   4   50.94    1.48
   5   1   4   53.40    1.46
   5   1   4   53.25    1.37
   5  -1   4   52.57    1.50
   5  -1   4   53.01    1.49
   5   1   5   -0.14    0.29
   5   1   5   -0.01    0.28
   5  -1   5   -0.10    0.30
   5  -1   5   -0.26    0.30
   5   1   6   11.33    0.58
   5   1   6   10.33    0.54
   5  -1   6   11.60    0.60
   5  -1   6   10.25    0.59
   5   1   7    0.96    0.36
   5  -1   7    1.71    0.38
   5  -1   8    8.59    0.57
  -5   2  12   -0.33    0.41
  -5   2  11    6.55    0.54
   5   2 -11    7.02    0.62
  -5  -2  11    7.90    0.59
   5  -2 -11    8.28    0.57
  -5   2  10    2.44    0.40
   5   2 -10    2.27    0.43
  -5  -2  10    2.90    0.43
   5  -2 -10    2.54    0.41
   5   2  -9    3.39    0.42
  -5   2   9    3.87    0.36
  -5   2   9    3.35    0.38
   5  -2  -9    3.74    0.39
  -5  -2   9    4.24    0.46
  -5   2   8   61.11    1.54
   5   2  -8   56.14    1.57
  -5   2   8   54.85    1.62
   5  -2  -8   59.65    1.64
   5  -2  -8   58.17    1.56
  -5  -2   8   54.88    1.58
  -5  -2   8   54.35    1.65
   5   2  -7    1.98    0.31
  -5   2   7    1.94    0.26
  -5   2   7    2.07    0.21
   5  -2  -7    1.75    0.24
  -5  -2   7    2.29    0.31
  -5  -2   7    2.07    0.26
   5  -2  -7    1.84    0.27
   5   2  -6    1.23    0.26
  -5   2   6    1.26    0.17
   5   2  -6    1.75    0.28
  -5   2   6    1.64    0.21
   5  -2  -6    1.49    0.24
  -5  -2   6    1.26    0.26
  -5  -2   6    1.46    0.24
   5  -2  -6    1.24    0.20
  -5   2   5   34.31    0.97
  -5   2   5   33.58    0.89
  -5   2   5   32.29    0.93
   5   2  -5   34.55    0.97
   5   2  -5   34.00    1.04
   5  -2  -5   33.04    0.94
  -5  -2   5   34.63    1.03
   5  -2  -5   34.63    0.95
  -5  -2   5   33.58    0.98
  -5  -2   5   33.95    0.98
  -5   2   4    2.09    0.18
   5   2  -4    2.05    0.23
   5   2  -4    2.53    0.23
  -5   2   4    2.34    0.22
  -5  -2   4    1.65    0.21
  -5  -2   4    2.26    0.21
   5  -2  -4    2.54    0.27
  -5  -2   4    2.16    0.24
   5   2  -3   68.68    1.77
   5   2  -3   66.72    1.79
  -5   2   3   67.74    1.73
  -5   2   3   70.11    1.82
   5  -2  -3   67.87    1.73
  -5  -2   3   71.95    1.85
   5  -2  -3   68.09    1.81
  -5  -2   3   69.20    1.89
  -5  -2   3   68.65    1.80
   5   2  -2   96.89    2.52
  -5   2   2  100.84    2.47
  -5   2   2   99.14    2.57
   5   2  -2   94.96    2.47
   5  -2  -2   97.11    2.56
  -5  -2   2  104.44    2.58
   5  -2  -2  101.65    2.47
  -5  -2   2   95.85    2.52
   5   2  -1    0.71    0.18
  -5   2   1    0.82    0.18
   5   2  -1    0.83    0.15
  -5  -2   1    0.71    0.19
   5  -2  -1    0.88    0.15
   5  -2  -1    0.76    0.20
  -5  -2   1    0.91    0.17
   5   2   0   13.71    0.49
   5   2   0   12.80    0.42
  -5   2   0   13.63    0.45
   5   2   0   13.25    0.47
  -5  -2   0   14.11    0.51
   5  -2   0   12.96    0.54
   5  -2   0   14.30    0.47
  -5  -2   0   13.05    0.50
   5   2   1   17.66    0.59
   5   2   1   17.86    0.57
   5   2   1   17.43    0.51
  -5   2  -1   17.49    0.59
  -5  -2  -1   17.05    0.62
   5  -2   1   18.42    0.59
   5  -2   1   16.85    0.64
   5   2   2   27.47    0.85
   5   2   2   26.40    0.81
  -5   2  -2   29.18    0.87
   5  -2   2   27.95    0.87
  -5  -2  -2   27.65    0.88
   5  -2   2   27.57    0.90
   5  -2   2   28.49    0.86
   5   2   3   13.88    0.50
   5   2   3   13.52    0.56
  -5   2  -3   14.55    0.58
   5  -2   3   14.26    0.61
   5  -2   3   14.17    0.58
   5  -2   3   13.59    0.61
   5   2   4    0.00    0.19
   5   2   4   -0.03    0.26
   5  -2   4   -0.17    0.31
   5  -2   4   -0.04    0.28
   5   2   5    9.24    0.53
   5   2   5   10.43    0.43
   5  -2   5    9.49    0.60
   5  -2   5    9.98    0.56
   5   2   6    2.33    0.37
   5  -2   6    3.23    0.45
   5  -2   6    2.90    0.40
   5   2   7    0.14    0.34
   5  -2   7    0.17    0.36
   5  -2   8    1.39    0.39
   5   3 -10    0.14    0.40
   5  -3 -10    0.09    0.35
  -5  -3  10    0.16    0.37
   5   3  -9    2.01    0.41
  -5   3   9    3.09    0.32
  -5  -3   9    2.72    0.42
   5  -3  -9    2.29    0.37
   5   3  -8    5.46    0.48
   5  -3  -8    5.84    0.43
   5  -3  -8    5.37    0.41
  -5  -3   8    5.33    0.46
   5   3  -7    3.25    0.37
  -5  -3   7    3.55    0.39
   5  -3  -7    3.83    0.36
   5  -3  -7    3.97    0.34
  -5  -3   7    3.24    0.32
   5   3  -6    9.25    0.49
  -5  -3   6    9.51    0.49
   5  -3  -6    8.96    0.42
  -5  -3   6    8.66    0.50
   5  -3  -6    8.82    0.38
   5  -3  -6    8.85    0.41
   5   3  -5    0.46    0.24
  -5  -3   5    0.24    0.21
   5  -3  -5    0.77    0.21
  -5  -3   5    0.30    0.27
   5   3  -4   47.40    1.31
   5   3  -4   47.66    1.28
   5  -3  -4   46.61    1.29
  -5  -3   4   46.68    1.37
  -5  -3   4   46.83    1.31
  -5   3   3    6.12    0.39
   5   3  -3    5.45    0.34
   5   3  -3    5.81    0.34
   5  -3  -3    5.66    0.37
  -5  -3   3    5.72    0.35
  -5  -3   3    5.74    0.38
   5   3  -2    2.63    0.27
   5   3  -2    2.87    0.30
   5  -3  -2    2.56    0.26
  -5  -3   2    2.74    0.30
   5   3  -1   26.88    0.79
   5   3  -1   25.54    0.73
   5  -3  -1   25.33    0.83
   5  -3  -1   26.68    0.74
  -5  -3   1   26.94    0.81
  -5   3   0    4.20    0.26
   5   3   0    3.83    0.30
   5   3   0    4.41    0.25
  -5  -3   0    4.08    0.35
   5  -3   0    5.42    0.27
   5  -3   0    4.40    0.31
   5  -3   0    4.59    0.40
  -5   3  -1   13.76    0.50
   5   3   1   13.52    0.52
   5  -3   1   14.18    0.52
   5  -3   1   14.13    0.59
   5  -3   1   12.99    0.50
  -5  -3  -1   13.34    0.56
   5   3   2    2.51    0.28
  -5   3  -2    2.57    0.26
   5  -3   2    2.59    0.29
  -5  -3  -2    2.01    0.29
   5  -3   2    2.10    0.31
   5   3   3   48.53    1.40
  -5   3  -3   49.35    1.43
   5  -3   3   50.20    1.44
   5  -3   3   50.71    1.46
   5   3   4    1.81    0.30
   5  -3   4    1.85    0.35
   5  -3   4    1.47    0.33
   5   3   5   13.32    0.62
   5  -3   5   13.88    0.67
   5  -3   5   14.30    0.67
   5   3   6    5.78    0.48
   5  -3   6    6.75    0.56
   5  -3   6    5.92    0.54
   5  -3   7    9.47    0.62
   5  -3   7   10.64    0.68
   5   4 -10    0.00    0.39
  -5  -4  10    0.07    0.39
   5   4  -9    6.93    0.57
  -5  -4   9    6.31    0.53
   5  -4  -9    6.51    0.47
   5   4  -8    0.60    0.35
   5  -4  -8    0.76    0.30
  -5  -4   8    0.55    0.35
   5   4  -7    5.13    0.46
   5  -4  -7    5.92    0.42
  -5  -4   7    5.29    0.49
   5  -4  -7    5.95    0.37
   5   4  -6    6.44    0.45
   5  -4  -6    6.88    0.39
  -5  -4   6    6.37    0.47
   5   4  -5  128.93    3.24
  -5  -4   5  126.79    3.46
   5  -4  -5  128.53    3.36
  -5  -4   5  129.95    3.29
   5   4  -4   -0.02    0.24
   5  -4  -4    0.15    0.24
  -5  -4   4   -0.18    0.27
  -5  -4   4   -0.08    0.22
   5   4  -3  113.35    2.89
   5   4  -3  110.99    2.83
  -5  -4   3  111.27    3.06
   5  -4  -3  113.01    2.96
  -5  -4   3  114.49    2.90
   5   4  -2    0.08    0.23
   5   4  -2    0.70    0.20
  -5  -4   2    0.19    0.23
   5  -4  -2    0.20    0.25
   5   4  -1    4.58    0.30
   5   4  -1    4.77    0.36
   5  -4  -1    4.65    0.28
   5  -4  -1    4.50    0.43
  -5  -4   1    5.01    0.37
  -5  -4   1    5.30    0.33
   5   4   0    0.01    0.21
   5   4   0    0.00    0.14
   5  -4   0   -0.01    0.19
  -5  -4   0    0.14    0.23
   5  -4   0    0.05    0.25
   5   4   1   24.46    0.78
  -5   4  -1   24.45    0.75
   5  -4   1   25.33    0.86
  -5  -4  -1   24.55    0.82
   5  -4   1   23.29    0.76
   5   4   2    4.64    0.36
  -5   4  -2    5.73    0.36
   5  -4   2    4.60    0.47
   5  -4   2    5.13    0.39
  -5  -4  -2    5.04    0.44
   5   4   3    0.90    0.26
  -5   4  -3    0.72    0.22
   5  -4   3    0.81    0.29
   5  -4   3    0.68    0.32
   5   4   4    4.00    0.39
   5  -4   4    3.97    0.45
   5  -4   4    3.98    0.42
   5   4   5   21.98    0.82
   5  -4   5   24.19    0.88
   5  -4   5   22.65    0.88
   5   4   6   -0.26    0.30
   5  -4   6   -0.31    0.36
   5  -4   6    0.07    0.38
   5  -4   7    6.15    0.67
   5  -4   7    6.80    0.65
   5   5  -9    9.73    0.62
  -5  -5   9   10.13    0.64
   5   5  -8    9.36    0.58
   5  -5  -8    8.94    0.50
  -5  -5   8   10.14    0.62
   5   5  -7   12.44    0.63
   5  -5  -7   13.83    0.58
  -5  -5   7   13.96    0.68
   5   5  -6    2.73    0.36
  -5  -5   6    2.81    0.40
   5  -5  -6    2.41    0.28
   5   5  -5    6.08    0.45
   5  -5  -5    4.90    0.43
  -5  -5   5    6.65    0.50
   5   5  -4    0.13    0.25
  -5  -5   4   -0.14    0.29
  -5  -5   4   -0.21    0.24
   5  -5  -4    0.15    0.26
   5   5  -3   12.16    0.51
  -5  -5   3   11.97    0.60
   5  -5  -3   12.42    0.59
  -5  -5   3   12.35    0.55
   5   5  -2    5.20    0.41
   5   5  -2    4.98    0.36
   5  -5  -2    4.71    0.46
  -5  -5   2    4.99    0.44
  -5  -5   2    4.88    0.38
   5   5  -1   33.65    1.01
   5   5  -1   32.25    0.93
  -5  -5   1   33.01    1.01
   5  -5  -1   34.58    1.07
   5   5   0    7.27    0.43
   5  -5   0    7.29    0.39
   5  -5   0    6.65    0.50
  -5  -5   0    6.97    0.45
  -5   5  -1    3.74    0.31
   5   5   1    3.57    0.35
  -5  -5  -1    3.37    0.33
   5  -5   1    3.41    0.27
   5  -5   1    2.88    0.37
   5   5   2   -0.04    0.23
   5  -5   2    0.25    0.24
   5  -5   2    0.13    0.31
  -5  -5  -2    0.32    0.27
   5   5   3   18.16    0.68
   5  -5   3   18.52    0.71
   5  -5   3   17.88    0.77
   5   5   4    2.10    0.30
   5  -5   4    2.14    0.41
   5  -5   4    2.09    0.37
   5   5   5    2.49    0.33
   5  -5   5    3.33    0.42
   5  -5   5    3.66    0.45
   5  -5   6    0.35    0.44
   5  -5   6    0.06    0.42
   5   6  -8   27.30    1.00
   5   6  -7    3.21    0.42
  -5  -6   7    3.34    0.45
   5   6  -6    6.28    0.52
  -5  -6   6    7.24    0.56
   5   6  -5   10.83    0.56
   5  -6  -5    9.46    0.55
  -5  -6   5   10.43    0.61
   5   6  -4    4.09    0.43
   5  -6  -4    3.82    0.38
  -5  -6   4    3.94    0.43
   5   6  -3   17.27    0.65
  -5  -6   3   17.33    0.74
   5  -6  -3   17.22    0.73
   5   6  -2    7.40    0.44
   5  -6  -2    7.48    0.55
  -5  -6   2    7.60    0.53
   5   6  -1    0.23    0.21
   5   6  -1    0.17    0.26
   5  -6  -1    0.19    0.32
  -5  -6   1    0.09    0.25
   5   6   0    9.98    0.50
   5  -6   0   10.29    0.61
   5   6   1   -0.04    0.26
   5  -6   1    0.54    0.34
   5   6   2    3.35    0.37
   5  -6   2    3.47    0.43
   5   6   3    3.60    0.39
   5  -6   3    3.39    0.45
   5  -6   4    0.21    0.38
   5   7  -5    0.38    0.31
  -5  -7   5    0.02    0.34
   5   7  -4    3.39    0.36
  -5  -7   4    3.13    0.43
   5  -7  -4    3.10    0.38
   5   7  -3    1.88    0.32
   5  -7  -3    2.37    0.37
  -5  -7   3    1.89    0.38
   5  -7  -2    6.58    0.59
  -5  -7   2    7.68    0.54
   5  -7  -1   10.17    0.64
  -5  -7   1    9.94    0.59
   5   7   0    2.62    0.34
   5  -7   0    2.40    0.42
   5  -7   1    7.04    0.60
   5  -7   2    0.93    0.41
   6   0 -12    2.17    0.47
  -6   0  12    2.47    0.45
  -6   0  11   -0.13    0.35
   6   0 -11   -0.22    0.39
  -6   0  10   23.84    0.87
   6   0 -10   22.19    0.85
   6   0  -9   -0.21    0.30
  -6   0   9   -0.05    0.21
  -6   0   9   -0.08    0.28
  -6   0   8   13.27    0.57
   6   0  -8   13.33    0.62
  -6   0   8   12.87    0.58
   6   0  -8   13.98    0.60
   6   0  -7    0.03    0.25
  -6   0   7   -0.06    0.19
   6   0  -7   -0.08    0.22
  -6   0   7   -0.14    0.23
   6   0  -6    1.05    0.23
   6   0  -6    0.75    0.22
  -6   0   6    1.05    0.20
  -6   0   6    1.47    0.23
   6   0  -5   -0.01    0.19
   6   0  -5   -0.02    0.18
  -6   0   5   -0.02    0.16
  -6   0   5   -0.02    0.18
   6   0  -4    9.32    0.36
  -6   0   4    8.52    0.36
   6   0  -4    8.81    0.40
   6   0  -4    8.37    0.38
  -6   0   4    8.66    0.36
  -6   0   3   -0.06    0.15
  -6   0   3   -0.22    0.15
   6   0  -3    0.04    0.15
   6   0  -3   -0.04    0.15
  -6   0   3   -0.04    0.16
   6   0  -2   38.12    1.04
   6   0  -2   37.70    1.08
  -6   0   2   40.51    1.11
  -6   0   2   36.72    1.05
   6   0  -1    0.01    0.16
   6   0  -1   -0.02    0.14
  -6   0   1   -0.23    0.17
  -6   0   1    0.09    0.17
   6   0   0  176.69    4.43
   6   0   0  179.10    4.53
  -6   0   0  186.88    4.55
  -6   0   0  166.37    4.43
   6   0   1   -0.04    0.21
  -6   0  -1   -0.14    0.22
   6   0   1   -0.22    0.18
   6   0   2    0.84    0.25
  -6   0  -2    0.94    0.29
   6   0   2    0.87    0.28
   6   0   3   -0.08    0.24
   6   0   3   -0.33    0.26
   6   0   4   46.45    1.32
   6   0   4   42.26    1.31
   6   0   5   -0.09    0.30
   6   0   6    9.00    0.56
   6   0   6    8.41    0.57
   6   0   7   -0.80    0.38
   6   1 -12    0.15    0.43
  -6   1  12    0.20    0.37
   6  -1 -12   -0.22    0.41
  -6  -1  12    0.01    0.38
   6   1 -11   15.43    0.77
  -6   1  11   16.07    0.74
  -6  -1  11   16.30    0.75
   6  -1 -11   16.38    0.74
   6   1 -10   15.17    0.71
  -6   1  10   14.21    0.66
  -6  -1  10   14.71    0.70
   6  -1 -10   14.59    0.69
  -6   1   9    2.59    0.34
   6   1  -9    2.69    0.38
  -6   1   9    2.50    0.28
   6  -1  -9    2.22    0.37
  -6  -1   9    2.89    0.37
   6   1  -8   54.33    1.54
  -6   1   8   56.46    1.53
  -6   1   8   56.37    1.58
   6  -1  -8   54.52    1.61
  -6  -1   8   53.77    1.55
   6  -1  -8   56.19    1.54
  -6  -1   8   58.02    1.62
  -6   1   7    4.39    0.34
  -6   1   7    4.54    0.34
   6   1  -7    4.41    0.40
   6   1  -7    4.20    0.42
  -6  -1   7    3.94    0.39
   6  -1  -7    4.38    0.37
   6  -1  -7    4.53    0.38
  -6  -1   7    4.30    0.38
  -6   1   6   81.89    2.08
   6   1  -6   85.36    2.24
   6   1  -6   83.11    2.10
  -6   1   6   80.42    2.17
   6  -1  -6   83.42    2.09
  -6  -1   6   78.96    2.21
   6  -1  -6   79.38    2.18
  -6  -1   6   77.34    2.12
  -6   1   5   -0.05    0.16
   6   1  -5    0.06    0.19
   6   1  -5   -0.05    0.20
  -6   1   5    0.07    0.15
   6  -1  -5    0.06    0.16
   6  -1  -5    0.12    0.19
  -6  -1   5   -0.06    0.20
   6  -1  -5    0.10    0.16
   6  -1  -5    0.09    0.17
  -6  -1   5    0.06    0.18
  -6   1   4    2.35    0.23
   6   1  -4    2.19    0.21
  -6   1   4    2.10    0.20
   6   1  -4    2.02    0.22
  -6   1   4    1.84    0.22
   6  -1  -4    1.92    0.21
  -6  -1   4    2.40    0.27
  -6  -1   4    2.01    0.22
   6  -1  -4    2.17    0.22
   6   1  -3    1.65    0.21
  -6   1   3    1.58    0.19
   6   1  -3    1.27    0.20
  -6   1   3    1.66    0.22
  -6   1   3    1.96    0.19
   6   1  -3    1.56    0.20
  -6  -1   3    1.57    0.21
   6  -1  -3    1.58    0.20
   6  -1  -3    1.75    0.18
  -6  -1   3    1.40    0.20
   6   1  -2   12.28    0.48
  -6   1   2   12.69    0.46
   6   1  -2   13.24    0.45
   6   1  -2   12.89    0.46
   6  -1  -2   13.13    0.43
  -6  -1   2   12.98    0.52
  -6  -1   2   12.79    0.49
   6  -1  -2   12.99    0.50
  -6   1   1    8.87    0.40
   6   1  -1    9.93    0.41
   6   1  -1    8.96    0.41
   6  -1  -1    9.87    0.45
  -6  -1   1    9.89    0.47
  -6  -1   1    9.16    0.42
   6  -1  -1    9.77    0.38
   6   1   0    1.12    0.21
   6   1   0    1.43    0.21
  -6   1   0    1.40    0.21
  -6  -1   0    1.18    0.23
   6  -1   0    1.39    0.25
  -6  -1   0    1.12    0.24
   6  -1   0    1.48    0.21
   6   1   1    6.51    0.38
  -6   1  -1    5.97    0.41
   6   1   1    6.01    0.38
   6  -1   1    6.62    0.39
   6  -1   1    5.90    0.44
  -6  -1  -1    5.95    0.42
   6   1   2   31.10    0.94
   6   1   2   29.96    0.94
  -6   1  -2   31.46    0.99
  -6  -1  -2   31.39    1.03
   6  -1   2   30.83    0.95
   6  -1   2   30.23    0.99
   6  -1   2   32.41    0.95
   6   1   3    0.84    0.28
   6   1   3   -0.03    0.26
   6   1   3   -0.15    0.18
  -6   1  -3   -0.21    0.25
   6  -1   3   -0.03    0.29
   6  -1   3    0.16    0.27
   6   1   4   12.77    0.54
   6   1   4   11.55    0.56
   6  -1   4   11.28    0.58
   6  -1   4   11.55    0.59
   6   1   5    6.37    0.48
   6   1   5    6.77    0.47
   6  -1   5    6.09    0.52
   6  -1   5    6.87    0.51
   6   1   6    8.71    0.57
   6  -1   6   10.10    0.59
   6  -1   7    1.06    0.39
  -6   2  12    6.93    0.56
  -6   2  11    4.89    0.48
   6   2 -11    4.28    0.50
  -6  -2  11    5.17    0.53
   6   2 -10    8.29    0.58
  -6   2  10    8.35    0.53
  -6  -2  10    8.26    0.56
   6  -2 -10    8.79    0.58
  -6   2   9    6.47    0.40
   6   2  -9    5.50    0.51
  -6   2   9    5.44    0.43
   6  -2  -9    5.26    0.46
  -6  -2   9    5.60    0.50
  -6   2   8   27.98    0.89
  -6   2   8   28.44    0.86
   6   2  -8   28.13    0.92
   6  -2  -8   29.05    0.91
  -6  -2   8   28.44    0.96
   6  -2  -8   29.50    0.93
  -6   2   7    2.07    0.24
  -6   2   7    1.33    0.20
   6   2  -7    1.97    0.32
  -6  -2   7    1.86    0.27
  -6  -2   7    1.43    0.31
   6  -2  -7    2.17    0.24
   6  -2  -7    1.41    0.30
   6   2  -6   10.07    0.49
  -6   2   6   10.79    0.39
  -6   2   6    9.65    0.39
   6  -2  -6    9.99    0.45
   6  -2  -6   10.42    0.40
   6  -2  -6   10.68    0.47
  -6  -2   6    9.79    0.50
  -6  -2   6   10.54    0.49
  -6   2   5   69.91    1.76
   6   2  -5   67.64    1.80
   6   2  -5   66.47    1.83
  -6  -2   5   71.29    1.93
   6  -2  -5   70.93    1.84
  -6  -2   5   68.60    1.84
  -6  -2   5   68.77    1.82
   6   2  -4   22.73    0.75
  -6   2   4   24.12    0.68
   6   2  -4   24.89    0.75
  -6  -2   4   25.92    0.77
   6  -2  -4   23.83    0.67
   6  -2  -4   24.47    0.75
  -6  -2   4   24.96    0.77
  -6  -2   4   23.90    0.80
   6   2  -3  115.39    2.91
  -6   2   3  117.31    2.90
   6   2  -3  115.71    2.96
   6  -2  -3  120.27    2.90
   6  -2  -3  116.75    3.01
  -6  -2   3  112.93    3.11
  -6  -2   3  115.96    2.97
   6   2  -2   41.82    1.12
  -6   2   2   42.05    1.12
   6   2  -2   41.31    1.16
   6  -2  -2   42.90    1.11
  -6  -2   2   41.06    1.17
   6  -2  -2   41.08    1.19
  -6   2   1   17.50    0.53
   6   2  -1   17.31    0.55
   6   2  -1   17.32    0.60
   6  -2  -1   16.87    0.64
  -6  -2   1   17.34    0.62
   6  -2  -1   18.83    0.57
   6   2   0   91.79    2.36
   6   2   0   91.08    2.38
   6   2   0   88.72    2.27
  -6   2   0   91.42    2.41
   6  -2   0   95.46    2.34
  -6  -2   0   87.66    2.37
   6  -2   0   90.85    2.43
   6   2   1   26.21    0.80
  -6   2  -1   25.70    0.81
   6   2   1   25.76    0.82
   6  -2   1   26.14    0.88
  -6  -2  -1   25.49    0.86
   6  -2   1   27.06    0.82
   6   2   2   20.16    0.67
   6   2   2   20.15    0.70
  -6   2  -2   20.75    0.72
   6  -2   2   20.86    0.72
  -6  -2  -2   19.47    0.74
   6  -2   2   21.10    0.77
  -6   2  -3   13.84    0.59
   6   2   3   13.33    0.52
   6   2   3   13.31    0.57
   6  -2   3   13.77    0.59
   6  -2   3   13.96    0.63
   6   2   4    0.51    0.22
   6   2   4    0.45    0.28
   6  -2   4    0.68    0.31
   6  -2   4    0.54    0.32
   6   2   5    2.54    0.37
   6   2   5    3.06    0.34
   6  -2   5    2.64    0.38
   6  -2   5    2.68    0.40
   6   2   6    1.47    0.36
   6  -2   6    1.47    0.40
   6  -2   7    0.46    0.38
   6   3 -10    0.27    0.41
   6  -3 -10    0.23    0.37
  -6  -3  10    0.61    0.38
   6   3  -9    6.10    0.53
  -6  -3   9    6.44    0.51
   6  -3  -9    6.23    0.48
   6   3  -8    1.21    0.35
   6  -3  -8    1.35    0.32
  -6  -3   8    1.78    0.36
   6   3  -7   23.34    0.81
  -6  -3   7   23.42    0.85
   6  -3  -7   23.81    0.74
   6  -3  -7   23.67    0.79
   6   3  -6   24.61    0.79
  -6  -3   6   22.69    0.83
  -6  -3   6   23.79    0.80
   6  -3  -6   23.00    0.75
   6   3  -5    0.65    0.26
  -6  -3   5    0.65    0.28
  -6  -3   5    0.86    0.24
   6  -3  -5    0.89    0.24
   6   3  -4    0.31    0.24
   6   3  -4    0.02    0.21
  -6  -3   4   -0.01    0.21
  -6  -3   4    0.22    0.26
   6  -3  -4    0.04    0.23
   6   3  -3   95.08    2.51
   6   3  -3   98.29    2.46
  -6  -3   3   96.71    2.65
  -6  -3   3   98.18    2.51
   6  -3  -3   96.93    2.56
   6   3  -2    0.37    0.19
   6   3  -2   -0.03    0.22
   6  -3  -2    0.24    0.16
   6  -3  -2    0.15    0.24
  -6  -3   2   -0.08    0.22
   6   3  -1   14.11    0.48
   6   3  -1   13.73    0.54
  -6  -3   1   14.33    0.57
   6  -3  -1   14.52    0.49
   6  -3  -1   13.82    0.60
  -6   3   0    5.50    0.30
   6   3   0    5.10    0.29
   6   3   0    5.02    0.36
  -6  -3   0    5.37    0.41
   6  -3   0    5.74    0.46
   6  -3   0    5.55    0.35
   6   3   1   32.77    1.01
  -6   3  -1   34.03    0.98
  -6  -3  -1   32.38    1.04
   6  -3   1   36.04    1.00
   6  -3   1   32.41    1.06
  -6   3  -2    1.06    0.22
   6   3   2    0.55    0.25
   6  -3   2    0.73    0.27
   6  -3   2    0.69    0.30
  -6  -3  -2    0.52    0.27
   6   3   3   16.49    0.65
  -6   3  -3   18.01    0.66
   6  -3   3   17.37    0.73
   6  -3   3   17.47    0.69
   6   3   4   13.08    0.60
   6  -3   4   13.29    0.64
   6  -3   4   13.02    0.63
   6  -3   4   12.13    0.64
   6   3   5    0.97    0.33
   6  -3   5    1.06    0.36
   6  -3   5    1.10    0.37
   6  -3   6    1.40    0.40
   6   4 -10    1.51    0.43
   6  -4 -10    0.81    0.38
  -6  -4  10    1.40    0.43
   6   4  -9    8.36    0.60
   6  -4  -9    8.84    0.53
  -6  -4   9    8.66    0.59
   6   4  -8   -0.28    0.32
   6  -4  -8   -0.19    0.32
  -6  -4   8   -0.10    0.33
   6   4  -7    9.32    0.53
   6  -4  -7    9.63    0.47
   6  -4  -7    9.53    0.49
  -6  -4   7    8.99    0.55
   6   4  -6    0.02    0.29
  -6  -4   6    0.45    0.31
   6  -4  -6    0.06    0.25
   6   4  -5   87.24    2.26
   6  -4  -5   86.91    2.34
  -6  -4   5   84.45    2.42
  -6  -4   5   88.97    2.31
   6   4  -4    1.42    0.29
   6   4  -4    1.70    0.28
  -6  -4   4    0.56    0.27
  -6  -4   4    0.48    0.31
   6  -4  -4    1.10    0.29
   6   4  -3   24.68    0.76
   6   4  -3   24.18    0.80
  -6  -4   3   23.39    0.86
  -6  -4   3   24.88    0.80
   6  -4  -3   24.76    0.83
   6   4  -2    1.74    0.23
   6   4  -2    0.86    0.26
  -6  -4   2    1.25    0.27
   6  -4  -2    1.45    0.31
   6   4  -1   26.04    0.83
   6   4  -1   25.67    0.75
   6  -4  -1   26.30    0.76
   6  -4  -1   25.51    0.89
  -6  -4   1   26.21    0.85
   6   4   0   22.17    0.76
   6  -4   0   23.04    0.72
  -6  -4   0   23.00    0.79
   6  -4   0   22.83    0.83
   6   4   1   20.72    0.73
  -6   4  -1   20.87    0.67
   6  -4   1   21.08    0.69
   6  -4   1   20.80    0.80
   6  -4   1   21.66    0.71
  -6  -4  -1   20.63    0.77
  -6   4  -2    0.43    0.20
   6   4   2    0.08    0.24
   6  -4   2    0.78    0.26
  -6  -4  -2    0.60    0.28
   6  -4   2    0.09    0.26
   6  -4   2    0.26    0.30
   6   4   3   22.05    0.79
   6  -4   3   21.95    0.79
   6  -4   3   21.87    0.79
   6  -4   3   21.67    0.85
   6   4   4   -0.23    0.27
   6  -4   4   -0.29    0.33
   6  -4   4    0.01    0.32
   6  -4   5   17.93    0.76
   6  -4   5   16.36    0.75
   6  -4   6    0.10    0.37
   6  -4   6    0.32    0.40
   6   5  -9    8.76    0.60
  -6  -5   9   10.03    0.63
   6   5  -8    6.98    0.55
  -6  -5   8    6.52    0.55
   6  -5  -8    6.01    0.48
   6   5  -7    0.05    0.32
  -6  -5   7   -0.16    0.33
   6  -5  -7    0.14    0.26
   6   5  -6    8.47    0.52
   6  -5  -6    7.80    0.48
  -6  -5   6    8.30    0.54
   6   5  -5    7.36    0.47
  -6  -5   5    7.68    0.53
   6  -5  -5    6.60    0.49
   6   5  -4    8.97    0.47
   6  -5  -4    8.60    0.51
  -6  -5   4    8.77    0.54
   6   5  -3   20.78    0.70
   6   5  -3   22.03    0.77
   6  -5  -3   21.66    0.80
  -6  -5   3   20.65    0.82
   6   5  -2    0.01    0.20
   6   5  -2   -0.21    0.24
   6  -5  -2    0.07    0.30
  -6  -5   2   -0.20    0.23
   6   5  -1    3.76    0.39
   6   5  -1    4.40    0.31
  -6  -5   1    4.11    0.41
   6  -5  -1    3.85    0.39
   6   5   0    0.25    0.25
  -6  -5   0   -0.07    0.25
   6  -5   0    0.26    0.21
   6  -5   0    0.40    0.31
   6   5   1    1.94    0.29
   6  -5   1    1.59    0.36
   6  -5   1    2.06    0.25
   6  -5   1    1.87    0.28
   6   5   2   -0.01    0.24
   6  -5   2    0.30    0.26
   6  -5   2    0.04    0.27
   6  -5   2    0.31    0.33
   6   5   3    4.37    0.39
   6  -5   3    4.66    0.45
   6  -5   3    4.49    0.51
   6   5   4    1.20    0.29
   6  -5   4    0.96    0.38
   6  -5   4    1.94    0.36
   6   5   5    1.20    0.31
   6  -5   5    1.94    0.42
   6  -5   5    1.28    0.37
   6   6  -8   11.31    0.64
   6   6  -7   13.47    0.67
  -6  -6   7   14.27    0.72
   6   6  -6    0.15    0.30
  -6  -6   6   -0.06    0.35
   6   6  -5   17.03    0.67
   6  -6  -5   16.37    0.71
  -6  -6   5   16.46    0.76
   6   6  -4    3.88    0.41
  -6  -6   4    3.37    0.43
   6  -6  -4    3.08    0.38
   6   6  -3    6.08    0.44
   6  -6  -3    6.99    0.55
  -6  -6   3    6.53    0.53
   6   6  -2    1.83    0.33
   6   6  -2    2.47    0.27
   6  -6  -2    1.87    0.39
  -6  -6   2    2.10    0.38
   6   6  -1    0.41    0.27
   6  -6  -1    0.66    0.36
   6   6   0   15.55    0.63
   6  -6   0   14.90    0.73
   6   6   1    5.08    0.43
   6  -6   1    4.10    0.46
   6   6   2   -0.22    0.25
   6  -6   2    0.09    0.36
   6   6   3    1.91    0.31
   6  -6   3    2.50    0.43
   6   7  -5    1.49    0.34
   6   7  -4    0.18    0.29
   6  -7  -4    0.22    0.35
  -6  -7   4    0.29    0.36
   6  -7  -3    6.23    0.58
  -6  -7   3    6.36    0.54
   6  -7  -2    0.27    0.37
  -6  -7   2    0.19    0.34
   6   7  -1    9.12    0.52
   6  -7  -1    8.14    0.63
  -6  -7   1    8.38    0.58
   6   7   0    0.30    0.29
   6  -7   0    0.26    0.38
   6  -7   1    7.19    0.65
  -7   0  12    1.67    0.40
   7   0 -12    0.02    0.43
   7   0 -11   -0.70    0.38
  -7   0  11   -0.10    0.33
   7   0 -10    0.26    0.36
  -7   0  10    0.58    0.33
  -7   0   9   -0.05    0.22
   7   0  -9   -0.12    0.30
  -7   0   9    0.08    0.27
  -7   0   8   13.67    0.57
   7   0  -8   14.02    0.63
   7   0  -8   12.83    0.59
  -7   0   8   13.04    0.57
   7   0  -7    0.08    0.25
  -7   0   7   -0.19    0.19
   7   0  -7   -0.18    0.26
  -7   0   7   -0.22    0.24
  -7   0   6    0.17    0.23
  -7   0   6    0.35    0.21
   7   0  -6   -0.02    0.23
  -7   0   5   -0.04    0.20
   7   0  -5   -0.05    0.22
   7   0  -5   -0.30    0.20
  -7   0   5   -0.06    0.19
   7   0  -5    0.14    0.20
   7   0  -4    3.45    0.32
   7   0  -4    3.06    0.29
   7   0  -4    2.27    0.24
  -7   0   4    2.93    0.31
  -7   0   4    2.52    0.28
   7   0  -3    0.09    0.17
  -7   0   3    0.10    0.20
   7   0  -3   -0.11    0.16
   7   0  -2   53.02    1.40
   7   0  -2   51.53    1.44
  -7   0   2   51.80    1.42
   7   0  -1    0.04    0.17
   7   0  -1   -0.01    0.19
  -7   0   1   -0.06    0.20
   7   0   0   16.91    0.60
  -7   0   0   16.50    0.65
   7   0   0   17.47    0.65
   7   0   1   -0.28    0.23
  -7   0  -1   -0.04    0.25
   7   0   1    0.04    0.21
   7   0   2    8.44    0.48
   7   0   2    9.54    0.53
  -7   0  -2    9.23    0.55
   7   0   3   -0.14    0.29
   7   0   3    0.09    0.25
   7   0   4   39.79    1.20
   7   0   4   36.91    1.18
   7   0   5   -0.06    0.37
   7   0   5   -0.06    0.32
   7   0   6    4.20    0.45
   7   0   7   -1.01    0.45
   7   1 -12    5.35    0.58
  -7   1  12    5.59    0.52
  -7  -1  12    4.89    0.55
   7  -1 -12    5.15    0.55
   7   1 -11    8.43    0.61
  -7   1  11    9.80    0.59
  -7  -1  11    9.67    0.59
   7  -1 -11    9.60    0.63
   7   1 -10   13.76    0.68
  -7   1  10   14.90    0.65
  -7  -1  10   14.29    0.67
   7  -1 -10   16.45    0.71
   7   1  -9    0.54    0.34
  -7   1   9    0.66    0.29
  -7   1   9    0.25    0.23
   7  -1  -9    1.15    0.35
  -7  -1   9    0.89    0.32
   7   1  -8  118.60    3.04
  -7   1   8  117.67    3.05
  -7   1   8  117.67    3.18
  -7  -1   8  121.28    3.20
   7  -1  -8  122.62    3.06
  -7  -1   8  117.69    3.07
   7  -1  -8  117.63    3.20
  -7   1   7   10.02    0.44
   7   1  -7    9.69    0.51
  -7   1   7    9.81    0.43
   7   1  -7   10.35    0.54
  -7  -1   7    9.37    0.51
   7  -1  -7   10.10    0.47
   7  -1  -7   10.38    0.49
  -7  -1   7    9.17    0.48
   7   1  -6   31.47    0.94
  -7   1   6   32.49    0.91
  -7   1   6   31.00    0.92
  -7  -1   6   29.74    0.94
  -7  -1   6   32.30    0.98
   7  -1  -6   31.90    0.94
   7  -1  -6   31.58    0.96
  -7   1   5   -0.01    0.18
   7   1  -5    0.12    0.22
   7   1  -5    0.37    0.22
  -7   1   5    0.14    0.19
  -7  -1   5   -0.07    0.23
   7  -1  -5   -0.13    0.21
   7  -1  -5    0.04    0.21
  -7  -1   5    0.28    0.22
   7  -1  -5    0.04    0.19
  -7   1   4    5.85    0.33
  -7   1   4    5.58    0.29
   7   1  -4    5.57    0.35
   7   1  -4    5.50    0.34
  -7  -1   4    5.66    0.37
   7  -1  -4    5.97    0.38
  -7  -1   4    5.24    0.36
   7  -1  -4    5.70    0.31
   7   1  -3    6.23    0.36
  -7   1   3    5.72    0.29
  -7   1   3    6.03    0.35
   7   1  -3    6.21    0.39
   7   1  -3    5.94    0.35
  -7  -1   3    5.91    0.39
   7  -1  -3    6.20    0.39
   7  -1  -3    6.02    0.31
  -7   1   2   25.54    0.79
   7   1  -2   25.60    0.78
   7   1  -2   25.32    0.80
   7  -1  -2   24.72    0.81
   7  -1  -2   26.26    0.76
  -7  -1   2   25.60    0.81
  -7   1   1    5.89    0.39
   7   1  -1    6.10    0.39
   7   1  -1    6.35    0.37
   7  -1  -1    6.01    0.35
  -7  -1   1    5.76    0.41
   7  -1  -1    6.20    0.43
  -7   1   0   10.72    0.48
   7   1   0   10.73    0.49
   7   1   0   10.07    0.46
  -7  -1   0   10.31    0.54
   7  -1   0   10.92    0.53
   7  -1   0   10.91    0.47
   7   1   1   17.23    0.64
   7   1   1   16.96    0.64
  -7   1  -1   17.75    0.67
   7  -1   1   17.78    0.64
   7  -1   1   17.13    0.69
  -7  -1  -1   17.58    0.69
   7   1   2   26.86    0.90
   7   1   2   29.17    0.89
  -7   1  -2   29.18    0.94
   7  -1   2   27.40    0.95
   7  -1   2   27.28    0.90
   7   1   3    3.04    0.34
   7   1   3    4.27    0.39
   7  -1   3    3.33    0.36
   7  -1   3    3.24    0.39
   7   1   4    7.29    0.46
   7   1   4    4.98    0.45
   7  -1   4    6.00    0.48
   7  -1   4    5.33    0.52
   7   1   5   -0.25    0.28
   7   1   5    0.66    0.32
   7  -1   5   -0.01    0.37
   7  -1   5   -0.23    0.31
   7  -1   6    2.66    0.44
  -7   2  12   -0.19    0.38
  -7   2  11   22.78    0.85
  -7   2  10    2.71    0.37
   7   2 -10    2.34    0.43
  -7  -2  10    2.33    0.41
   7  -2 -10    2.65    0.43
  -7   2   9    6.03    0.38
   7   2  -9    4.77    0.48
  -7   2   9    5.72    0.41
   7  -2  -9    4.92    0.47
  -7  -2   9    5.53    0.47
   7   2  -8   14.53    0.64
  -7   2   8   15.56    0.57
  -7   2   8   15.22    0.54
   7  -2  -8   15.03    0.59
   7  -2  -8   15.53    0.62
  -7  -2   8   15.31    0.67
  -7   2   7    1.42    0.22
  -7   2   7    0.82    0.21
   7   2  -7    0.95    0.31
   7  -2  -7    1.08    0.22
  -7  -2   7    0.65    0.30
  -7  -2   7    0.96    0.26
   7  -2  -7    1.44    0.31
  -7   2   6   17.25    0.55
   7   2  -6   17.46    0.64
   7  -2  -6   17.49    0.63
  -7  -2   6   16.28    0.63
   7  -2  -6   16.62    0.61
  -7  -2   6   16.93    0.67
   7   2  -5   49.27    1.33
  -7   2   5   48.48    1.27
   7   2  -5   47.72    1.34
  -7  -2   5   48.10    1.35
   7  -2  -5   45.82    1.26
   7  -2  -5   49.29    1.36
  -7  -2   5   47.92    1.41
   7   2  -4   88.22    2.25
  -7   2   4   88.60    2.24
   7   2  -4   87.84    2.29
   7  -2  -4   87.02    2.33
   7  -2  -4   90.27    2.23
  -7  -2   4   86.11    2.41
  -7  -2   4   87.24    2.30
   7   2  -3    6.28    0.40
   7   2  -3    6.65    0.37
  -7   2   3    5.90    0.37
   7  -2  -3    6.81    0.43
  -7  -2   3    6.62    0.43
   7  -2  -3    7.08    0.33
   7   2  -2   29.15    0.88
   7   2  -2   28.07    0.83
   7  -2  -2   28.37    0.91
   7  -2  -2   29.02    0.82
  -7  -2   2   28.19    0.89
  -7   2   1   25.49    0.76
   7   2  -1   25.34    0.81
   7   2  -1   25.98    0.82
   7   2  -1   25.77    0.76
   7  -2  -1   27.34    0.79
   7  -2  -1   25.49    0.86
  -7  -2   1   25.97    0.85
  -7   2   0   90.44    2.46
   7   2   0   93.67    2.44
   7   2   0   90.65    2.42
   7   2   0   93.45    2.33
   7  -2   0   97.01    2.40
  -7  -2   0   91.77    2.44
   7  -2   0   90.07    2.48
   7   2   1   24.59    0.81
  -7   2  -1   24.51    0.80
   7   2   1   24.24    0.78
   7  -2   1   25.63    0.81
  -7  -2  -1   24.47    0.86
   7  -2   1   24.53    0.87
   7   2   2    0.17    0.25
  -7   2  -2    0.20    0.23
   7   2   2   -0.03    0.23
   7  -2   2    0.33    0.27
   7  -2   2    0.03    0.30
   7   2   3    7.22    0.45
   7   2   3    7.29    0.41
   7  -2   3    7.53    0.52
   7  -2   3    7.66    0.49
   7   2   4    4.25    0.43
   7   2   4    4.67    0.38
   7  -2   4    5.29    0.51
   7  -2   4    4.69    0.47
   7   2   5    9.19    0.55
   7  -2   5    9.81    0.61
   7  -2   6    2.78    0.44
   7   3 -11   10.85    0.67
   7  -3 -11   11.52    0.64
   7   3 -10    1.70    0.43
  -7  -3  10    1.46    0.39
   7  -3 -10    1.27    0.39
   7   3  -9    6.57    0.54
   7  -3  -9    5.79    0.50
  -7  -3   9    5.85    0.52
   7   3  -8    9.91    0.56
   7  -3  -8    9.73    0.52
  -7  -3   8    9.22    0.56
   7   3  -7   16.32    0.65
  -7  -3   7   15.49    0.69
   7  -3  -7   15.62    0.62
   7  -3  -7   15.99    0.63
   7   3  -6    2.83    0.33
  -7  -3   6    2.85    0.37
  -7  -3   6    2.93    0.32
   7  -3  -6    2.54    0.31
   7   3  -5   74.74    2.01
   7   3  -5   75.24    1.97
   7  -3  -5   74.81    2.04
  -7  -3   5   75.08    2.12
  -7  -3   5   75.40    2.02
   7   3  -4    3.35    0.37
   7   3  -4    3.49    0.37
  -7  -3   4    3.27    0.37
  -7  -3   4    3.43    0.39
   7  -3  -4    3.46    0.32
   7   3  -3  119.33    3.07
   7   3  -3  118.69    3.00
  -7  -3   3  121.45    3.08
   7  -3  -3  120.96    3.00
   7  -3  -3  117.56    3.14
   7   3  -2    0.81    0.26
   7   3  -2    1.48    0.23
   7  -3  -2    1.67    0.30
   7  -3  -2    1.60    0.21
  -7  -3   2    0.49    0.28
   7   3  -1   32.09    0.91
   7   3  -1   32.50    0.99
   7  -3  -1   33.78    0.94
   7  -3  -1   32.91    1.05
  -7  -3   1   32.77    1.01
   7   3   0    0.00    0.17
   7   3   0   -0.05    0.23
  -7   3   0    0.07    0.16
  -7  -3   0    0.06    0.26
   7  -3   0   -0.09    0.28
   7  -3   0    0.03    0.22
  -7   3  -1    1.84    0.22
   7   3   1    1.74    0.29
   7  -3   1    1.42    0.28
   7  -3   1    1.42    0.33
  -7  -3  -1    1.23    0.31
   7   3   2    6.05    0.42
  -7   3  -2    7.06    0.42
   7  -3   2    6.20    0.51
   7  -3   2    6.65    0.46
   7   3   3    4.41    0.40
   7  -3   3    4.71    0.49
   7  -3   3    4.79    0.46
   7   3   4    2.01    0.33
   7  -3   4    2.38    0.38
   7  -3   4    2.27    0.38
   7  -3   5    1.74    0.40
   7  -3   6   -0.19    0.42
   7   4 -10    2.55    0.46
  -7  -4  10    2.66    0.42
   7  -4 -10    1.15    0.40
   7   4  -9    8.64    0.58
   7  -4  -9    9.46    0.56
  -7  -4   9    9.40    0.60
   7   4  -8   -0.25    0.33
  -7  -4   8    0.38    0.35
   7  -4  -8   -0.01    0.34
   7   4  -7   15.72    0.67
   7  -4  -7   14.81    0.62
  -7  -4   7   15.21    0.70
   7   4  -6    0.68    0.31
   7  -4  -6    0.29    0.28
  -7  -4   6    0.44    0.34
   7   4  -5    5.95    0.44
  -7  -4   5    5.66    0.47
   7  -4  -5    5.94    0.47
   7   4  -4    3.62    0.35
   7   4  -4    3.25    0.31
   7  -4  -4    2.51    0.35
  -7  -4   4    2.53    0.37
   7   4  -3    1.87    0.25
   7   4  -3    1.57    0.30
  -7  -4   3    1.96    0.30
   7  -4  -3    1.58    0.33
  -7  -4   3    1.46    0.33
   7   4  -2    6.81    0.38
   7   4  -2    7.03    0.45
  -7  -4   2    6.67    0.47
   7  -4  -2    7.01    0.34
   7  -4  -2    6.90    0.51
   7   4  -1   21.80    0.66
   7   4  -1   22.42    0.77
   7  -4  -1   21.67    0.82
  -7  -4   1   22.49    0.79
   7  -4  -1   22.85    0.70
   7   4   0    2.98    0.32
   7  -4   0    3.36    0.38
   7  -4   0    3.20    0.35
  -7   4  -1   13.90    0.51
   7   4   1   13.75    0.58
   7  -4   1   12.74    0.65
   7  -4   1   13.70    0.57
   7   4   2   -0.08    0.25
   7  -4   2   -0.22    0.26
   7  -4   2   -0.14    0.31
   7   4   3   25.77    0.91
   7  -4   3   26.39    0.97
   7  -4   3   28.03    0.92
   7   4   4    0.44    0.29
   7  -4   4    0.35    0.32
   7  -4   4    0.49    0.36
   7  -4   5    5.28    0.54
   7   5  -9   -0.04    0.37
   7  -5  -9    0.19    0.35
   7   5  -8   10.26    0.61
   7  -5  -8   11.18    0.59
  -7  -5   8   11.10    0.65
   7   5  -7    3.97    0.41
  -7  -5   7    3.44    0.44
   7  -5  -7    2.86    0.35
   7   5  -6    0.18    0.30
  -7  -5   6   -0.02    0.35
   7  -5  -6    0.14    0.31
   7   5  -5   14.21    0.60
   7  -5  -5   14.17    0.64
  -7  -5   5   14.41    0.70
   7   5  -4    4.94    0.41
   7   5  -4    6.08    0.46
  -7  -5   4    5.46    0.49
   7  -5  -4    4.49    0.49
   7   5  -3   12.73    0.53
   7   5  -3   13.47    0.60
   7  -5  -3   14.32    0.66
  -7  -5   3   12.34    0.64
   7   5  -2   -0.15    0.26
   7   5  -2    0.27    0.20
   7  -5  -2    0.68    0.33
   7   5  -1    2.18    0.22
   7   5  -1    2.02    0.32
   7  -5  -1    2.24    0.25
   7  -5  -1    2.55    0.39
   7   5   0   -0.02    0.26
   7  -5   0   -0.28    0.32
   7  -5   0    0.11    0.23
   7   5   1    0.09    0.27
   7  -5   1   -0.17    0.31
   7  -5   1   -0.22    0.25
   7   5   2    2.33    0.32
   7  -5   2    2.38    0.40
   7  -5   2    2.67    0.34
   7   5   3    0.83    0.29
   7  -5   3    1.48    0.38
   7  -5   3    1.05    0.32
   7  -5   4    0.54    0.37
   7   6  -7    9.03    0.57
   7   6  -6    2.60    0.36
  -7  -6   6    2.29    0.43
   7  -6  -6    1.99    0.37
   7   6  -5    3.29    0.35
   7  -6  -5    2.39    0.40
  -7  -6   5    3.23    0.44
   7   6  -4    0.49    0.27
  -7  -6   4    0.31    0.35
   7  -6  -4   -0.03    0.34
   7   6  -3    0.70    0.31
   7   6  -3    0.49    0.24
   7  -6  -3    0.75    0.35
  -7  -6   3    0.01    0.35
   7   6  -2    3.60    0.37
   7   6  -2    3.96    0.39
  -7  -6   2    4.14    0.44
   7  -6  -2    4.82    0.53
   7   6  -1    5.44    0.45
   7  -6  -1    5.12    0.55
   7   6   0    5.87    0.47
   7  -6   0    5.22    0.56
   7   6   1   10.69    0.56
   7  -6   1   10.27    0.65
   7   6   2   -0.16    0.27
   7  -6   2   -0.32    0.37
   7  -7  -4    3.15    0.44
   7  -7  -3    3.81    0.46
   7  -7  -2    1.76    0.42
   7  -7  -1    8.17    0.67
  -8   0  12    0.64    0.37
   8   0 -12    1.43    0.44
   8   0 -11   -0.31    0.40
  -8   0  11    0.18    0.34
  -8   0  10    0.04    0.32
   8   0 -10   -0.25    0.37
   8   0  -9   -0.29    0.33
  -8   0   9   -0.18    0.22
  -8   0   9   -0.06    0.27
   8   0  -8    2.54    0.33
  -8   0   8    2.46    0.32
   8   0  -8    2.58    0.35
  -8   0   8    2.06    0.28
   8   0  -7   -0.06    0.27
  -8   0   7   -0.16    0.22
  -8   0   7    0.15    0.26
   8   0  -6   61.81    1.67
  -8   0   6   62.46    1.68
   8   0  -6   63.48    1.67
  -8   0   6   61.22    1.73
  -8   0   5    0.10    0.23
  -8   0   5   -0.15    0.22
   8   0  -5   -0.09    0.23
   8   0  -5   -0.37    0.23
   8   0  -5   -0.21    0.21
   8   0  -4    6.52    0.40
  -8   0   4    6.83    0.41
  -8   0   4    6.28    0.37
   8   0  -4    6.30    0.43
   8   0  -4    6.64    0.37
   8   0  -3   -0.04    0.21
   8   0  -3   -0.06    0.19
  -8   0   3   -0.02    0.22
   8   0  -2    1.51    0.25
   8   0  -2    1.49    0.26
  -8   0   2    1.60    0.29
   8   0  -1   -0.17    0.19
   8   0  -1    0.08    0.22
  -8   0   1   -0.03    0.24
   8   0   0    6.44    0.40
  -8   0   0    6.77    0.49
   8   0   0    6.25    0.45
   8   0   1   -0.01    0.23
   8   0   1    0.13    0.26
  -8   0  -1   -0.09    0.27
   8   0   2    7.21    0.45
   8   0   2    7.75    0.51
   8   0   3   -0.21    0.28
   8   0   3    0.27    0.33
   8   0   4    8.42    0.55
   8   0   4    6.76    0.50
   8   0   5   -0.64    0.38
   8   0   6   16.09    0.73
   8   1 -12    4.95    0.52
  -8   1  12    4.77    0.50
  -8  -1  12    5.35    0.54
   8  -1 -12    5.98    0.58
   8   1 -11    1.64    0.45
  -8   1  11    1.53    0.37
   8  -1 -11    2.06    0.44
  -8  -1  11    2.38    0.41
  -8   1  10   15.37    0.66
   8   1 -10   15.23    0.71
   8  -1 -10   14.74    0.70
  -8  -1  10   15.03    0.69
  -8   1   9    7.81    0.48
  -8   1   9    7.74    0.45
   8   1  -9    7.60    0.53
   8  -1  -9    7.56    0.52
  -8  -1   9    7.73    0.50
  -8   1   8   58.23    1.64
   8   1  -8   60.52    1.67
  -8   1   8   61.50    1.70
  -8  -1   8   59.67    1.73
  -8  -1   8   61.47    1.68
   8  -1  -8   61.59    1.73
   8  -1  -8   60.38    1.67
  -8   1   7    2.11    0.27
   8   1  -7    2.11    0.33
   8  -1  -7    2.18    0.33
  -8  -1   7    2.09    0.33
  -8  -1   7    0.92    0.28
   8   1  -6    3.79    0.39
   8   1  -6    3.21    0.36
  -8   1   6    3.53    0.31
  -8   1   6    3.38    0.32
  -8  -1   6    3.76    0.39
  -8  -1   6    3.17    0.38
   8  -1  -6    3.32    0.31
   8  -1  -6    2.84    0.31
   8  -1  -6    4.11    0.39
   8   1  -5    3.99    0.37
  -8   1   5    3.21    0.29
  -8   1   5    4.15    0.35
   8   1  -5    3.32    0.35
   8  -1  -5    3.94    0.38
  -8  -1   5    3.11    0.32
  -8  -1   5    3.63    0.37
   8  -1  -5    3.36    0.30
   8   1  -4   45.54    1.26
   8   1  -4   46.52    1.28
   8   1  -4   45.95    1.31
  -8   1   4   45.77    1.26
  -8   1   4   42.73    1.26
   8  -1  -4   46.59    1.24
  -8  -1   4   45.55    1.29
  -8  -1   4   45.03    1.33
   8  -1  -4   46.86    1.32
   8   1  -3   20.31    0.67
   8   1  -3   19.23    0.66
   8   1  -3   19.45    0.70
  -8   1   3   19.47    0.68
   8  -1  -3   19.59    0.70
   8  -1  -3   19.93    0.64
  -8  -1   3   19.24    0.70
   8   1  -2   30.78    0.96
   8   1  -2   30.79    0.94
  -8   1   2   31.73    0.95
   8  -1  -2   30.45    0.97
   8  -1  -2   31.25    0.91
  -8  -1   2   31.12    0.97
   8   1  -1   17.41    0.66
  -8   1   1   17.07    0.65
   8   1  -1   18.37    0.64
  -8   1   1   18.15    0.67
   8  -1  -1   18.43    0.63
  -8  -1   1   18.37    0.71
   8  -1  -1   17.82    0.70
  -8   1   0   45.73    1.32
   8   1   0   46.12    1.30
   8   1   0   44.09    1.29
   8  -1   0   45.29    1.33
  -8  -1   0   44.05    1.33
   8  -1   0   45.12    1.28
   8   1   1    0.65    0.26
  -8   1  -1    0.20    0.25
   8   1   1    0.40    0.26
   8  -1   1    0.32    0.26
   8  -1   1    0.32    0.30
   8   1   2   10.17    0.51
   8   1   2   10.66    0.51
   8  -1   2   10.43    0.52
   8  -1   2   11.15    0.59
   8   1   3   -0.07    0.27
   8   1   3    0.36    0.28
   8  -1   3   -0.16    0.27
   8  -1   3   -0.12    0.34
   8   1   4    0.13    0.30
   8   1   4    0.77    0.31
   8  -1   4   -0.04    0.31
   8  -1   4    0.00    0.37
   8   1   5    0.52    0.32
   8  -1   5   -0.33    0.37
   8  -1   6   -0.79    0.46
  -8   2  11   14.46    0.65
   8   2 -11   13.72    0.73
   8  -2 -11   15.03    0.72
   8   2 -10    5.70    0.53
  -8   2  10    5.89    0.44
   8  -2 -10    5.63    0.52
  -8  -2  10    5.96    0.54
   8   2  -9    2.00    0.39
  -8   2   9    1.65    0.26
  -8   2   9    2.08    0.29
   8  -2  -9    1.37    0.38
  -8  -2   9    2.14    0.38
   8   2  -8   16.10    0.67
  -8   2   8   16.39    0.58
  -8   2   8   15.51    0.58
   8  -2  -8   16.91    0.67
   8  -2  -8   14.87    0.59
  -8  -2   8   16.64    0.69
   8   2  -7    1.88    0.35
  -8   2   7    2.85    0.28
  -8   2   7    1.62    0.23
  -8  -2   7    2.06    0.35
   8  -2  -7    1.98    0.34
   8  -2  -7    1.95    0.32
   8   2  -6   53.96    1.53
   8   2  -6   56.01    1.51
  -8   2   6   54.28    1.47
  -8  -2   6   53.74    1.60
  -8  -2   6   55.75    1.55
   8  -2  -6   55.46    1.55
   8   2  -5    4.11    0.41
  -8   2   5    3.92    0.34
   8   2  -5    4.38    0.39
  -8  -2   5    4.43    0.41
   8  -2  -5    4.50    0.30
   8  -2  -5    5.10    0.42
  -8  -2   5    4.32    0.41
   8   2  -4    4.59    0.39
   8   2  -4    5.06    0.39
  -8   2   4    4.78    0.36
  -8  -2   4    5.28    0.42
   8  -2  -4    4.95    0.32
  -8  -2   4    3.77    0.41
   8  -2  -4    5.44    0.42
   8   2  -3   13.39    0.53
  -8   2   3   13.08    0.53
   8   2  -3   13.49    0.56
   8  -2  -3   13.37    0.60
  -8  -2   3   13.83    0.59
   8  -2  -3   13.87    0.49
   8   2  -2   19.11    0.66
   8   2  -2   20.06    0.70
   8  -2  -2   20.06    0.75
   8  -2  -2   20.82    0.66
  -8  -2   2   20.78    0.74
  -8   2   1   23.32    0.73
   8   2  -1   24.20    0.73
   8   2  -1   23.51    0.79
   8   2  -1   23.59    0.79
   8  -2  -1   23.16    0.83
   8  -2  -1   24.89    0.76
  -8  -2   1   23.58    0.83
   8   2   0    1.43    0.28
   8   2   0    1.62    0.23
   8   2   0    1.83    0.28
  -8   2   0    1.31    0.23
  -8  -2   0    1.31    0.31
   8  -2   0    1.78    0.27
   8  -2   0    1.39    0.33
   8   2   1    5.85    0.40
   8   2   1    6.30    0.40
  -8   2  -1    5.63    0.41
   8  -2   1    6.06    0.43
   8  -2   1    6.48    0.51
  -8   2  -2    3.21    0.30
   8   2   2    2.42    0.32
   8   2   2    2.77    0.30
   8  -2   2    3.09    0.39
   8  -2   2    2.87    0.34
   8   2   3    8.98    0.52
   8   2   3   10.33    0.49
   8  -2   3    9.96    0.56
   8  -2   3   10.11    0.61
   8   2   4   17.01    0.64
   8  -2   4   17.25    0.77
   8  -2   5    0.82    0.41
   8   3 -11    3.63    0.50
   8  -3 -11    3.32    0.46
   8   3 -10    7.36    0.57
   8  -3 -10    8.10    0.57
  -8  -3  10    7.44    0.55
   8   3  -9   14.80    0.69
   8  -3  -9   14.92    0.69
  -8  -3   9   15.37    0.71
   8   3  -8    9.70    0.55
  -8  -3   8   10.23    0.58
   8  -3  -8    9.68    0.56
   8   3  -7   19.70    0.74
   8  -3  -7   20.85    0.75
  -8  -3   7   20.18    0.80
   8  -3  -7   20.03    0.74
   8   3  -6    1.55    0.31
  -8  -3   6    1.20    0.35
   8  -3  -6    1.87    0.32
   8   3  -5   99.05    2.48
  -8   3   5   91.28    2.45
   8   3  -5   98.69    2.53
   8  -3  -5   97.38    2.58
  -8  -3   5   94.81    2.65
   8   3  -4    0.03    0.25
   8   3  -4   -0.23    0.27
   8  -3  -4   -0.08    0.19
  -8  -3   4   -0.02    0.32
  -8  -3   4   -0.12    0.27
   8  -3  -4    0.07    0.28
   8   3  -3   51.24    1.37
   8   3  -3   49.31    1.43
   8  -3  -3   51.62    1.35
  -8  -3   3   50.69    1.45
   8  -3  -3   49.21    1.47
   8   3  -2    0.13    0.25
   8   3  -2    0.42    0.22
  -8  -3   2   -0.10    0.27
   8  -3  -2    0.49    0.21
   8  -3  -2    0.69    0.29
   8   3  -1    1.61    0.24
   8   3  -1    1.94    0.30
   8  -3  -1    2.14    0.34
   8  -3  -1    2.28    0.26
  -8   3   0    2.14    0.21
   8   3   0    1.53    0.22
   8   3   0    1.60    0.29
   8  -3   0    1.98    0.35
   8  -3   0    1.91    0.28
   8   3   1    9.19    0.49
   8  -3   1    8.31    0.55
   8  -3   1    9.16    0.49
   8   3   2    7.55    0.46
   8  -3   2    7.16    0.54
   8  -3   2    7.59    0.49
   8   3   3    2.07    0.33
   8  -3   3    1.70    0.38
   8  -3   3    2.19    0.35
   8  -3   4    0.17    0.36
   8  -3   5    5.70    0.55
   8   4 -10    0.31    0.39
   8  -4 -10   -0.32    0.37
   8   4  -9   13.91    0.68
   8  -4  -9   14.40    0.68
  -8  -4   9   14.48    0.72
   8   4  -8   -0.12    0.34
   8  -4  -8    0.04    0.30
   8  -4  -8   -0.24    0.35
  -8  -4   8    0.06    0.35
   8   4  -7    0.62    0.33
   8  -4  -7    0.74    0.31
  -8  -4   7    1.18    0.36
   8   4  -6    1.56    0.32
  -8  -4   6    2.12    0.38
   8  -4  -6    1.59    0.33
   8   4  -5    5.09    0.46
   8   4  -5    4.99    0.42
  -8  -4   5    4.39    0.46
   8  -4  -5    4.07    0.47
   8   4  -4    0.01    0.24
   8   4  -4    0.08    0.27
  -8  -4   4    0.18    0.32
   8  -4  -4   -0.22    0.30
   8   4  -3    0.88    0.28
   8   4  -3    0.82    0.24
   8  -4  -3    1.20    0.33
   8   4  -2    0.06    0.21
   8   4  -2    0.16    0.26
   8  -4  -2    0.12    0.30
   8  -4  -2    0.13    0.20
   8   4  -1   14.61    0.62
   8   4  -1   14.78    0.51
   8  -4  -1   13.59    0.67
   8  -4  -1   15.06    0.55
   8   4   0   -0.06    0.25
   8  -4   0   -0.03    0.24
   8  -4   0    0.03    0.32
   8   4   1   20.33    0.77
   8  -4   1   21.69    0.76
   8  -4   1   20.71    0.84
   8   4   2    1.96    0.32
   8  -4   2    2.14    0.39
   8  -4   2    1.73    0.34
   8  -4   3    4.85    0.48
   8  -4   3    4.61    0.50
   8  -4   4   -0.01    0.36
   8   5  -9    3.69    0.46
   8  -5  -9    3.57    0.45
   8   5  -8   12.15    0.65
   8  -5  -8   12.09    0.63
  -8  -5   8   13.99    0.71
   8   5  -7   14.65    0.67
   8  -5  -7   15.09    0.68
  -8  -5   7   14.99    0.73
   8   5  -6    0.92    0.32
  -8  -5   6    1.00    0.39
   8  -5  -6    0.71    0.34
   8   5  -5   13.59    0.61
   8  -5  -5   13.04    0.67
  -8  -5   5   13.77    0.68
   8   5  -4    0.20    0.26
   8   5  -4    0.27    0.32
   8  -5  -4    0.03    0.34
  -8  -5   4   -0.06    0.34
   8   5  -3   20.55    0.77
   8   5  -3   19.61    0.69
   8  -5  -3   20.21    0.81
  -8  -5   3   20.55    0.84
   8   5  -2    0.30    0.30
   8   5  -2    0.13    0.21
   8  -5  -2    0.07    0.35
   8   5  -1   -0.22    0.26
   8  -5  -1   -0.19    0.22
   8  -5  -1    0.09    0.34
   8   5   0    2.58    0.35
   8  -5   0    2.94    0.31
   8  -5   0    3.31    0.43
   8   5   1    2.88    0.36
   8  -5   1    4.53    0.43
   8  -5   1    3.81    0.44
   8  -5   2    0.16    0.36
   8  -5   2    0.18    0.30
   8  -5   3    7.29    0.65
   8   6  -7    0.16    0.34
   8   6  -6    7.62    0.51
   8  -6  -6    6.07    0.54
   8   6  -5    0.73    0.30
  -8  -6   5    0.75    0.39
   8  -6  -5    0.39    0.36
   8   6  -4   -0.15    0.26
  -8  -6   4   -0.17    0.36
   8  -6  -4   -0.30    0.36
   8   6  -3    4.44    0.40
   8  -6  -3    4.61    0.47
  -8  -6   3    4.20    0.49
  -8  -6   2    0.68    0.35
   8  -6  -2    0.51    0.38
   8  -6  -1   12.76    0.71
   8  -6   0    4.47    0.50
   8  -6   1   11.63    0.74
   9   0 -11   -0.44    0.39
  -9   0  11   -0.04    0.32
   9   0 -10    2.60    0.44
  -9   0  10    2.28    0.37
  -9   0   9   -0.02    0.29
   9   0  -9   -0.01    0.33
  -9   0   8  110.81    3.04
  -9   0   8  114.33    2.94
   9   0  -8  113.72    2.93
   9   0  -7   -0.02    0.29
  -9   0   7   -0.17    0.27
  -9   0   7   -0.55    0.24
   9   0  -6   35.87    1.04
  -9   0   6   34.41    1.06
   9   0  -6   35.76    1.07
  -9   0   6   35.37    1.07
  -9   0   5   -0.35    0.24
   9   0  -5   -0.14    0.24
   9   0  -5    0.12    0.26
  -9   0   5   -0.33    0.25
   9   0  -5   -0.18    0.24
  -9   0   4    0.27    0.26
  -9   0   4    0.35    0.27
   9   0  -4   -0.02    0.23
   9   0  -4    0.31    0.25
   9   0  -3   -0.26    0.21
   9   0  -3   -0.06    0.24
  -9   0   3   -0.03    0.25
   9   0  -2    9.40    0.46
   9   0  -2   10.14    0.52
  -9   0   2    9.57    0.55
   9   0  -1   -0.30    0.24
   9   0  -1   -0.04    0.22
  -9   0   1   -0.31    0.26
   9   0   0    1.34    0.28
  -9   0   0    1.77    0.33
   9   0   0    1.63    0.31
   9   0   1    0.04    0.29
   9   0   1   -0.19    0.23
   9   0   2   20.04    0.77
   9   0   2   21.94    0.80
   9   0   3    0.43    0.36
   9   0   3   -0.02    0.30
   9   0   4   25.27    0.92
   9   0   5   -0.01    0.44
  -9  -1  12    0.46    0.39
   9   1 -11    0.07    0.42
  -9   1  11    0.05    0.32
   9  -1 -11    0.25    0.41
  -9  -1  11    0.91    0.36
  -9   1  10   10.01    0.54
   9   1 -10    9.91    0.62
  -9  -1  10   10.25    0.60
   9  -1 -10   10.72    0.63
  -9   1   9    2.71    0.31
   9   1  -9    2.97    0.42
  -9   1   9    4.05    0.40
  -9  -1   9    3.45    0.38
   9  -1  -9    3.31    0.42
   9   1  -8   15.28    0.67
  -9   1   8   16.50    0.63
  -9   1   8   16.23    0.60
   9  -1  -8   15.93    0.68
  -9  -1   8   16.09    0.67
  -9   1   7    6.80    0.43
  -9   1   7    7.51    0.39
   9   1  -7    7.57    0.48
  -9  -1   7    7.45    0.49
   9  -1  -7    7.19    0.50
  -9  -1   7    6.49    0.51
  -9   1   6    2.82    0.31
   9   1  -6    2.78    0.33
  -9   1   6    2.97    0.31
   9   1  -6    2.44    0.32
   9  -1  -6    2.62    0.29
  -9  -1   6    2.54    0.34
  -9  -1   6    2.18    0.33
   9  -1  -6    2.51    0.32
   9  -1  -6    2.33    0.34
  -9   1   5   13.77    0.51
  -9   1   5   13.99    0.57
   9   1  -5   14.36    0.58
   9   1  -5   14.08    0.58
  -9  -1   5   14.37    0.61
   9  -1  -5   15.01    0.54
   9  -1  -5   14.03    0.60
  -9  -1   5   14.27    0.59
  -9   1   4   55.21    1.52
   9   1  -4   55.00    1.57
   9   1  -4   57.01    1.51
  -9   1   4   54.31    1.53
   9   1  -4   55.49    1.54
   9  -1  -4   56.49    1.50
  -9  -1   4   55.74    1.56
   9  -1  -4   54.96    1.57
  -9  -1   4   55.03    1.60
   9   1  -3   -0.02    0.24
   9   1  -3    0.23    0.25
   9   1  -3   -0.16    0.24
  -9   1   3   -0.23    0.26
  -9  -1   3   -0.23    0.27
   9  -1  -3   -0.03    0.25
   9  -1  -3    0.09    0.23
   9   1  -2   28.25    0.92
   9   1  -2   28.43    0.90
  -9   1   2   29.63    0.93
  -9  -1   2   27.34    0.94
   9  -1  -2   28.64    0.94
   9  -1  -2   29.79    0.88
   9   1  -1    0.39    0.26
   9   1  -1    0.66    0.26
  -9   1   1    0.56    0.25
  -9  -1   1    0.31    0.29
   9  -1  -1    0.57    0.24
   9  -1  -1    0.37    0.29
   9   1   0   18.62    0.69
  -9   1   0   19.60    0.73
   9   1   0   19.55    0.71
   9  -1   0   18.80    0.75
   9  -1   0   18.66    0.68
   9   1   1    6.88    0.46
   9   1   1    6.08    0.43
   9  -1   1    6.44    0.51
   9  -1   1    6.18    0.44
   9   1   2    3.05    0.33
   9   1   2    2.51    0.32
   9  -1   2    2.44    0.34
   9  -1   2    2.66    0.40
   9   1   3    1.56    0.31
   9  -1   3    0.88    0.38
   9  -1   3    0.44    0.31
   9   1   4    4.58    0.44
   9  -1   4    3.79    0.46
   9   1   5    8.03    0.57
   9  -1   5    7.76    0.69
   9   2 -11   16.89    0.78
   9  -2 -11   18.93    0.81
   9   2 -10   10.19    0.63
   9  -2 -10   10.67    0.63
   9   2  -9   -0.13    0.36
  -9   2   9    0.44    0.25
   9  -2  -9   -0.06    0.36
  -9  -2   9    0.52    0.36
   9   2  -8   14.46    0.66
  -9   2   8   14.35    0.57
  -9   2   8   14.51    0.53
   9  -2  -8   14.02    0.64
  -9  -2   8   15.16    0.67
  -9   2   7    0.38    0.24
   9   2  -7    0.52    0.32
   9  -2  -7    0.79    0.33
  -9  -2   7    0.53    0.33
   9  -2  -7    0.96    0.31
   9   2  -6   19.32    0.72
  -9   2   6   19.76    0.65
   9   2  -6   19.11    0.72
   9  -2  -6   19.74    0.73
  -9  -2   6   18.49    0.74
   9  -2  -6   19.43    0.63
   9   2  -5   16.02    0.65
  -9   2   5   16.80    0.60
   9   2  -5   16.21    0.63
   9  -2  -5   17.05    0.58
  -9  -2   5   15.74    0.68
   9  -2  -5   16.87    0.67
   9   2  -4   -0.12    0.26
  -9   2   4   -0.04    0.24
   9   2  -4   -0.22    0.25
  -9  -2   4   -0.19    0.27
   9  -2  -4    0.04    0.27
   9  -2  -4   -0.03    0.21
  -9  -2   4   -0.21    0.28
  -9   2   3   12.44    0.54
   9   2  -3   11.80    0.54
   9   2  -3   13.08    0.54
   9  -2  -3   12.79    0.50
   9  -2  -3   12.00    0.59
  -9  -2   3   12.47    0.59
   9   2  -2    0.63    0.26
   9   2  -2    0.57    0.25
   9   2  -2    0.56    0.28
  -9   2   2    0.36    0.18
   9  -2  -2    0.63    0.23
   9  -2  -2    0.32    0.29
   9   2  -1    5.25    0.40
   9   2  -1    6.05    0.38
  -9   2   1    5.68    0.37
   9   2  -1    5.57    0.44
   9  -2  -1    5.37    0.48
   9  -2  -1    5.56    0.38
   9   2   0    0.37    0.27
  -9   2   0    0.18    0.21
   9   2   0    0.32    0.26
   9   2   0    0.13    0.22
   9  -2   0    0.21    0.25
   9  -2   0    0.29    0.31
   9   2   1   -0.15    0.24
   9   2   1    0.01    0.26
   9  -2   1   -0.02    0.31
   9  -2   1   -0.22    0.25
   9   2   2    6.12    0.44
   9   2   2    6.01    0.42
   9  -2   2    5.45    0.53
   9  -2   2    5.89    0.46
   9   2   3    4.49    0.41
   9  -2   3    4.89    0.53
   9   2   4    2.01    0.31
   9  -2   4    2.74    0.43
   9   3 -10    2.11    0.44
   9  -3 -10    2.05    0.44
  -9  -3  10    2.02    0.43
   9   3  -9   11.31    0.62
  -9  -3   9   12.18    0.65
   9  -3  -9   11.22    0.63
   9   3  -8    0.34    0.34
  -9  -3   8    0.44    0.36
   9  -3  -8    0.38    0.37
   9  -3  -8    0.59    0.33
   9   3  -7   18.34    0.72
  -9  -3   7   18.31    0.78
   9  -3  -7   19.51    0.74
   9   3  -6    0.10    0.29
   9   3  -6    0.37    0.30
  -9   3   6   -0.12    0.21
  -9  -3   6   -0.14    0.32
   9  -3  -6   -0.14    0.30
   9   3  -5   21.82    0.74
  -9   3   5   19.93    0.66
   9   3  -5   20.73    0.75
   9  -3  -5   21.01    0.64
   9  -3  -5   19.99    0.77
  -9  -3   5   20.30    0.80
   9   3  -4    1.60    0.32
   9   3  -4    2.02    0.31
   9  -3  -4    1.94    0.33
  -9  -3   4    1.47    0.35
   9  -3  -4    1.76    0.24
   9   3  -3   16.85    0.68
   9   3  -3   16.91    0.62
   9  -3  -3   17.05    0.71
   9  -3  -3   16.80    0.58
   9   3  -2    6.31    0.40
   9   3  -2    5.97    0.44
   9  -3  -2    5.54    0.48
   9  -3  -2    5.79    0.36
   9   3  -1    8.63    0.42
   9   3  -1    8.58    0.49
   9  -3  -1    9.16    0.45
   9  -3  -1    8.21    0.55
   9   3   0   10.86    0.43
   9   3   0   10.37    0.53
   9  -3   0   10.68    0.51
   9  -3   0    9.76    0.60
   9   3   1    7.79    0.36
   9   3   1    7.59    0.48
   9  -3   1    8.04    0.49
   9  -3   1    7.67    0.55
   9  -3   2   -0.14    0.28
   9  -3   2   -0.06    0.33
   9  -3   3    6.34    0.55
   9  -3   4    0.42    0.43
   9   4  -9   -0.19    0.36
  -9  -4   9    0.87    0.39
   9  -4  -9   -0.16    0.39
   9   4  -8   -0.22    0.33
   9  -4  -8    0.33    0.34
   9  -4  -8   -0.04    0.37
  -9  -4   8   -0.12    0.35
   9   4  -7    3.87    0.40
  -9  -4   7    4.11    0.46
   9  -4  -7    4.39    0.49
   9   4  -6    0.18    0.32
   9   4  -6   -0.24    0.28
  -9  -4   6    0.41    0.35
   9  -4  -6    0.16    0.33
   9   4  -5    1.93    0.35
   9   4  -5    1.57    0.30
   9  -4  -5    1.57    0.36
  -9  -4   5    2.01    0.39
   9   4  -4    3.69    0.39
   9   4  -4    3.72    0.39
  -9  -4   4    3.94    0.45
   9  -4  -4    4.11    0.46
   9   4  -3   23.38    0.84
   9   4  -3   23.29    0.76
   9  -4  -3   22.59    0.86
   9  -4  -3   24.19    0.73
   9   4  -2    0.02    0.28
   9   4  -2   -0.19    0.21
   9  -4  -2   -0.18    0.21
   9  -4  -2   -0.04    0.31
   9   4  -1   22.37    0.82
   9   4  -1   23.48    0.70
   9  -4  -1   22.96    0.75
   9  -4  -1   21.44    0.86
   9   4   0    3.85    0.41
   9  -4   0    3.90    0.44
   9  -4   0    4.68    0.41
   9  -4   1    2.96    0.35
   9  -4   1    2.85    0.41
   9  -4   2    0.71    0.36
   9  -4   2    0.02    0.30
   9  -4   3    0.00    0.36
   9   5  -8    7.26    0.56
   9  -5  -8    8.04    0.56
   9  -5  -8    6.62    0.55
   9   5  -7    8.11    0.57
  -9  -5   7    8.49    0.60
   9  -5  -7    7.81    0.57
   9   5  -6    0.29    0.31
   9  -5  -6   -0.30    0.34
  -9  -5   6    0.07    0.37
   9   5  -5   10.63    0.55
   9  -5  -5    9.94    0.62
  -9  -5   5   10.33    0.63
   9   5  -4    3.09    0.33
  -9  -5   4    2.81    0.44
   9  -5  -4    2.16    0.42
   9   5  -3    5.42    0.47
   9   5  -3    4.80    0.41
   9  -5  -3    4.90    0.48
  -9  -5   3    4.59    0.48
   9   5  -2    3.85    0.40
   9  -5  -2    3.20    0.43
   9  -5  -1    5.04    0.53
   9  -5   0    3.43    0.44
   9  -5   1   21.45    0.88
   9   6  -5    1.33    0.31
   9  -6  -5    1.59    0.42
   9  -6  -4   -0.20    0.38
   9  -6  -3    4.06    0.46
   9  -6  -2    0.53    0.39
   9  -6  -1   13.44    0.78
 -10   0  11    0.16    0.34
  10   0 -11   -0.49    0.39
  10   0 -10   24.09    0.92
  10   0  -9   -0.37    0.34
 -10   0   9    0.02    0.29
 -10   0   8   50.28    1.47
  10   0  -8   50.19    1.46
 -10   0   7   -0.50    0.27
  10   0  -7    0.05    0.27
  10   0  -7   -0.18    0.30
 -10   0   7   -0.78    0.27
  10   0  -6    5.89    0.47
  10   0  -6    6.28    0.46
 -10   0   6    5.64    0.46
 -10   0   6    6.12    0.42
  10   0  -6    5.89    0.42
 -10   0   5   -0.29    0.24
  10   0  -5   -0.20    0.28
  10   0  -5   -0.24    0.26
  10   0  -5   -0.16    0.26
 -10   0   5   -0.35    0.26
  10   0  -4   46.77    1.38
  10   0  -4   47.68    1.33
 -10   0   4   48.25    1.37
 -10   0   4   45.12    1.36
 -10   0   3   -0.40    0.28
  10   0  -3   -0.24    0.26
  10   0  -3   -0.20    0.24
  10   0  -2    7.31    0.44
  10   0  -2    6.99    0.48
  10   0  -1   -0.02    0.23
  10   0  -1   -0.33    0.25
  10   0   0   27.17    0.91
  10   0   0   27.18    0.89
  10   0   1    0.02    0.31
  10   0   1   -0.01    0.27
  10   0   2   21.41    0.81
  10   0   3    0.05    0.37
  10   0   4   15.10    0.78
  10   1 -11   -0.35    0.40
  10  -1 -11    0.15    0.42
 -10  -1  11    0.92    0.37
  10   1 -10    0.58    0.40
 -10   1  10    0.41    0.31
 -10  -1  10    0.20    0.34
  10  -1 -10   -0.02    0.39
  10   1  -9    9.84    0.61
 -10   1   9    9.18    0.50
  10  -1  -9    9.10    0.60
 -10  -1   9    9.33    0.57
 -10   1   8    1.25    0.30
  10   1  -8    1.51    0.38
 -10   1   8    1.70    0.29
  10  -1  -8    1.44    0.38
 -10  -1   8    1.67    0.36
 -10   1   7    2.51    0.29
 -10   1   7    1.83    0.32
  10   1  -7    2.64    0.37
  10   1  -7    2.31    0.35
 -10  -1   7    2.23    0.36
  10  -1  -7    1.67    0.36
  10  -1  -7    2.33    0.36
  10  -1  -7    2.24    0.30
  10   1  -6   34.68    1.07
 -10   1   6   34.57    1.06
  10   1  -6   36.67    1.09
 -10   1   6   33.65    1.02
  10  -1  -6   36.66    1.05
  10  -1  -6   34.44    1.08
  10  -1  -6   35.58    1.11
 -10  -1   6   34.11    1.10
 -10   1   5   -0.04    0.27
  10   1  -5   -0.02    0.28
 -10   1   5   -0.20    0.23
  10   1  -5   -0.20    0.28
 -10  -1   5   -0.25    0.29
  10  -1  -5   -0.17    0.25
  10  -1  -5    0.06    0.27
  10   1  -4   14.27    0.59
 -10   1   4   13.73    0.61
  10   1  -4   13.26    0.61
 -10   1   4   13.03    0.52
  10   1  -4   14.19    0.59
  10  -1  -4   14.26    0.55
 -10  -1   4   12.71    0.59
  10  -1  -4   13.81    0.62
  10   1  -3    3.69    0.42
 -10   1   3    3.84    0.37
  10   1  -3    3.69    0.40
  10   1  -3    3.61    0.37
  10  -1  -3    3.64    0.36
  10  -1  -3    3.19    0.36
 -10   1   2   11.20    0.57
  10   1  -2   10.70    0.52
  10   1  -2   11.69    0.55
  10  -1  -2   10.58    0.56
  10  -1  -2   10.83    0.50
 -10   1   1    5.46    0.43
  10   1  -1    5.75    0.42
  10   1  -1    6.09    0.45
  10  -1  -1    5.65    0.40
  10  -1  -1    6.03    0.48
  10   1   0    8.84    0.48
  10   1   0    9.37    0.52
  10  -1   0    9.33    0.55
  10  -1   0    9.07    0.49
  10   1   1   11.13    0.56
  10   1   1   10.12    0.53
  10  -1   1   10.10    0.54
  10  -1   1   11.72    0.62
  10   1   2    0.46    0.30
  10  -1   2    0.18    0.35
  10   1   3    7.43    0.49
  10  -1   3    8.07    0.58
  10   2 -11   19.20    0.83
  10  -2 -11   20.15    0.84
  10   2 -10    9.06    0.60
 -10  -2  10    9.40    0.60
  10  -2 -10    9.37    0.63
  10   2  -9    0.07    0.38
  10  -2  -9    0.64    0.39
 -10  -2   9    0.31    0.37
  10   2  -8   27.96    0.97
 -10  -2   8   28.85    1.01
  10  -2  -8   28.91    0.99
  10   2  -7   23.69    0.84
 -10   2   7   22.53    0.79
  10   2  -7   23.81    0.85
  10  -2  -7   24.70    0.87
 -10  -2   7   23.44    0.88
  10  -2  -7   23.71    0.85
 -10   2   6    7.58    0.45
  10   2  -6    7.89    0.50
  10   2  -6    7.79    0.49
  10  -2  -6    7.93    0.42
 -10  -2   6    7.77    0.51
  10  -2  -6    7.69    0.52
  10   2  -5    9.42    0.52
  10   2  -5    9.68    0.52
 -10   2   5    9.10    0.50
  10  -2  -5    9.77    0.45
 -10  -2   5    9.99    0.55
  10  -2  -5    9.16    0.53
 -10   2   4    0.72    0.27
  10   2  -4    0.74    0.30
  10   2  -4    0.74    0.28
  10  -2  -4    0.61    0.30
 -10  -2   4    0.42    0.31
  10  -2  -4    0.82    0.25
  10   2  -3    6.89    0.45
  10   2  -3    7.50    0.45
 -10   2   3    7.47    0.47
  10  -2  -3    7.81    0.42
  10  -2  -3    6.92    0.50
 -10   2   2    2.49    0.24
  10   2  -2    2.28    0.33
  10   2  -2    2.37    0.32
  10   2  -2    2.87    0.32
  10  -2  -2    2.47    0.35
  10  -2  -2    2.49    0.29
  10   2  -1   -0.20    0.23
  10   2  -1   -0.02    0.25
  10   2  -1   -0.02    0.27
  10  -2  -1   -0.09    0.31
  10  -2  -1   -0.14    0.24
  10   2   0    0.01    0.26
  10   2   0   -0.08    0.23
  10   2   0    0.37    0.29
  10  -2   0    0.18    0.25
  10  -2   0    0.09    0.32
  10   2   1    0.60    0.29
  10  -2   1    0.78    0.35
  10  -2   1    0.85    0.30
  10   2   2    2.89    0.34
  10  -2   2    2.53    0.42
  10   2   3   -0.02    0.27
  10  -2   3    0.44    0.38
  10   3 -10    0.10    0.39
  10  -3 -10    0.19    0.42
 -10  -3  10    0.78    0.42
  10   3  -9   13.31    0.67
 -10  -3   9   14.04    0.70
  10  -3  -9   14.62    0.71
  10   3  -8    0.14    0.35
  10  -3  -8    0.35    0.39
  10  -3  -8    0.46    0.35
 -10  -3   8    0.33    0.38
  10   3  -7    4.88    0.49
  10  -3  -7    4.49    0.49
 -10  -3   7    5.47    0.51
 -10   3   6    0.74    0.25
  10   3  -6    1.12    0.33
  10   3  -6    0.79    0.34
 -10  -3   6    0.72    0.36
  10  -3  -6    1.30    0.36
  10  -3  -6    1.41    0.24
  10   3  -5   15.01    0.68
  10   3  -5   17.20    0.67
  10  -3  -5   16.98    0.57
 -10  -3   5   15.40    0.70
  10  -3  -5   15.73    0.69
  10   3  -4   14.68    0.59
  10   3  -4   13.19    0.62
  10  -3  -4   13.87    0.53
 -10  -3   4   12.43    0.64
  10  -3  -4   13.12    0.63
  10   3  -3    5.03    0.40
  10   3  -3    3.93    0.42
  10  -3  -3    4.59    0.47
  10  -3  -3    5.23    0.37
  10   3  -2    5.86    0.46
  10   3  -2    6.15    0.41
  10  -3  -2    6.70    0.41
  10  -3  -2    5.48    0.51
  10   3  -1    8.57    0.42
  10   3  -1    7.60    0.50
  10  -3  -1    8.00    0.45
  10  -3  -1    7.39    0.54
  10   3   0   -0.18    0.21
  10  -3   0   -0.28    0.32
  10  -3   0   -0.22    0.26
  10  -3   1    7.54    0.57
  10  -3   1    8.18    0.50
  10  -3   2    1.09    0.38
  10   4  -9    2.74    0.45
  10  -4  -9    3.72    0.48
 -10  -4   9    4.42    0.51
  10   4  -8    2.64    0.41
  10  -4  -8    2.97    0.44
 -10  -4   8    2.81    0.45
  10  -4  -8    2.97    0.42
  10   4  -7   15.41    0.69
 -10  -4   7   15.25    0.74
  10  -4  -7   16.63    0.74
  10   4  -6    0.57    0.32
 -10  -4   6    0.09    0.36
  10  -4  -6   -0.02    0.35
  10   4  -5   22.21    0.79
  10  -4  -5   23.42    0.87
 -10  -4   5   21.83    0.88
  10   4  -4   -0.15    0.32
  10   4  -4   -0.22    0.26
  10  -4  -4   -0.04    0.34
 -10  -4   4   -0.30    0.34
  10   4  -3   29.57    0.90
  10   4  -3   29.85    0.99
  10  -4  -3   27.19    1.01
  10   4  -2    2.37    0.29
  10  -4  -2    2.39    0.30
  10  -4  -2    1.92    0.40
  10  -4  -1    2.74    0.41
  10  -4  -1    2.74    0.31
  10  -4   0    2.88    0.35
  10  -4   0    3.25    0.42
  10  -4   1    0.93    0.31
  10  -4   1    1.78    0.39
  10   5  -7    0.01    0.34
  10  -5  -7   -0.33    0.38
  10   5  -6    2.13    0.36
  10  -5  -6    1.63    0.41
 -10  -5   6    1.91    0.42
  10   5  -5    3.58    0.37
  10  -5  -5    2.61    0.45
 -10  -5   5    4.46    0.48
  10   5  -4    1.91    0.31
 -10  -5   4    2.20    0.41
  10  -5  -4    1.59    0.42
 -10  -5   3    1.23    0.37
  10  -5  -3    1.64    0.41
  10  -5  -2    0.34    0.38
  10  -5  -1   22.91    0.93
  10  -5   0    3.50    0.49
  11   0 -11   -0.21    0.42
 -11   0  11    0.09    0.35
 -11   0  10   17.90    0.74
  11   0 -10   17.41    0.78
  11   0  -9   -0.02    0.37
 -11   0   9   -0.12    0.30
  11   0  -8    3.00    0.43
 -11   0   8    4.10    0.42
  11   0  -7   -0.23    0.33
 -11   0   7   -0.06    0.30
  11   0  -7    0.05    0.29
  11   0  -6    1.13    0.32
 -11   0   6    1.14    0.30
  11   0  -6    1.56    0.31
  11   0  -6    1.00    0.35
  11   0  -5   -0.21    0.27
  11   0  -5   -0.16    0.30
 -11   0   5    0.01    0.28
  11   0  -5   -0.01    0.28
 -11   0   4   39.76    1.21
  11   0  -4   39.93    1.24
  11   0  -4   41.98    1.21
  11   0  -3   -0.20    0.28
  11   0  -3   -0.20    0.26
  11   0  -2   19.42    0.72
  11   0  -2   19.63    0.75
  11   0  -1   -0.27    0.25
  11   0  -1   -0.16    0.30
  11   0   0   15.80    0.68
  11   0   0   16.03    0.66
  11   0   1    0.04    0.33
  11   0   2    8.68    0.54
 -11  -1  11    3.58    0.45
  11   1 -10    3.10    0.46
  11  -1 -10    2.94    0.47
  11   1  -9    1.72    0.43
  11  -1  -9    1.91    0.43
 -11  -1   9    2.39    0.39
 -11   1   8   16.83    0.62
  11   1  -8   15.90    0.71
 -11  -1   8   16.32    0.70
  11  -1  -8   16.73    0.73
  11   1  -7    3.43    0.40
 -11   1   7    3.53    0.36
  11   1  -7    3.15    0.41
 -11   1   7    3.12    0.36
  11  -1  -7    3.27    0.42
  11  -1  -7    3.52    0.36
  11  -1  -7    3.08    0.39
 -11  -1   7    3.50    0.41
 -11   1   6   12.55    0.60
  11   1  -6   12.94    0.60
 -11   1   6   13.01    0.51
  11   1  -6   13.70    0.62
 -11  -1   6   12.72    0.60
  11  -1  -6   12.56    0.63
  11  -1  -6   12.52    0.56
  11  -1  -6   13.00    0.62
 -11   1   5    6.22    0.37
  11   1  -5    7.03    0.47
  11   1  -5    6.08    0.46
 -11   1   5    5.80    0.49
 -11  -1   5    6.00    0.47
  11  -1  -5    6.66    0.43
  11  -1  -5    6.08    0.48
  11   1  -4    7.36    0.47
  11   1  -4    6.92    0.46
  11   1  -4    6.87    0.49
 -11   1   4    7.42    0.41
  11  -1  -4    6.71    0.50
  11  -1  -4    7.09    0.44
  11   1  -3   -0.06    0.28
  11   1  -3   -0.24    0.28
  11   1  -3   -0.14    0.26
  11  -1  -3   -0.17    0.29
  11  -1  -3    0.02    0.26
  11   1  -2    2.89    0.35
  11   1  -2    2.84    0.34
  11  -1  -2    3.31    0.37
  11  -1  -2    2.81    0.33
  11   1  -1    9.95    0.53
  11   1  -1   10.49    0.54
  11  -1  -1   10.29    0.51
  11  -1  -1   10.00    0.57
  11   1   0    1.74    0.34
  11  -1   0    1.91    0.37
  11  -1   0    1.93    0.33
  11   1   1    0.73    0.32
  11  -1   1    1.64    0.38
  11   1   2    6.11    0.49
  11  -1   2    7.44    0.56
  11   2 -10    8.70    0.65
  11  -2 -10   10.33    0.64
 -11  -2  10   10.25    0.63
  11   2  -9   10.04    0.62
 -11  -2   9   10.16    0.60
  11  -2  -9   11.24    0.63
  11   2  -8   22.82    0.87
  11  -2  -8   23.85    0.89
  11  -2  -8   22.66    0.88
 -11  -2   8   22.79    0.88
  11   2  -7   16.01    0.69
  11   2  -7   14.75    0.69
  11  -2  -7   13.94    0.68
  11  -2  -7   15.18    0.71
 -11  -2   7   14.83    0.70
  11  -2  -7   15.40    0.59
  11   2  -6    2.51    0.38
  11   2  -6    2.68    0.37
 -11   2   6    2.26    0.34
 -11  -2   6    2.82    0.40
  11  -2  -6    2.54    0.37
  11  -2  -6    2.57    0.32
  11   2  -5    3.72    0.42
 -11   2   5    2.79    0.34
  11   2  -5    3.81    0.38
  11  -2  -5    3.46    0.39
  11  -2  -5    3.44    0.36
 -11  -2   5    3.42    0.41
  11   2  -4    4.83    0.45
  11   2  -4    5.09    0.43
  11  -2  -4    4.93    0.39
 -11  -2   4    5.01    0.46
  11  -2  -4    4.77    0.47
  11   2  -3   10.30    0.54
  11   2  -3   10.00    0.50
  11  -2  -3    8.13    0.55
  11  -2  -3    9.38    0.48
  11   2  -2    6.62    0.48
  11   2  -2    6.51    0.44
  11   2  -2    6.24    0.47
  11  -2  -2    6.03    0.50
  11  -2  -2    6.40    0.42
  11   2  -1    0.28    0.27
  11   2  -1    0.54    0.31
  11  -2  -1    0.69    0.34
  11  -2  -1    0.45    0.27
  11   2   0    1.82    0.34
  11   2   0    1.91    0.29
  11  -2   0    2.12    0.40
  11  -2   0    1.91    0.32
  11   2   1    3.52    0.37
  11  -2   1    3.21    0.44
  11   2   2    0.55    0.32
  11  -2   2    0.83    0.39
 -11  -3  10    0.08    0.41
  11   3  -9    8.88    0.60
 -11  -3   9    9.30    0.62
  11  -3  -9    8.40    0.63
  11   3  -8   -0.08    0.36
 -11  -3   8    0.36    0.39
  11  -3  -8    0.31    0.38
  11  -3  -8    0.11    0.40
  11   3  -7    0.01    0.35
  11  -3  -7    0.02    0.36
 -11  -3   7    0.32    0.38
  11   3  -6    7.88    0.53
  11  -3  -6    7.47    0.57
 -11  -3   6    7.42    0.54
  11   3  -5    1.41    0.34
  11   3  -5    1.31    0.35
  11  -3  -5    1.25    0.36
  11  -3  -5    1.38    0.28
 -11  -3   5    1.33    0.39
  11   3  -4    3.42    0.40
  11   3  -4    2.55    0.36
  11  -3  -4    3.17    0.35
  11  -3  -4    2.90    0.40
 -11  -3   4    2.69    0.40
  11   3  -3    2.38    0.32
  11  -3  -3    2.11    0.39
  11  -3  -3    1.91    0.29
  11   3  -2   -0.22    0.26
  11  -3  -2   -0.13    0.25
  11  -3  -2   -0.18    0.34
  11   3  -1    8.87    0.45
  11  -3  -1    7.86    0.58
  11  -3  -1    9.06    0.50
  11  -3   0    1.90    0.33
  11  -3   0    2.53    0.42
  11  -3   1    5.86    0.53
  11   4  -8    3.67    0.44
 -11  -4   8    4.07    0.49
  11  -4  -8    4.09    0.49
  11  -4  -8    4.10    0.47
  11   4  -7   11.67    0.63
  11  -4  -7   12.44    0.69
 -11  -4   7   13.10    0.69
  11   4  -6   -0.26    0.30
 -11  -4   6   -0.31    0.36
  11  -4  -6   -0.32    0.37
  11   4  -5   18.46    0.71
 -11  -4   5   16.56    0.77
  11  -4  -5   16.56    0.77
  11   4  -4    0.52    0.30
  11  -4  -4    0.01    0.37
 -11  -4   4   -0.08    0.36
  11   4  -3    5.59    0.44
  11  -4  -3    4.70    0.54
  11  -4  -2    0.06    0.37
  11  -4  -1    0.66    0.38
  11  -4   0   -0.32    0.39
  11  -5  -5    1.11    0.44
  11  -5  -4   -0.32    0.39
  11  -5  -3    5.88    0.63
  12   0 -10   -0.34    0.39
 -12   0   9   -0.07    0.33
  12   0  -9   -0.22    0.39
  12   0  -8    4.92    0.52
 -12   0   8    5.53    0.46
  12   0  -8    5.19    0.46
  12   0  -7   -0.03    0.30
 -12   0   7   -0.03    0.31
  12   0  -7   -0.52    0.34
  12   0  -6    8.60    0.56
  12   0  -6    9.13    0.53
 -12   0   6   10.04    0.51
  12   0  -6    9.27    0.57
  12   0  -5   -0.30    0.31
  12   0  -5   -0.08    0.32
  12   0  -5   -0.31    0.29
 -12   0   5   -0.34    0.30
  12   0  -4    8.67    0.50
 -12   0   4    8.19    0.48
  12   0  -4    8.62    0.54
  12   0  -4    9.14    0.52
  12   0  -3   -0.40    0.30
  12   0  -3   -0.19    0.28
  12   0  -2   20.67    0.77
  12   0  -2   20.63    0.80
  12   0  -1   -0.35    0.32
  12   0   0    5.62    0.49
  12   0   1   -0.14    0.36
  12   1 -10   10.95    0.71
  12  -1 -10   12.19    0.69
 -12  -1  10   12.69    0.66
  12   1  -9    1.67    0.43
  12  -1  -9    1.37    0.43
 -12  -1   9    1.99    0.39
  12   1  -8   13.91    0.68
  12   1  -8   13.48    0.67
  12  -1  -8   14.45    0.69
 -12  -1   8   14.35    0.67
  12  -1  -8   13.23    0.61
  12   1  -7    1.20    0.37
  12   1  -7    1.16    0.38
  12  -1  -7    1.92    0.38
  12  -1  -7    1.34    0.40
 -12  -1   7    0.97    0.37
  12  -1  -7    1.32    0.33
  12   1  -6   10.82    0.59
  12   1  -6   10.54    0.59
 -12  -1   6   10.61    0.57
  12  -1  -6   11.54    0.60
  12  -1  -6   10.54    0.54
  12  -1  -6   10.96    0.62
  12   1  -5    0.09    0.32
  12   1  -5    0.00    0.31
  12  -1  -5   -0.24    0.28
 -12  -1   5   -0.28    0.32
  12  -1  -5   -0.22    0.31
  12   1  -4   -0.08    0.31
  12   1  -4    0.09    0.30
  12   1  -4    0.00    0.31
 -12   1   4    1.19    0.28
  12  -1  -4    0.30    0.33
  12  -1  -4    0.44    0.29
  12   1  -3    0.52    0.32
  12   1  -3    0.82    0.32
  12   1  -3    0.62    0.30
  12  -1  -3    0.90    0.30
  12  -1  -3    1.34    0.35
  12   1  -2   -0.24    0.28
  12   1  -2    0.17    0.31
  12  -1  -2    0.02    0.28
  12  -1  -2    0.00    0.33
  12   1  -1    1.71    0.34
  12  -1  -1    1.35    0.36
  12   1   0    2.65    0.37
  12  -1   0    2.91    0.39
  12   1   1   -0.14    0.36
  12  -1   1    0.40    0.40
  12   2  -9   11.04    0.64
  12  -2  -9   10.94    0.67
 -12  -2   9   11.82    0.66
  12   2  -8    0.18    0.38
  12  -2  -8    1.20    0.43
  12  -2  -8    0.61    0.39
 -12  -2   8    0.75    0.40
  12   2  -7    1.17    0.38
  12  -2  -7    0.99    0.41
  12  -2  -7    1.45    0.32
 -12  -2   7    1.46    0.40
  12  -2  -7    1.23    0.40
  12   2  -6    2.45    0.39
  12  -2  -6    2.26    0.34
 -12  -2   6    2.92    0.41
  12  -2  -6    2.50    0.39
  12   2  -5   11.14    0.58
 -12  -2   5   10.90    0.60
  12  -2  -5   10.49    0.61
  12  -2  -5   11.21    0.53
  12   2  -4   20.11    0.74
  12  -2  -4   19.62    0.71
  12  -2  -4   18.14    0.78
  12   2  -3    3.86    0.42
  12  -2  -3    3.32    0.41
  12  -2  -3    3.84    0.40
  12   2  -2    3.49    0.36
  12   2  -2    3.15    0.37
  12  -2  -2    2.55    0.40
  12  -2  -2    2.90    0.35
  12   2  -1    4.73    0.46
  12   2  -1    4.24    0.41
  12  -2  -1    3.84    0.43
  12  -2  -1    4.03    0.45
  12   2   0    3.76    0.40
  12  -2   0    3.76    0.45
  12   3  -8    1.29    0.41
 -12  -3   8    1.44    0.45
  12  -3  -8    1.70    0.44
  12  -3  -8    1.54    0.42
  12   3  -7   11.28    0.65
 -12  -3   7   12.26    0.69
  12  -3  -7   12.74    0.68
  12   3  -6    2.33    0.40
  12  -3  -6    3.01    0.45
 -12  -3   6    2.80    0.43
  12   3  -5    1.64    0.36
  12  -3  -5    2.23    0.41
 -12  -3   5    2.50    0.42
  12   3  -4   -0.14    0.30
 -12  -3   4    0.55    0.36
  12  -3  -4   -0.06    0.35
  12   3  -3    8.21    0.48
  12  -3  -3    6.75    0.46
  12  -3  -3    7.23    0.57
  12   3  -2    0.76    0.29
  12  -3  -2    0.69    0.29
  12  -3  -2    0.61    0.37
  12  -3  -1    5.94    0.46
  12  -3  -1    5.34    0.55
  12   4  -6    0.81    0.35
  12  -4  -6    0.61    0.42
  12   4  -5    4.78    0.50
 -12  -4   5    5.01    0.53
  12  -4  -5    4.01    0.48
  12   4  -4   -0.14    0.31
 -12  -4   4   -0.16    0.36
  12  -4  -4   -0.32    0.37
  12  -4  -3   -0.38    0.41
  13   0  -9   -0.42    0.42
  13   0  -8    0.37    0.41
  13   0  -7   -0.31    0.38
  13   0  -7   -0.51    0.34
 -13   0   6    5.85    0.45
  13   0  -6    6.04    0.52
  13   0  -6    5.71    0.49
  13   0  -6    6.09    0.53
  13   0  -5   -0.45    0.35
  13   0  -5    0.23    0.34
  13   0  -5   -0.22    0.35
 -13   0   5   -0.02    0.32
  13   0  -4   28.23    0.99
  13   0  -4   28.29    0.94
 -13   0   4   26.62    0.93
  13   0  -3   -0.50    0.34
  13   0  -2   10.32    0.60
  13   0  -1   -0.71    0.36
 -13  -1   9    0.08    0.39
  13   1  -8    7.78    0.61
 -13  -1   8    9.20    0.59
  13  -1  -8    8.28    0.54
  13  -1  -8    8.91    0.63
  13   1  -7    1.68    0.40
 -13  -1   7    1.59    0.40
  13  -1  -7    1.76    0.43
  13  -1  -7    2.32    0.41
  13  -1  -7    1.69    0.37
  13   1  -6    3.53    0.43
  13  -1  -6    3.40    0.44
  13  -1  -6    3.55    0.40
  13  -1  -6    3.52    0.44
 -13  -1   6    3.80    0.45
  13   1  -5   -0.01    0.35
 -13  -1   5    0.37    0.35
  13  -1  -5    0.82    0.32
  13  -1  -5    0.11    0.36
  13   1  -4    4.78    0.48
  13   1  -4    4.31    0.48
  13  -1  -4    5.10    0.52
  13  -1  -4    4.38    0.44
  13   1  -3    9.79    0.59
  13   1  -3    9.66    0.57
  13  -1  -3    8.13    0.58
  13   1  -2    8.11    0.55
  13   1  -2    8.14    0.51
  13  -1  -2    6.59    0.54
  13   1  -1    0.17    0.38
  13  -1  -1   -0.03    0.39
  13  -2  -8    0.37    0.44
 -13  -2   8    1.18    0.43
  13  -2  -8    1.39    0.42
  13   2  -7    0.27    0.38
 -13  -2   7    1.16    0.41
  13  -2  -7    0.97    0.41
  13  -2  -7    0.94    0.42
  13   2  -6    4.07    0.45
  13  -2  -6    3.88    0.46
 -13  -2   6    4.08    0.48
  13   2  -5    1.31    0.37
  13  -2  -5    1.43    0.34
  13  -2  -5    0.90    0.39
 -13  -2   5    1.83    0.41
  13   2  -4    3.60    0.41
  13  -2  -4    3.63    0.38
 -13  -2   4    3.66    0.43
  13  -2  -4    3.01    0.44
  13   2  -3    0.40    0.33
  13  -2  -3    0.06    0.30
  13  -2  -3   -0.31    0.36
  13   2  -2    0.89    0.33
  13   2  -2    1.50    0.36
  13  -2  -2   -0.20    0.36
  13  -3  -6   -0.13    0.42
 -13  -3   6    0.02    0.40
 -13  -3   5    5.90    0.58
  13  -3  -5    6.17    0.60
 -13  -3   4   -0.44    0.38
  13  -3  -4   -0.19    0.41
  14   0  -6   21.62    0.90
  14   0  -5   -0.09    0.39
 -14  -1   5    8.65    0.59
   0   0   0    0.00    0.00
;
_shelx_hkl_checksum              43659
loop_
_space_group_symop_operation_xyz
'x, y, z'
'-x, y+1/2, -z+1/2'
'-x, -y, -z'
'x, -y-1/2, z-1/2'
loop_
_atom_site_label
_atom_site_type_symbol
_atom_site_fract_x
_atom_site_fract_y
_atom_site_fract_z
_atom_site_U_iso_or_equiv
_atom_site_adp_type
_atom_site_occupancy
_atom_site_site_symmetry_order
_atom_site_calc_flag
_atom_site_refinement_flags_posn
_atom_site_refinement_flags_adp
_atom_site_refinement_flags_occupancy
_atom_site_disorder_assembly
_atom_site_disorder_group
Si1 Si 0.40547(5) 0.68978(7) 0.45252(5) 0.01851(18) Uani 1 1 d . . . . .
O1 O 0.5000 0.5000 0.5000 0.0328(5) Uani 1 2 d S . P . .
O2 O 0.43568(14) 0.8303(2) 0.59452(14) 0.0290(4) Uani 1 1 d D . . . .
H2 H 0.4404(8) 0.7806(12) 0.6727(3) 0.099(10) Uiso 1 1 d D U . . .
O3 O 0.43496(14) 0.8255(2) 0.33744(15) 0.0291(4) Uani 1 1 d D . . . .
H3 H 0.4778(5) 0.9318(5) 0.359(4) 0.099(10) Uiso 1 1 d D U . . .
C1 C 0.2382(2) 0.5996(3) 0.3693(2) 0.0291(5) Uani 1 1 d D . . . .
H1 H 0.1800 0.7168 0.3278 0.054(8) Uiso 1 1 calc R . . A 1
C21 C 0.2150(19) 0.4512(19) 0.2422(14) 0.036(4) Uani 0.5 1 d D . P B 1
H211 H 0.1638 0.5159 0.1465 0.057(6) Uiso 0.5 1 calc R U P B 1
H212 H 0.2982 0.4075 0.2456 0.057(6) Uiso 0.5 1 calc R U P B 1
C31 C 0.1432(9) 0.2759(10) 0.2619(9) 0.057(2) Uani 0.5 1 d D . P B 1
H311 H 0.2003 0.1580 0.2949 0.061(6) Uiso 0.5 1 calc R U P B 1
H312 H 0.0685 0.2430 0.1683 0.061(6) Uiso 0.5 1 calc R U P B 1
C41 C 0.0980(7) 0.3336(10) 0.3760(8) 0.0366(18) Uani 0.5 1 d D . P B 1
H411 H 0.0104 0.3916 0.3290 0.061(6) Uiso 0.5 1 calc R U P B 1
H412 H 0.0964 0.2157 0.4339 0.061(6) Uiso 0.5 1 calc R U P B 1
C51 C 0.1931(16) 0.4848(18) 0.4720(9) 0.033(3) Uani 0.5 1 d D . P B 1
H511 H 0.2669 0.4185 0.5521 0.057(6) Uiso 0.5 1 calc R U P B 1
H512 H 0.1520 0.5768 0.5153 0.057(6) Uiso 0.5 1 calc R U P B 1
C22 C 0.1956(18) 0.483(2) 0.2229(12) 0.032(3) Uani 0.5 1 d D . P B 2
H221 H 0.1568 0.5737 0.1378 0.057(6) Uiso 0.5 1 calc R U P B 2
H222 H 0.2698 0.4134 0.2189 0.057(6) Uiso 0.5 1 calc R U P B 2
C32 C 0.0978(6) 0.3355(9) 0.2241(6) 0.0320(15) Uani 0.5 1 d D . P B 2
H321 H 0.0942 0.2172 0.1642 0.061(6) Uiso 0.5 1 calc R U P B 2
H322 H 0.0112 0.3970 0.1849 0.061(6) Uiso 0.5 1 calc R U P B 2
C42 C 0.1426(9) 0.2776(11) 0.3830(8) 0.058(3) Uani 0.5 1 d D . P B 2
H421 H 0.0679 0.2449 0.4025 0.061(6) Uiso 0.5 1 calc R U P B 2
H422 H 0.1997 0.1596 0.4067 0.061(6) Uiso 0.5 1 calc R U P B 2
C52 C 0.2143(17) 0.4526(17) 0.4736(8) 0.032(3) Uani 0.5 1 d D . P B 2
H521 H 0.2972 0.4089 0.5531 0.057(6) Uiso 0.5 1 calc R U P B 2
H522 H 0.1629 0.5181 0.5179 0.057(6) Uiso 0.5 1 calc R U P B 2
loop_
_atom_site_aniso_label
_atom_site_aniso_U_11
_atom_site_aniso_U_22
_atom_site_aniso_U_33
_atom_site_aniso_U_23
_atom_site_aniso_U_13
_atom_site_aniso_U_12
Si1 0.0288(3) 0.0148(3) 0.0167(3) -0.0001(2) 0.0144(2) -0.0002(2)
O1 0.0380(12) 0.0249(11) 0.0376(12) 0.0042(9) 0.0183(10) 0.0092(9)
O2 0.0523(9) 0.0216(7) 0.0211(7) -0.0035(6) 0.0236(7) -0.0061(7)
O3 0.0507(9) 0.0225(8) 0.0234(7) -0.0023(6) 0.0247(7) -0.0081(7)
C1 0.0292(11) 0.0355(12) 0.0249(10) 0.0002(10) 0.0138(9) -0.0003(9)
C21 0.035(6) 0.055(6) 0.017(4) -0.002(4) 0.011(4) -0.009(5)
C31 0.091(7) 0.035(4) 0.067(6) -0.010(4) 0.054(5) -0.011(4)
C41 0.040(3) 0.043(4) 0.034(3) -0.005(3) 0.023(3) -0.012(3)
C51 0.026(5) 0.049(5) 0.031(4) -0.005(3) 0.021(3) -0.002(4)
C22 0.029(5) 0.047(5) 0.018(4) -0.001(4) 0.009(4) -0.007(4)
C32 0.038(3) 0.032(4) 0.027(3) -0.004(2) 0.015(2) -0.009(3)
C42 0.092(7) 0.043(5) 0.044(4) 0.001(3) 0.035(5) -0.014(4)
C52 0.031(6) 0.048(5) 0.029(4) -0.004(3) 0.023(3) -0.008(5)
loop_
_atom_type_symbol
_atom_type_description
_atom_type_scat_dispersion_real
_atom_type_scat_dispersion_imag
_atom_type_scat_source
C C 0.0033 0.0016 'International Tables Vol C Tables 4.2.6.8 and 6.1.1.4'
H H 0.0000 0.0000 'International Tables Vol C Tables 4.2.6.8 and 6.1.1.4'
O O 0.0106 0.0060 'International Tables Vol C Tables 4.2.6.8 and 6.1.1.4'
Si Si 0.0817 0.0704 'International Tables Vol C Tables 4.2.6.8 and 6.1.1.4'
loop_
_geom_angle_atom_site_label_1
_geom_angle_atom_site_label_2
_geom_angle_atom_site_label_3
_geom_angle
_geom_angle_site_symmetry_1
_geom_angle_site_symmetry_3
_geom_angle_publ_flag
O1 Si1 O2 109.72(6) . . ?
O1 Si1 O3 109.34(6) . . ?
O2 Si1 O3 106.27(7) . . ?
O1 Si1 C1 108.42(8) . . ?
O2 Si1 C1 111.97(9) . . ?
O3 Si1 C1 111.08(9) . . ?
Si1 O1 Si1 180.0 3_666 . yes
Si1 O2 H2 120.5(6) . . ?
Si1 O3 H3 125(3) . . ?
C51 C1 C21 104.6(4) . . ?
C52 C1 C22 104.7(4) . . ?
C52 C1 Si1 110.9(6) . . ?
C51 C1 Si1 116.4(5) . . ?
C21 C1 Si1 111.0(6) . . ?
C22 C1 Si1 115.8(6) . . ?
C51 C1 H1 108.2 . . ?
C21 C1 H1 108.2 . . ?
Si1 C1 H1 108.2 . . ?
C31 C21 C1 107.2(4) . . ?
C31 C21 H211 110.3 . . ?
C1 C21 H211 110.3 . . ?
C31 C21 H212 110.3 . . ?
C1 C21 H212 110.3 . . ?
H211 C21 H212 108.5 . . ?
C21 C31 C41 107.2(5) . . ?
C21 C31 H311 110.3 . . ?
C41 C31 H311 110.3 . . ?
C21 C31 H312 110.3 . . ?
C41 C31 H312 110.3 . . ?
H311 C31 H312 108.5 . . ?
C51 C41 C31 105.8(6) . . ?
C51 C41 H411 110.6 . . ?
C31 C41 H411 110.6 . . ?
C51 C41 H412 110.6 . . ?
C31 C41 H412 110.6 . . ?
H411 C41 H412 108.7 . . ?
C41 C51 C1 105.2(4) . . ?
C41 C51 H511 110.7 . . ?
C1 C51 H511 110.7 . . ?
C41 C51 H512 110.7 . . ?
C1 C51 H512 110.7 . . ?
H511 C51 H512 108.8 . . ?
C32 C22 C1 104.4(4) . . ?
C32 C22 H221 110.9 . . ?
C1 C22 H221 110.9 . . ?
C32 C22 H222 110.9 . . ?
C1 C22 H222 110.9 . . ?
H221 C22 H222 108.9 . . ?
C22 C32 C42 105.6(6) . . ?
C22 C32 H321 110.6 . . ?
C42 C32 H321 110.6 . . ?
C22 C32 H322 110.6 . . ?
C42 C32 H322 110.6 . . ?
H321 C32 H322 108.8 . . ?
C52 C42 C32 107.1(5) . . ?
C52 C42 H421 110.3 . . ?
C32 C42 H421 110.3 . . ?
C52 C42 H422 110.3 . . ?
C32 C42 H422 110.3 . . ?
H421 C42 H422 108.6 . . ?
C42 C52 C1 107.0(4) . . ?
C42 C52 H521 110.3 . . ?
C1 C52 H521 110.3 . . ?
C42 C52 H522 110.3 . . ?
C1 C52 H522 110.3 . . ?
H521 C52 H522 108.6 . . ?
loop_
_geom_bond_atom_site_label_1
_geom_bond_atom_site_label_2
_geom_bond_distance
_geom_bond_site_symmetry_2
_geom_bond_publ_flag
Si1 O1 1.6075(5) . yes
Si1 O2 1.6274(14) . yes
Si1 O3 1.6293(14) . yes
Si1 C1 1.839(2) . yes
O1 Si1 1.6075(5) 3_666 ?
O2 H2 0.84 . ?
O3 H3 0.84 . ?
C1 C52 1.556(4) . ?
C1 C51 1.557(4) . ?
C1 C21 1.557(4) . ?
C1 C22 1.558(4) . ?
C1 H1 1.00 . ?
C21 C31 1.501(5) . ?
C21 H211 0.99 . ?
C21 H212 0.99 . ?
C31 C41 1.513(6) . ?
C31 H311 0.99 . ?
C31 H312 0.99 . ?
C41 C51 1.500(5) . ?
C41 H411 0.99 . ?
C41 H412 0.99 . ?
C51 H511 0.99 . ?
C51 H512 0.99 . ?
C22 C32 1.503(5) . ?
C22 H221 0.99 . ?
C22 H222 0.99 . ?
C32 C42 1.513(6) . ?
C32 H321 0.99 . ?
C32 H322 0.99 . ?
C42 C52 1.498(5) . ?
C42 H421 0.99 . ?
C42 H422 0.99 . ?
C52 H521 0.99 . ?
C52 H522 0.99 . ?
loop_
_geom_hbond_atom_site_label_D
_geom_hbond_atom_site_label_H
_geom_hbond_atom_site_label_A
_geom_hbond_distance_DH
_geom_hbond_distance_HA
_geom_hbond_distance_DA
_geom_hbond_angle_DHA
_geom_hbond_site_symmetry_A
O2 H2 O3 0.84 1.843(2) 2.6811(19) 174.8(9) 4_576
O3 H3 O2 0.84 1.832(2) 2.6718(19) 177.3(14) 3_676
loop_
_geom_torsion_atom_site_label_1
_geom_torsion_atom_site_label_2
_geom_torsion_atom_site_label_3
_geom_torsion_atom_site_label_4
_geom_torsion
_geom_torsion_site_symmetry_1
_geom_torsion_site_symmetry_2
_geom_torsion_site_symmetry_3
_geom_torsion_site_symmetry_4
O1 Si1 C1 C52 54.0(6) . . . .
O2 Si1 C1 C52 -67.2(6) . . . .
O3 Si1 C1 C52 174.2(6) . . . .
O1 Si1 C1 C51 65.5(7) . . . .
O2 Si1 C1 C51 -55.7(7) . . . .
O3 Si1 C1 C51 -174.3(7) . . . .
O1 Si1 C1 C21 -53.9(7) . . . .
O2 Si1 C1 C21 -175.1(7) . . . .
O3 Si1 C1 C21 66.2(7) . . . .
O1 Si1 C1 C22 -65.1(7) . . . .
O2 Si1 C1 C22 173.7(7) . . . .
O3 Si1 C1 C22 55.0(8) . . . .
C51 C1 C21 C31 7.7(14) . . . .
Si1 C1 C21 C31 134.0(10) . . . .
C1 C21 C31 C41 11.9(16) . . . .
C21 C31 C41 C51 -27.8(14) . . . .
C31 C41 C51 C1 32.3(13) . . . .
C21 C1 C51 C41 -24.6(13) . . . .
Si1 C1 C51 C41 -147.4(8) . . . .
C52 C1 C22 C32 26.2(13) . . . .
Si1 C1 C22 C32 148.7(8) . . . .
C1 C22 C32 C42 -34.1(14) . . . .
C22 C32 C42 C52 29.2(14) . . . .
C32 C42 C52 C1 -12.2(14) . . . .
C22 C1 C52 C42 -8.6(13) . . . .
Si1 C1 C52 C42 -134.2(9) . . . .
