#------------------------------------------------------------------------------
#$Date: 2019-11-24 20:35:05 +0200 (Sun, 24 Nov 2019) $
#$Revision: 239356 $
#$URL: file:///home/coder/svn-repositories/cod/cif/1/55/60/1556035.cif $
#------------------------------------------------------------------------------
#
# This file is available in the Crystallography Open Database (COD),
# http://www.crystallography.net/
#
# All data on this site have been placed in the public domain by the
# contributors.
#
data_1556035
loop_
_publ_author_name
'Foley, Christopher'
'Shaw, Arthur'
'Hulme, Christopher'
_publ_section_title
;
 Oxidative Deaminations and Deisatinylations of Ugi-Azide and Ugi-3CR
 Products: A Two-Step MCR-Oxidation Protocol toward Functionalized
 \a-Ketoamides and \a-Ketotetrazoles.
;
_journal_issue                   9
_journal_name_full               'Organic letters'
_journal_page_first              2238
_journal_page_last               2241
_journal_paper_doi               10.1021/acs.orglett.7b00710
_journal_volume                  19
_journal_year                    2017
_chemical_formula_moiety         'C14 H16 N4 O'
_chemical_formula_sum            'C14 H16 N4 O'
_chemical_formula_weight         256.31
_space_group_crystal_system      monoclinic
_space_group_IT_number           11
_space_group_name_Hall           '-P 2yb'
_space_group_name_H-M_alt        'P 1 21/m 1'
_atom_sites_solution_hydrogens   geom
_audit_creation_date             2016-12-10
_audit_creation_method
;
Olex2 1.2
(compiled 2016.09.09 svn.r3337 for OlexSys, GUI svn.r5227)
;
_cell_angle_alpha                90
_cell_angle_beta                 102.3230(10)
_cell_angle_gamma                90
_cell_formula_units_Z            2
_cell_length_a                   7.7378(3)
_cell_length_b                   6.7075(2)
_cell_length_c                   12.6395(5)
_cell_measurement_reflns_used    6131
_cell_measurement_temperature    100
_cell_measurement_theta_max      27.12
_cell_measurement_theta_min      2.69
_cell_volume                     640.89(4)
_computing_cell_refinement       'SAINT v8.34A (Bruker, 2013)'
_computing_data_reduction        'SAINT v8.34A (Bruker, 2013)'
_computing_molecular_graphics    'Olex2 (Dolomanov et al., 2009)'
_computing_publication_material  'Olex2 (Dolomanov et al., 2009)'
_computing_structure_refinement  'ShelXL (Sheldrick, 2015)'
_diffrn_ambient_temperature      100
_diffrn_measured_fraction_theta_full 0.991
_diffrn_measured_fraction_theta_max 0.992
_diffrn_measurement_device_type  'Bruker APEX-II CCD'
_diffrn_measurement_method       '\f and \w scans'
_diffrn_radiation_type           MoK\a
_diffrn_radiation_wavelength     0.71073
_diffrn_reflns_av_R_equivalents  0.0167
_diffrn_reflns_av_unetI/netI     0.0121
_diffrn_reflns_Laue_measured_fraction_full 0.991
_diffrn_reflns_Laue_measured_fraction_max 0.992
_diffrn_reflns_limit_h_max       9
_diffrn_reflns_limit_h_min       -9
_diffrn_reflns_limit_k_max       8
_diffrn_reflns_limit_k_min       -7
_diffrn_reflns_limit_l_max       16
_diffrn_reflns_limit_l_min       -16
_diffrn_reflns_number            7085
_diffrn_reflns_point_group_measured_fraction_full 0.991
_diffrn_reflns_point_group_measured_fraction_max 0.992
_diffrn_reflns_theta_full        25.242
_diffrn_reflns_theta_max         27.119
_diffrn_reflns_theta_min         1.649
_diffrn_standards_number         0
_exptl_absorpt_coefficient_mu    0.088
_exptl_absorpt_correction_T_max  0.7455
_exptl_absorpt_correction_T_min  0.6726
_exptl_absorpt_correction_type   multi-scan
_exptl_absorpt_process_details
;
SADABS-2012/1 (Bruker,2012) was used for absorption correction.
wR2(int) was 0.1034 before and 0.0281 after correction.
The Ratio of minimum to maximum transmission is 0.9022.
The \l/2 correction factor is 0.0015.
;
_exptl_crystal_colour            pink
_exptl_crystal_colour_primary    pink
_exptl_crystal_density_diffrn    1.328
_exptl_crystal_description       block
_exptl_crystal_F_000             272
_exptl_crystal_size_max          0.3
_exptl_crystal_size_mid          0.3
_exptl_crystal_size_min          0.1
_refine_diff_density_max         0.386
_refine_diff_density_min         -0.186
_refine_diff_density_rms         0.039
_refine_ls_extinction_method     none
_refine_ls_goodness_of_fit_ref   1.050
_refine_ls_hydrogen_treatment    constr
_refine_ls_matrix_type           full
_refine_ls_number_parameters     114
_refine_ls_number_reflns         1524
_refine_ls_number_restraints     0
_refine_ls_restrained_S_all      1.050
_refine_ls_R_factor_all          0.0340
_refine_ls_R_factor_gt           0.0331
_refine_ls_shift/su_max          0.000
_refine_ls_shift/su_mean         0.000
_refine_ls_structure_factor_coef Fsqd
_refine_ls_weighting_details
'w=1/[\s^2^(Fo^2^)+(0.0459P)^2^+0.2367P] where P=(Fo^2^+2Fc^2^)/3'
_refine_ls_weighting_scheme      calc
_refine_ls_wR_factor_gt          0.0875
_refine_ls_wR_factor_ref         0.0883
_reflns_Friedel_coverage         0.000
_reflns_number_gt                1474
_reflns_number_total             1524
_reflns_threshold_expression     'I > 2\s(I)'
_cod_data_source_file            ol7b00710_si_003.cif
_cod_data_source_block           mo_cf376f1_0m
_cod_database_code               1556035
_shelx_space_group_comment
;
The symmetry employed for this shelxl refinement is uniquely defined
by the following loop, which should always be used as a source of
symmetry information in preference to the above space-group names.
They are only intended as comments.
;
_olex2_refinement_description
;
1. Fixed Uiso
 At 1.2 times of:
  All C(H) groups
 At 1.5 times of:
  All C(H,H,H) groups
2. Others
 Fixed Sof: H14c(0.5) H14b(0.5) H14a(0.5)
3.a Aromatic/amide H refined with riding coordinates:
 C8(H8), C7(H7), C1(H1), C5(H5), C4(H4), C2(H2), C3(H3)
3.b Idealised Me refined as rotating group:
 C13(H13b,H13c,H13a), C14(H14c,H14b,H14a)
;
_shelx_res_file
;
    mo_cf376f1_0m.res created by SHELXL-2014/7

TITL mo_cf376f1_0m_a.res in P2(1)/m
REM Old TITL mo_cf376f1_0m in P21/m #11
REM SHELXT solution in P2(1)/m
REM R1 0.099, Rweak 0.004, Alpha 0.031, Orientation as input
REM Formula found by SHELXT: C14 N4 O
CELL 0.71073 7.7378 6.7075 12.6395 90 102.323 90
ZERR 2 0.0003 0.0002 0.0005 0 0.001 0
LATT 1
SYMM -X,0.5+Y,-Z
SFAC C H N O
UNIT 28 32 8 2

L.S. 15
PLAN  80 0 0
TEMP -173.15
BOND $H
LIST 6
fmap 2
acta
REM <olex2.extras>
REM <HklSrc "%.\\mo_cf376f1_0m.hkl">
REM </olex2.extras>

WGHT    0.045900    0.236700
FVAR       1.76195
O1    4    0.491134    0.750000    0.646613    10.50000    0.01297    0.02586 =
         0.01368    0.00000    0.00384    0.00000
N4    3    0.563973    0.750000    0.888075    10.50000    0.01128    0.01318 =
         0.01010    0.00000    0.00321    0.00000
N1    3    0.276906    0.750000    0.870161    10.50000    0.01393    0.01821 =
         0.01391    0.00000    0.00453    0.00000
N3    3    0.528530    0.750000    0.987991    10.50000    0.01539    0.01663 =
         0.01199    0.00000    0.00590    0.00000
N2    3    0.357291    0.750000    0.976264    10.50000    0.01436    0.02055 =
         0.01455    0.00000    0.00453    0.00000
C8    1    0.182417    0.750000    0.639088    10.50000    0.01246    0.01374 =
         0.01517    0.00000    0.00292    0.00000
AFIX  43
H8    2    0.092126    0.750000    0.679569    10.50000   -1.20000
AFIX   0
C9    1    0.370105    0.750000    0.694294    10.50000    0.01399    0.01168 =
         0.01322    0.00000    0.00233    0.00000
C6    1   -0.034836    0.750000    0.459634    10.50000    0.01324    0.01103 =
         0.01310    0.00000    0.00168    0.00000
C10   1    0.405791    0.750000    0.815799    10.50000    0.01111    0.01216 =
         0.01423    0.00000    0.00269    0.00000
C11   1    0.754578    0.750000    0.876525    10.50000    0.00846    0.01472 =
         0.01246    0.00000    0.00297    0.00000
C7    1    0.141254    0.750000    0.530609    10.50000    0.01129    0.01356 =
         0.01566    0.00000    0.00353    0.00000
AFIX  43
H7    2    0.238264    0.750000    0.495505    10.50000   -1.20000
AFIX   0
C1    1   -0.190972    0.750000    0.498728    10.50000    0.01575    0.01746 =
         0.01213    0.00000    0.00317    0.00000
AFIX  43
H1    2   -0.184933    0.750000    0.574591    10.50000   -1.20000
AFIX   0
C5    1   -0.046955    0.750000    0.347404    10.50000    0.01577    0.01427 =
         0.01450    0.00000    0.00580    0.00000
AFIX  43
H5    2    0.057974    0.750000    0.319751    10.50000   -1.20000
AFIX   0
C13   1    0.788701    0.559934    0.817204    11.00000    0.01385    0.01532 =
         0.01517   -0.00110    0.00381    0.00199
AFIX 137
H13B  2    0.761880    0.443197    0.857477    11.00000   -1.50000
H13C  2    0.913105    0.555695    0.811764    11.00000   -1.50000
H13A  2    0.712972    0.559191    0.744381    11.00000   -1.50000
AFIX   0
C4    1   -0.211099    0.750000    0.275999    10.50000    0.02234    0.01580 =
         0.01158    0.00000    0.00196    0.00000
AFIX  43
H4    2   -0.217919    0.750000    0.200058    10.50000   -1.20000
AFIX   0
C2    1   -0.354861    0.750000    0.427388    10.50000    0.01294    0.01969 =
         0.01959    0.00000    0.00454    0.00000
AFIX  43
H2    2   -0.460265    0.750000    0.454544    10.50000   -1.20000
AFIX   0
C14   1    0.872509    0.750000    0.990083    10.50000    0.01256    0.01992 =
         0.01276    0.00000    0.00105    0.00000
PART -1
AFIX 137
H14C  2    0.851451    0.871861    1.028209    10.50000   -1.50000
H14B  2    0.996906    0.744690    0.984697    10.50000   -1.50000
H14A  2    0.844823    0.633450    1.030192    10.50000   -1.50000
AFIX   0
PART 0
C3    1   -0.364445    0.750000    0.315963    10.50000    0.01524    0.01582 =
         0.01697    0.00000   -0.00211    0.00000
AFIX  43
H3    2   -0.476502    0.750000    0.267300    10.50000   -1.20000
AFIX   0
HKLF 4

REM  mo_cf376f1_0m_a.res in P2(1)/m
REM R1 =  0.0331 for    1474 Fo > 4sig(Fo)  and  0.0340 for all    1524 data
REM    114 parameters refined using      0 restraints

END

WGHT      0.0456      0.2394

REM Highest difference peak  0.386,  deepest hole -0.186,  1-sigma level  0.039
Q1    1   0.0450  0.7500  0.4960  10.50000  0.05    0.39
Q2    1   0.3888  0.7500  0.7554  10.50000  0.05    0.35
Q3    1   0.8055  0.7500  0.9342  10.50000  0.05    0.35
Q4    1  -0.0466  0.7500  0.4011  10.50000  0.05    0.35
Q5    1   0.2711  0.7500  0.6670  10.50000  0.05    0.33
Q6    1   0.4821  0.7500  0.8428  10.50000  0.05    0.30
Q7    1  -0.2701  0.7500  0.4582  10.50000  0.05    0.30
Q8    1  -0.1376  0.7500  0.3173  10.50000  0.05    0.29
Q9    1   0.7687  0.8403  0.8455  11.00000  0.05    0.29
Q10   1   0.6575  0.7500  0.8795  10.50000  0.05    0.26
Q11   1   0.1570  0.8012  0.5863  11.00000  0.05    0.24
Q12   1  -0.3460  0.7500  0.3749  10.50000  0.05    0.23
Q13   1  -0.2828  0.7812  0.3000  11.00000  0.05    0.19
Q14   1  -0.1084  0.7500  0.4791  10.50000  0.05    0.19
Q15   1   0.3083  0.7500  0.9228  10.50000  0.05    0.17
Q16   1   0.3358  0.7500  0.8387  10.50000  0.05    0.17
Q17   1   0.5512  0.7500  0.9380  10.50000  0.05    0.17
Q18   1   0.3206  0.8063  1.0225  11.00000  0.05    0.13
Q19   1   0.1720  0.7500  0.8444  10.50000  0.05    0.12
Q20   1   0.1904  0.8165  0.8542  11.00000  0.05    0.12
Q21   1   0.6066  0.7936  1.0396  11.00000  0.05    0.11
Q22   1   0.7586  0.5581  0.7603  11.00000  0.05    0.11
Q23   1   0.4428  0.7500  0.9827  10.50000  0.05    0.10
Q24   1   0.9792  0.7500  0.9542  10.50000  0.05    0.10
Q25   1  -0.4066  0.7500  0.3019  10.50000  0.05    0.09
Q26   1   0.6003  0.7500  0.6796  10.50000  0.05    0.09
Q27   1   0.9093  0.5686  0.8387  11.00000  0.05    0.08
Q28   1   0.4227  0.7500  0.5668  10.50000  0.05    0.08
Q29   1   0.4513  0.8075  0.5776  11.00000  0.05    0.08
Q30   1   0.4260  0.8203  0.6743  11.00000  0.05    0.07
Q31   1   0.8271  0.4622  0.8834  11.00000  0.05    0.06
Q32   1   0.1516  0.7500  0.3200  10.50000  0.05    0.06
Q33   1  -0.4662  0.8393  0.4612  11.00000  0.05    0.06
Q34   1   0.0419  0.8415  0.3165  11.00000  0.05    0.06
Q35   1  -0.2087  0.8417  0.5760  11.00000  0.05    0.06
Q36   1   0.1773  0.7500  0.5207  10.50000  0.05    0.05
Q37   1   0.2163  0.7500  1.0031  10.50000  0.05    0.05
Q38   1   1.0749  0.7500  0.9596  10.50000  0.05    0.05
Q39   1   0.0827  0.8459  0.6863  11.00000  0.05    0.05
Q40   1  -0.5446  0.7764  0.2642  11.00000  0.05    0.05
Q41   1   0.1065  0.7500  0.3612  10.50000  0.05    0.05
Q42   1   0.6581  0.2500  0.8886  10.50000  0.05    0.05
Q43   1   0.0583  0.8242  0.7000  11.00000  0.05    0.05
Q44   1   1.0426  0.7500  0.8796  10.50000  0.05    0.05
Q45   1  -0.0560  0.7500  0.7450  10.50000  0.05    0.04
Q46   1   1.0196  0.6779  0.8984  11.00000  0.05    0.04
Q47   1   1.0406  0.7500  0.8234  10.50000  0.05    0.04
Q48   1   0.5944  0.6342  0.7429  11.00000  0.05    0.04
Q49   1   0.1971  0.9631  0.5979  11.00000  0.05    0.04
Q50   1   0.0629  0.9185  0.7389  11.00000  0.05    0.04
Q51   1   0.6545  0.3949  0.8869  11.00000  0.05    0.04
Q52   1   0.9307  0.4288  0.9100  11.00000  0.05    0.04
Q53   1   0.2263  0.8415  0.4835  11.00000  0.05    0.04
Q54   1  -0.1764  0.7500  0.6269  10.50000  0.05    0.04
Q55   1   0.2981  0.9477  0.9812  11.00000  0.05    0.04
Q56   1  -0.0292  0.9574  0.3543  11.00000  0.05    0.04
Q57   1   0.5892  0.9306  0.6186  11.00000  0.05    0.04
Q58   1   0.8522  0.9539  1.0226  11.00000  0.05    0.04
Q59   1  -0.4116  0.9231  0.2443  11.00000  0.05    0.04
Q60   1   0.7386  0.5553  0.6865  11.00000  0.05    0.04
Q61   1  -0.0363  0.9149  0.6060  11.00000  0.05    0.04
Q62   1   0.2834  0.8145  0.4623  11.00000  0.05    0.04
Q63   1   0.6924  0.4851  0.9464  11.00000  0.05    0.04
Q64   1   0.2808  0.9252  0.4183  11.00000  0.05    0.04
Q65   1   0.3043  0.9419  0.7750  11.00000  0.05    0.04
Q66   1   0.4975  0.9349  1.1137  11.00000  0.05    0.04
Q67   1   0.3879  0.9318  1.0611  11.00000  0.05    0.04
Q68   1  -0.3245  0.9416  0.2352  11.00000  0.05    0.03
Q69   1   0.5565  0.9016  1.0944  11.00000  0.05    0.03
Q70   1   0.5610  0.9565  0.9857  11.00000  0.05    0.03
Q71   1   0.2008  0.8893  1.0094  11.00000  0.05    0.03
Q72   1  -0.0540  0.7500  0.5442  10.50000  0.05    0.03
Q73   1  -0.4624  0.7500  0.2157  10.50000  0.05    0.03
Q74   1  -0.4075  0.8381  0.1594  11.00000  0.05    0.03
Q75   1   0.2166  0.9440  0.7616  11.00000  0.05    0.03
Q76   1  -0.1204  0.9347  0.3691  11.00000  0.05    0.03
Q77   1  -0.4637  0.8433  0.2431  11.00000  0.05    0.03
Q78   1   1.0771  0.7006  1.1037  11.00000  0.05    0.03
Q79   1   1.0472  0.4894  0.7815  11.00000  0.05    0.03
Q80   1  -0.5760  0.8133  0.4679  11.00000  0.05    0.03
;
_shelx_res_checksum              24262
_shelx_hkl_file
;
   1   0   0 1364.38   26.79
  -1   0   0 1253.48   26.50
  -2   0   0  874.79   18.37
   2   0   0  929.42   19.04
  -3   0   0 1531.48   31.47
   3   0   0 1542.04   32.20
  -4   0   0  104.55    2.34
   4   0   0   93.24    2.37
   5   0   0  695.98   14.79
  -5   0   0  747.59   15.30
  -5   0   0  708.81   14.65
  -6   0   0  144.09    3.41
  -6   0   0  147.80    3.48
   6   0   0  148.68    3.58
  -7   0   0  649.04   13.74
  -7   0   0  673.84   14.27
  -8   0   0  113.24    2.97
  -8   0   0  115.01    2.95
   8   0   0  114.84    3.17
  -9   0   0   10.63    0.91
   9   0   0   12.00    1.07
   1  -1   0 1421.19   29.40
   1  -1   0 1493.14   29.64
  -1  -1   0 1433.35   29.34
  -1   1   0 1407.11   29.41
   1   1   0 1585.05   37.90
  -1   1   0 1346.07   37.79
  -1   1   0 1475.74   29.61
  -2  -1   0 1082.92   22.52
  -2  -1   0 1092.26   22.35
   2  -1   0 1024.57   22.24
   2   1   0 1064.82   22.06
  -2   1   0 1063.55   28.48
   2   1   0 1192.40   28.47
  -2   1   0 1075.82   22.42
   2   1   0 1081.51   22.20
  -3  -1   0   65.72    1.52
   3  -1   0   63.94    1.63
  -3  -1   0   65.36    1.59
  -3   1   0   59.81    1.53
  -3   1   0   66.98    1.61
  -3   1   0   66.22    1.64
   3   1   0   65.43    1.49
   3   1   0   67.71    1.90
   3   1   0   63.52    1.57
  -4  -1   0  260.13    5.58
   4  -1   0  256.42    5.74
   4   1   0  265.33    5.68
  -4   1   0  266.53    5.61
  -4   1   0  262.55    5.89
   4   1   0  282.30    7.07
  -5  -1   0 1121.22   22.46
  -5  -1   0 1037.17   21.56
   5  -1   0 1029.59   21.75
   5   1   0 1078.94   27.98
  -5   1   0 1062.07   21.59
  -5   1   0 1079.99   22.65
   5   1   0 1054.81   21.68
  -6  -1   0  196.80    4.34
  -6  -1   0  194.15    4.33
   6  -1   0  188.03    4.53
   6   1   0  194.18    4.46
   6   1   0  187.42    5.33
  -6   1   0  193.72    4.34
  -6   1   0  195.33    4.54
  -7  -1   0  229.42    5.13
   7  -1   0  224.33    5.36
   7   1   0  228.14    5.28
   7   1   0  236.56    6.32
  -7   1   0  220.02    5.13
  -7   1   0  229.27    5.36
   8  -1   0  295.18    6.91
  -8  -1   0  300.31    6.64
  -8   1   0  293.03    6.89
  -8   1   0  300.09    6.66
   8   1   0  301.23    6.80
  -9  -1   0   54.60    1.88
  -9   1   0   55.92    1.91
  -9   1   0   55.74    1.90
   9   1   0   57.86    2.03
   1  -2   0 2656.77   51.97
   1  -2   0 2536.20   51.69
  -1   2   0 2512.92   67.00
  -1   2   0 2611.21   54.89
   1   2   0 2516.04   66.70
  -2  -2   0  635.15   13.44
  -2  -2   0  636.12   13.23
   2  -2   0  649.95   13.61
   2  -2   0  645.34   13.41
  -2   2   0  632.12   13.62
   2   2   0  698.47   16.99
  -2   2   0  655.19   13.44
   2   2   0  653.32   13.22
  -2   2   0  642.50   16.93
  -2   2   0  658.95   13.88
   2   2   0  670.85   13.25
   3  -2   0   70.62    1.81
  -3  -2   0   76.53    1.74
  -3  -2   0   71.05    1.65
  -3   2   0   69.25    1.69
  -3   2   0   73.57    1.76
   3   2   0   73.10    2.15
   3   2   0   73.20    1.65
   3   2   0   72.94    1.60
  -3   2   0   74.69    2.25
  -3   2   0   73.09    1.87
  -4  -2   0   97.40    2.20
   4  -2   0   94.99    2.39
  -4   2   0   97.12    2.87
   4   2   0   85.70    2.74
  -4   2   0  100.73    2.44
   4   2   0   95.10    2.21
  -4   2   0   97.50    2.24
   5  -2   0   61.51    1.80
  -5  -2   0   60.78    1.58
   5   2   0   61.20    1.94
  -5   2   0   61.01    1.62
   5   2   0   59.07    1.61
  -5   2   0   62.09    1.78
   6  -2   0  253.64    5.84
  -6  -2   0  256.94    5.56
   6   2   0  239.77    6.91
  -6   2   0  260.98    5.61
  -6   2   0  261.90    5.96
   6   2   0  258.75    5.62
  -7  -2   0   64.86    1.89
   7  -2   0   67.51    2.16
  -7   2   0   67.24    1.94
  -7   2   0   67.43    2.07
   7   2   0   66.04    1.94
  -8  -2   0  210.99    4.91
   8  -2   0  213.12    5.24
  -8   2   0  206.81    5.19
  -8   2   0  215.57    4.94
   8   2   0  209.90    4.95
  -9  -2   0  182.06    4.41
   9  -2   0  183.38    4.80
  -9   2   0  176.93    4.65
  -9   2   0  181.92    4.44
   9   2   0  180.52    4.46
   0  -3   0  -12.41    0.15
   1  -3   0   93.75    2.06
   1  -3   0   95.82    2.03
  -1  -3   0   94.24    1.95
  -1  -3   0   94.99    1.96
  -1   3   0   95.21    2.29
  -1   3   0   95.24    2.87
   1   3   0   97.21    2.83
  -2  -3   0   32.45    0.75
  -2  -3   0   30.68    0.79
   2  -3   0   29.64    0.88
   2  -3   0   31.30    0.84
  -2   3   0   30.20    0.99
  -2   3   0   31.30    0.81
  -2   3   0   33.83    1.27
   2   3   0   32.86    1.20
  -2   3   0   30.47    0.79
   3  -3   0  269.34    5.66
  -3  -3   0  273.45    5.54
  -3  -3   0  267.70    5.45
   3   3   0  244.63    7.10
  -3   3   0  274.22    7.27
  -3   3   0  264.00    5.50
  -3   3   0  255.63    5.95
   4  -3   0    0.81    0.29
  -4  -3   0    1.02    0.21
   4   3   0    1.07    0.32
  -4   3   0    1.94    0.38
   4   3   0    1.55    0.16
  -4   3   0    1.11    0.38
   4   3   0    1.09    0.17
  -4   3   0    1.09    0.24
   5  -3   0  547.40   11.24
  -5  -3   0  535.14   10.92
   5   3   0  498.88   13.94
  -5   3   0  525.72   11.68
  -5   3   0  536.63   14.13
   5   3   0  532.97   10.84
  -5   3   0  538.29   10.98
   6  -3   0    2.74    0.51
  -6  -3   0    3.05    0.39
   6   3   0    3.44    0.37
   6   3   0    3.70    0.52
  -6   3   0    2.31    0.53
  -6   3   0    2.90    0.43
  -7  -3   0  144.50    3.50
   7  -3   0  160.32    3.92
  -7   3   0  143.13    3.87
   7   3   0  146.63    3.44
  -7   3   0  141.43    3.52
  -8  -3   0   47.70    1.59
   8  -3   0   44.97    1.87
  -8   3   0   47.84    1.62
  -8   3   0   43.15    1.78
   9  -3   0  151.07    4.20
  -9  -3   0  149.08    3.77
  -9   3   0  148.65    3.79
  -9   3   0  146.39    4.11
  -1  -4   0  700.22   13.92
  -1  -4   0  687.69   13.89
   1  -4   0  687.97   13.91
   1  -4   0  694.07   13.98
  -1   4   0  697.37   18.16
   1   4   0  671.79   18.09
  -1   4   0  691.96   14.77
   1   4   0  688.59   14.61
   2  -4   0    6.66    0.41
  -2  -4   0    6.66    0.28
  -2  -4   0    6.31    0.31
  -2   4   0    6.99    0.26
   2   4   0    6.97    0.65
  -2   4   0    6.82    0.26
  -2   4   0    6.55    0.54
  -2   4   0    6.44    0.72
  -3  -4   0   71.92    1.67
   3  -4   0   72.60    1.89
   3   4   0   74.79    2.42
  -3   4   0   74.99    2.55
  -3   4   0   76.24    2.08
  -3   4   0   72.43    1.69
  -4  -4   0    3.40    0.34
   4  -4   0    3.48    0.42
  -4   4   0    3.83    0.61
   4   4   0    4.42    0.61
  -4   4   0    3.22    0.50
  -4   4   0    3.36    0.37
  -5  -4   0  186.42    4.08
   5  -4   0  189.23    4.42
  -5   4   0  182.20    4.11
   5   4   0  182.60    5.31
  -5   4   0  191.38    4.63
  -5   4   0  184.97    5.52
  -6  -4   0   99.59    2.41
   6  -4   0   96.09    2.74
   6   4   0   95.27    3.06
  -6   4   0   97.31    2.44
  -6   4   0   95.12    2.84
  -7  -4   0  169.33    3.93
   7  -4   0  166.02    4.32
  -7   4   0  171.26    3.96
  -7   4   0  164.43    4.43
   8  -4   0  112.52    3.35
  -8  -4   0  112.79    2.93
  -8   4   0  113.09    2.95
  -8   4   0  111.08    3.36
   0  -5   0    0.42    0.15
   0  -5   0    0.36    0.15
   0   5   0    0.36    0.49
   0   5   0    0.06    0.28
  -1  -5   0  301.25    6.11
   1  -5   0  299.18    6.23
  -1  -5   0  295.21    6.10
   1   5   0  306.98    8.39
  -1   5   0  298.17    6.75
   1   5   0  301.40    6.59
  -2  -5   0  213.16    4.36
  -2  -5   0  208.78    4.31
   2  -5   0  206.85    4.53
  -2   5   0  205.69    4.92
   2   5   0  204.07    6.01
   2   5   0  215.55    4.60
  -2   5   0  208.75    6.13
  -3  -5   0    3.04    0.31
   3  -5   0    2.41    0.37
  -3   5   0    2.82    0.25
   3   5   0    3.13    0.56
  -3   5   0    3.31    0.66
  -3   5   0    2.35    0.48
   4  -5   0   84.21    2.28
  -4  -5   0   84.01    1.97
  -4   5   0   86.87    2.51
  -4   5   0   84.95    3.03
  -4   5   0   83.74    1.95
   4   5   0   81.36    2.81
  -5  -5   0  574.45   11.71
   5  -5   0  575.07   12.11
  -5   5   0  559.68   15.44
   5   5   0  574.63   15.20
  -5   5   0  567.82   12.73
  -5   5   0  567.57   11.70
   6  -5   0  233.70    5.64
  -6  -5   0  237.89    5.23
  -6   5   0  234.96    7.05
  -6   5   0  247.75    5.24
  -6   5   0  237.20    5.94
   7  -5   0  131.92    3.68
  -7   5   0  137.34    3.25
  -7   5   0  130.99    3.81
   0   6   0 9999.00  209.35
   0   6   0 9800.17  257.19
   1  -6   0  139.95    3.04
   1   6   0  132.73    4.33
  -1   6   0  130.59    4.39
   1   6   0  141.52    3.27
  -1   6   0  134.71    3.42
   2  -6   0   21.70    0.84
  -2   6   0   22.38    1.07
   2   6   0   21.28    1.34
  -2   6   0   23.55    1.48
   3  -6   0   78.41    2.13
   3   6   0   82.21    2.91
  -3   6   0   82.14    2.43
  -3   6   0   78.07    3.02
   4  -6   0    0.63    0.35
  -4   6   0    1.52    0.67
   4   6   0    1.39    0.59
  -4   6   0    0.48    0.51
   5  -6   0  259.12    5.97
  -5   6   0  252.50    6.32
  -5   6   0  263.37    7.73
   5   6   0  256.36    7.41
   6  -6   0   45.70    1.81
  -6   6   0   45.78    2.30
  -6   6   0   43.95    1.99
   0   7   0    0.19    0.38
   0   7   0    0.83    0.63
  -1   7   0    0.59    0.44
  -1   7   0    0.68    0.71
   1   7   0    1.01    0.68
   2   7   0   24.63    1.55
  -2   7   0   24.08    1.25
  -2   7   0   25.10    1.69
  -3   7   0   35.27    1.98
   3   7   0   31.36    1.74
  -3   7   0   33.66    1.50
  -4   7   0    2.99    0.87
   4   7   0    2.57    0.74
  -4   7   0    2.09    0.65
   5  -7   0  214.76    5.11
  -5   7   0  215.82    6.69
  -5   7   0  202.48    5.42
   5   7   0  203.99    6.33
   0   8   0 2726.04   70.68
  -1   8   0   92.59    2.69
   1   8   0   85.19    3.50
  -1   8   0   89.22    3.63
   2   8   0   36.80    2.08
  -2   8   0   40.26    2.30
  -2   8   0   37.29    1.62
  -3   8   0    2.38    0.88
   3   8   0    1.41    0.73
  -3   8   0    1.54    0.62
  -9   0   1   40.70    1.56
   9   0  -1   40.48    1.72
  -8   0   1   27.70    1.17
  -8   0   1   25.81    1.11
   7   0  -1   84.49    2.48
  -7   0   1   90.94    2.35
  -7   0   1   90.05    2.35
  -6   0   1 1508.87   31.79
   6   0  -1 1501.81   30.57
  -6   0   1 1508.20   30.80
  -5   0   1  115.89    2.77
  -5   0   1  124.51    2.85
  -4   0   1   62.78    1.59
  -4   0   1   65.06    1.62
   4   0  -1   66.04    1.69
   3   0  -1 1585.74   33.33
  -3   0   1 1602.77   33.00
   2   0  -1  386.69    8.01
  -2   0   1  384.74    8.14
   2   0  -1  399.74    8.02
   0   0  -1   86.26    1.66
   0   0   1   73.66    1.66
  -1   0  -1  155.74    3.15
   1   0   1  150.62    3.19
  -2   0  -1 2730.76   55.09
   2   0   1 2701.47   55.05
   2   0   1 2708.27   55.52
   3   0   1 1044.47   21.45
   3   0   1 1049.66   22.26
  -3   0  -1 1046.43   22.02
  -3   0  -1 1080.80   22.92
  -4   0  -1  414.59    8.70
  -4   0  -1  430.44    9.06
   4   0   1  417.63    8.83
  -5   0  -1  874.40   17.95
  -5   0  -1  891.41   18.74
   6   0   1  133.70    3.34
  -6   0  -1  133.70    3.18
  -6   0  -1  129.87    3.14
   7   0   1  261.39    6.04
  -7   0  -1  260.71    5.82
  -7   0  -1  261.97    5.95
  -8   0  -1  247.62    5.74
   8   0   1  248.92    5.90
  -8   0  -1  247.99    5.66
   9   0   1  526.45   11.53
  -9   0  -1  520.26   11.25
   9  -1  -1  122.68    3.51
  -9  -1   1  120.97    3.23
   9   1  -1  121.86    3.36
  -9   1   1  125.53    3.34
  -9   1   1  122.78    3.26
  -8  -1   1  116.81    2.98
   8  -1  -1  116.68    3.23
  -8   1   1  117.37    3.11
  -8   1   1  115.53    3.01
   8   1  -1  114.19    3.11
   7  -1  -1  190.43    4.64
  -7  -1   1  190.87    4.40
  -7  -1   1  194.70    4.41
   7   1  -1  191.90    4.55
  -7   1   1  192.91    4.43
  -7   1   1  195.43    4.62
  -6  -1   1 1028.43   21.23
  -6  -1   1 1003.17   20.41
   6  -1  -1  999.81   20.63
  -6   1   1  992.44   20.43
  -6   1   1  995.08   21.41
   6   1  -1  978.26   20.52
   6   1  -1 1026.68   25.85
   5  -1  -1  140.56    3.42
  -5  -1   1  145.77    3.26
  -5  -1   1  141.88    3.23
  -5   1   1  143.18    3.27
   5   1  -1  141.17    3.93
  -5   1   1  151.06    3.45
  -4  -1   1 2831.14   59.10
   4  -1  -1 2765.26   59.60
   4   1  -1 3064.04   75.00
  -4   1   1 2879.96   62.00
  -4   1   1 2767.71   59.16
   4   1  -1 2871.25   59.85
   4   1  -1 3109.08   59.20
  -3  -1   1 1583.68   32.75
   3  -1  -1 1549.87   32.80
  -3  -1   1 1593.97   32.61
   3   1  -1 1572.12   32.45
  -3   1   1 1636.56   34.62
  -3   1   1 1545.58   32.40
  -3   1   1 1558.89   32.87
   3   1  -1 1692.28   41.34
  -3   1   1 1578.44   41.58
   3   1  -1 1595.17   33.01
  -2  -1   1 2797.57   57.04
  -2  -1   1 2804.46   57.31
  -2   1   1 2664.86   57.27
  -2   1   1 2920.95   60.48
   2   1  -1 2821.71   56.94
  -2   1   1 2885.28   57.63
  -2   1   1 2923.04   73.30
   1  -1  -1 2279.91   47.95
   1  -1  -1 2332.62   48.12
  -1   1   1 2290.23   48.04
   1   1  -1 2504.94   61.27
  -1   1   1 2492.11   61.76
   2  -1   1 1298.38   27.01
  -2  -1  -1 1328.49   27.02
   2  -1   1 1261.71   27.03
  -2  -1  -1 1311.35   26.96
  -2   1  -1 1299.75   27.08
   2   1   1 1306.78   26.88
  -2   1  -1 1281.21   26.77
   2   1   1 1313.12   34.20
   2   1   1 1330.43   26.83
  -2   1  -1 1354.49   28.34
   3  -1   1  393.43    8.37
  -3  -1  -1  399.71    8.24
  -3   1  -1  413.65    8.36
  -3   1  -1  398.89    8.26
   3   1   1  398.49    8.32
   3   1   1  410.34   10.56
  -3   1  -1  407.32    8.69
  -4  -1  -1 1125.61   23.07
  -4   1  -1 1083.50   22.97
   4   1   1 1093.77   22.81
  -4   1  -1 1122.82   23.42
  -5  -1  -1   36.41    1.01
   5  -1   1   37.27    1.27
  -5  -1  -1   36.42    1.12
  -5   1  -1   37.24    1.19
   5   1   1   34.82    1.21
  -5   1  -1   36.22    1.13
  -6  -1  -1 1741.45   36.65
  -6  -1  -1 1747.95   35.62
   6  -1   1 1697.36   35.06
   6   1   1 1723.47   45.12
   6   1   1 1738.91   35.30
  -6   1  -1 1706.56   34.84
  -6   1  -1 1743.68   36.53
   7  -1   1   18.14    1.12
  -7  -1  -1   18.91    0.95
  -7   1  -1   18.49    0.95
  -7   1  -1   18.17    0.94
   7   1   1   18.98    1.02
   7   1   1   18.03    1.07
  -8  -1  -1   -0.09    0.37
   8   1   1   -0.23    0.39
  -8   1  -1    0.60    0.43
  -8   1  -1   -0.08    0.37
   9  -1   1    3.26    0.70
  -9  -1  -1    3.76    0.60
  -9   1  -1    3.39    0.61
  -9   1  -1    3.05    0.58
   9   1   1    4.20    0.66
  -9  -2   1   68.00    2.14
   9  -2  -1   71.95    2.51
   9   2  -1   71.17    2.20
  -9   2   1   67.39    2.30
  -9   2   1   70.52    2.19
   8  -2  -1   89.17    2.67
  -8  -2   1   81.76    2.33
  -8   2   1   83.11    2.52
  -8   2   1   84.82    2.39
   8   2  -1   86.35    2.39
  -7  -2   1  237.65    5.31
   7  -2  -1  242.39    5.64
  -7   2   1  237.56    5.36
   7   2  -1  239.47    5.36
  -7   2   1  236.25    5.68
   6  -2  -1 2692.71   54.68
  -6  -2   1 2646.73   54.21
   6   2  -1 2582.04   67.80
  -6   2   1 2604.18   54.48
   6   2  -1 2546.80   53.90
  -6   2   1 2661.87   56.58
  -5  -2   1  114.72    2.66
   5  -2  -1  117.43    2.90
  -5   2   1  116.49    2.72
  -5   2   1  118.33    2.93
   5   2  -1  112.18    3.23
   5   2  -1  114.37    2.68
   4  -2  -1    8.87    0.57
  -4  -2   1    8.73    0.43
   4   2  -1    9.29    0.38
   4   2  -1    8.38    0.43
  -4   2   1    8.73    0.48
  -4   2   1    9.55    0.61
   4   2  -1   10.69    0.53
  -4   2   1    9.33    0.58
   3  -2  -1   47.97    1.36
  -3  -2   1   51.74    1.22
  -3  -2   1   50.15    1.27
   3   2  -1   53.17    1.56
  -3   2   1   49.42    1.68
  -3   2   1   51.16    1.33
  -3   2   1   51.06    1.43
   3   2  -1   51.85    1.15
   3   2  -1   49.39    1.18
  -3   2   1   49.74    1.28
  -2  -2   1  182.99    3.77
   2  -2  -1  183.27    3.83
  -2  -2   1  182.29    3.73
   2  -2  -1  181.33    3.88
  -2   2   1  183.51    4.10
  -2   2   1  183.27    3.85
   2   2  -1  184.00    4.88
  -2   2   1  179.84    4.98
  -2   2   1  183.06    3.81
   0  -2  -1  633.97   13.03
   0  -2  -1  636.27   12.96
   0   2   1  645.51   12.90
   0   2   1  642.54   12.89
   0   2  -1  617.76   16.45
   0   2   1  640.44   16.74
  -1  -2  -1 1390.27   28.81
   1  -2   1 1405.83   28.86
   1  -2   1 1440.71   29.11
  -1  -2  -1 1418.37   28.94
  -1   2  -1 1443.51   28.73
  -1   2  -1 1396.41   30.34
   1   2   1 1411.42   37.55
  -1   2  -1 1467.92   28.77
   1   2   1 1401.57   28.59
   1   2   1 1434.36   28.58
   2  -2   1   15.72    0.50
  -2  -2  -1   16.65    0.53
  -2  -2  -1   14.92    0.47
   2  -2   1   15.29    0.56
   2   2   1   15.88    0.44
  -2   2  -1   15.44    0.60
  -2   2  -1   15.48    0.74
   2   2   1   15.72    0.47
  -2   2  -1   16.18    0.49
   2   2   1   16.21    0.73
  -2   2  -1   16.27    0.52
   3  -2   1  170.88    3.81
  -3  -2  -1  170.30    3.65
   3   2   1  172.23    3.67
  -3   2  -1  174.74    3.74
   3   2   1  167.51    4.73
  -3   2  -1  171.71    3.96
   3   2   1  177.90    3.61
  -3   2  -1  171.74    4.78
  -3   2  -1  170.41    3.67
   4  -2   1    6.40    0.53
  -4  -2  -1    6.43    0.42
   4   2   1    7.01    0.37
  -4   2  -1    6.08    0.44
  -4   2  -1    6.56    0.52
   4   2   1    6.33    0.43
   4   2   1    6.22    0.55
  -5  -2  -1  589.21   11.70
   5  -2   1  587.21   11.95
  -5   2  -1  565.55   11.71
  -5   2  -1  590.04   12.39
   5   2   1  567.62   11.74
   5   2   1  506.92   14.87
  -6  -2  -1   45.49    1.39
   6  -2   1   46.04    1.61
   6   2   1   44.05    1.43
  -6   2  -1   45.95    1.54
  -6   2  -1   45.23    1.41
  -7  -2  -1  488.24   10.21
   7  -2   1  496.55   10.55
   7   2   1  456.47   12.85
  -7   2  -1  487.45   10.79
   7   2   1  488.53   10.28
  -7   2  -1  478.52   10.22
  -8  -2  -1   21.76    1.07
   8  -2   1   20.21    1.27
   8   2   1   22.99    1.15
  -8   2  -1   20.26    1.16
  -8   2  -1   20.81    1.07
  -9  -2  -1  124.99    3.32
  -9   2  -1  126.87    3.35
  -9   2  -1  121.79    3.49
   9   2   1  128.85    3.40
   9  -3  -1  333.69    7.98
  -9  -3   1  345.22    7.56
  -9   3   1  343.89    7.58
  -9   3   1  331.90    8.06
   8  -3  -1  102.35    3.02
  -8  -3   1   98.44    2.62
  -8   3   1   99.14    2.67
  -8   3   1   96.16    2.93
   7  -3  -1  592.36   12.50
  -7  -3   1  567.18   12.06
  -7   3   1  573.81   12.90
  -7   3   1  591.80   12.15
   7   3  -1  573.08   11.98
  -6  -3   1 1120.03   22.74
   6  -3  -1 1110.58   23.09
  -6   3   1 1129.25   22.80
  -6   3   1 1134.44   24.11
   6   3  -1 1106.24   28.92
   6   3  -1 1131.07   22.64
   5  -3  -1  327.18    7.20
  -5  -3   1  329.91    6.89
   5   3  -1  330.06    6.72
  -5   3   1  328.04    7.47
   5   3  -1  330.21    8.75
  -5   3   1  324.67    8.96
  -5   3   1  330.50    6.96
   5   3  -1  329.36    6.77
   4  -3  -1  622.27   12.94
  -4  -3   1  618.24   12.67
  -4   3   1  629.44   13.55
  -4   3   1  641.00   16.47
   4   3  -1  618.15   12.55
  -4   3   1  613.94   12.74
   4   3  -1  630.85   16.26
  -3  -3   1  386.14    7.87
   3  -3  -1  384.19    8.09
  -3   3   1  402.42    8.01
   3   3  -1  388.38   10.22
  -3   3   1  372.93    7.95
  -3   3   1  384.86   10.37
  -3   3   1  386.51    8.52
   2  -3  -1   30.71    0.92
  -2  -3   1   35.94    0.78
  -2  -3   1   32.05    0.74
  -2   3   1   32.63    0.85
  -2   3   1   31.84    1.28
   2   3  -1   31.46    1.19
   1  -3  -1  773.99   15.17
   1  -3  -1  729.63   15.62
  -1   3   1  776.55   16.04
   1   3  -1  756.71   19.60
  -1   3   1  731.51   15.35
  -1   3   1  762.58   15.32
   0  -3  -1  203.18    4.26
   0  -3  -1  207.83    4.27
   0   3  -1  200.07    4.58
   0   3  -1  215.86    5.73
   0   3   1  209.61    4.57
   0   3   1  212.92    5.74
  -1  -3  -1 3202.80   64.25
  -1  -3  -1 3236.88   64.28
   1  -3   1 3209.14   64.51
   1  -3   1 3149.31   64.22
  -1   3  -1 3040.78   83.62
   1   3   1 3299.69   84.01
  -1   3  -1 3225.62   68.57
   2  -3   1 1046.92   21.70
  -2  -3  -1 1034.43   21.68
  -2  -3  -1 1067.44   21.87
  -2   3  -1 1051.99   21.62
  -2   3  -1 1061.83   22.68
  -2   3  -1 1070.80   21.78
   2   3   1 1077.61   28.00
  -2   3  -1 1083.59   27.96
   3  -3   1    2.44    0.32
   3   3   1    2.73    0.43
  -3   3  -1    2.35    0.42
  -3   3  -1    2.41    0.36
  -3   3  -1    3.93    0.32
   3   3   1    2.68    0.22
   3   3   1    2.83    0.19
   4  -3   1  785.78   16.16
  -4  -3  -1  775.76   15.91
  -4   3  -1  769.70   15.93
   4   3   1  763.16   20.46
  -4   3  -1  813.34   16.94
   4   3   1  786.55   15.94
   4   3   1  786.61   15.79
  -4   3  -1  804.51   20.60
  -5  -3  -1   37.59    1.12
   5  -3   1   36.10    1.32
  -5   3  -1   35.26    1.35
  -5   3  -1   34.66    1.12
   5   3   1   37.86    1.03
   5   3   1   34.44    1.05
   5   3   1   35.62    1.44
  -6  -3  -1 1510.46   30.18
   6  -3   1 1492.28   30.51
   6   3   1 1483.17   38.57
  -6   3  -1 1523.97   30.20
  -6   3  -1 1517.51   31.87
   6   3   1 1437.13   30.27
   7  -3   1  167.17    4.21
  -7  -3  -1  164.96    3.87
  -7   3  -1  162.75    4.23
   7   3   1  162.85    3.81
  -7   3  -1  159.53    3.86
  -8  -3  -1   45.77    1.60
   8  -3   1   45.78    1.91
  -8   3  -1   44.66    1.82
  -8   3  -1   46.62    1.62
   8  -4  -1    4.47    0.73
  -8  -4   1    5.59    0.61
  -8   4   1    4.57    0.57
  -8   4   1    5.70    0.86
  -7  -4   1   90.27    2.31
   7  -4  -1   87.82    2.68
  -7   4   1   84.35    2.72
  -7   4   1   87.56    2.36
  -6  -4   1 1506.42   30.94
   6  -4  -1 1563.92   31.39
  -6   4   1 1524.12   39.86
  -6   4   1 1538.90   32.84
  -6   4   1 1546.06   31.02
  -5  -4   1    4.35    0.41
   5  -4  -1    3.44    0.50
  -5   4   1    5.56    0.82
  -5   4   1    3.85    0.40
  -5   4   1    3.42    0.56
   5   4  -1    3.86    0.52
   4  -4  -1    3.20    0.41
  -4  -4   1    1.81    0.23
  -4   4   1    1.53    0.42
  -4   4   1    1.41    0.49
   4   4  -1    1.72    0.38
  -4   4   1    2.02    0.27
  -3  -4   1   46.02    1.13
  -3  -4   1   46.27    1.07
   3  -4  -1   44.99    1.31
   3   4  -1   45.99    1.64
  -3   4   1   43.90    1.13
  -3   4   1   42.90    1.75
  -3   4   1   43.36    1.43
  -2  -4   1   94.26    2.06
  -2  -4   1  105.93    2.05
   2  -4  -1   91.70    2.27
  -2   4   1   94.88    2.10
  -2   4   1   97.86    3.14
   2   4  -1   92.68    2.99
  -2   4   1   98.74    2.12
  -2   4   1  113.12    2.56
   1  -4  -1 3991.13   79.88
   1  -4  -1 3887.11   80.13
   1   4  -1 3954.74   84.04
  -1   4   1 3841.87   84.52
   1   4  -1 4134.18  103.78
   0  -4  -1   66.36    1.56
   0  -4   1   69.89    1.48
   0  -4  -1   67.18    1.55
   0  -4   1   70.90    1.47
   0   4  -1   68.11    2.36
   0   4   1   71.75    2.38
   0   4   1   70.87    1.77
   1  -4   1   29.91    0.75
  -1  -4  -1   28.24    0.75
  -1  -4  -1   28.16    0.74
   1  -4   1   29.62    0.79
   1   4   1   33.16    1.33
   1   4   1   29.88    0.85
  -1   4  -1   28.14    1.00
  -1   4  -1   27.72    1.32
  -2  -4  -1  154.22    3.31
  -2  -4  -1  160.71    3.37
   2  -4   1  154.60    3.45
   2   4   1  157.14    4.57
  -2   4  -1  155.83    4.63
  -2   4  -1  153.73    3.74
  -2   4  -1  158.61    3.20
  -2   4  -1  162.15    3.21
  -3  -4  -1  193.39    4.12
   3  -4   1  194.89    4.33
  -3   4  -1  193.23    5.66
  -3   4  -1  200.81    4.65
   3   4   1  198.51    5.58
  -3   4  -1  190.25    4.09
  -4  -4  -1   43.23    1.20
   4  -4   1   44.49    1.43
  -4   4  -1   43.18    1.19
  -4   4  -1   43.34    1.51
   4   4   1   45.27    1.74
  -4   4  -1   46.06    1.87
   5  -4   1  439.89    9.48
  -5  -4  -1  441.12    9.15
  -5   4  -1  440.28    9.91
  -5   4  -1  437.20   11.98
   5   4   1  438.26   11.83
  -5   4  -1  440.06    9.14
  -6  -4  -1    0.50    0.31
   6  -4   1    0.31    0.40
  -6   4  -1    0.14    0.30
  -6   4  -1    0.09    0.52
   6   4   1    0.97    0.48
  -7  -4  -1  245.93    5.50
   7  -4   1  244.67    5.91
  -7   4  -1  242.73    6.07
  -7   4  -1  249.00    5.50
   8  -4   1   70.78    2.50
  -8  -4  -1   72.32    2.12
  -8   4  -1   73.27    2.13
  -8   4  -1   67.28    2.45
   7  -5  -1   53.43    2.02
  -7   5   1   56.88    1.68
  -7   5   1   50.91    2.08
   6  -5  -1  334.95    7.43
  -6   5   1  325.14    9.31
  -6   5   1  328.89    7.00
  -6   5   1  319.57    7.76
  -5  -5   1    2.15    0.31
   5  -5  -1    1.33    0.43
  -5   5   1    1.97    0.62
   5   5  -1    2.17    0.51
  -5   5   1    1.35    0.30
  -5   5   1    1.60    0.57
   4  -5  -1  913.20   18.66
  -4  -5   1  905.53   18.28
   4   5  -1  919.60   23.75
  -4   5   1  910.55   18.32
  -4   5   1  882.89   23.96
  -4   5   1  914.76   19.67
  -3  -5   1  343.95    6.94
   3  -5  -1  339.04    7.26
   3   5  -1  343.13    9.33
  -3   5   1  341.13    6.95
  -3   5   1  339.24    9.50
  -3   5   1  336.91    7.74
  -2  -5   1  593.77   11.94
  -2  -5   1  600.55   11.97
   2  -5  -1  591.37   12.23
  -2   5   1  599.53   15.98
   2   5  -1  596.68   15.85
  -2   5   1  588.86   12.98
   2   5  -1  604.29   12.69
   1  -5  -1  299.24    6.38
  -1  -5   1  302.93    6.17
   1   5  -1  316.87    8.53
   1   5  -1  303.83    6.74
  -1   5   1  314.01    8.60
  -1   5   1  304.35    6.87
   0  -5   1  999.40   20.20
   0  -5   1 1006.95   20.24
   0  -5  -1  989.23   20.26
   0   5  -1  994.92   26.23
   0   5  -1  998.99   21.32
   0   5   1 1026.62   26.31
   0   5   1 1006.88   21.30
   1  -5   1  358.45    7.36
  -1  -5  -1  355.09    7.32
  -1  -5  -1  353.06    7.30
   1   5   1  362.88    7.77
  -1   5  -1  364.34    9.89
   1   5   1  352.51    9.84
  -1   5  -1  358.04    7.96
  -2  -5  -1   53.73    1.29
   2  -5   1   53.94    1.44
   2   5   1   54.73    2.08
  -2   5  -1   55.06    2.16
  -2   5  -1   52.47    1.68
   3  -5   1  237.45    5.14
  -3  -5  -1  235.21    4.90
  -3   5  -1  232.69    6.79
  -3   5  -1  233.94    4.73
  -3   5  -1  237.32    5.54
   3   5   1  220.73    6.64
  -4  -5  -1  301.65    6.41
   4  -5   1  310.79    6.74
  -4   5  -1  303.07    6.34
  -4   5  -1  307.74    7.15
  -4   5  -1  296.43    8.69
   4   5   1  316.80    8.56
   5  -5   1   71.18    2.15
  -5  -5  -1   70.16    1.84
  -5   5  -1   71.40    2.76
  -5   5  -1   69.29    1.78
   5   5   1   71.22    2.57
  -5   5  -1   72.59    2.34
  -6  -5  -1  795.22   16.14
   6  -5   1  800.01   16.59
  -6   5  -1  763.59   17.34
  -6   5  -1  796.36   16.09
   6   5   1  774.79   20.78
  -7  -5  -1   -0.07    0.38
   7  -5   1    1.33    0.56
  -7   5  -1    0.26    0.62
  -7   5  -1    0.48    0.36
   7  -6  -1   42.71    1.85
  -7   6   1   43.86    2.03
  -7   6   1   41.80    2.23
   6  -6  -1  741.16   15.45
  -6   6   1  727.75   19.67
  -6   6   1  711.12   16.23
   5  -6  -1    1.99    0.49
  -5   6   1    2.02    0.63
   5   6  -1    1.90    0.59
  -5   6   1    1.91    0.74
   4  -6  -1    2.78    0.46
  -4   6   1    2.29    0.58
  -4   6   1    2.05    0.70
   4   6  -1    2.36    0.61
   3  -6  -1  143.86    3.49
  -3   6   1  145.55    4.78
   3   6  -1  153.51    4.62
  -3   6   1  151.27    3.87
   2  -6  -1   45.04    1.32
   2   6  -1   43.95    1.94
  -2   6   1   44.86    1.58
   1  -6  -1 1041.08   20.89
  -1   6   1 1036.48   27.28
   1   6  -1 1048.82   21.98
   1   6  -1 1013.28   27.17
  -1   6   1 1029.90   22.12
   0  -6  -1    2.67    0.35
   0   6  -1    4.68    0.82
   0   6  -1    1.33    0.51
   0   6   1    3.79    0.49
   1  -6   1    2.29    0.29
  -1  -6  -1    1.84    0.27
   1   6   1    3.64    0.41
  -1   6  -1    2.77    0.76
  -1   6  -1    3.82    0.53
   1   6   1    3.33    0.70
   2  -6   1  161.34    3.59
   2   6   1  159.58    4.95
  -2   6  -1  157.04    5.02
  -2   6  -1  157.20    3.98
   3  -6   1  101.37    2.51
  -3   6  -1   98.34    3.50
  -3   6  -1   95.23    2.79
   3   6   1   95.87    3.36
   4  -6   1   95.42    2.60
   4   6   1  100.18    3.37
  -4   6  -1   92.41    3.50
  -4   6  -1  100.43    2.90
   5  -6   1  267.98    6.18
   5   6   1  265.13    7.73
  -5   6  -1  275.91    8.01
  -5   6  -1  263.53    6.57
   6  -6   1   14.07    1.07
  -6   6  -1   12.32    1.24
   5  -7  -1   24.80    1.28
  -5   7   1   25.06    1.81
  -5   7   1   23.56    1.46
   5   7  -1   23.40    1.49
   4  -7  -1  162.69    3.97
  -4   7   1  154.11    4.27
   4   7  -1  158.84    5.03
  -4   7   1  164.76    5.36
  -3   7   1   68.45    2.93
  -3   7   1   71.12    2.29
   3   7  -1   66.93    2.68
   2   7  -1   34.96    1.85
  -2   7   1   33.63    1.95
  -2   7   1   35.43    1.46
  -1   7   1  121.16    4.20
   1   7  -1  117.09    4.08
  -1   7   1  124.59    3.21
   0   7   1   64.64    2.76
   0   7  -1   65.16    2.72
   0   7   1   65.74    1.96
   0   7  -1   67.88    2.00
   1   7   1  297.12    8.78
  -1   7  -1  303.08    7.01
  -1   7  -1  305.59    8.85
   2   7   1  115.49    4.04
  -2   7  -1  117.38    4.14
  -2   7  -1  117.73    3.23
   3   7   1    3.22    0.76
  -3   7  -1    3.70    0.66
  -3   7  -1    3.19    0.87
   4   7   1  230.51    7.04
  -4   7  -1  227.55    5.88
  -4   7  -1  246.95    7.33
  -5   7  -1    5.65    1.07
   5   7   1    6.54    1.00
  -5   7  -1    5.51    0.89
   3   8  -1    0.15    0.64
  -3   8   1   -0.06    0.78
  -3   8   1    0.22    0.54
  -2   8   1   11.32    1.50
  -2   8   1   11.09    0.97
   2   8  -1    9.72    1.26
  -1   8   1 1156.27   31.20
  -1   8   1 1175.26   25.21
   1   8  -1 1183.90   31.11
   0   8   1   34.76    2.15
   0   8  -1   31.87    2.11
   0   8  -1   30.40    1.48
  -1   8  -1   57.18    2.82
   1   8   1   57.83    2.70
  -1   8  -1   57.37    2.00
  -2   8  -1    0.52    0.55
   2   8   1    0.70    0.73
  -2   8  -1    0.53    0.76
  -3   8  -1    3.57    0.74
  -3   8  -1    4.98    1.03
   3   8   1    4.85    0.95
  -9   0   2  254.93    5.87
   8   0  -2  165.89    4.16
  -8   0   2  167.57    4.04
  -8   0   2  163.35    3.97
  -7   0   2  883.02   18.48
  -7   0   2  924.72   19.29
   7   0  -2  896.74   18.67
  -6   0   2 2215.80   44.99
  -6   0   2 2184.75   46.28
   6   0  -2 2087.85   43.56
   5   0  -2   35.22    1.11
  -5   0   2   28.68    0.97
  -5   0   2   29.98    0.97
  -4   0   2 2089.29   44.04
   4   0  -2 2016.69   42.32
  -4   0   2 2037.46   42.43
  -3   0   2   60.67    1.45
   3   0  -2   61.60    1.52
  -3   0   2   63.06    1.51
   2   0  -2 2417.84   50.10
  -2   0   2 2452.93   50.39
   2   0  -2 2529.91   50.58
  -2   0   2 2502.25   50.28
   0   0  -2  641.08   13.15
   0   0  -2  591.51   12.79
   0   0   2  650.28   13.14
  -2   0  -2  208.86    4.46
   2   0   2  217.64    4.56
  -3   0  -2  763.79   16.23
  -3   0  -2  793.25   16.65
  -4   0  -2   61.44    1.57
  -4   0  -2   62.69    1.58
   4   0   2   60.61    1.70
  -5   0  -2  704.40   14.50
   5   0   2  694.74   14.67
  -5   0  -2  723.70   15.11
   6   0   2   14.36    0.92
  -6   0  -2   14.85    0.79
  -6   0  -2   13.43    0.69
  -7   0  -2    3.64    0.48
   7   0   2    2.95    0.54
  -7   0  -2    3.45    0.50
  -8   0  -2  359.18    8.09
  -8   0  -2  364.47    7.90
   8   0   2  352.18    8.13
   9   0   2   89.28    2.84
  -9   0  -2   90.21    2.62
   9  -1  -2   33.61    1.61
  -9  -1   2   31.31    1.37
  -9   1   2   34.05    1.41
   9   1  -2   34.68    1.50
  -9   1   2   33.78    1.43
   8  -1  -2   67.24    2.20
  -8  -1   2   65.80    1.97
   8   1  -2   65.37    2.08
  -8   1   2   67.49    2.07
  -8   1   2   67.14    2.02
  -7  -1   2    9.22    0.60
  -7  -1   2    7.10    0.66
   7  -1  -2    7.18    0.77
  -7   1   2    6.81    0.67
  -7   1   2    9.99    0.73
   6  -1  -2  355.14    7.80
  -6  -1   2  353.83    7.58
  -6  -1   2  367.74    7.80
  -6   1   2  356.61    7.61
  -6   1   2  361.45    7.98
   6   1  -2  358.08    9.32
   6   1  -2  350.67    7.67
  -5  -1   2   14.74    0.66
  -5  -1   2   16.79    0.61
   5  -1  -2   14.73    0.77
   5   1  -2   18.17    0.74
  -5   1   2   16.75    0.73
   5   1  -2   15.89    0.59
  -5   1   2   15.89    0.70
  -4  -1   2  295.44    6.42
  -4  -1   2  325.34    6.67
   4  -1  -2  300.81    6.59
  -4   1   2  313.43    6.47
   4   1  -2  296.79    6.48
  -4   1   2  317.99    6.81
  -4   1   2  304.16    8.12
   4   1  -2  318.78    7.98
  -3  -1   2  391.78    7.98
   3  -1  -2  377.58    8.04
  -3  -1   2  378.38    7.91
   3   1  -2  400.13    7.89
  -3   1   2  397.61   10.11
  -3   1   2  383.09    8.38
   3   1  -2  386.14    7.96
  -3   1   2  402.48    8.03
  -3   1   2  379.62    7.96
  -2  -1   2  155.80    3.34
  -2  -1   2  156.71    3.37
   2  -1  -2  156.96    3.45
   2   1  -2  161.04    3.32
  -2   1   2  170.00    3.41
  -2   1   2  160.42    4.32
  -2   1   2  157.16    3.43
   2   1  -2  156.43    3.35
  -1  -1   2  107.52    2.20
   1  -1  -2  106.69    2.27
   1  -1  -2  108.22    2.28
  -1  -1   2  104.68    2.19
  -1   1   2  106.89    2.26
   1   1  -2  105.24    2.16
   1   1  -2  107.20    2.16
  -1   1   2  102.09    2.25
   1   1  -2  105.48    2.82
  -1   1   2  108.67    2.91
   1  -1   2   25.37    0.65
  -1  -1  -2   25.55    0.67
   1  -1   2   25.67    0.71
  -1  -1  -2   28.01    0.73
   1   1   2   25.76    0.70
   1   1   2   25.38    0.93
   1   1   2   26.89    0.67
  -1   1  -2   26.10    0.65
  -1   1  -2   26.75    0.70
  -2  -1  -2  182.67    3.86
  -2  -1  -2  185.89    3.94
   2  -1   2  180.65    3.94
   2  -1   2  185.31    3.86
  -2   1  -2  186.04    3.94
   2   1   2  181.56    3.91
   2   1   2  192.64    5.00
  -2   1  -2  178.57    3.85
  -2   1  -2  183.46    4.08
   2   1   2  184.12    3.84
   3  -1   2 5746.64  116.40
   3   1   2 5762.14  115.06
  -3   1  -2 5709.56  121.12
   3   1   2 5639.99  115.79
  -4  -1  -2   35.87    1.05
   4  -1   2   36.98    1.19
  -4  -1  -2   36.86    0.97
  -4   1  -2   37.32    1.12
  -4   1  -2   34.15    1.05
   4   1   2   35.83    1.14
  -5  -1  -2  546.56   11.45
  -5  -1  -2  536.46   11.10
  -5   1  -2  529.90   11.10
   5   1   2  527.35   11.23
  -5   1  -2  543.37   11.65
  -6  -1  -2 1169.30   24.70
  -6  -1  -2 1167.35   23.78
  -6   1  -2 1169.51   24.92
   6   1   2 1167.45   23.94
  -6   1  -2 1178.86   23.79
  -7  -1  -2   98.73    2.60
   7  -1   2   96.23    2.84
  -7   1  -2  100.71    2.68
   7   1   2   95.49    2.71
   7   1   2  104.03    3.25
  -7   1  -2   97.39    2.60
   8  -1   2   10.90    1.05
  -8  -1  -2    9.97    0.86
   8   1   2   10.65    0.92
  -8   1  -2   10.19    0.83
  -8   1  -2    9.16    0.82
   9  -1   2   68.88    2.44
  -9  -1  -2   67.90    2.18
  -9   1  -2   67.07    2.17
  -9   1  -2   66.87    2.17
   9   1   2   66.05    2.29
  -9  -2   2  735.83   15.58
   9  -2  -2  741.52   16.00
   9   2  -2  750.29   15.62
  -9   2   2  738.03   16.43
  -9   2   2  759.34   15.66
   8  -2  -2   19.05    1.17
  -8  -2   2   18.21    0.95
  -8   2   2   18.40    1.10
   8   2  -2   18.03    0.98
  -8   2   2   18.04    1.03
   7  -2  -2  296.73    6.76
  -7  -2   2  292.85    6.42
  -7   2   2  296.67    6.49
   7   2  -2  292.11    6.47
  -7   2   2  298.42    6.87
  -6  -2   2  556.87   11.55
   6  -2  -2  561.56   11.85
  -6   2   2  554.51   11.62
   6   2  -2  555.15   11.58
  -6   2   2  564.61   12.26
  -5  -2   2   25.40    0.84
   5  -2  -2   23.09    1.00
  -5   2   2   24.51    1.05
  -5   2   2   24.97    0.99
  -5   2   2   24.53    0.90
   5   2  -2   24.82    0.85
   5   2  -2   24.40    0.84
   4  -2  -2   75.42    1.98
  -4  -2   2   75.26    1.79
   4   2  -2   76.22    2.14
   4   2  -2   77.24    1.78
  -4   2   2   74.74    1.87
  -4   2   2   75.87    2.34
   4   2  -2   76.47    1.71
  -4   2   2   80.18    2.05
   3  -2  -2  264.48    5.86
  -3  -2   2  276.42    5.68
  -3  -2   2  274.29    5.74
  -3   2   2  276.31    5.78
   3   2  -2  279.00    5.63
   3   2  -2  288.88    7.25
   3   2  -2  282.47    5.61
  -3   2   2  276.53    7.42
   2  -2  -2   62.62    1.47
  -2  -2   2   59.77    1.37
  -2  -2   2   61.59    1.35
   2  -2  -2   58.39    1.51
   2   2  -2   62.19    1.81
  -2   2   2   60.38    1.49
  -2   2   2   62.25    1.94
  -2   2   2   71.04    1.48
   1  -2  -2 2151.81   44.58
   1  -2  -2 2157.61   44.81
  -1   2   2 2136.86   46.88
   1   2  -2 2180.84   57.22
  -1   2   2 2221.81   44.67
  -1   2   2 2315.30   44.77
  -1   2   2 2214.76   57.79
   0   2  -2 3801.04   99.97
   0   2   2 3885.51  100.28
   0   2  -2 3897.93   81.89
   0   2   2 3856.86   77.47
  -1  -2  -2    2.88    0.24
  -1  -2  -2    3.06    0.22
   1  -2   2    3.73    0.20
  -1   2  -2    2.42    0.34
  -1   2  -2    3.66    0.19
   1   2   2    2.70    0.38
  -1   2  -2    3.37    0.31
   1   2   2    3.06    0.21
   2  -2   2    7.52    0.42
   2  -2   2    8.00    0.35
  -2  -2  -2    8.07    0.36
  -2  -2  -2    7.31    0.40
   2   2   2    7.46    0.36
  -2   2  -2    7.93    0.37
  -2   2  -2    7.45    0.45
   2   2   2    7.56    0.57
  -2   2  -2    8.08    0.34
   2   2   2    7.72    0.32
  -2   2  -2    7.69    0.56
  -3  -2  -2 2399.32   49.31
   3  -2   2 2368.65   49.65
   3   2   2 2388.44   49.77
  -3   2  -2 2432.67   49.49
   3   2   2 2378.28   63.56
  -3   2  -2 2536.46   52.67
  -4  -2  -2   24.52    0.80
   4  -2   2   23.00    0.93
  -4   2  -2   22.16    0.80
   4   2   2   21.93    0.81
   4   2   2   24.15    1.05
  -4   2  -2   24.04    0.92
  -5  -2  -2   41.00    1.22
   5  -2   2   41.91    1.42
   5   2   2   37.41    1.54
  -5   2  -2   39.49    1.23
  -5   2  -2   41.50    1.37
   5   2   2   39.72    1.27
  -6  -2  -2   36.74    1.24
   6  -2   2   36.12    1.44
   6   2   2   37.05    1.56
   6   2   2   36.52    1.30
  -6   2  -2   36.69    1.26
  -6   2  -2   35.94    1.36
   7  -2   2   66.15    2.19
  -7  -2  -2   64.27    1.93
  -7   2  -2   66.87    2.09
   7   2   2   66.09    2.36
   7   2   2   64.47    1.99
  -7   2  -2   66.01    1.94
  -8  -2  -2   22.78    1.12
  -8   2  -2   22.58    1.19
  -8   2  -2   20.96    1.11
   8   2   2   21.20    1.14
  -9  -2  -2   60.18    2.04
   9  -2   2   63.87    2.39
  -9   2  -2   61.26    2.17
  -9   2  -2   63.01    2.08
   9   2   2   62.07    2.11
   9  -3  -2   10.98    1.20
  -9  -3   2   11.81    0.92
  -9   3   2   12.30    1.13
  -9   3   2   13.40    1.03
   8  -3  -2    5.41    0.76
  -8  -3   2    4.04    0.52
  -8   3   2    5.75    0.76
  -8   3   2    5.04    0.60
  -7  -3   2   31.92    1.15
   7  -3  -2   30.99    1.44
  -7   3   2   31.29    1.23
  -7   3   2   31.05    1.41
   7   3  -2   30.54    1.04
   6  -3  -2  560.52   11.74
  -6  -3   2  544.91   11.37
  -6   3   2  561.82   11.47
  -6   3   2  540.27   14.61
   6   3  -2  548.93   11.24
  -6   3   2  543.48   12.17
  -5  -3   2  132.81    3.00
   5  -3  -2  134.94    3.30
   5   3  -2  132.57    3.71
   5   3  -2  137.67    2.81
   5   3  -2  133.99    2.84
  -5   3   2  131.90    3.39
  -5   3   2  130.21    3.08
  -5   3   2  134.47    3.99
   4  -3  -2  177.20    4.11
  -4  -3   2  179.75    3.85
   4   3  -2  188.08    4.94
  -4   3   2  179.91    4.30
  -4   3   2  184.09    5.17
  -4   3   2  179.49    3.96
  -3  -3   2 1124.61   22.97
   3  -3  -2 1109.75   23.59
  -3  -3   2 1119.79   23.23
  -3   3   2 1179.15   30.37
  -3   3   2 1177.18   24.41
  -3   3   2 1081.13   23.64
   3   3  -2 1182.55   30.24
   2  -3  -2    3.89    0.33
   2   3  -2    3.17    0.41
  -2   3   2    4.37    0.30
  -2   3   2    3.45    0.28
  -2   3   2    3.04    0.46
  -2   3   2    4.14    0.41
   1  -3  -2  881.62   18.79
   1  -3  -2  907.85   18.21
  -1   3   2  917.53   19.10
   1   3  -2  922.77   19.42
  -1   3   2  905.14   18.47
  -1   3   2  902.03   18.42
  -1   3   2  869.42   23.39
   1   3  -2  909.68   24.06
   0  -3  -2 1420.45   28.51
   0  -3  -2 1369.97   28.60
   0   3   2 1438.16   37.54
   0   3  -2 1370.19   30.09
   0   3   2 1397.33   28.19
   0   3  -2 1391.05   36.53
   0   3   2 1383.37   28.31
   0   3   2 1421.59   29.74
   1  -3   2   74.51    1.65
  -1  -3  -2   75.69    1.69
  -1  -3  -2   76.86    1.72
   1  -3   2   76.77    1.71
  -1   3  -2   75.56    2.39
   1   3   2   75.56    2.41
   1   3   2   78.91    1.61
   1   3   2   76.48    1.60
  -1   3  -2   75.78    1.93
  -2  -3  -2   16.16    0.56
  -2  -3  -2   17.96    0.63
   2  -3   2   17.77    0.65
  -2   3  -2   17.55    0.54
   2   3   2   19.42    0.94
   2   3   2   17.99    0.51
  -2   3  -2   17.63    0.52
  -2   3  -2   16.90    0.90
   2   3   2   17.94    0.49
   3  -3   2 2753.32   57.53
  -3  -3  -2 2745.75   56.70
  -3   3  -2 2784.40   72.79
  -3   3  -2 2719.93   56.64
   3   3   2 2833.56   56.33
   3   3   2 2912.82   72.87
   3   3   2 2750.41   56.49
   4  -3   2  227.23    5.08
  -4  -3  -2  225.84    4.85
  -4   3  -2  228.91    5.30
   4   3   2  226.03    6.35
   4   3   2  225.65    4.81
  -4   3  -2  225.66    4.85
   5  -3   2  240.71    5.41
  -5  -3  -2  233.43    5.13
  -5   3  -2  233.90    5.58
   5   3   2  246.63    6.66
   5   3   2  228.92    5.09
  -5   3  -2  234.22    5.13
  -6  -3  -2  396.48    8.39
   6  -3   2  398.69    8.73
  -6   3  -2  401.48    8.40
   6   3   2  372.62   10.71
   6   3   2  397.38    8.36
  -6   3  -2  405.35    9.01
   7  -3   2  325.84    7.28
  -7  -3  -2  307.34    6.87
  -7   3  -2  310.40    7.40
  -7   3  -2  315.77    6.89
   7   3   2  312.68    6.85
   7   3   2  312.58    8.73
   8  -3   2   -0.36    0.47
  -8  -3  -2   -0.38    0.37
  -8   3  -2   -0.02    0.36
   8   3   2    0.39    0.39
  -8   3  -2   -0.64    0.46
  -8  -4   2   45.14    1.52
   8  -4  -2   46.19    1.89
  -8   4   2   44.04    1.89
  -8   4   2   45.28    1.59
  -7  -4   2  327.96    7.10
   7  -4  -2  329.66    7.56
  -7   4   2  325.90    7.81
  -7   4   2  335.75    7.20
   6  -4  -2  720.35   14.99
  -6  -4   2  730.97   14.56
  -6   4   2  699.49   18.85
  -6   4   2  714.84   14.65
  -6   4   2  686.27   15.61
  -5  -4   2   32.88    0.99
   5  -4  -2   33.52    1.27
  -5   4   2   33.44    1.36
  -5   4   2   32.70    1.08
  -5   4   2   31.63    1.53
   5   4  -2   33.88    1.30
  -4  -4   2  195.38    4.07
   4  -4  -2  190.73    4.39
  -4   4   2  193.73    4.65
   4   4  -2  193.04    5.36
  -4   4   2  187.63    4.17
  -4   4   2  194.63    5.62
  -3  -4   2   71.29    1.54
   3  -4  -2   67.97    1.81
  -3   4   2   68.75    1.65
   3   4  -2   68.67    2.23
  -3   4   2   72.23    1.69
   2  -4  -2  108.45    2.59
  -2   4   2  115.45    3.54
  -2   4   2  116.90    2.46
  -2   4   2  110.41    2.81
   2   4  -2  116.94    2.61
   2   4  -2  113.21    3.38
  -2   4   2  113.09    2.44
   1  -4  -2 1314.17   26.88
   1   4  -2 1318.40   28.41
   1   4  -2 1335.99   35.07
  -1   4   2 1281.89   26.69
  -1   4   2 1346.94   28.55
  -1   4   2 1348.30   26.75
  -1   4   2 1330.45   34.88
   0  -4  -2  424.80    8.60
   0  -4   2  417.03    8.45
   0  -4   2  423.42    8.47
   0  -4  -2  414.72    8.60
   0   4  -2  419.74   11.30
   0   4   2  433.91   11.37
   0   4   2  428.02    9.11
   0   4  -2  414.54    9.16
   1  -4   2  259.95    5.35
  -1  -4  -2  259.23    5.37
  -1  -4  -2  251.24    5.33
   1  -4   2  257.95    5.29
   1   4   2  252.65    7.18
  -1   4  -2  256.35    5.81
   1   4   2  262.53    5.62
  -1   4  -2  265.83    7.20
  -2  -4  -2   19.24    0.61
   2  -4   2   18.53    0.69
   2   4   2   19.67    1.09
  -2   4  -2   17.99    1.07
  -2   4  -2   18.10    0.83
   3  -4   2  616.32   12.81
  -3  -4  -2  604.19   12.61
  -3   4  -2  597.02   13.50
  -3   4  -2  608.29   16.49
   3   4   2  625.92   16.44
  -3   4  -2  677.80   12.66
  -3   4  -2  614.23   12.53
  -4  -4  -2   27.67    0.90
   4  -4   2   27.24    1.09
   4   4   2   29.80    1.38
  -4   4  -2   25.65    1.40
   4   4   2   27.82    0.72
  -4   4  -2   26.55    0.85
  -4   4  -2   28.48    1.21
  -5  -4  -2  131.96    3.11
   5  -4   2  130.98    3.38
  -5   4  -2  131.72    3.06
   5   4   2  139.08    4.15
  -5   4  -2  135.27    3.56
   5   4   2  132.25    2.90
   6  -4   2   -0.19    0.39
  -6  -4  -2   -0.12    0.31
   6   4   2    0.33    0.49
  -6   4  -2    1.27    0.56
  -6   4  -2    0.64    0.32
   7  -4   2    9.26    1.01
  -7  -4  -2    9.21    0.79
  -7   4  -2   10.14    0.76
  -7   4  -2    9.42    1.10
   8  -4   2   76.84    2.68
  -8  -4  -2   81.45    2.34
  -8   4  -2   80.87    2.29
  -8   4  -2   78.61    2.68
   8  -5  -2   85.36    2.77
  -8   5   2   82.56    2.33
  -8   5   2   80.22    2.86
   7  -5  -2   21.39    1.32
  -7   5   2   21.97    1.40
  -7   5   2   23.57    1.04
  -7   5   2   22.47    1.54
   6  -5  -2  126.70    3.38
  -6   5   2  119.75    3.52
  -6   5   2  127.14    3.01
  -6   5   2  127.44    4.16
   5  -5  -2   36.42    1.42
  -5   5   2   38.13    1.17
  -5   5   2   39.17    1.58
  -5   5   2   39.18    1.83
   5   5  -2   38.22    1.56
  -4  -5   2   53.36    1.32
   4  -5  -2   53.54    1.66
   4   5  -2   57.63    2.01
  -4   5   2   56.43    1.86
  -4   5   2   53.82    1.41
  -4   5   2   52.50    2.22
   3  -5  -2    6.40    0.55
  -3  -5   2    6.84    0.30
  -3   5   2    6.29    0.37
  -3   5   2    4.65    0.56
  -3   5   2    5.84    0.80
   3   5  -2    6.16    0.74
   2  -5  -2    7.52    0.51
   2   5  -2    7.39    0.48
  -2   5   2    7.48    0.29
  -2   5   2    7.22    0.63
  -2   5   2    9.61    0.91
  -2   5   2    8.08    0.28
   2   5  -2    9.16    0.85
   1  -5  -2   17.05    0.66
   1   5  -2   18.29    1.12
   1   5  -2   17.62    0.76
  -1   5   2   17.88    1.20
  -1   5   2   17.59    0.80
   0  -5  -2 1357.82   27.82
   0  -5   2 1354.26   27.36
   0  -5   2 1370.69   27.45
   0   5  -2 1377.92   28.84
   0   5  -2 1381.81   35.37
   0   5   2 1345.92   35.42
   0   5   2 1345.90   29.01
  -1  -5  -2   37.41    1.01
   1  -5   2   37.64    1.02
   1   5   2   40.66    1.74
  -1   5  -2   36.29    1.28
   1   5   2   38.93    1.11
  -1   5  -2   37.61    1.71
  -2  -5  -2  202.71    4.33
   2  -5   2  201.78    4.45
  -2   5  -2  209.28    4.89
  -2   5  -2  195.99    6.00
   2   5   2  213.25    6.02
   3  -5   2 1170.70   24.17
  -3  -5  -2 1194.17   23.96
   3   5   2 1199.56   31.09
  -3   5  -2 1194.43   31.18
  -3   5  -2 1195.08   25.52
   4  -5   2   10.56    0.76
  -4  -5  -2   10.29    0.58
  -4   5  -2   10.70    0.87
  -4   5  -2   10.66    0.48
   4   5   2   12.39    1.03
  -4   5  -2   10.68    1.11
  -5  -5  -2  290.12    6.20
   5  -5   2  293.61    6.55
  -5   5  -2  287.78    6.09
   5   5   2  288.16    8.19
  -5   5  -2  280.66    6.88
   6  -5   2  640.78   13.60
  -6  -5  -2  645.85   13.19
   6   5   2  620.37   17.04
  -6   5  -2  647.77   13.10
  -6   5  -2  621.35   14.24
   7  -5   2   15.46    1.17
  -7  -5  -2   14.36    0.92
  -7   5  -2   15.98    1.28
  -7   5  -2   15.81    0.86
   7  -6  -2  321.59    7.53
  -7   6   2  322.81    9.40
  -7   6   2  319.94    7.91
   6  -6  -2  632.11   13.14
  -6   6   2  589.78   13.75
  -6   6   2  604.68   16.67
   5  -6  -2   48.82    1.71
  -5   6   2   45.84    1.87
  -5   6   2   48.55    2.25
   5   6  -2   48.88    1.96
   4  -6  -2  200.26    4.59
   4   6  -2  198.50    5.77
  -4   6   2  193.79    4.92
  -4   6   2  191.08    6.05
   3  -6  -2    9.23    0.67
  -3   6   2    9.62    1.10
  -3   6   2    8.37    0.83
   2  -6  -2  156.62    3.59
   2   6  -2  161.10    4.83
  -2   6   2  147.18    4.95
  -2   6   2  163.00    3.95
   1  -6  -2  759.48   15.47
   1   6  -2  751.70   20.19
  -1   6   2  749.29   16.39
   1   6  -2  763.44   16.30
  -1   6   2  772.74   20.32
   0  -6  -2   67.35    1.66
   0   6   2   69.84    1.89
   0   6  -2   64.85    1.94
   0   6   2   64.22    2.60
   0   6  -2   64.56    2.59
  -1  -6  -2  226.55    4.75
   1  -6   2  222.73    4.85
  -1   6  -2  224.78    5.30
  -1   6  -2  216.89    6.62
   1   6   2  226.23    6.66
   1   6   2  222.85    5.04
   2  -6   2   12.79    0.66
  -2   6  -2   13.45    1.23
  -2   6  -2   14.64    0.94
   2   6   2   12.94    1.16
   3  -6   2  146.32    3.41
  -3   6  -2  146.89    3.79
   3   6   2  133.32    4.50
  -3   6  -2  142.41    4.66
   4  -6   2   20.36    1.02
  -4   6  -2   21.53    1.55
   4   6   2   22.76    1.41
  -4   6  -2   21.21    1.26
   5  -6   2  177.31    4.36
  -5   6  -2  182.47    5.68
  -5   6  -2  175.59    4.67
   5   6   2  168.80    5.43
   6  -6   2    9.88    1.00
  -6   6  -2   11.34    1.22
   6   6   2    9.43    1.13
   5  -7  -2   18.52    1.13
  -5   7   2   18.50    1.66
  -5   7   2   16.36    1.28
   4  -7  -2   56.74    1.86
  -4   7   2   57.67    2.12
  -4   7   2   57.70    2.66
   4   7  -2   56.79    2.34
   3  -7  -2  133.29    3.32
  -3   7   2  126.57    3.54
  -3   7   2  127.24    4.47
   3   7  -2  125.98    4.21
  -2   7   2    3.32    0.85
   2   7  -2    2.65    0.71
  -2   7   2    3.01    0.58
   1   7  -2   90.61    3.37
  -1   7   2   87.02    3.47
   1   7  -2  101.47    2.53
  -1   7   2   92.32    2.61
   0   7   2  263.65    6.19
   0   7  -2  268.32    7.96
   0   7   2  265.10    8.01
   0   7  -2  282.41    6.32
   1   7   2    3.19    0.79
  -1   7  -2    3.48    0.59
  -1   7  -2    4.32    0.88
   2   7   2    0.53    0.62
  -2   7  -2    1.11    0.52
  -2   7  -2    0.33    0.63
  -3   7  -2  511.26   11.77
  -3   7  -2  536.68   14.55
   3   7   2  513.88   14.38
  -4   7  -2   20.27    1.33
  -4   7  -2   21.53    1.78
   4   7   2   20.04    1.52
   5   7   2   65.20    2.81
  -5   7  -2   73.30    3.10
  -5   7  -2   68.57    2.52
  -3   8   2    3.25    0.99
  -3   8   2    3.07    0.69
   3   8  -2    3.07    0.80
  -2   8   2    4.09    0.68
  -2   8   2    4.32    1.02
   2   8  -2    4.22    0.89
   1   8  -2  181.88    5.96
  -1   8   2  188.30    4.66
  -1   8   2  187.38    6.12
   0   8   2  189.16    6.22
   0   8  -2  187.35    6.16
   0   8  -2  192.79    4.74
  -1   8  -2   -1.01    0.74
  -1   8  -2   -0.36    0.48
   1   8   2    0.15    0.77
  -2   8  -2   -0.16    0.52
  -2   8  -2   -0.14    0.74
   2   8   2   -0.18    0.73
   3   8   2  356.21   10.42
  -3   8  -2  351.04    8.47
  -3   8  -2  361.87   10.56
  -9   0   3  240.05    5.66
  -9   0   3  240.68    5.55
   9   0  -3  234.41    5.72
   8   0  -3   91.24    2.67
  -8   0   3   94.84    2.54
  -8   0   3   93.72    2.53
  -7   0   3 1033.30   21.34
   7   0  -3 1036.82   21.51
  -7   0   3 1064.41   22.30
  -6   0   3  976.72   20.34
   6   0  -3  923.22   19.58
  -6   0   3  963.96   19.45
  -5   0   3  203.50    4.49
  -5   0   3  203.70    4.67
   5   0  -3  211.23    4.62
   4   0  -3 3124.91   63.77
  -4   0   3 3071.11   63.27
  -3   0   3  110.47    2.45
   3   0  -3  106.68    2.46
  -3   0   3  106.37    2.40
  -3   0   3  111.41    2.85
   2   0  -3 3433.37   70.89
  -2   0   3 3429.33   70.63
  -2   0   3 3625.30   70.93
   1   0  -3 2889.87   58.61
  -1   0   3 2891.30   58.60
   1   0  -3 2914.77   58.65
   0   0  -3  136.53    2.88
   0   0  -3  135.27    2.84
   1   0   3  603.46   12.77
  -1   0  -3  609.17   12.52
   3   0   3   15.28    0.68
  -3   0  -3   16.11    0.59
  -3   0  -3   16.36    0.60
  -4   0  -3   13.42    0.61
  -4   0  -3   13.62    0.58
   4   0   3   12.40    0.69
   5   0   3 1407.16   28.24
  -5   0  -3 1399.73   29.72
  -5   0  -3 1357.39   28.02
  -6   0  -3  948.82   19.60
  -6   0  -3  974.28   20.45
   6   0   3  953.32   19.84
  -7   0  -3   49.69    1.62
  -7   0  -3   49.38    1.53
   7   0   3   47.58    1.78
  -8   0  -3  399.62    8.72
   8   0   3  398.10    8.97
   9   0   3    3.57    0.67
  -9   0  -3    3.59    0.63
  -9  -1   3    7.37    0.83
   9  -1  -3    7.79    0.92
  -9   1   3    7.98    0.85
   9   1  -3    8.44    0.88
  -9   1   3    7.74    0.86
  -8  -1   3  214.42    4.95
   8  -1  -3  210.82    5.20
  -8   1   3  215.63    5.18
  -8   1   3  219.40    4.99
  -7  -1   3  327.03    7.23
  -7  -1   3  325.49    7.05
   7  -1  -3  315.56    7.29
  -7   1   3  335.63    7.44
   7   1  -3  327.58    7.16
  -7   1   3  327.10    7.10
  -6  -1   3  620.88   12.52
  -6  -1   3  595.57   13.00
   6  -1  -3  615.93   12.76
  -6   1   3  598.39   13.16
  -6   1   3  601.44   12.56
   6   1  -3  607.85   12.61
   5  -1  -3   51.76    1.57
  -5  -1   3   52.03    1.40
  -5  -1   3   52.90    1.39
  -5   1   3   50.60    1.44
   5   1  -3   52.35    1.46
  -5   1   3   54.47    1.53
  -4  -1   3   41.52    1.14
   4  -1  -3   42.10    1.27
   4   1  -3   44.54    1.20
  -4   1   3   44.08    1.36
  -4   1   3   41.12    1.18
  -4   1   3   45.14    1.28
  -3  -1   3 3940.18   80.26
  -3  -1   3 3910.07   80.01
   3  -1  -3 4059.47   80.98
  -3   1   3 3763.59   80.18
   3   1  -3 4022.46   79.81
   3   1  -3 3944.13   80.18
  -3   1   3 4071.94  102.18
  -2  -1   3  967.27   19.76
  -2  -1   3  950.68   19.67
   2   1  -3  968.73   19.87
  -2   1   3  932.16   19.91
   2   1  -3  974.23   19.82
  -2   1   3  980.72   25.34
   1  -1  -3  112.19    2.49
  -1  -1   3  111.96    2.42
  -1  -1   3  118.58    2.42
   1   1  -3  113.77    2.40
   1   1  -3  114.33    2.40
  -1   1   3  119.86    3.19
  -1   1   3  111.10    2.47
  -1   1   3  113.73    2.48
   0  -1   3 2558.65   52.06
   0  -1  -3 2473.67   52.06
   0  -1   3 2608.46   51.77
   0   1   3 2614.25   52.24
   0   1  -3 2638.49   51.92
   0   1   3 2487.25   66.81
   1  -1   3  796.09   15.89
   1  -1   3  800.13   15.81
  -1  -1  -3  826.43   16.33
  -1  -1  -3  776.94   16.47
  -1   1  -3  794.05   15.93
   1   1   3  796.11   16.14
   1   1   3  777.56   16.55
  -1   1  -3  776.32   15.95
   1   1   3  745.95   20.88
   2  -1   3  163.24    3.43
   2  -1   3  156.41    3.52
  -2  -1  -3  156.38    3.42
  -2  -1  -3  164.32    3.53
   2   1   3  164.28    4.47
  -2   1  -3  155.06    3.41
   2   1   3  155.80    3.49
  -2   1  -3  161.14    3.63
  -3  -1  -3  381.94    7.97
  -3   1  -3  389.93    8.40
  -3   1  -3  386.26    7.97
   3   1   3  385.73    8.07
  -4  -1  -3  745.21   15.44
  -4  -1  -3  727.92   14.88
  -4   1  -3  740.21   15.62
   4   1   3  718.35   14.99
  -4   1  -3  716.77   14.87
   5  -1   3    8.52    0.71
  -5  -1  -3    8.91    0.48
  -5  -1  -3    8.86    0.59
  -5   1  -3    8.26    0.59
   5   1   3    7.54    0.66
  -5   1  -3    8.48    0.61
  -6  -1  -3  673.11   13.79
  -6  -1  -3  661.25   14.21
   6  -1   3  668.45   14.06
  -6   1  -3  674.12   13.79
   6   1   3  665.36   13.95
  -6   1  -3  650.46   14.42
   7  -1   3   13.75    1.03
  -7  -1  -3   13.34    0.88
   7   1   3   13.87    1.13
  -7   1  -3   13.20    0.86
   7   1   3   14.69    0.99
  -7   1  -3   12.67    0.87
  -8  -1  -3  145.39    3.64
   8  -1   3  137.76    3.89
   8   1   3  144.03    3.80
  -8   1  -3  144.31    3.73
   8   1   3  144.44    4.56
  -8   1  -3  147.48    3.65
  -9  -1  -3   80.57    2.47
   9  -1   3   78.24    2.71
   9   1   3   79.31    2.58
  -9   1  -3   78.42    2.43
  -9   1  -3   80.82    2.46
   9  -2  -3   39.50    1.80
  -9  -2   3   39.95    1.53
  -9   2   3   40.01    1.59
   9   2  -3   39.69    1.54
  -9   2   3   40.27    1.66
   8  -2  -3    0.94    0.48
  -8  -2   3    2.12    0.43
  -8   2   3    1.28    0.45
  -8   2   3    2.02    0.53
   8   2  -3    1.79    0.43
  -7  -2   3 2308.84   47.14
   7  -2  -3 2343.64   46.54
  -7   2   3 2261.32   47.51
   7   2  -3 2288.21   46.20
  -7   2   3 2287.23   49.13
   6  -2  -3  621.55   13.26
  -6  -2   3  631.62   12.97
  -6  -2   3  616.87   13.40
  -6   2   3  646.67   13.06
  -6   2   3  635.06   13.77
   6   2  -3  630.10   12.99
  -5  -2   3   77.92    1.89
   5  -2  -3   76.65    2.11
  -5   2   3   74.86    1.96
   5   2  -3   77.96    1.89
  -5   2   3   77.26    2.39
  -5   2   3   79.96    2.14
  -4  -2   3 1123.35   23.99
  -4   2   3 1139.35   24.26
   4   2  -3 1145.39   29.85
  -4   2   3 1160.91   24.63
   4   2  -3 1207.82   23.67
   4   2  -3 1172.55   23.82
  -4   2   3 1171.82   29.89
   3  -2  -3  334.37    7.25
  -3  -2   3  342.69    7.11
  -3  -2   3  338.57    7.05
   3   2  -3  351.04    8.96
   3   2  -3  351.79    6.99
  -3   2   3  365.30    7.61
  -3   2   3  334.96    7.16
   3   2  -3  361.82    6.97
  -3   2   3  335.64    9.17
  -2  -2   3  335.91    6.74
  -2  -2   3  331.89    6.76
   2   2  -3  334.23    8.68
  -2   2   3  332.06    8.84
   1  -2  -3  105.11    2.27
   1  -2  -3  107.50    2.26
  -1  -2   3  101.02    2.11
  -1  -2   3  102.77    2.12
   1   2  -3   99.70    2.86
  -1   2   3  101.91    2.23
   1   2  -3   98.09    2.34
  -1   2   3  100.95    2.23
   0  -2  -3 3343.62   69.34
   0  -2  -3 3496.09   69.46
   0   2  -3 3441.29   89.23
   0   2   3 3520.59   89.53
   0   2  -3 3329.69   73.02
   0   2   3 3421.14   69.16
  -1  -2  -3  627.21   13.26
   1  -2   3  636.34   13.34
   1  -2   3  637.60   12.98
  -1  -2  -3  649.84   12.93
   1   2   3  639.67   13.03
   1   2   3  629.15   16.62
  -1   2  -3  667.89   13.09
  -1   2  -3  632.37   13.08
   1   2   3  649.25   12.88
  -1   2  -3  610.42   13.58
  -2  -2  -3  803.39   16.23
   2  -2   3  789.57   16.50
   2   2   3  810.02   16.90
  -2   2  -3  811.18   16.68
  -2   2  -3  829.30   17.14
   2   2   3  785.00   20.91
  -3  -2  -3   63.13    1.62
   3  -2   3   67.93    1.76
   3   2   3   64.57    1.66
  -3   2  -3   65.83    1.61
  -3   2  -3   66.31    1.80
   3   2   3   71.21    2.21
  -4  -2  -3  403.07    8.40
   4  -2   3  402.86    8.59
   4   2   3  396.61    8.45
  -4   2  -3  396.58    8.38
  -4   2  -3  402.18    8.91
   4   2   3  418.74   10.86
  -5  -2  -3  346.45    7.48
   5  -2   3  352.87    7.73
  -5   2  -3  350.24    7.94
   5   2   3  376.71    9.67
  -5   2  -3  348.78    7.48
   5   2   3  342.82    7.55
  -6  -2  -3  440.22    9.39
   6  -2   3  445.80    9.68
   6   2   3  444.23    9.48
  -6   2  -3  451.54    9.94
  -6   2  -3  443.40    9.39
   6   2   3  438.43   12.02
  -7  -2  -3  514.96   10.78
   7  -2   3  520.42   11.15
  -7   2  -3  497.15   11.34
   7   2   3  509.75   10.86
   7   2   3  486.52   13.71
  -7   2  -3  519.71   10.78
   8  -2   3  314.57    7.41
  -8  -2  -3  318.17    7.05
   8   2   3  319.28    7.13
  -8   2  -3  307.35    7.00
  -8   2  -3  310.71    7.40
  -9  -3   3   24.22    1.19
   9  -3  -3   25.49    1.49
  -9   3   3   24.98    1.25
  -9   3   3   23.47    1.43
   8  -3  -3   20.85    1.28
  -8  -3   3   19.78    0.98
  -8   3   3   20.97    1.23
  -8   3   3   19.86    1.05
  -7  -3   3  148.64    3.48
   7  -3  -3  144.74    3.84
  -7   3   3  146.62    3.89
  -7   3   3  149.52    3.57
   6  -3  -3   51.07    1.77
  -6  -3   3   59.04    1.51
   6   3  -3   51.91    1.32
  -6   3   3   52.02    1.79
  -6   3   3   51.17    1.58
  -6   3   3   51.00    1.94
  -5  -3   3   82.80    2.04
   5  -3  -3   87.05    2.34
   5   3  -3   88.40    1.82
   5   3  -3   85.47    1.84
  -5   3   3   85.74    2.76
  -5   3   3   85.32    2.16
  -5   3   3   88.64    2.43
   5   3  -3   85.95    2.43
  -4  -3   3  340.25    7.11
   4  -3  -3  339.57    7.39
  -4   3   3  348.11    7.76
  -4   3   3  342.77    7.24
   4   3  -3  359.97    9.08
  -4   3   3  345.52    9.35
   3  -3  -3 1542.83   31.65
  -3  -3   3 1554.49   31.59
  -3  -3   3 1565.02   31.71
  -3   3   3 1526.55   40.81
   3   3  -3 1585.50   40.68
  -3   3   3 1535.18   32.11
  -3   3   3 1598.98   33.85
  -2  -3   3 1696.15   33.51
   2  -3  -3 1661.25   34.66
  -2  -3   3 1663.87   33.53
   2   3  -3 1652.64   35.34
   2   3  -3 1672.02   44.08
  -2   3   3 1696.21   36.26
  -2   3   3 1684.11   44.10
  -2   3   3 1625.51   34.18
   1  -3  -3  451.90    9.62
   1   3  -3  467.03   10.09
   1   3  -3  473.72   12.37
  -1   3   3  486.07    9.56
  -1   3   3  481.85    9.55
  -1   3   3  467.87   12.49
  -1   3   3  469.71   10.13
   0  -3   3 2433.86   48.62
   0  -3  -3 2423.47   49.41
   0  -3   3 2445.77   48.80
   0  -3  -3 2375.27   49.35
   0   3   3 2435.39   48.98
   0   3   3 2357.75   63.99
   0   3   3 2567.45   51.73
   0   3  -3 2330.80   63.52
   0   3  -3 2392.71   51.95
   0   3   3 2444.97   49.14
   1  -3   3    1.69    0.20
  -1  -3  -3    1.41    0.19
   1  -3   3    1.71    0.19
  -1   3  -3    1.55    0.36
  -1   3  -3    1.58    0.28
   1   3   3    1.97    0.23
   1   3   3    2.11    0.20
  -2  -3  -3   71.26    1.72
   2  -3   3   72.29    1.81
   2   3   3   75.24    1.66
  -2   3  -3   73.42    1.97
  -2   3  -3   78.72    1.69
   2   3   3   70.70    2.40
  -2   3  -3   72.81    2.40
   2   3   3   74.15    1.69
  -2   3  -3   73.74    1.64
   3  -3   3  739.96   15.41
  -3  -3  -3  737.95   15.26
   3   3   3  745.87   15.22
  -3   3  -3  795.05   15.30
   3   3   3  752.27   19.72
  -3   3  -3  734.25   15.20
  -3   3  -3  760.27   16.20
   4  -3   3  200.88    4.57
  -4  -3  -3  201.94    4.37
  -4   3  -3  197.89    4.33
   4   3   3  192.47    5.72
  -4   3  -3  205.86    4.78
   4   3   3  199.48    4.34
  -5  -3  -3   27.25    1.00
   5  -3   3   27.86    1.18
  -5   3  -3   24.75    1.14
   5   3   3   27.54    1.38
   5   3   3   26.01    0.96
  -5   3  -3   28.00    0.97
   6  -3   3  173.85    4.26
  -6  -3  -3  170.18    3.95
   6   3   3  167.18    5.11
  -6   3  -3  170.76    3.92
  -6   3  -3  166.39    4.31
   6   3   3  170.84    3.94
   7  -3   3   20.76    1.26
  -7  -3  -3   20.43    1.03
   7   3   3   21.65    1.03
   7   3   3   20.70    1.35
  -7   3  -3   19.42    1.19
  -7   3  -3   20.86    1.00
  -8  -3  -3    1.93    0.49
  -8   3  -3    2.34    0.49
   8   3   3    2.71    0.53
  -8   3  -3    1.73    0.63
  -8  -4   3   11.29    0.81
   8  -4  -3   15.02    1.15
  -8   4   3   11.30    0.86
  -8   4   3   10.51    1.21
   7  -4  -3 1176.87   24.71
  -7  -4   3 1208.15   24.25
  -7   4   3 1182.84   25.82
  -7   4   3 1226.10   24.37
  -7   4   3 1175.70   31.17
   6  -4  -3  398.34    8.66
  -6  -4   3  401.16    8.24
  -6   4   3  395.42    8.36
  -6   4   3  382.64   10.76
  -6   4   3  384.89    9.00
  -5  -4   3    0.37    0.21
   5  -4  -3    0.30    0.33
   5   4  -3    0.64    0.31
  -5   4   3    0.48    0.43
  -5   4   3    0.02    0.26
  -5   4   3    0.04    0.40
  -4  -4   3  792.94   15.93
   4  -4  -3  780.84   16.29
   4   4  -3  791.10   20.53
  -4   4   3  792.01   20.83
  -4   4   3  820.42   17.15
  -4   4   3  768.57   16.07
  -3  -4   3    3.92    0.23
  -3  -4   3    2.76    0.23
   3  -4  -3    2.19    0.33
   3   4  -3    3.43    0.49
  -3   4   3    2.23    0.51
  -3   4   3    3.46    0.35
  -3   4   3    2.75    0.41
   2  -4  -3  320.98    6.99
  -2   4   3  324.98    6.85
  -2   4   3  340.08    9.17
   2   4  -3  342.87    7.24
  -2   4   3  334.12    7.42
   2   4  -3  338.22    8.98
   1  -4  -3  242.09    5.31
  -1   4   3  256.79    5.18
   1   4  -3  247.64    6.94
  -1   4   3  253.58    5.65
   1   4  -3  245.09    5.59
  -1   4   3  258.58    5.18
  -1   4   3  261.02    7.09
   0  -4   3  348.33    6.95
   0  -4  -3  334.35    7.12
   0  -4   3  345.49    6.98
   0   4  -3  337.28    7.60
   0   4   3  358.07    6.98
   0   4   3  348.33    9.45
   0   4   3  349.52    6.98
   0   4  -3  343.34    9.36
   0   4   3  343.26    7.52
   1  -4   3  297.00    6.22
  -1  -4  -3  297.26    6.22
   1  -4   3  295.72    6.14
  -1   4  -3  304.66    8.28
   1   4   3  302.78    6.06
   1   4   3  292.33    8.29
  -1   4  -3  296.00    6.72
   1   4   3  303.79    6.50
   1   4   3  310.93    6.06
  -2  -4  -3  704.02   14.72
   2  -4   3  707.45   14.82
   2   4   3  741.26   19.20
  -2   4  -3  737.47   19.19
   2   4   3  736.69   14.60
   2   4   3  738.92   14.61
  -2   4  -3  724.92   15.70
  -3  -4  -3    1.17    0.25
   3  -4   3    1.63    0.32
  -3   4  -3    1.63    0.20
   3   4   3    1.79    0.52
  -3   4  -3    0.94    0.50
  -3   4  -3    0.99    0.36
   3   4   3    1.55    0.18
   3   4   3    2.31    0.21
   4  -4   3  103.20    2.66
  -4  -4  -3  103.54    2.46
  -4   4  -3  104.00    2.84
   4   4   3  102.52    3.37
  -4   4  -3  101.18    2.36
   4   4   3  101.79    2.29
   5  -4   3  348.44    7.76
  -5  -4  -3  355.53    7.48
   5   4   3  348.95    7.31
   5   4   3  351.70    9.74
  -5   4  -3  351.99    8.12
  -5   4  -3  349.78    7.40
   6  -4   3  403.64    8.92
  -6  -4  -3  397.08    8.56
  -6   4  -3  408.92    8.51
  -6   4  -3  400.02    9.27
   6   4   3  396.81   11.08
   7  -4   3  187.65    4.75
  -7  -4  -3  185.31    4.36
   7   4   3  183.01    5.60
  -7   4  -3  177.74    4.81
  -7   4  -3  188.06    4.31
   8  -5  -3  178.98    4.78
  -8   5   3  183.83    4.36
  -8   5   3  184.81    4.98
   7  -5  -3  255.57    6.09
  -7   5   3  259.50    5.67
  -7   5   3  246.67    6.33
  -7   5   3  250.06    7.43
   6  -5  -3  426.18    9.36
  -6   5   3  419.06    9.79
  -6   5   3  426.61    8.97
  -6   5   3  427.56   11.80
   5  -5  -3   28.07    1.24
  -5   5   3   28.41    1.56
  -5   5   3   28.58    1.37
  -5   5   3   30.21    1.02
   5   5  -3   30.17    1.37
   4  -5  -3   19.06    0.93
  -4   5   3   19.44    0.74
   4   5  -3   20.48    1.06
  -4   5   3   19.21    1.07
  -4   5   3   18.20    1.31
  -3  -5   3 1159.01   22.83
   3  -5  -3 1134.43   23.12
  -3   5   3 1172.61   24.37
  -3   5   3 1092.84   29.77
   3   5  -3 1133.20   29.53
  -3   5   3 1132.02   23.18
   2  -5  -3   45.68    1.37
  -2   5   3   48.72    1.55
  -2   5   3   49.02    1.15
   2   5  -3   49.53    1.37
   2   5  -3   49.24    1.87
   1  -5  -3    8.09    0.50
   1   5  -3    8.24    0.57
  -1   5   3    8.77    0.61
   1   5  -3    8.16    0.85
  -1   5   3    8.11    0.94
   0  -5  -3  269.25    5.76
   0  -5   3  275.33    5.55
   0  -5   3  281.08    5.60
   0   5  -3  271.25    6.20
   0   5   3  280.53    6.11
   0   5  -3  273.13    7.70
   0   5   3  264.82    7.76
  -1  -5  -3  320.69    6.75
   1  -5   3  330.68    6.75
   1   5   3  327.16    7.09
   1   5   3  323.47    9.09
  -1   5  -3  320.07    7.33
  -1   5  -3  326.06    9.06
  -2  -5  -3   67.66    1.70
   2  -5   3   67.28    1.78
   2   5   3   73.18    2.62
  -2   5  -3   69.76    2.08
  -3  -5  -3   19.67    0.76
   3  -5   3   19.76    0.89
  -3   5  -3   20.18    1.10
   3   5   3   21.02    1.35
  -3   5  -3   19.82    1.36
   4  -5   3  325.91    7.14
  -4  -5  -3  324.08    6.89
   4   5   3  324.27    9.16
  -4   5  -3  322.48    6.71
  -4   5  -3  326.16    7.59
   5  -5   3   17.54    1.02
  -5  -5  -3   15.93    0.81
  -5   5  -3   15.12    1.15
   5   5   3   15.63    1.23
  -5   5  -3   15.47    0.68
   6  -5   3  547.82   11.75
  -6  -5  -3  545.74   11.35
  -6   5  -3  538.30   12.30
  -6   5  -3  562.98   11.28
   6   5   3  505.78   14.66
  -7  -5  -3    2.37    0.51
   7  -5   3    2.43    0.67
  -7   5  -3    2.51    0.74
   7  -6  -3  574.47   12.65
  -7   6   3  594.18   15.94
  -7   6   3  565.65   13.24
   6  -6  -3  178.83    4.50
  -6   6   3  179.26    5.69
  -6   6   3  174.34    4.76
   5  -6  -3   13.59    0.92
  -5   6   3   12.63    1.09
  -5   6   3   13.12    1.27
   4  -6  -3  439.14    9.48
  -4   6   3  440.40   12.33
  -4   6   3  436.55   10.05
   4   6  -3  449.04   11.99
   3  -6  -3    9.88    0.70
  -3   6   3   11.02    0.87
  -3   6   3    9.99    1.15
   3   6  -3   10.34    0.96
   2  -6  -3  125.71    3.01
   2   6  -3  125.50    4.02
  -2   6   3  124.67    3.27
   2   6  -3  129.54    3.07
  -2   6   3  126.57    4.23
   1  -6  -3  159.01    3.56
  -1   6   3  152.76    4.97
   1   6  -3  156.46    4.85
   1   6  -3  158.00    3.79
  -1   6   3  156.77    3.83
   0  -6  -3   27.28    0.91
   0   6  -3   26.46    1.11
   0   6   3   26.38    1.01
   0   6  -3   23.77    1.48
   0   6   3   25.64    1.57
  -1  -6  -3   89.09    2.12
  -1   6  -3   86.51    3.17
  -1   6  -3   89.46    2.49
   1   6   3   87.17    3.20
  -2  -6  -3  490.79   10.25
   2  -6   3  500.31   10.36
   2   6   3  494.17   13.67
  -2   6  -3  508.66   11.15
  -2   6  -3  494.85   13.69
   3  -6   3    2.58    0.43
  -3  -6  -3    2.92    0.37
  -3   6  -3    2.44    0.74
  -3   6  -3    2.27    0.57
   3   6   3    3.52    0.76
   4  -6   3    7.37    0.74
  -4   6  -3    7.90    1.17
   4   6   3    8.11    1.05
  -4   6  -3    8.09    0.89
   5  -6   3  305.87    6.84
   5   6   3  290.86    8.64
  -5   6  -3  298.67    7.28
   6  -6   3  286.99    6.64
   6   6   3  277.39    8.24
  -6   6  -3  278.21    7.01
   5  -7  -3   16.41    1.09
  -5   7   3   17.36    1.57
  -5   7   3   16.70    1.33
   4  -7  -3   44.38    1.58
  -4   7   3   41.41    1.78
  -4   7   3   41.88    2.27
   4   7  -3   43.48    1.96
   3  -7  -3  384.98    8.11
  -3   7   3  366.72   10.73
   3   7  -3  373.83   10.45
  -3   7   3  365.36    8.63
   2   7  -3  228.26    6.84
  -2   7   3  229.33    5.55
  -2   7   3  231.21    7.08
   1   7  -3   50.78    1.66
  -1   7   3   51.90    1.74
   1   7  -3   51.91    2.30
  -1   7   3   51.18    2.44
   0   7   3  219.50    5.08
   0   7  -3  213.92    6.58
   0   7   3  214.51    6.69
   0   7  -3  214.96    5.19
   1   7   3    1.94    0.77
  -1   7  -3    0.64    0.47
  -1   7  -3    0.00    0.64
   2   7   3   19.72    1.53
  -2   7  -3   21.40    1.21
  -2   7  -3   21.80    1.63
  -3   7  -3  100.58    3.71
   3   7   3   92.71    3.57
  -3   7  -3   95.67    2.96
  -4   7  -3   59.07    2.24
   4   7   3   60.24    2.66
  -4   7  -3   60.38    2.79
   3   8  -3   50.14    2.35
  -3   8   3   51.87    2.66
  -3   8   3   47.06    1.92
   2   8  -3    2.95    0.83
  -2   8   3    2.81    0.65
  -2   8   3    3.95    1.01
  -1   8   3    0.18    0.81
   1   8  -3    0.22    0.72
  -1   8   3    0.55    0.48
   0   8   3  182.00    6.06
   0   8  -3  184.62    5.99
   0   8  -3  185.54    4.63
  -1   8  -3   45.50    1.74
  -1   8  -3   43.02    2.36
   1   8   3   40.69    2.35
  -2   8  -3   18.24    1.24
   2   8   3   19.09    1.68
  -2   8  -3   21.17    1.77
   9   0  -4  179.26    4.53
  -9   0   4  178.04    4.35
  -9   0   4  181.23    4.44
  -8   0   4  692.93   14.12
   8   0  -4  668.80   14.26
  -8   0   4  661.70   14.66
   7   0  -4    7.10    0.74
  -7   0   4    8.82    0.67
  -7   0   4   11.19    0.75
  -6   0   4  104.56    2.65
  -6   0   4  105.60    2.58
   6   0  -4  104.68    2.70
   5   0  -4  134.79    3.19
  -5   0   4  135.40    3.09
  -4   0   4  832.90   16.77
   4   0  -4  822.74   16.85
  -3   0   4  344.62    7.23
  -3   0   4  364.93    9.03
   3   0  -4  343.00    7.28
  -2   0   4   69.40    1.94
  -2   0   4   67.95    1.60
  -2   0   4   69.00    1.62
   2   0  -4   66.56    1.62
   2   0  -4   69.16    1.66
   1   0  -4  182.63    3.84
  -1   0   4  174.71    3.83
  -1   0   4  182.99    3.83
   1   0  -4  184.99    3.85
   0   0  -4   -0.25    0.11
   0   0  -4   -0.15    0.16
   0   0   4   -0.47    0.12
   0   0  -4   -0.40    0.12
  -1   0  -4 3553.65   73.65
  -1   0  -4 3316.57   70.09
   1   0   4 3514.48   70.87
   2   0   4   72.77    1.83
  -2   0  -4   73.84    1.80
   3   0   4  786.15   16.16
  -3   0  -4  791.13   16.76
  -3   0  -4  792.32   16.03
   4   0   4 1116.49   22.70
  -4   0  -4 1140.57   23.57
  -4   0  -4 1083.84   22.52
   5   0   4    1.63    0.43
  -5   0  -4    1.71    0.32
  -5   0  -4    1.46    0.33
  -6   0  -4 1485.35   29.64
   6   0   4 1464.04   29.88
  -6   0  -4 1437.84   30.94
  -7   0  -4    4.12    0.51
  -7   0  -4    3.45    0.50
   8   0   4  191.34    4.91
  -8   0  -4  198.41    4.69
  -9  -1   4   84.32    2.47
   9  -1  -4   87.65    2.74
  -9   1   4   88.11    2.53
  -9   1   4   89.37    2.61
  -8  -1   4   43.20    1.43
  -8  -1   4   41.83    1.46
   8  -1  -4   41.11    1.65
  -8   1   4   42.02    1.54
  -8   1   4   41.66    1.49
   8   1  -4   42.67    1.55
  -7  -1   4  573.54   12.03
   7  -1  -4  553.50   11.84
  -7  -1   4  544.86   11.57
   7   1  -4  550.21   11.68
  -7   1   4  558.54   11.63
  -7   1   4  546.55   12.19
  -6  -1   4  837.54   17.34
   6  -1  -4  797.00   16.83
  -6  -1   4  821.58   16.62
   6   1  -4  800.82   16.69
  -6   1   4  805.41   16.65
  -6   1   4  813.96   17.48
   5  -1  -4  285.06    6.11
  -5  -1   4  280.26    5.90
  -5   1   4  286.19    7.33
  -5   1   4  262.57    6.24
  -5   1   4  280.55    5.96
   5   1  -4  274.63    5.97
   4  -1  -4  580.24   12.03
  -4  -1   4  589.02   11.87
  -4   1   4  581.98   11.92
  -4   1   4  589.93   15.06
   4   1  -4  570.73   11.91
  -3  -1   4 1268.52   25.67
  -3  -1   4 1238.26   26.27
   3  -1  -4 1230.38   26.61
   3   1  -4 1309.32   26.20
   3   1  -4 1263.39   26.40
  -3   1   4 1296.32   33.11
  -2  -1   4  152.02    3.33
   2  -1  -4  152.43    3.43
  -2  -1   4  155.78    3.35
   2   1  -4  157.69    3.34
  -2   1   4  161.88    4.30
   2   1  -4  157.88    3.32
   1  -1  -4 2442.35   52.12
  -1  -1   4 2546.33   51.75
  -1  -1   4 2524.22   51.89
   1   1  -4 2505.81   54.44
  -1   1   4 2574.84   52.31
  -1   1   4 2721.51   67.00
   1   1  -4 2533.16   51.80
   1   1  -4 2601.26   51.77
   0  -1   4  119.82    2.57
   0  -1  -4  115.15    2.62
   0  -1   4  114.69    2.62
   0   1  -4  119.97    2.77
   0   1  -4  120.23    2.56
   0   1   4  120.67    3.41
   0   1  -4  122.87    2.61
   1  -1   4   33.00    0.99
  -1  -1  -4   32.82    0.94
   1  -1   4   34.05    0.92
  -1   1  -4   34.86    0.97
  -1   1  -4   32.21    0.90
  -1   1  -4   34.23    1.02
   1   1   4   35.22    1.31
   1   1   4   32.31    0.98
  -2  -1  -4 3075.39   62.81
  -2  -1  -4 2873.95   60.15
   2  -1   4 2867.34   60.64
  -2   1  -4 2950.12   60.22
  -2   1  -4 2975.46   60.30
   2   1   4 2939.09   60.84
  -2   1  -4 2965.40   63.30
  -3  -1  -4   50.44    1.26
  -3  -1  -4   47.41    1.30
   3  -1   4   47.89    1.42
  -3   1  -4   49.52    1.29
   3   1   4   46.69    1.37
  -3   1  -4   49.26    1.38
   4  -1   4  140.73    3.38
  -4  -1  -4  143.02    3.19
  -4  -1  -4  141.37    3.20
  -4   1  -4  140.68    3.19
  -4   1  -4  138.21    3.35
   4   1   4  133.40    3.29
  -5  -1  -4   53.41    1.54
   5  -1   4   52.29    1.72
  -5  -1  -4   52.02    1.43
  -5   1  -4   51.33    1.52
   5   1   4   54.13    1.66
  -5   1  -4   52.71    1.59
  -6  -1  -4   11.97    0.76
  -6  -1  -4   11.16    0.62
   6  -1   4   11.13    0.90
  -6   1  -4   11.24    0.78
  -6   1  -4   10.76    0.76
   6   1   4   12.19    0.86
   7  -1   4   40.76    1.67
  -7  -1  -4   39.80    1.44
   7   1   4   41.83    1.60
   7   1   4   36.92    1.83
  -7   1  -4   38.61    1.44
  -7   1  -4   39.72    1.43
   8  -1   4   24.21    1.42
  -8  -1  -4   25.64    1.25
   8   1   4   23.07    1.56
  -8   1  -4   24.26    1.23
   8   1   4   26.40    1.37
  -8   1  -4   24.70    1.20
  -9  -2   4   50.67    1.75
   9  -2  -4   50.40    2.03
  -9   2   4   52.99    1.93
  -9   2   4   51.83    1.84
   8  -2  -4  108.71    3.16
  -8  -2   4  112.13    2.87
   8   2  -4  113.07    2.87
  -8   2   4  109.51    3.12
  -8   2   4  112.86    2.93
   7  -2  -4   39.95    1.56
  -7  -2   4   35.57    1.29
   7   2  -4   37.05    1.30
  -7   2   4   39.24    1.38
  -7   2   4   40.10    1.51
  -6  -2   4   52.05    1.43
  -6  -2   4   51.70    1.49
   6  -2  -4   53.10    1.74
  -6   2   4   54.74    1.80
  -6   2   4   54.99    1.73
  -6   2   4   52.92    1.57
   6   2  -4   51.41    1.49
   5  -2  -4  612.65   12.79
  -5  -2   4  587.42   12.51
  -5   2   4  614.22   12.63
  -5   2   4  612.93   16.00
  -5   2   4  637.17   13.35
   4  -2  -4 1674.55   35.05
  -4  -2   4 1678.15   35.02
  -4   2   4 1695.11   44.74
   4   2  -4 1736.55   34.74
   4   2  -4 1707.63   34.49
  -4   2   4 1666.13   35.35
  -4   2   4 1736.62   36.99
  -3  -2   4   67.83    1.56
   3  -2  -4   68.50    1.76
  -3  -2   4   70.04    1.61
   3   2  -4   68.24    1.48
  -3   2   4   69.48    2.14
  -3   2   4   67.94    1.68
   2  -2  -4  211.45    4.71
  -2  -2   4  224.25    4.57
  -2  -2   4  220.67    4.56
  -2   2   4  221.41    6.03
  -2   2   4  230.91    4.76
  -2   2   4  214.67    4.67
  -1  -2   4 1201.83   24.90
  -1  -2   4 1225.12   24.82
   1  -2  -4 1217.54   25.44
  -1   2   4 1226.57   25.43
  -1   2   4 1196.45   31.65
   1   2  -4 1239.16   26.41
   0  -2   4   -0.02    0.11
   0  -2  -4   -0.18    0.17
   0  -2  -4   -0.07    0.15
   0   2  -4   -0.06    0.09
   0   2   4    0.48    0.34
   0   2   4   -0.26    0.15
   0   2  -4    0.03    0.09
   0   2  -4    0.04    0.21
   1  -2   4  107.24    2.34
  -1  -2  -4  104.16    2.39
   1  -2   4  104.96    2.42
  -1   2  -4  109.52    2.36
   1   2   4  102.46    2.40
  -1   2  -4  105.79    2.30
   1   2   4  109.22    3.21
  -2  -2  -4  243.43    5.26
   2   2   4  249.08    5.31
  -2   2  -4  249.26    5.21
   2   2   4  258.36    6.90
  -3  -2  -4  141.76    3.22
   3   2   4  137.58    3.25
   3   2   4  150.99    4.27
  -3   2  -4  147.93    3.48
  -3   2  -4  142.39    3.17
  -4  -2  -4  117.04    2.76
   4   2   4  118.63    2.82
   4   2   4  111.49    3.61
  -4   2  -4  115.65    2.72
  -4   2  -4  122.25    2.99
  -5  -2  -4   18.84    0.83
   5  -2   4   15.72    0.96
   5   2   4   15.49    0.84
  -5   2  -4   16.67    0.78
   5   2   4   18.01    1.14
  -5   2  -4   16.32    0.90
   6  -2   4  396.34    8.72
  -6  -2  -4  399.69    8.43
  -6   2  -4  392.52    8.39
   6   2   4  383.78   10.82
  -6   2  -4  391.95    8.89
   6   2   4  392.58    8.51
   7  -2   4   36.05    1.59
  -7  -2  -4   34.51    1.34
   7   2   4   32.83    1.72
  -7   2  -4   34.67    1.33
  -7   2  -4   34.03    1.45
   7   2   4   34.70    1.42
   8  -2   4    3.37    0.71
  -8  -2  -4    3.03    0.55
   8   2   4    3.20    0.74
  -8   2  -4    3.49    0.57
  -8   2  -4    2.35    0.60
   8   2   4    3.37    0.59
  -9  -3   4  275.13    6.26
   9  -3  -4  278.13    6.73
  -9   3   4  278.14    6.36
  -9   3   4  274.16    6.78
   8  -3  -4   12.27    1.02
  -8  -3   4   11.92    0.81
  -8   3   4   12.26    0.87
  -8   3   4   10.33    1.01
  -7  -3   4 1043.36   21.68
   7  -3  -4 1078.52   22.13
  -7   3   4 1045.89   27.70
  -7   3   4 1073.59   23.05
  -7   3   4 1085.22   21.82
   6  -3  -4  379.33    8.34
  -6  -3   4  385.72    7.98
  -6   3   4  382.66    8.10
   6   3  -4  380.65    7.76
  -6   3   4  374.67    8.65
  -6   3   4  372.96   10.25
  -5  -3   4    0.89    0.22
   5  -3  -4    0.83    0.34
  -5   3   4    1.19    0.31
  -5   3   4    1.01    0.39
  -5   3   4    0.63    0.39
  -4  -3   4  681.47   13.55
   4  -3  -4  669.75   13.86
  -4   3   4  657.49   13.69
  -4   3   4  667.18   14.51
   4   3  -4  668.88   17.26
  -4   3   4  673.05   17.59
   3  -3  -4  104.14    2.55
  -3  -3   4  105.71    2.28
  -3  -3   4  106.63    2.32
  -3   3   4  106.37    2.69
  -3   3   4  108.68    3.25
   3   3  -4  106.99    2.99
  -3   3   4  103.73    2.43
  -2  -3   4  588.50   12.03
   2  -3  -4  583.24   12.21
  -2  -3   4  592.25   11.99
   2   3  -4  596.09   15.52
   2   3  -4  592.17   12.71
  -2   3   4  597.09   12.14
  -2   3   4  612.57   12.85
  -2   3   4  607.38   15.72
   1  -3  -4  371.16    7.21
  -1  -3   4  338.47    6.98
  -1  -3   4  344.04    7.00
  -1   3   4  364.37    9.40
  -1   3   4  340.62    7.13
   1   3  -4  333.06    7.53
   1   3  -4  333.26    9.20
   0  -3   4 1172.22   24.14
   0  -3  -4 1148.85   24.24
   0  -3   4 1205.40   24.00
   0   3   4 1202.19   24.52
   0   3  -4 1154.27   30.69
   0   3  -4 1173.89   25.02
   0   3   4 1227.73   31.70
  -1  -3  -4   -0.37    0.17
   1  -3   4   -0.35    0.15
   1  -3   4   -0.37    0.12
   1   3   4   -0.42    0.15
  -1   3  -4   -0.53    0.31
  -1   3  -4   -0.26    0.24
   1   3   4   -0.39    0.33
  -2  -3  -4  555.45   11.75
   2  -3   4  561.06   11.84
  -2   3  -4  607.69   11.70
  -2   3  -4  574.79   12.50
  -2   3  -4  570.82   11.63
   2   3   4  596.71   15.30
   2   3   4  567.53   11.73
  -3  -3  -4  286.27    6.05
   3  -3   4  282.75    6.19
   3   3   4  288.65    6.03
   3   3   4  274.45    7.92
  -3   3  -4  284.74    5.96
  -3   3  -4  296.61    6.53
   4  -3   4   31.14    1.21
  -4  -3  -4   33.36    1.08
  -4   3  -4   32.11    1.01
  -4   3  -4   33.59    1.29
   4   3   4   33.81    1.55
   4   3   4   32.45    1.06
   5  -3   4   20.57    1.05
  -5  -3  -4   21.16    0.91
  -5   3  -4   21.14    1.10
   5   3   4   19.61    1.25
   5   3   4   20.54    0.88
  -5   3  -4   20.87    0.86
  -6  -3  -4   25.65    1.08
   6   3   4   27.31    1.10
  -6   3  -4   24.06    1.27
   6   3   4   25.62    1.48
  -6   3  -4   26.70    1.06
  -7  -3  -4   11.55    0.88
   7  -3   4   12.73    1.06
  -7   3  -4   12.37    1.03
   7   3   4   10.85    0.86
   7   3   4   12.03    1.15
  -7   3  -4   11.36    0.82
  -8  -3  -4    0.13    0.42
   8  -3   4   -0.40    0.51
   8   3   4    0.16    0.43
  -8   3  -4   -0.25    0.47
   8  -4  -4  242.05    5.97
  -8  -4   4  244.81    5.47
  -8   4   4  248.57    5.61
  -8   4   4  237.98    6.10
   7  -4  -4   20.99    1.23
  -7  -4   4   19.24    0.92
  -7   4   4   20.04    1.26
  -7   4   4   21.99    1.03
  -7   4   4   19.07    1.26
  -6  -4   4    1.03    0.29
   6  -4  -4    0.94    0.46
  -6   4   4    1.02    0.37
  -6   4   4    1.02    0.50
  -6   4   4    1.39    0.50
  -5  -4   4  154.41    3.40
   5  -4  -4  146.07    3.74
  -5   4   4  150.90    3.55
  -5   4   4  149.72    3.94
  -5   4   4  172.91    4.75
   4  -4  -4  574.61   12.00
  -4  -4   4  580.52   11.61
   4   4  -4  577.89   14.98
  -4   4   4  580.31   12.61
  -4   4   4  555.70   15.30
  -4   4   4  571.65   11.79
   3  -4  -4    9.94    0.61
  -3  -4   4    8.54    0.36
  -3  -4   4    9.51    0.34
  -3   4   4    8.84    0.50
   3   4  -4    9.70    0.65
  -3   4   4    9.37    0.69
  -3   4   4    8.04    0.82
   2  -4  -4   31.11    1.02
   2   4  -4   33.62    1.01
   2   4  -4   32.15    1.28
  -2   4   4   31.66    0.91
  -2   4   4   33.27    1.49
  -2   4   4   30.66    0.90
  -2   4   4   31.82    1.12
   1  -4  -4   86.31    2.11
  -1   4   4   89.27    2.00
   1   4  -4   92.07    2.81
  -1   4   4   90.25    2.27
   1   4  -4   88.37    2.23
  -1   4   4   87.05    2.92
   0  -4   4    5.20    0.29
   0  -4   4    5.43    0.25
   0  -4  -4    5.44    0.40
   0   4   4    5.02    0.43
   0   4  -4    5.16    0.65
   0   4  -4    5.75    0.49
   0   4   4    5.16    0.31
   0   4   4    5.50    0.76
   0   4   4    5.50    0.31
   1  -4   4  229.64    4.94
  -1  -4  -4  230.82    4.96
   1   4   4  237.47    6.68
   1   4   4  240.21    4.84
  -1   4  -4  229.89    6.58
   1   4   4  238.15    4.83
  -1   4  -4  226.52    5.37
   1   4   4  236.71    5.15
   2  -4   4   31.42    1.03
  -2  -4  -4   32.93    0.99
   2   4   4   31.92    0.90
  -2   4  -4   32.92    1.51
   2   4   4   34.26    1.57
   2   4   4   32.53    0.88
   2   4   4   33.03    0.86
  -2   4  -4   33.04    1.23
  -3  -4  -4  169.16    3.80
   3  -4   4  172.50    3.95
  -3   4  -4  172.49    4.24
  -3   4  -4  170.14    3.64
   3   4   4  168.92    3.67
   3   4   4  176.50    5.17
  -4  -4  -4  194.91    4.29
   4  -4   4  193.77    4.50
   4   4   4  187.82    4.14
   4   4   4  190.56    5.73
  -4   4  -4  191.25    4.16
  -4   4  -4  195.63    4.76
   5  -4   4    4.71    0.61
  -5  -4  -4    3.39    0.45
  -5   4  -4    3.17    0.39
  -5   4  -4    4.29    0.67
   5   4   4    3.99    0.46
   5   4   4    4.40    0.74
   6  -4   4  600.19   12.78
  -6  -4  -4  606.19   12.45
   6   4   4  576.95   16.04
  -6   4  -4  582.84   13.30
  -6   4  -4  600.64   12.33
  -7  -4  -4   16.78    1.02
   7   4   4   19.29    1.38
  -7   4  -4   19.20    0.97
  -7   4  -4   19.11    1.30
   8  -5  -4   34.78    1.72
  -8   5   4   35.08    1.85
  -8   5   4   35.69    1.41
  -8   5   4   33.90    1.81
   7  -5  -4  143.89    3.84
  -7   5   4  142.01    4.58
  -7   5   4  132.42    3.93
  -7   5   4  144.10    3.45
   6  -5  -4  333.34    7.46
  -6   5   4  340.16    7.11
  -6   5   4  316.26    9.29
  -6   5   4  325.28    7.81
   5  -5  -4  200.92    4.72
  -5   5   4  196.97    5.95
  -5   5   4  193.96    4.97
  -5   5   4  201.74    4.42
   4  -5  -4   59.72    1.80
  -4   5   4   55.49    2.35
  -4   5   4   58.64    1.94
  -4   5   4   59.24    1.56
   4   5  -4   60.12    2.06
   3  -5  -4  486.21   10.36
  -3   5   4  484.06   10.10
   3   5  -4  515.53   10.63
   3   5  -4  491.72   13.15
  -3   5   4  484.01   13.42
  -3   5   4  498.98   10.97
   2  -5  -4    0.11    0.24
  -2   5   4    0.46    0.34
  -2   5   4    0.36    0.50
   2   5  -4    0.20    0.28
   2   5  -4    0.13    0.37
  -2   5   4    0.27    0.18
   1  -5  -4  396.42    8.33
   1   5  -4  407.81    8.79
  -1   5   4  400.87   11.02
   1   5  -4  388.84   10.82
  -1   5   4  404.10    8.09
  -1   5   4  393.75    8.80
   0  -5  -4    1.33    0.27
   0  -5   4    0.60    0.14
   0  -5   4    1.02    0.18
   0   5   4    0.76    0.13
   0   5  -4    0.44    0.45
   0   5   4    0.87    0.13
   0   5  -4    0.61    0.33
   0   5   4    0.59    0.50
   0   5   4    1.73    0.34
   1  -5   4   12.12    0.55
  -1  -5  -4   12.84    0.60
  -1   5  -4   12.51    0.80
   1   5   4   12.66    1.11
   1   5   4   12.48    0.60
  -1   5  -4   12.54    1.06
  -2  -5  -4  828.98   16.95
   2  -5   4  844.70   17.04
  -2   5  -4  842.08   18.09
  -2   5  -4  841.96   22.11
   2   5   4  815.48   22.13
  -3  -5  -4    1.20    0.30
   3  -5   4    0.71    0.31
  -3   5  -4    0.82    0.47
   3   5   4    0.70    0.55
  -4  -5  -4  113.95    2.73
   4  -5   4  115.67    2.95
  -4   5  -4  112.54    3.19
   4   5   4  107.67    3.78
   5  -5   4   88.49    2.56
  -5  -5  -4   88.81    2.31
   5   5   4   83.00    3.17
  -5   5  -4   88.70    2.76
   6  -5   4   26.72    1.40
  -6  -5  -4   25.58    1.14
   6   5   4   27.14    1.65
  -6   5  -4   27.79    1.55
   7  -6  -4   21.72    1.41
  -7   6   4   21.80    1.56
  -7   6   4   25.20    1.76
   6  -6  -4   19.77    1.21
  -6   6   4   20.01    1.55
  -6   6   4   19.10    1.35
   5  -6  -4   50.87    1.77
  -5   6   4   47.94    1.91
  -5   6   4   51.14    2.32
   4  -6  -4  171.90    4.11
   4   6  -4  171.70    5.05
  -4   6   4  167.61    4.39
  -4   6   4  168.35    5.39
   3  -6  -4   20.18    0.96
  -3   6   4   20.46    1.11
  -3   6   4   19.47    1.45
   3   6  -4   20.06    1.23
   2  -6  -4    1.65    0.35
  -2   6   4    1.52    0.45
   2   6  -4    1.55    0.40
   2   6  -4    0.83    0.51
  -2   6   4    1.03    0.64
   1  -6  -4    0.19    0.25
   1   6  -4    0.55    0.49
   1   6  -4    0.11    0.37
  -1   6   4    0.14    0.34
  -1   6   4    0.02    0.55
   0  -6  -4    1.52    0.32
   0   6   4    1.04    0.64
   0   6  -4    1.63    0.62
   0   6   4    1.35    0.37
   0   6  -4    1.29    0.41
  -1  -6  -4  251.77    5.36
   1   6   4  246.86    7.35
  -1   6  -4  250.06    7.30
  -1   6  -4  244.00    5.88
  -2  -6  -4   -0.01    0.26
  -2   6  -4    0.00    0.45
  -2   6  -4    0.25    0.61
   2   6   4   -0.01    0.54
   3  -6   4  176.45    4.17
  -3  -6  -4  178.26    4.02
   3   6   4  184.15    5.66
  -3   6  -4  183.53    5.67
  -3   6  -4  173.14    4.59
   4  -6   4  211.74    4.91
  -4  -6  -4  215.70    4.74
  -4   6  -4  205.13    5.29
   4   6   4  197.92    6.37
   5  -6   4    3.18    0.60
  -5   6  -4    2.21    0.71
   5   6   4    2.80    0.82
   5  -7  -4   -0.33    0.40
  -5   7   4    0.17    0.69
  -5   7   4   -0.12    0.59
   4  -7  -4  147.08    3.65
  -4   7   4  137.28    4.87
   4   7  -4  142.16    4.49
  -4   7   4  140.20    3.91
   3  -7  -4   72.46    2.11
   3   7  -4   70.75    2.73
  -3   7   4   71.02    2.33
  -3   7   4   71.92    3.05
   2  -7  -4  103.11    2.65
   2   7  -4   99.47    3.53
  -2   7   4  102.99    3.82
  -2   7   4  102.29    2.88
   1   7  -4   79.67    3.06
   1   7  -4   84.30    2.35
  -1   7   4   78.20    3.24
  -1   7   4   82.45    2.37
   0   7   4   76.59    3.18
   0   7  -4   81.12    2.38
   0   7  -4   77.23    3.07
   0   7   4   83.22    2.26
  -1   7  -4    0.95    0.69
  -1   7  -4    0.42    0.47
   1   7   4    0.97    0.67
  -2   7  -4  142.90    4.85
  -2   7  -4  145.32    3.89
   2   7   4  142.37    4.86
  -3   7  -4   38.33    2.16
  -3   7  -4   34.45    1.70
   3   7   4   36.48    2.08
   4   7   4   12.14    1.41
  -4   7  -4   11.34    1.17
  -3   8   4   28.80    2.05
  -3   8   4   26.52    1.44
   3   8  -4   27.04    1.73
   2   8  -4   38.24    2.07
  -2   8   4   37.00    1.61
  -2   8   4   37.00    2.28
   1   8  -4  121.46    4.33
  -1   8   4  122.77    3.33
  -1   8   4  124.37    4.55
   0   8  -4   -0.80    0.69
   0   8   4    1.15    0.85
   0   8  -4   -0.05    0.52
  -1   8  -4   -0.12    0.76
   1   8   4    0.53    0.78
  -1   8  -4    0.69    0.54
  -2   8  -4   28.16    1.54
   2   8   4   28.28    2.03
  -2   8  -4   29.94    2.05
  -9   0   5   -0.19    0.38
   9   0  -5    0.15    0.43
  -9   0   5    0.44    0.42
  -8   0   5  197.37    4.76
  -8   0   5  194.67    4.61
   8   0  -5  200.44    4.78
  -7   0   5   18.87    0.92
  -7   0   5   17.87    0.92
   7   0  -5   18.58    0.98
  -6   0   5   16.88    0.80
   6   0  -5   17.78    0.90
  -6   0   5   17.21    0.83
   5   0  -5    2.35    0.36
  -5   0   5    2.04    0.31
  -4   0   5    0.41    0.12
   4   0  -5    0.18    0.21
  -4   0   5    0.17    0.21
  -3   0   5   95.77    2.54
  -3   0   5   89.49    2.13
   3   0  -5   90.31    2.18
  -2   0   5   86.57    2.06
   2   0  -5   88.51    2.08
  -2   0   5   88.19    2.53
  -1   0   5  489.97    9.72
  -1   0   5  475.36    9.73
   1   0  -5  465.81    9.72
   0   0   5   10.31    0.44
   0   0   5    9.04    0.45
   0   0  -5    8.55    0.40
  -1   0  -5  186.77    4.16
  -1   0  -5  182.34    3.95
  -2   0  -5  406.31    8.65
  -2   0  -5  390.39    8.25
   2   0   5  403.46    8.38
  -3   0  -5  304.90    6.42
   3   0   5  299.03    6.55
  -3   0  -5  306.82    6.68
  -4   0  -5  132.04    3.09
   4   0   5  132.41    3.25
  -4   0  -5  133.03    3.16
   5   0   5   65.95    1.97
  -5   0  -5   61.24    1.76
  -5   0  -5   61.46    1.76
  -6   0  -5  399.18    8.89
  -6   0  -5  400.25    8.61
   6   0   5  404.41    8.85
   7   0   5   96.47    2.85
  -7   0  -5   96.63    2.64
  -7   0  -5   95.69    2.59
  -8   0  -5   50.96    1.82
   8   0   5   50.68    2.01
  -9  -1   5   97.24    2.72
   9  -1  -5   98.84    2.96
  -9   1   5  100.38    2.87
   9   1  -5   99.06    2.80
  -9   1   5   97.17    2.75
   8  -1  -5   10.13    0.94
  -8  -1   5   11.24    0.74
  -8  -1   5   10.95    0.81
  -8   1   5   11.47    0.88
  -8   1   5   11.86    0.85
   8   1  -5   11.08    0.85
  -7  -1   5   63.69    1.85
   7  -1  -5   66.24    2.07
  -7  -1   5   61.51    1.83
  -7   1   5   70.72    1.94
  -7   1   5   62.79    1.98
   7   1  -5   65.36    1.91
   6  -1  -5  500.88   10.60
  -6  -1   5  497.86   10.36
  -6   1   5  493.64   10.94
  -6   1   5  496.55   10.41
   6   1  -5  498.81   10.44
   5  -1  -5   14.14    0.75
  -5  -1   5   12.98    0.63
  -5   1   5   14.52    0.62
  -5   1   5   14.33    0.70
   4  -1  -5 2907.39   61.52
  -4  -1   5 2958.62   61.32
  -4   1   5 3118.03   77.51
   4   1  -5 3047.97   60.91
   4   1  -5 2935.70   61.14
  -4   1   5 2953.31   61.43
  -3  -1   5  415.97   10.86
  -3  -1   5  415.25    8.63
   3  -1  -5  423.84    8.77
   3   1  -5  411.22    8.65
  -3   1   5  422.36    8.71
  -3   1   5  440.53   11.02
  -2  -1   5  133.44    3.02
   2  -1  -5  125.24    3.09
  -2  -1   5  139.60    3.04
  -2   1   5  140.56    3.90
   2   1  -5  139.78    3.02
  -2   1   5  134.73    3.08
   2   1  -5  141.46    3.02
  -1  -1   5 1046.38   22.83
  -1  -1   5 1122.89   22.64
   1   1  -5 1086.47   22.55
   1   1  -5 1104.49   23.78
  -1   1   5 1154.99   29.22
  -1   1   5 1036.68   22.80
   1   1  -5 1105.69   22.46
  -1   1   5 1116.44   22.72
   0  -1   5 2422.12   52.23
   0  -1  -5 2537.19   52.47
   0  -1   5 2647.97   52.08
   0   1   5 2557.12   66.98
   0   1   5 2721.20   52.52
   0   1  -5 2610.65   52.11
   0   1   5 2376.67   52.34
   0   1  -5 2572.08   51.98
  -1  -1  -5  238.43    5.12
   1  -1   5  243.52    5.20
  -1   1  -5  246.99    5.41
   1   1   5  233.21    5.18
  -1   1  -5  238.16    5.08
   1   1   5  254.95    6.69
  -2  -1  -5  805.56   16.34
   2  -1   5  794.91   16.45
  -2  -1  -5  821.13   17.07
  -2   1  -5  806.88   16.44
   2   1   5  799.81   16.43
  -2   1  -5  809.11   17.17
  -3  -1  -5  222.33    4.89
   3  -1   5  222.72    4.93
  -3  -1  -5  221.94    4.78
  -3   1  -5  225.93    5.03
   3   1   5  210.68    4.87
  -3   1  -5  221.18    4.75
   4  -1   5  154.86    3.69
  -4  -1  -5  153.59    3.52
  -4  -1  -5  155.23    3.51
   4   1   5  150.32    3.62
  -4   1  -5  149.93    3.66
  -4   1  -5  154.47    3.49
  -5  -1  -5  178.37    4.08
   5  -1   5  181.28    4.32
  -5  -1  -5  180.15    4.10
  -5   1  -5  173.29    4.24
   5   1   5  177.28    4.23
  -5   1  -5  177.56    4.07
  -6  -1  -5  256.60    5.60
  -6  -1  -5  248.58    5.59
   6  -1   5  244.68    5.83
  -6   1  -5  250.53    5.57
  -6   1  -5  241.94    5.78
   6   1   5  248.16    5.75
   7  -1   5    7.01    0.83
  -7  -1  -5    7.14    0.77
  -7   1  -5    6.33    0.73
   7   1   5    7.20    1.07
   7   1   5    5.58    0.69
  -7   1  -5    7.40    0.75
  -8  -1  -5   -0.07    0.43
  -8   1  -5    0.55    0.45
   8   1   5    0.56    0.66
   8   1   5    0.04    0.49
  -8   1  -5    0.38    0.43
  -9  -2   5  162.59    4.01
   9  -2  -5  163.30    4.36
  -9   2   5  162.81    4.33
  -9   2   5  164.92    4.10
   8  -2  -5   95.52    2.80
  -8  -2   5   92.15    2.47
   8   2  -5   92.11    2.46
  -8   2   5   87.74    2.72
  -8   2   5   93.82    2.57
  -7  -2   5  101.18    2.55
   7  -2  -5  100.41    2.84
  -7   2   5   99.79    2.62
  -7   2   5   98.73    2.80
  -6  -2   5   83.38    2.15
   6  -2  -5   83.86    2.42
  -6   2   5   89.74    2.47
   6   2  -5   86.22    2.15
  -6   2   5   85.91    2.27
  -6   2   5   88.77    2.64
  -5  -2   5   95.76    2.30
  -5   2   5   97.38    2.90
   5   2  -5   96.74    2.27
  -5   2   5   99.16    2.61
  -5   2   5   98.04    2.40
  -4  -2   5  481.18   10.16
   4  -2  -5  492.83   10.41
   4   2  -5  497.04   10.12
  -4   2   5  493.03   10.28
  -4   2   5  510.11   13.08
   4   2  -5  510.53   10.09
   3  -2  -5    0.17    0.22
  -2  -2   5 1810.46   37.91
  -2  -2   5 1877.69   37.75
  -2   2   5 1738.41   37.88
   2   2  -5 1863.14   37.26
   2   2  -5 1925.47   37.29
  -2   2   5 1891.38   49.34
  -1  -2   5   95.75    2.15
   1  -2  -5   91.38    2.23
  -1  -2   5   98.91    2.12
   1   2  -5   98.34    2.34
   1   2  -5   98.46    2.03
  -1   2   5   94.32    2.22
  -1   2   5   99.31    2.94
   1   2  -5   99.60    2.04
   0  -2   5 1259.60   26.37
   0  -2   5 1289.26   26.27
   0  -2  -5 1298.25   26.81
   0   2  -5 1306.48   26.15
   0   2   5 1280.74   33.92
   0   2   5 1250.75   26.76
   0   2  -5 1253.19   27.49
   0   2  -5 1308.90   26.15
  -1  -2  -5  288.15    6.28
   1  -2   5  299.54    6.33
  -1   2  -5  286.52    6.65
  -1   2  -5  303.83    6.18
   1   2   5  301.06    6.31
  -1   2  -5  314.92    6.26
   1   2   5  306.68    8.21
   2  -2   5  539.05   11.36
  -2  -2  -5  538.47   11.26
  -2   2  -5  557.98   11.91
   2   2   5  562.78   14.59
   2   2   5  530.12   11.30
  -2   2  -5  546.34   11.19
  -2   2  -5  574.09   11.31
   3  -2   5   33.04    1.19
  -3  -2  -5   34.37    1.07
   3   2   5   33.46    1.12
   3   2   5   35.92    1.54
  -3   2  -5   37.42    1.22
  -3   2  -5   34.96    1.03
  -4  -2  -5   52.08    1.48
   4  -2   5   51.04    1.64
   4   2   5   50.03    1.54
  -4   2  -5   49.38    1.43
  -4   2  -5   51.14    1.61
   4   2   5   53.59    2.04
  -5  -2  -5  566.16   11.92
   5  -2   5  561.09   12.17
  -5   2  -5  575.64   11.88
  -5   2  -5  568.57   12.58
   5   2   5  599.18   15.43
   5   2   5  561.50   12.01
   6  -2   5  132.05    3.53
  -6  -2  -5  133.38    3.28
  -6   2  -5  128.71    3.46
   6   2   5  136.55    4.30
  -6   2  -5  132.34    3.23
   6   2   5  128.40    3.35
   7  -2   5    3.16    0.65
  -7  -2  -5    3.49    0.55
   7   2   5    3.56    0.80
  -7   2  -5    3.52    0.60
   7   2   5    3.60    0.58
  -7   2  -5    2.90    0.51
   8  -2   5    8.14    0.98
  -8  -2  -5    8.25    0.88
   8   2   5    7.62    0.91
  -8   2  -5    7.77    0.87
  -8   2  -5    7.71    0.91
   8   2   5    7.75    1.19
   9  -3  -5  103.60    3.21
  -9  -3   5  102.45    2.79
  -9   3   5  105.27    2.90
  -9   3   5  100.46    3.17
  -8  -3   5   40.86    1.41
   8  -3  -5   39.68    1.69
  -8   3   5   37.53    1.66
  -8   3   5   39.39    1.49
  -7  -3   5    5.84    0.63
   7  -3  -5    5.03    0.67
  -7   3   5    3.94    0.64
  -7   3   5    4.68    0.56
  -7   3   5    5.41    0.73
  -6  -3   5  951.42   19.28
   6  -3  -5  948.82   19.65
  -6   3   5  944.45   24.72
  -6   3   5  948.85   20.53
  -6   3   5  949.23   19.41
   5  -3  -5  172.85    4.15
  -5  -3   5  175.87    3.83
  -5   3   5  178.54    3.99
  -5   3   5  174.58    4.32
  -5   3   5  175.52    5.05
   4  -3  -5 2717.73   57.16
  -4  -3   5 2777.67   56.41
  -4   3   5 2819.77   73.33
  -4   3   5 2826.18   60.40
  -4   3   5 2714.26   56.56
   3  -3  -5   12.70    0.65
  -3  -3   5   12.04    0.46
  -3  -3   5   12.45    0.45
   3   3  -5   11.96    0.62
  -3   3   5   11.70    0.59
  -3   3   5   13.94    0.84
  -3   3   5   12.80    0.71
  -2  -3   5   -0.85    0.11
  -2  -3   5   -0.72    0.13
   2   3  -5   -0.60    0.25
   2   3  -5   -0.54    0.23
   1  -3  -5 2188.09   46.40
  -1  -3   5 2261.40   45.46
  -1  -3   5 2289.30   45.66
   1   3  -5 2245.19   48.03
  -1   3   5 2328.95   59.18
  -1   3   5 2181.98   45.91
   0  -3   5  699.95   13.74
   0  -3   5  691.08   13.81
   0  -3  -5  664.28   13.88
   0   3   5  674.34   13.84
   0   3  -5  671.61   14.63
   0   3   5  693.23   17.98
   1  -3   5   12.76    0.59
  -1  -3  -5   15.21    0.62
   1   3   5   15.19    0.99
  -1   3  -5   14.13    0.44
  -1   3  -5   13.67    0.42
  -1   3  -5   13.49    0.71
   1   3   5   13.18    0.57
  -2  -3  -5   44.49    1.24
  -2   3  -5   42.84    1.09
   2   3   5   46.59    1.81
   2   3   5   41.51    1.20
  -3  -3  -5  149.41    3.39
   3   3   5  148.29    4.55
  -3   3  -5  154.04    3.72
  -3   3  -5  147.45    3.27
   3   3   5  147.19    3.38
  -4  -3  -5    0.81    0.30
   4   3   5    1.44    0.56
   4   3   5    1.09    0.32
  -4   3  -5    1.04    0.28
  -4   3  -5    1.64    0.46
   5  -3   5  129.51    3.45
  -5  -3  -5  126.96    3.21
  -5   3  -5  128.18    3.14
   5   3   5  152.09    4.39
  -5   3  -5  132.66    3.54
   5   3   5  133.71    3.23
  -6  -3  -5  558.56   11.65
   6  -3   5  545.78   11.96
  -6   3  -5  552.28   11.55
   6   3   5  568.47   11.66
   6   3   5  550.58   15.03
  -6   3  -5  534.83   12.34
   7  -3   5   10.91    1.05
  -7  -3  -5   10.95    0.86
  -7   3  -5    9.94    1.02
   7   3   5   12.21    0.91
  -7   3  -5   12.02    0.84
   7   3   5   12.51    1.23
   8  -4  -5   98.45    3.03
  -8   4   5  101.53    2.74
  -8   4   5   98.24    3.09
   7  -4  -5   11.32    1.02
  -7  -4   5   10.46    0.70
  -7   4   5   10.67    0.83
  -7   4   5   10.03    1.01
  -7   4   5   10.14    0.99
  -6  -4   5    0.53    0.27
   6  -4  -5    0.38    0.41
  -6   4   5    0.83    0.47
  -6   4   5    0.52    0.48
  -6   4   5    0.90    0.37
   5  -4  -5   37.05    1.37
  -5  -4   5   36.61    1.04
  -5   4   5   34.34    1.18
  -5   4   5   34.46    1.44
  -5   4   5   35.14    1.61
   4  -4  -5   74.05    2.07
  -4  -4   5   73.02    1.72
  -4   4   5   74.01    2.60
  -4   4   5   74.17    1.91
   4   4  -5   74.63    2.28
  -4   4   5   76.20    2.21
   3  -4  -5    0.04    0.25
  -3  -4   5    0.08    0.13
  -3  -4   5    0.13    0.13
  -3   4   5    0.29    0.35
   3   4  -5    0.80    0.32
  -3   4   5    0.05    0.22
  -3   4   5    0.27    0.41
  -2  -4   5  392.06    7.90
   2  -4  -5  394.00    8.22
  -2  -4   5  385.41    7.89
   2   4  -5  389.45   10.43
  -2   4   5  397.31   10.68
  -2   4   5  385.95    8.65
   2   4  -5  399.17    8.53
  -2   4   5  380.78    8.07
  -1  -4   5   66.04    1.48
   1  -4  -5   62.92    1.68
  -1  -4   5   67.01    1.43
   1   4  -5   65.01    1.79
   1   4  -5   65.62    2.21
  -1   4   5   67.45    2.40
  -1   4   5   63.20    1.57
  -1   4   5   64.01    1.78
   0  -4  -5  260.08    5.68
   0  -4   5  271.05    5.48
   0   4   5  275.02    7.56
   0   4  -5  268.31    7.41
   0   4  -5  263.61    6.05
   0   4   5  264.24    5.57
  -1  -4  -5   25.99    0.88
   1  -4   5   25.26    0.85
   1   4   5   26.71    1.41
   1   4   5   26.65    0.80
  -1   4  -5   26.63    1.05
   2  -4   5  207.35    4.71
  -2  -4  -5  205.92    4.64
  -2   4  -5  215.03    5.09
   2   4   5  222.92    4.55
   2   4   5  208.04    6.23
  -2   4  -5  223.29    4.37
   2   4   5  211.27    4.55
  -2   4  -5  217.18    4.36
   3  -4   5   10.71    0.70
  -3  -4  -5   10.01    0.61
   3   4   5   11.27    1.05
   3   4   5   10.47    0.54
  -3   4  -5   12.15    0.82
  -3   4  -5   10.53    0.47
  -4  -4  -5   28.95    1.07
   4  -4   5   26.57    1.18
   4   4   5   28.89    0.96
  -4   4  -5   28.78    0.92
  -4   4  -5   30.52    1.36
   4   4   5   28.44    1.57
  -5  -4  -5  186.78    4.25
   5   4   5  182.58    4.11
  -5   4  -5  182.64    4.08
   5   4   5  181.10    5.66
  -5   4  -5  180.68    4.68
  -6  -4  -5  135.71    3.34
   6   4   5  132.67    4.44
   6   4   5  136.02    3.24
  -6   4  -5  129.42    3.74
  -6   4  -5  132.24    3.19
   7  -4   5    7.28    0.89
  -7  -4  -5    7.75    0.84
  -7   4  -5    6.43    0.86
  -7   4  -5    7.64    0.76
   7   4   5    7.91    1.17
   7  -5  -5   57.54    2.11
  -7   5   5   55.57    2.19
  -7   5   5   57.86    1.81
  -7   5   5   54.77    2.39
   6  -5  -5  161.87    4.12
  -6   5   5  155.10    4.30
  -6   5   5  168.62    3.82
  -6   5   5  159.87    5.05
   5  -5  -5    9.92    0.81
  -5   5   5    8.50    0.93
  -5   5   5    9.74    0.67
  -5   5   5   11.09    1.12
   4  -5  -5  753.22   15.90
  -4   5   5  749.54   20.40
  -4   5   5  779.96   16.76
   4   5  -5  771.27   20.03
  -4   5   5  777.07   15.65
   3  -5  -5  153.75    3.62
  -3   5   5  156.33    3.86
   3   5  -5  158.22    3.59
   3   5  -5  151.30    4.47
  -3   5   5  146.87    3.37
  -3   5   5  145.64    4.74
   2  -5  -5   12.23    0.69
   2   5  -5    9.23    0.84
   2   5  -5   10.60    0.67
  -2   5   5   12.26    1.10
   1  -5  -5   90.32    2.27
  -1  -5   5   91.33    1.98
  -1   5   5   90.91    3.20
  -1   5   5   89.20    2.05
   1   5  -5   90.60    3.02
   1   5  -5   91.82    2.42
  -1   5   5   92.54    2.42
   0  -5  -5  506.73   10.43
   0  -5   5  504.82   10.25
   0   5  -5  500.41   13.55
   0   5   5  509.69   13.73
   0   5  -5  485.65   11.04
   0   5   5  509.25   10.93
   0   5   5  504.04   10.19
  -1  -5  -5   73.96    1.90
   1  -5   5   75.01    1.85
   1   5   5   75.65    1.68
  -1   5  -5   72.57    2.16
   1   5   5   75.10    1.92
  -1   5  -5   74.86    2.70
   1   5   5   72.64    2.80
  -2  -5  -5  332.42    7.13
   2  -5   5  329.61    7.18
   2   5   5  347.07    6.89
  -2   5  -5  341.52    7.76
   2   5   5  334.04    9.53
   3  -5   5   22.47    1.00
  -3  -5  -5   22.79    0.92
  -3   5  -5   24.09    1.24
   3   5   5   21.18    1.47
  -4  -5  -5  130.56    3.12
   4  -5   5  131.89    3.33
   4   5   5  127.39    4.32
  -4   5  -5  129.35    3.60
   5  -5   5  201.55    4.87
  -5  -5  -5  198.47    4.59
   5   5   5  201.21    6.20
  -5   5  -5  197.50    5.16
  -6  -5  -5   59.89    1.87
  -6   5  -5   58.81    2.27
   6   5   5   58.08    2.60
   6  -6  -5    1.77    0.55
  -6   6   5    1.31    0.70
  -6   6   5    1.70    0.44
  -6   6   5    0.61    0.64
   5  -6  -5    4.73    0.63
  -5   6   5    2.86    0.78
  -5   6   5    3.66    0.69
  -5   6   5    4.20    0.45
   4  -6  -5    5.30    0.60
  -4   6   5    6.71    0.97
  -4   6   5    5.81    0.52
   4   6  -5    6.41    0.83
  -4   6   5    6.43    0.77
   3  -6  -5    2.55    0.47
   3   6  -5    3.51    0.63
  -3   6   5    2.76    0.77
  -3   6   5    3.45    0.60
   2  -6  -5   51.30    1.56
   2   6  -5   50.80    1.58
  -2   6   5   47.91    2.27
   2   6  -5   50.78    2.05
  -2   6   5   50.17    1.71
   1  -6  -5   44.08    1.38
   1   6  -5   42.70    1.90
   1   6  -5   44.04    1.50
  -1   6   5   43.07    1.49
  -1   6   5   40.50    2.07
   0  -6  -5   39.77    1.27
   0   6  -5   38.97    1.88
   0   6   5   38.98    1.33
   0   6  -5   40.39    1.49
   0   6   5   39.27    2.00
  -1  -6  -5    1.72    0.35
   1   6   5    2.63    0.74
  -1   6  -5    2.06    0.52
  -1   6  -5    3.95    0.82
  -2  -6  -5   76.86    1.99
  -2   6  -5   76.61    2.95
   2   6   5   73.82    2.99
  -2   6  -5   75.15    2.38
  -3  -6  -5   60.21    1.71
  -3   6  -5   61.60    2.14
   3   6   5   57.16    2.61
  -4  -6  -5   18.58    0.91
   4  -6   5   17.30    1.02
  -4   6  -5   17.44    1.29
   4   6   5   18.30    1.51
   5  -6   5   48.48    1.82
  -5   6  -5   46.43    2.01
   5   6   5   43.29    2.27
   5  -7  -5   27.23    1.36
  -5   7   5   27.14    1.88
  -5   7   5   26.60    1.54
   4  -7  -5  561.27   11.84
  -4   7   5  557.52   15.39
  -4   7   5  537.68   12.48
   3  -7  -5    4.61    0.58
  -3   7   5    5.57    1.05
  -3   7   5    4.87    0.72
   3   7  -5    6.66    0.97
   2  -7  -5    0.11    0.35
  -2   7   5   -0.31    0.43
   2   7  -5    0.10    0.52
  -2   7   5    1.10    0.78
   1  -7  -5  278.36    6.08
  -1   7   5  273.62    6.41
  -1   7   5  264.72    8.24
   1   7  -5  283.76    6.44
   1   7  -5  271.05    8.03
   0   7  -5  128.49    3.36
   0   7  -5  122.56    4.22
   0   7   5  119.09    4.36
  -1   7  -5   10.89    1.00
  -1   7  -5   10.33    1.27
   1   7   5   10.26    1.33
  -2   7  -5   33.82    2.00
   2   7   5   33.49    2.04
  -2   7  -5   34.32    1.61
  -3   7  -5   30.39    1.62
   3   7   5   32.31    2.01
  -4   7  -5    0.96    0.66
   4   7   5    0.25    0.69
   2   8  -5  223.72    6.90
  -2   8   5  223.17    5.57
  -2   8   5  228.75    7.25
  -1   8   5    4.49    0.76
   1   8  -5    4.96    0.98
  -1   8   5    3.69    1.03
   0   8  -5  205.27    5.19
   0   8   5  212.57    6.80
   0   8  -5  204.81    6.57
  -1   8  -5   34.37    2.10
   1   8   5   31.30    2.16
  -1   8  -5   31.63    1.54
  -9   0   6    0.50    0.43
  -9   0   6    0.03    0.40
   9   0  -6   -0.08    0.41
   8   0  -6   35.26    1.45
  -8   0   6   34.39    1.35
  -8   0   6   33.96    1.35
  -7   0   6  264.44    5.92
  -7   0   6  274.08    6.20
   7   0  -6  264.10    6.06
   6   0  -6  171.04    4.06
  -6   0   6  173.72    3.95
   5   0  -6   10.18    0.64
  -5   0   6   13.59    0.67
  -4   0   6  231.50    5.06
   4   0  -6  233.79    5.12
  -4   0   6  240.79    6.15
  -3   0   6 1356.76   29.12
  -3   0   6 1455.80   36.36
   3   0  -6 1386.79   29.29
   2   0  -6  463.70    9.59
  -2   0   6  469.77    9.58
  -2   0   6  465.21   12.15
   1   0  -6  384.68    7.77
  -1   0   6  351.11    7.77
   1   0  -6  392.31    7.82
   1   0   6  253.13    5.42
  -1   0  -6  253.00    5.58
  -1   0  -6  249.03    5.31
   2   0   6   63.60    1.76
  -2   0  -6   67.52    1.73
  -2   0  -6   66.52    1.67
  -3   0  -6  243.38    5.43
   3   0   6  235.10    5.36
  -3   0  -6  244.73    5.22
  -4   0  -6  117.13    2.80
   4   0   6  112.84    2.95
  -4   0  -6  116.66    2.86
   5   0   6  175.22    4.27
  -5   0  -6  175.74    4.07
  -5   0  -6  177.23    4.18
  -6   0  -6   32.81    1.24
   6   0   6   32.59    1.43
  -6   0  -6   33.32    1.28
  -7   0  -6  138.62    3.57
   7   0   6  141.11    3.80
  -7   0  -6  144.34    3.59
  -8   0  -6   45.16    1.74
   8   0   6   44.99    1.94
  -9  -1   6   -0.18    0.37
   9  -1  -6    0.16    0.45
  -9   1   6    0.94    0.48
  -9   1   6   -0.05    0.42
   9   1  -6   -0.07    0.41
  -8  -1   6   -0.07    0.34
   8  -1  -6    0.36    0.42
  -8  -1   6   -0.86    0.34
  -8   1   6    0.06    0.42
  -8   1   6   -0.06    0.35
   8   1  -6   -0.17    0.34
  -7  -1   6 1033.11   22.17
  -7  -1   6 1020.81   21.21
   7  -1  -6 1041.24   21.48
   7   1  -6 1022.70   21.28
  -7   1   6 1045.28   22.34
  -7   1   6 1069.71   21.29
   6  -1  -6  773.40   15.72
  -6  -1   6  744.23   15.47
  -6   1   6  753.80   16.33
  -6   1   6  758.82   15.54
   6   1  -6  742.21   15.54
   5  -1  -6    9.65    0.68
  -5  -1   6    9.71    0.58
  -5   1   6   10.04    0.63
  -5   1   6   10.72    0.54
   5   1  -6    9.36    0.57
  -4  -1   6    0.40    0.21
   4  -1  -6    0.46    0.25
  -4   1   6    0.57    0.24
  -4   1   6    0.55    0.21
   3  -1  -6   32.10    1.06
  -3  -1   6   31.80    0.96
   3   1  -6   33.06    0.97
  -3   1   6   37.39    1.22
  -3   1   6   32.51    1.01
   2  -1  -6  160.69    3.61
  -2  -1   6  161.37    3.54
   2   1  -6  166.83    3.53
  -2   1   6  164.22    3.59
  -2   1   6  166.07    4.55
  -1  -1   6   13.84    0.56
  -1   1   6   13.82    0.59
  -1   1   6   14.64    0.77
   1   1  -6   14.64    0.52
   0  -1   6  427.83    9.21
   0  -1  -6  425.58    9.19
   0   1  -6  460.46    9.68
   0   1   6  448.84    9.24
   0   1   6  463.04   11.85
   0   1  -6  455.95    9.14
  -1  -1  -6  307.71    6.57
   1  -1   6  314.63    6.65
   1   1   6  313.93    6.64
  -1   1  -6  317.13    6.93
   1   1   6  315.50    8.53
  -1   1  -6  314.02    6.52
   2  -1   6 1980.46   42.11
  -2  -1  -6 2086.22   42.60
   2   1   6 2051.70   42.85
  -2   1  -6 2023.36   42.30
  -2   1  -6 2079.01   44.13
  -3  -1  -6   96.58    2.32
  -3  -1  -6   93.21    2.30
   3  -1   6   94.63    2.46
   3   1   6   95.04    2.42
  -3   1  -6   94.23    2.43
  -3   1  -6   92.64    2.27
  -4  -1  -6    1.13    0.32
   4  -1   6    1.31    0.41
  -4  -1  -6    2.24    0.34
  -4   1  -6    1.58    0.38
   4   1   6    1.63    0.41
  -4   1  -6    1.75    0.35
   5  -1   6  205.21    4.96
  -5  -1  -6  212.54    4.78
  -5  -1  -6  209.90    4.75
  -5   1  -6  208.81    4.73
  -5   1  -6  210.25    4.96
   5   1   6  208.87    4.91
   6  -1   6  259.24    6.02
  -6  -1  -6  261.68    5.83
  -6  -1  -6  249.54    5.73
  -6   1  -6  250.77    5.97
  -6   1  -6  259.05    5.73
   6   1   6  250.79    7.47
   6   1   6  249.93    5.91
  -7  -1  -6  190.27    4.49
   7  -1   6  182.58    4.73
  -7   1  -6  190.63    4.63
   7   1   6  188.62    4.68
   7   1   6  172.78    5.76
  -7   1  -6  189.65    4.46
   8  -1   6   13.68    1.22
  -8  -1  -6   11.97    1.04
   8   1   6   11.51    1.08
  -8   1  -6   13.94    1.00
   8   1   6   13.36    1.43
  -8   1  -6   13.61    1.01
   9  -2  -6   15.66    1.23
  -9  -2   6   13.41    0.97
  -9   2   6   14.41    1.15
  -9   2   6   17.16    1.08
   8  -2  -6  283.87    6.68
  -8  -2   6  278.51    6.32
  -8   2   6  293.85    6.45
  -8   2   6  283.33    6.81
   7  -2  -6    3.78    0.59
  -7  -2   6    3.05    0.44
  -7   2   6    2.27    0.52
   7   2  -6    3.49    0.43
  -7   2   6    1.56    0.42
  -6  -2   6   35.10    1.15
   6  -2  -6   34.18    1.36
  -6   2   6   34.54    1.24
   6   2  -6   34.34    1.10
  -6   2   6   34.85    1.32
  -6   2   6   34.78    1.38
   5  -2  -6  522.86   11.00
  -5  -2   6  502.79   10.73
  -5   2   6  525.88   10.85
   5   2  -6  524.20   10.70
  -5   2   6  529.92   13.70
  -4  -2   6  142.71    3.24
   4  -2  -6  147.50    3.46
   4   2  -6  148.69    3.19
   4   2  -6  148.34    3.16
  -4   2   6  146.77    3.37
  -4   2   6  149.52    4.20
  -3  -2   6   64.40    1.60
   3  -2  -6   66.36    1.78
  -3   2   6   64.95    1.72
   3   2  -6   69.07    1.54
  -3   2   6   70.02    2.19
   3   2  -6   67.90    1.52
  -2  -2   6  845.26   17.95
   2  -2  -6  869.46   17.70
  -2   2   6  862.52   17.64
   2   2  -6  888.22   17.77
  -2   2   6  891.63   22.65
   2   2  -6  866.00   17.74
  -1  -2   6   29.36    0.86
   1  -2  -6   30.86    0.95
  -1  -2   6   27.98    0.84
   1   2  -6   29.87    0.75
  -1   2   6   27.69    0.90
  -1   2   6   29.74    1.24
   1   2  -6   28.22    0.96
   0  -2   6 2682.01   56.55
   0  -2  -6 2734.25   56.97
   0   2  -6 2788.65   59.66
   0   2   6 2860.63   73.14
   0   2  -6 2813.69   56.06
   0   2  -6 2880.72   56.20
   0   2   6 2595.05   56.61
  -1  -2  -6  156.61    3.47
   1  -2   6  155.98    3.51
  -1   2  -6  159.46    3.36
   1   2   6  155.58    3.50
   1   2   6  159.40    4.59
  -1   2  -6  151.33    3.69
  -2  -2  -6  217.74    4.70
   2  -2   6  217.80    4.80
  -2   2  -6  211.28    4.59
  -2   2  -6  214.40    5.00
   2   2   6  216.54    4.75
   2   2   6  219.09    6.18
  -3  -2  -6   37.98    1.22
   3  -2   6   38.14    1.35
  -3   2  -6   43.40    1.39
   3   2   6   39.62    1.29
  -3   2  -6   37.45    1.15
   3   2   6   44.72    1.80
  -4  -2  -6  621.00   12.76
   4  -2   6  611.89   12.97
  -4   2  -6  605.34   13.45
   4   2   6  639.76   16.53
   4   2   6  607.58   12.84
  -4   2  -6  608.93   12.69
   5  -2   6   12.34    0.96
  -5  -2  -6   11.42    0.79
   5   2   6   11.49    0.83
  -5   2  -6   11.64    0.75
   5   2   6   15.05    1.19
  -5   2  -6   13.10    0.88
  -6  -2  -6  233.25    5.32
   6  -2   6  233.35    5.61
  -6   2  -6  234.22    5.27
  -6   2  -6  221.33    5.59
   6   2   6  234.96    5.43
   6   2   6  236.43    6.97
  -7  -2  -6    0.61    0.43
   7  -2   6    0.70    0.53
   7   2   6    2.92    0.82
  -7   2  -6    0.13    0.40
  -7   2  -6    0.61    0.47
   7   2   6    0.57    0.46
   9  -3  -6   80.35    2.71
  -9  -3   6   81.66    2.35
  -9   3   6   81.14    2.45
  -9   3   6   77.52    2.67
  -8  -3   6   30.18    1.18
   8  -3  -6   28.19    1.46
  -8   3   6   27.90    1.50
  -8   3   6   29.18    1.31
   7  -3  -6  426.92    9.44
  -7  -3   6  429.55    9.03
  -7   3   6  407.13    9.74
  -7   3   6  432.88    9.17
  -7   3   6  437.83   11.53
  -6  -3   6 1241.99   25.53
   6  -3  -6 1269.04   25.94
  -6   3   6 1270.02   27.13
  -6   3   6 1262.88   32.74
  -6   3   6 1273.96   25.70
   5  -3  -6    2.48    0.44
  -5  -3   6    3.87    0.42
  -5   3   6    3.81    0.56
  -5   3   6    3.19    0.42
  -5   3   6    4.27    0.59
   4  -3  -6  329.11    7.14
  -4  -3   6  319.57    6.82
  -4   3   6  330.36    8.97
  -4   3   6  328.73    6.99
  -4   3   6  336.17    7.48
  -3  -3   6   24.40    0.74
   3  -3  -6   24.70    0.96
  -3   3   6   25.68    1.21
  -3   3   6   24.09    0.88
  -2  -3   6   70.05    1.59
  -2  -3   6   68.06    1.60
   2  -3  -6   68.24    1.80
  -2   3   6   67.35    1.73
   2   3  -6   66.53    1.82
  -2   3   6   73.01    2.40
  -1  -3   6  190.07    3.83
  -1  -3   6  173.78    3.75
   1  -3  -6  182.99    3.97
  -1   3   6  170.95    3.89
  -1   3   6  182.57    5.21
   1   3  -6  172.50    4.14
   0  -3  -6   20.95    0.77
   0  -3   6   19.15    0.69
   0   3   6   19.37    1.12
   0   3   6   18.54    0.72
   0   3  -6   19.93    0.84
  -1  -3  -6  740.21   15.52
   1  -3   6  743.34   15.54
  -1   3  -6  760.05   15.48
  -1   3  -6  801.26   15.34
   1   3   6  781.65   20.11
   1   3   6  742.47   15.49
  -1   3  -6  764.05   16.40
   2  -3   6 1191.36   23.84
  -2  -3  -6 1179.45   23.74
   2   3   6 1199.76   30.65
   2   3   6 1159.34   24.10
  -2   3  -6 1146.35   25.03
  -2   3  -6 1168.42   24.05
  -3  -3  -6    8.72    0.62
   3  -3   6    8.33    0.66
   3   3   6    8.97    0.99
  -3   3  -6    8.29    0.49
  -3   3  -6    8.92    0.75
   3   3   6    8.10    0.59
   4  -3   6   28.10    1.24
  -4  -3  -6   27.23    1.08
   4   3   6   27.53    1.09
  -4   3  -6   27.21    1.24
   4   3   6   31.68    1.62
  -4   3  -6   27.29    0.98
   5  -3   6   31.55    1.40
  -5  -3  -6   31.04    1.23
   5   3   6   32.07    1.73
  -5   3  -6   31.07    1.13
   5   3   6   33.00    1.25
  -5   3  -6   31.49    1.39
   6  -3   6   52.34    2.00
  -6  -3  -6   56.27    1.79
   6   3   6   59.59    2.49
   6   3   6   54.88    1.79
  -6   3  -6   55.16    1.70
  -6   3  -6   52.95    1.96
   7  -3   6   58.34    2.22
  -7  -3  -6   60.04    1.96
  -7   3  -6   61.05    2.15
   7   3   6   62.18    2.00
  -7   3  -6   60.57    1.88
   7   3   6   56.51    2.56
   8  -4  -6   95.77    2.98
  -8   4   6   97.52    2.69
  -8   4   6   93.44    3.01
  -7  -4   6   42.47    1.47
   7  -4  -6   41.30    1.72
  -7   4   6   40.69    1.81
  -7   4   6   41.18    1.48
  -7   4   6   40.88    1.77
   6  -4  -6   58.47    1.96
  -6  -4   6   58.00    1.59
  -6   4   6   59.73    1.76
  -6   4   6   59.76    2.27
  -6   4   6   56.38    2.04
  -5  -4   6  123.02    2.72
   5  -4  -6  111.16    3.06
  -5   4   6  124.12    3.81
  -5   4   6  116.12    3.22
  -5   4   6  115.57    2.88
  -4  -4   6   64.25    1.55
   4  -4  -6   62.86    1.90
  -4   4   6   65.45    2.39
  -4   4   6   66.91    2.04
  -4   4   6   62.80    1.74
  -3  -4   6  149.24    3.25
   3  -4  -6  152.58    3.60
  -3   4   6  154.49    3.45
  -3   4   6  154.86    3.81
  -3   4   6  152.27    4.65
  -2  -4   6  343.07    6.98
  -2  -4   6  344.19    6.95
   2  -4  -6  334.13    7.27
  -2   4   6  341.63    7.65
   2   4  -6  343.03    7.55
  -2   4   6  336.17    9.44
  -2   4   6  341.37    7.14
  -1  -4   6   19.75    0.59
  -1  -4   6   20.72    0.66
   1  -4  -6   20.93    0.83
  -1   4   6   19.91    1.25
  -1   4   6   20.73    0.75
   1   4  -6   20.47    0.89
   0  -4  -6 1798.78   36.32
   0  -4   6 1797.20   36.00
   0   4   6 1715.49   45.58
   0   4  -6 1756.13   37.24
   0   4   6 1739.45   36.18
   1  -4   6  126.08    2.93
  -1  -4  -6  126.24    2.95
   1   4   6  122.02    4.04
   1   4   6  128.14    2.86
  -1   4  -6  128.84    3.24
  -2  -4  -6   10.87    0.64
   2  -4   6   11.44    0.68
   2   4   6    8.61    0.53
  -2   4  -6    8.96    0.35
  -2   4  -6    8.44    0.77
   2   4   6    8.23    1.02
   3  -4   6   65.93    1.93
  -3  -4  -6   65.20    1.80
   3   4   6   67.17    1.72
  -3   4  -6   65.34    1.58
  -3   4  -6   65.03    2.06
   3   4   6   65.43    2.60
  -4  -4  -6  216.72    4.90
   4  -4   6  227.26    5.14
   4   4   6  218.45    4.80
  -4   4  -6  220.42    4.71
  -4   4  -6  222.97    5.40
   4   4   6  203.08    6.54
   5  -4   6   73.11    2.32
  -5  -4  -6   73.35    2.09
  -5   4  -6   70.47    1.91
   5   4   6   76.37    2.93
  -5   4  -6   70.60    2.39
   5   4   6   74.17    2.00
  -6  -4  -6   74.30    2.16
   6  -4   6   72.84    2.43
   6   4   6   72.60    2.06
  -6   4  -6   73.24    2.00
  -6   4  -6   69.56    2.48
   6   4   6   73.39    2.96
  -7  -4  -6   17.98    1.10
   7   4   6   15.65    1.52
  -7   4  -6   18.01    0.97
   7  -5  -6  740.68   15.77
  -7   5   6  735.45   19.76
  -7   5   6  767.24   15.39
  -7   5   6  707.83   16.46
   6  -5  -6  186.71    4.66
  -6   5   6  181.99    4.89
  -6   5   6  185.33    5.74
  -6   5   6  197.19    4.38
   5  -5  -6   13.27    0.92
  -5   5   6   13.02    0.76
  -5   5   6   13.76    1.17
  -5   5   6   14.41    1.07
   4  -5  -6    5.67    0.61
  -4   5   6    5.15    0.81
  -4   5   6    5.66    0.70
   4   5  -6    4.41    0.66
  -4   5   6    4.99    0.54
   3  -5  -6   10.34    0.76
   3   5  -6   11.76    0.72
  -3   5   6   10.05    1.10
  -3   5   6   11.09    0.86
   3   5  -6   10.18    0.86
  -3   5   6   10.30    0.60
   2  -5  -6  198.18    4.47
  -2   5   6  188.30    5.89
  -2   5   6  195.37    4.71
   2   5  -6  199.58    4.60
  -2   5   6  192.76    4.23
   2   5  -6  199.93    5.65
   1  -5  -6    0.66    0.30
   1   5  -6    1.14    0.40
   1   5  -6    0.93    0.50
  -1   5   6    1.03    0.38
  -1   5   6    0.90    0.24
  -1   5   6    0.68    0.57
   0  -5   6  231.73    4.92
   0  -5  -6  225.16    5.08
   0   5   6  230.74    4.88
   0   5   6  241.08    5.32
   0   5   6  226.81    6.84
   0   5  -6  230.34    5.44
   1  -5   6    4.75    0.48
  -1  -5  -6    4.60    0.54
  -1   5  -6    4.35    0.59
   1   5   6    4.93    0.85
   1   5   6    4.83    0.51
   1   5   6    5.08    0.41
  -2  -5  -6  535.69   11.01
  -2   5  -6  539.42   11.80
   2   5   6  511.53   14.46
   2   5   6  526.73   10.78
  -3  -5  -6  122.23    2.90
  -3   5  -6  118.35    3.29
   3   5   6  111.46    4.03
  -4  -5  -6    0.40    0.35
  -4   5  -6    0.79    0.56
   4   5   6    0.58    0.65
  -5  -5  -6  271.60    5.98
   5  -5   6  279.30    6.29
   5   5   6  250.06    7.92
  -5   5  -6  262.44    6.58
  -6  -5  -6  236.25    5.33
   6  -5   6  227.04    5.64
  -6   5  -6  232.55    5.93
   6   5   6  217.31    7.05
   6  -6  -6   92.65    2.82
  -6   6   6   92.76    3.51
  -6   6   6   90.18    2.99
  -6   6   6   94.63    2.44
   5  -6  -6   12.86    0.97
  -5   6   6   11.06    1.07
  -5   6   6   12.18    1.26
  -5   6   6   10.66    0.71
   4  -6  -6   15.71    0.99
  -4   6   6   16.28    0.75
  -4   6   6   16.54    1.14
  -4   6   6   15.18    1.40
   3  -6  -6  159.34    3.88
  -3   6   6  157.69    5.20
   3   6  -6  164.09    3.98
  -3   6   6  158.92    4.13
  -3   6   6  159.27    3.57
   3   6  -6  160.85    4.83
   2  -6  -6  103.19    2.66
   2   6  -6  102.35    2.71
   2   6  -6  100.87    3.39
  -2   6   6  101.79    2.84
  -2   6   6  100.04    3.67
   1  -6  -6   53.90    1.64
   1   6  -6   52.54    2.21
  -1   6   6   52.66    2.42
  -1   6   6   53.83    1.74
   1   6  -6   54.81    1.75
   0  -6  -6 1100.96   22.09
   0   6   6 1098.45   23.14
   0   6  -6 1104.22   23.33
   0   6   6 1049.67   28.71
   0   6  -6 1066.63   28.51
  -1  -6  -6   75.91    2.06
   1   6   6   75.94    3.05
  -1   6  -6   76.32    2.36
  -2  -6  -6    6.45    0.63
  -2   6  -6    9.77    0.96
   2   6   6    8.00    1.14
  -3  -6  -6   52.69    1.61
  -3   6  -6   50.76    1.97
   3   6   6   50.94    2.47
  -4  -6  -6   79.05    2.18
   4   6   6   76.68    3.18
  -4   6  -6   76.44    2.62
  -5  -6  -6   98.28    2.73
  -5   6  -6   98.31    3.24
   5   6   6  111.09    3.98
   5  -7  -6    0.47    0.49
  -5   7   6    1.55    0.84
  -5   7   6    0.12    0.62
   4  -7  -6   76.06    2.35
  -4   7   6   78.77    3.28
  -4   7   6   74.08    2.57
   3  -7  -6    6.23    0.69
  -3   7   6    5.60    0.76
  -3   7   6    5.77    1.11
   3   7  -6    5.50    0.83
   2  -7  -6    0.43    0.38
  -2   7   6    0.13    0.70
   2   7  -6    0.81    0.58
   2   7  -6    0.09    0.44
  -2   7   6    0.88    0.49
   1  -7  -6   41.72    1.47
  -1   7   6   41.43    1.56
   1   7  -6   41.44    1.59
  -1   7   6   41.40    2.27
   1   7  -6   40.72    2.06
   0  -7  -6    5.18    0.58
   0   7  -6    4.78    0.69
   0   7   6    4.74    0.97
   0   7  -6    4.30    0.88
  -1   7  -6   89.41    2.71
   1   7   6   85.08    3.48
   2   7   6  302.21    9.06
  -2   7  -6  300.00    7.28
   3   7   6    1.97    0.88
  -3   7  -6    2.13    0.69
  -9   0   7   22.26    1.16
   9   0  -7   20.54    1.21
  -9   0   7   20.57    1.15
  -8   0   7   14.69    0.93
  -8   0   7   14.72    0.95
   8   0  -7   13.15    0.96
  -7   0   7   79.71    2.22
   7   0  -7   81.06    2.33
  -6   0   7  229.96    5.19
   6   0  -7  238.93    5.33
   5   0  -7    6.09    0.56
  -5   0   7    5.32    0.54
   4   0  -7  353.47    7.58
  -4   0   7  358.99    9.32
  -4   0   7  360.17    7.53
  -3   0   7  293.34    7.76
  -3   0   7  295.22    6.21
   3   0  -7  291.27    6.24
   2   0  -7  229.73    4.93
  -2   0   7  232.39    4.93
  -2   0   7  226.87    6.20
   1   0  -7 1368.07   28.70
  -1   0   7 1418.65   29.14
   0   0   7  630.43   12.82
   0   0  -7  617.99   12.74
  -1   0  -7    0.34    0.22
  -1   0  -7    0.08    0.24
   1   0   7    0.78    0.27
   2   0   7 1958.55   41.20
  -2   0  -7 2069.47   43.54
  -2   0  -7 1984.27   41.83
   3   0   7 3189.09   66.13
  -3   0  -7 3172.79   65.52
  -3   0  -7 3177.12   68.44
  -4   0  -7    3.41    0.44
   4   0   7    5.63    0.60
  -4   0  -7    2.93    0.43
  -5   0  -7  141.22    3.42
   5   0   7  142.39    3.63
  -5   0  -7  139.26    3.48
  -6   0  -7    5.24    0.58
   6   0   7    5.78    0.73
  -6   0  -7    6.62    0.73
  -7   0  -7    5.97    0.66
   7   0   7    6.34    0.78
  -7   0  -7    6.49    0.76
  -9  -1   7   48.40    1.71
   9  -1  -7   48.95    1.92
  -9   1   7   49.06    1.76
  -9   1   7   51.27    1.86
   9   1  -7   48.20    1.76
  -8  -1   7  481.13   10.25
  -8  -1   7  467.94   10.63
   8  -1  -7  486.20   10.52
  -8   1   7  483.38   10.30
  -8   1   7  479.38   10.82
   8   1  -7  482.96   10.32
  -7  -1   7  145.46    3.50
   7  -1  -7  146.32    3.73
  -7   1   7  145.20    3.77
  -7   1   7  146.06    3.56
   7   1  -7  147.06    3.56
  -6  -1   7  515.68   10.83
   6  -1  -7  516.41   11.03
  -6   1   7  522.67   10.89
   6   1  -7  520.33   10.89
  -5  -1   7    1.18    0.29
   5  -1  -7    1.76    0.38
  -5   1   7    1.38    0.34
   5   1  -7    0.93    0.27
  -5   1   7    1.37    0.29
  -4  -1   7    1.35    0.18
   4  -1  -7    0.45    0.26
  -4   1   7    0.93    0.27
  -4   1   7    0.31    0.24
   4   1  -7    0.70    0.23
   3  -1  -7  572.15   12.04
  -3  -1   7  580.15   11.93
  -3   1   7  588.92   11.99
   3   1  -7  579.34   11.93
   3   1  -7  580.91   11.91
  -3   1   7  596.71   15.23
  -2  -1   7   45.89    1.26
   2  -1  -7   45.66    1.31
   2   1  -7   47.54    1.23
  -2   1   7   46.97    1.62
  -1  -1   7  563.84   11.78
   1  -1  -7  560.22   11.79
  -1   1   7  568.46   11.81
   1   1  -7  587.02   11.82
   1   1  -7  571.77   11.72
  -1   1   7  599.43   15.13
   0  -1  -7   29.60    0.96
   0  -1   7   30.58    0.98
   0   1  -7   29.37    0.89
   0   1  -7   30.49    1.02
   0   1   7   31.37    1.30
   0   1   7   30.07    1.00
  -1  -1  -7    3.60    0.41
   1  -1   7    3.83    0.46
  -1   1  -7    3.55    0.46
   1   1   7    3.81    0.69
   1   1   7    3.16    0.45
  -1   1  -7    2.81    0.36
  -2  -1  -7    2.89    0.35
   2  -1   7    5.21    0.52
  -2   1  -7    3.42    0.39
   2   1   7    2.82    0.38
   2   1   7    3.31    0.61
  -2   1  -7    3.72    0.44
   3  -1   7   51.32    1.66
  -3  -1  -7   58.71    1.57
  -3  -1  -7   52.91    1.52
  -3   1  -7   52.09    1.50
  -3   1  -7   54.98    1.64
   3   1   7   51.65    1.65
  -4  -1  -7 1231.92   25.25
  -4  -1  -7 1260.27   26.34
   4  -1   7 1234.00   25.46
   4   1   7 1252.00   25.42
  -4   1  -7 1237.72   26.50
  -4   1  -7 1246.05   25.21
   5  -1   7    0.20    0.43
  -5  -1  -7    0.42    0.36
  -5  -1  -7    0.46    0.34
  -5   1  -7    0.64    0.36
   5   1   7    0.50    0.40
  -5   1  -7    0.56    0.41
   6  -1   7    2.87    0.61
  -6  -1  -7    0.79    0.42
   6   1   7    0.42    0.46
   6   1   7    1.30    0.69
  -6   1  -7    1.25    0.43
  -6   1  -7    0.33    0.39
  -7  -1  -7   22.92    1.22
   7  -1   7   23.44    1.38
  -7   1  -7   22.60    1.19
   7   1   7   24.02    1.69
   7   1   7   23.73    1.35
  -7   1  -7   25.65    1.20
  -9  -2   7   15.71    0.99
   9  -2  -7   16.89    1.21
  -9   2   7   14.49    1.14
  -9   2   7   16.16    1.08
   8  -2  -7  259.28    6.10
  -8  -2   7  261.18    5.75
  -8   2   7  247.30    6.20
  -8   2   7  249.44    5.82
  -7  -2   7   17.74    0.89
   7  -2  -7   17.78    1.09
  -7   2   7   19.24    1.12
  -7   2   7   18.17    0.99
   7   2  -7   18.03    0.84
   6  -2  -7 1085.52   22.30
  -6  -2   7 1084.18   22.00
  -6   2   7 1093.51   22.10
   6   2  -7 1061.44   21.92
  -6   2   7 1096.62   23.30
  -6   2   7 1072.41   27.95
   5  -2  -7   10.35    0.75
  -5  -2   7   10.12    0.59
  -5   2   7   11.42    0.75
   5   2  -7    9.59    0.53
  -5   2   7    9.30    0.69
   4  -2  -7    2.97    0.42
  -4  -2   7    1.53    0.27
  -4   2   7    1.15    0.30
   4   2  -7    1.86    0.23
  -4   2   7    1.90    0.39
   3  -2  -7   18.41    0.81
  -3  -2   7   17.06    0.66
  -3   2   7   18.95    0.78
  -3   2   7   18.60    0.94
   3   2  -7   17.67    0.58
   3   2  -7   17.46    0.58
  -2  -2   7    0.09    0.17
   2  -2  -7    0.20    0.23
   2   2  -7    0.42    0.15
  -2   2   7    0.11    0.32
   2   2  -7    0.22    0.14
  -2   2   7    0.79    0.26
  -1  -2   7 2673.58   56.65
   1  -2  -7 2716.44   56.85
  -1   2   7 2677.14   56.87
   1   2  -7 2820.16   55.99
  -1   2   7 2880.49   73.62
   1   2  -7 2785.28   56.05
   1   2  -7 2734.93   59.74
   0  -2   7  476.87    9.94
   0  -2  -7  478.83    9.96
   0   2   7  475.69   12.85
   0   2  -7  484.97    9.80
   0   2  -7  482.38   10.47
   0   2   7  484.60    9.97
  -1  -2  -7  390.27    8.22
   1  -2   7  385.43    8.27
   1   2   7  390.53   10.66
  -1   2  -7  402.87    8.70
  -1   2  -7  386.15    8.09
   1   2   7  401.66    8.27
  -2  -2  -7  824.22   17.05
   2  -2   7  824.85   17.16
  -2   2  -7  839.82   17.97
  -2   2  -7  826.70   16.94
   2   2   7  828.62   17.11
   2   2   7  871.57   22.05
  -3  -2  -7 1490.60   29.80
   3  -2   7 1495.93   29.97
   3   2   7 1471.62   30.14
  -3   2  -7 1466.46   29.84
   3   2   7 1418.74   38.31
  -3   2  -7 1505.24   31.35
   4  -2   7  211.96    5.00
  -4  -2  -7  216.45    4.81
  -4   2  -7  219.53    5.14
   4   2   7  213.56    6.35
  -4   2  -7  213.04    4.72
   4   2   7  201.76    4.87
   5  -2   7   12.90    0.97
  -5  -2  -7   12.38    0.86
  -5   2  -7   12.96    0.93
  -5   2  -7   14.08    0.80
   5   2   7   12.31    0.93
   5   2   7   14.04    1.26
   6  -2   7  140.74    3.80
  -6  -2  -7  140.15    3.54
   6   2   7  143.91    4.73
  -6   2  -7  137.24    3.74
  -6   2  -7  141.15    3.48
   6   2   7  145.30    3.68
   7  -2   7   12.05    1.11
  -7  -2  -7   11.76    0.95
   7   2   7   12.31    1.37
  -7   2  -7   13.25    0.92
  -7   2  -7   11.67    1.03
   7   2   7   13.34    1.07
   8  -3  -7  673.90   14.40
  -8  -3   7  670.14   13.92
  -8   3   7  640.35   14.89
  -8   3   7  683.15   14.08
  -7  -3   7    0.73    0.35
   7  -3  -7    2.01    0.53
  -7   3   7    1.11    0.52
  -7   3   7    2.34    0.48
  -6  -3   7  356.91    7.50
   6  -3  -7  358.21    7.88
  -6   3   7  352.81    7.66
  -6   3   7  343.54    8.18
  -6   3   7  355.78    9.62
   5  -3  -7  135.07    3.45
  -5  -3   7  138.75    3.14
  -5   3   7  138.40    4.14
  -5   3   7  140.33    3.61
  -5   3   7  136.39    3.29
   4  -3  -7   29.01    1.14
  -4  -3   7   26.88    0.87
  -4   3   7   28.21    1.32
  -3  -3   7   54.80    1.40
   3  -3  -7   54.94    1.64
  -3   3   7   56.15    2.06
  -3   3   7   56.21    1.56
   2  -3  -7    8.64    0.59
  -2  -3   7    7.71    0.44
  -2   3   7    7.98    0.80
  -2   3   7    7.07    0.54
   2   3  -7    8.52    0.60
   1  -3  -7  742.50   15.20
  -1  -3   7  752.53   15.06
  -1   3   7  738.13   19.56
   1   3  -7  742.64   15.93
  -1   3   7  731.63   15.13
   0  -3  -7   84.87    2.13
   0  -3   7   82.39    2.06
   0   3  -7   83.42    2.27
   0   3  -7   87.89    1.82
   0   3   7   86.89    2.92
   0   3  -7   85.65    1.80
   0   3   7   82.29    2.08
   1  -3   7    1.85    0.33
  -1  -3  -7    1.27    0.30
   1   3   7    1.51    0.54
  -1   3  -7    1.79    0.21
   1   3   7    2.23    0.33
  -1   3  -7    2.35    0.44
  -1   3  -7    1.81    0.22
   2  -3   7  158.74    3.72
  -2  -3  -7  156.70    3.63
  -2   3  -7  156.91    3.44
   2   3   7  159.81    3.62
  -2   3  -7  153.29    3.90
   2   3   7  164.38    4.91
   3  -3   7    1.36    0.42
  -3  -3  -7    1.38    0.35
   3   3   7    1.21    0.35
  -3   3  -7    1.82    0.30
  -3   3  -7    2.25    0.53
   3   3   7    0.83    0.63
   4  -3   7 1545.16   31.46
  -4  -3  -7 1590.60   31.25
   4   3   7 1423.74   40.19
  -4   3  -7 1579.43   31.26
  -4   3  -7 1545.29   32.92
   4   3   7 1570.85   31.26
  -5  -3  -7   70.89    2.05
   5  -3   7   68.33    2.24
   5   3   7   71.35    2.86
   5   3   7   70.58    2.07
  -5   3  -7   69.57    2.29
  -5   3  -7   68.53    1.91
  -6  -3  -7   16.03    0.98
   6  -3   7   16.14    1.19
  -6   3  -7   16.58    0.90
   6   3   7   16.14    1.49
   6   3   7   17.69    1.06
  -6   3  -7   16.65    1.17
  -7  -3  -7   18.53    1.11
   7  -3   7   19.07    1.38
  -7   3  -7   18.69    1.04
   7   3   7   18.63    1.54
  -7   3  -7   18.29    1.27
   7   3   7   18.92    1.17
   8  -4  -7   71.97    2.52
  -8   4   7   74.97    2.28
  -8   4   7   77.29    2.65
   7  -4  -7   16.13    1.15
  -7   4   7   15.45    1.20
  -7   4   7   17.01    1.16
  -7   4   7   16.25    0.95
   6  -4  -7  477.79   10.37
  -6  -4   7  467.83    9.91
  -6   4   7  474.86   12.90
  -6   4   7  472.95   10.83
  -6   4   7  485.46   10.12
  -5  -4   7    3.29    0.35
   5  -4  -7    3.61    0.55
  -5   4   7    2.88    0.57
  -5   4   7    3.46    0.65
  -5   4   7    2.97    0.44
   4  -4  -7   54.06    1.72
  -4  -4   7   54.52    1.37
  -4   4   7   52.50    1.80
  -4   4   7   49.66    2.11
  -4   4   7   54.66    1.56
  -3  -4   7   44.39    1.13
   3  -4  -7   44.73    1.44
  -3   4   7   35.82    1.29
  -3   4   7   46.29    1.91
   2  -4  -7   43.84    1.41
  -2  -4   7   44.62    1.16
  -2   4   7   43.47    1.91
   2   4  -7   44.48    1.43
  -2   4   7   44.21    1.29
   1  -4  -7  971.89   19.95
  -1  -4   7  973.22   19.75
  -1   4   7  991.79   19.85
  -1   4   7  988.62   25.76
   1   4  -7  969.02   20.94
   0  -4  -7  211.00    4.75
   0  -4   7  211.22    4.64
   0   4   7  210.77    4.64
   0   4   7  217.03    6.35
   0   4  -7  220.29    5.07
  -1  -4  -7   36.43    1.21
   1  -4   7   37.62    1.20
   1   4   7   37.94    1.15
  -1   4  -7   38.01    1.41
   1   4   7   34.48    1.79
   2  -4   7  730.96   15.14
  -2  -4  -7  732.24   15.07
   2   4   7  709.75   19.57
   2   4   7  728.15   14.97
  -2   4  -7  753.50   16.01
  -2   4  -7  738.34   14.71
  -3  -4  -7 1283.07   25.72
   3  -4   7 1291.77   25.88
  -3   4  -7 1267.25   25.43
   3   4   7 1284.25   25.63
   3   4   7 1164.79   33.19
  -3   4  -7 1304.93   27.21
  -4  -4  -7   35.84    1.34
   4  -4   7   37.71    1.49
  -4   4  -7   38.07    1.62
   4   4   7   37.80    1.28
   4   4   7   35.44    1.96
  -4   4  -7   37.29    1.13
  -5  -4  -7   32.09    1.29
   5  -4   7   29.71    1.44
   5   4   7   35.53    1.98
  -5   4  -7   31.54    1.11
  -5   4  -7   31.11    1.55
   5   4   7   31.22    1.21
  -6  -4  -7   28.75    1.30
   6  -4   7   31.66    1.54
  -6   4  -7   28.79    1.56
  -6   4  -7   28.30    1.14
   6   4   7   31.39    1.95
   6   4   7   27.96    1.23
   7  -5  -7  141.10    3.85
  -7   5   7  144.56    3.53
  -7   5   7  139.50    4.55
  -7   5   7  134.82    4.02
   6  -5  -7  253.89    6.02
  -6   5   7  259.87    5.72
  -6   5   7  257.47    7.48
  -6   5   7  245.17    6.29
   5  -5  -7   54.05    1.85
  -5   5   7   53.41    2.28
  -5   5   7   48.87    1.93
  -5   5   7   51.56    1.60
   4  -5  -7   -0.07    0.34
  -4   5   7    0.22    0.54
  -4   5   7    0.08    0.47
  -4   5   7    0.76    0.33
   3  -5  -7  435.75    9.24
  -3   5   7  433.70    8.99
  -3   5   7  417.63   11.92
  -3   5   7  431.50    9.71
   2  -5  -7   89.01    2.39
  -2   5   7   92.81    2.54
   2   5  -7   91.28    2.46
  -2   5   7   89.25    2.20
  -2   5   7   87.39    3.24
   1  -5  -7   89.50    2.33
  -1   5   7   85.05    3.21
  -1   5   7   88.43    2.43
  -1   5   7   86.77    2.13
   1   5  -7   90.93    2.46
   0  -5  -7  103.68    2.64
   0   5   7  105.97    2.72
   0   5   7  107.18    2.47
   0   5  -7  104.97    2.87
   0   5   7  105.15    3.70
  -1  -5  -7    3.74    0.46
   1  -5   7    3.65    0.43
   1   5   7    3.23    0.34
   1   5   7    3.40    0.44
   1   5   7    3.19    0.82
  -1   5  -7    3.37    0.57
   2  -5   7   29.00    1.13
  -2  -5  -7   28.32    1.10
   2   5   7   26.89    1.73
   2   5   7   28.10    0.93
  -2   5  -7   28.12    1.37
   3  -5   7   92.79    2.56
  -3  -5  -7   90.66    2.43
  -3   5  -7   90.36    2.81
   3   5   7   96.11    3.54
   3   5   7   93.07    2.25
   4  -5   7  536.52   11.61
  -4  -5  -7  547.41   11.41
  -4   5  -7  530.42   12.25
   4   5   7  544.80   15.00
  -5  -5  -7   11.47    0.91
   5  -5   7   11.37    1.02
   5   5   7   11.94    1.40
  -5   5  -7   10.69    1.16
   6  -6  -7  180.48    4.66
  -6   6   7  177.65    4.91
  -6   6   7  190.61    4.28
  -6   6   7  180.69    5.83
   5  -6  -7    3.47    0.62
  -5   6   7    4.33    0.50
  -5   6   7    5.52    0.99
  -5   6   7    3.93    0.75
   4  -6  -7   80.61    2.41
  -4   6   7   80.81    3.19
  -4   6   7   75.94    2.53
  -4   6   7   81.99    2.07
   3  -6  -7   62.28    1.97
  -3   6   7   63.75    2.13
   3   6  -7   64.22    1.92
  -3   6   7   63.24    1.68
  -3   6   7   60.89    2.73
   2  -6  -7   65.63    1.96
  -2   6   7   61.85    2.72
  -2   6   7   64.63    2.07
   2   6  -7   64.50    1.98
   1  -6  -7  392.96    8.34
   1   6  -7  391.07    8.76
  -1   6   7  397.51    8.74
  -1   6   7  362.90   10.97
   0  -6  -7   84.42    2.31
   0   6   7   86.59    3.36
   0   6  -7   86.84    2.58
   0   6   7   86.44    2.38
  -1  -6  -7    0.13    0.32
   1   6   7    0.79    0.74
  -1   6  -7    0.65    0.51
  -2  -6  -7  427.49    9.14
  -2   6  -7  427.42    9.87
   2   6   7  429.30   12.20
  -3  -6  -7  953.29   19.34
   3   6   7  925.04   25.23
  -3   6  -7  941.15   20.64
  -4  -6  -7    2.43    0.51
   4   6   7    2.18    0.91
  -4   6  -7    2.11    0.72
   4  -7  -7   16.04    1.11
  -4   7   7   16.53    1.64
  -4   7   7   14.96    1.26
   3  -7  -7   33.84    1.45
   3   7  -7   32.76    1.72
  -3   7   7   34.96    1.57
  -3   7   7   31.11    2.13
   2  -7  -7    0.22    0.39
  -2   7   7   -0.46    0.72
   2   7  -7    0.00    0.57
   2   7  -7   -0.32    0.45
  -2   7   7    0.89    0.51
   1  -7  -7  169.96    4.11
   1   7  -7  170.34    4.34
  -1   7   7  168.62    5.70
  -1   7   7  171.31    4.31
   0  -7  -7    9.37    0.80
   0   7   7    9.62    1.39
   0   7  -7    9.45    0.95
  -1   7  -7    1.24    0.60
   1   7   7    1.17    0.82
  -2   7  -7   22.05    1.42
   2   7   7   23.76    1.96
  -9   0   8   21.62    1.20
   9   0  -8   16.55    1.13
  -9   0   8   16.58    1.09
   8   0  -8   42.81    1.61
  -8   0   8   38.82    1.56
  -8   0   8   40.72    1.51
  -7   0   8  994.71   20.22
   7   0  -8  974.71   20.34
  -6   0   8   18.58    0.91
   6   0  -8   16.13    0.91
   5   0  -8  156.38    3.67
  -5   0   8  154.23    3.60
   4   0  -8  893.82   18.37
  -4   0   8  897.92   23.15
  -4   0   8  904.88   18.31
  -3   0   8  633.22   16.20
   3   0  -8  616.00   12.80
  -3   0   8  615.68   12.78
  -2   0   8 1178.99   29.96
  -2   0   8 1100.94   23.06
   2   0  -8 1113.01   23.05
   1   0  -8   14.00    0.63
  -1   0   8   12.20    0.64
   0   0   8  345.39    7.19
   0   0  -8  329.77    7.10
  -1   0  -8    5.85    0.54
  -1   0  -8    6.68    0.49
   1   0   8    7.09    0.57
  -2   0  -8  872.75   19.29
  -2   0  -8  913.03   18.41
   2   0   8  925.13   18.58
  -3   0  -8 1007.69   20.86
   3   0   8 1035.13   21.06
  -3   0  -8 1030.88   21.87
  -4   0  -8  434.87    9.32
  -4   0  -8  436.79    9.72
   4   0   8  446.91    9.55
   5   0   8  630.97   13.46
  -5   0  -8  628.38   13.21
  -5   0  -8  635.36   13.77
  -6   0  -8   28.17    1.23
  -6   0  -8   25.83    1.19
   6   0   8   26.93    1.43
  -7   0  -8   12.95    0.95
   7   0   8   12.57    1.20
  -7   0  -8   12.70    0.99
  -9  -1   8   -0.20    0.44
  -9  -1   8    1.76    0.51
   9  -1  -8    0.67    0.50
  -9   1   8    0.71    0.47
  -9   1   8    1.18    0.54
   9   1  -8    0.84    0.46
  -8  -1   8    2.23    0.50
   8  -1  -8    2.04    0.54
  -8  -1   8    2.10    0.47
   8   1  -8    1.33    0.44
  -8   1   8    1.61    0.53
  -8   1   8    1.62    0.45
   7  -1  -8    8.53    0.80
  -7  -1   8    7.22    0.71
  -7   1   8    9.05    0.77
   7   1  -8    8.62    0.72
   6  -1  -8   18.92    0.99
  -6  -1   8   18.52    0.88
  -6   1   8   18.80    0.93
   6   1  -8   17.52    0.88
  -5  -1   8  117.14    2.80
   5  -1  -8  118.68    2.96
  -5   1   8  114.82    2.85
  -5   1   8  117.71    3.32
   5   1  -8  114.28    2.81
  -4  -1   8  319.10    8.45
  -4  -1   8  313.65    6.84
   4  -1  -8  321.69    7.00
   4   1  -8  317.77    6.86
  -4   1   8  332.74    6.93
  -4   1   8  335.72    8.65
   3  -1  -8  242.21    5.29
  -3  -1   8  245.20    5.20
  -3  -1   8  236.00    6.46
  -3   1   8  237.16    5.23
  -3   1   8  246.74    6.60
   3   1  -8  235.94    5.16
   2  -1  -8   46.02    1.38
  -2  -1   8   48.76    1.35
   2   1  -8   45.88    1.29
  -2   1   8   50.74    1.73
  -2   1   8   48.38    1.38
   1  -1  -8  145.88    3.40
  -1  -1   8  153.23    3.41
   1   1  -8  151.43    3.33
  -1   1   8  146.98    3.42
  -1   1   8  152.68    4.39
   0  -1   8    5.01    0.47
   0  -1  -8    5.69    0.48
   0   1  -8    5.21    0.41
   0   1  -8    5.11    0.54
   0   1   8    6.90    0.72
  -1  -1  -8  107.76    2.59
   1  -1   8  111.63    2.68
   1   1   8  113.27    3.49
  -1   1  -8  106.04    2.75
   1   1   8  107.29    2.66
  -1   1  -8  103.50    2.52
  -2  -1  -8  108.28    2.66
   2  -1   8  112.42    2.80
  -2   1  -8  108.76    2.62
  -2   1  -8  113.42    2.84
   2   1   8  110.24    3.60
   2   1   8  108.69    2.77
   3  -1   8 1765.21   35.70
  -3  -1  -8 1724.06   35.51
   3   1   8 1735.96   35.65
  -3   1  -8 1761.21   37.28
   3   1   8 1798.44   45.71
  -3   1  -8 1785.29   36.54
   4  -1   8  372.67    8.18
  -4  -1  -8  376.06    8.22
  -4  -1  -8  372.02    7.96
  -4   1  -8  366.26    7.91
  -4   1  -8  367.93    8.35
   4   1   8  357.03   10.39
   4   1   8  377.20    8.14
  -5  -1  -8  111.69    2.83
   5  -1   8  109.78    3.05
  -5  -1  -8  108.72    2.79
   5   1   8  106.32    3.83
  -5   1  -8  106.54    2.94
   5   1   8  109.13    2.99
  -5   1  -8  104.68    2.76
   6  -1   8  134.01    3.68
  -6  -1  -8  135.43    3.42
  -6   1  -8  132.58    3.38
   6   1   8  133.41    4.58
  -6   1  -8  129.17    3.53
   6   1   8  135.65    3.60
   7  -1   8   88.27    2.87
  -7  -1  -8   89.70    2.60
  -7   1  -8   82.56    2.61
   7   1   8   91.13    3.54
   7   1   8   86.65    2.76
  -7   1  -8   84.41    2.52
  -9  -2   8  230.74    5.51
   9  -2  -8  242.87    5.92
  -9   2   8  238.30    5.61
  -9   2   8  237.98    5.97
  -8  -2   8   19.52    1.03
   8  -2  -8   20.16    1.24
  -8   2   8   18.85    1.26
  -8   2   8   19.06    1.07
  -7  -2   8  229.92    5.19
   7  -2  -8  229.11    5.49
  -7   2   8  232.91    5.29
   7   2  -8  226.93    5.11
  -7   2   8  235.79    5.69
   6  -2  -8  107.37    2.90
  -6  -2   8  108.55    2.66
   6   2  -8  105.85    2.57
  -6   2   8  106.03    2.75
  -5  -2   8    0.05    0.25
   5  -2  -8    0.93    0.37
  -5   2   8   -0.06    0.33
  -5   2   8    0.11    0.33
   5   2  -8    0.22    0.22
   4  -2  -8 1556.55   30.65
  -4  -2   8 1494.18   30.67
   4   2  -8 1503.39   30.96
  -4   2   8 1498.39   39.31
  -4   2   8 1501.48   30.52
  -3  -2   8  943.08   19.40
   3  -2  -8  962.34   19.60
   3   2  -8  961.44   19.51
   3   2  -8  987.29   19.33
  -3   2   8  932.16   19.51
  -3   2   8  964.59   24.95
  -2  -2   8  198.48    4.38
   2  -2  -8  200.80    4.51
   2   2  -8  204.94    4.29
  -2   2   8  200.68    4.46
   2   2  -8  196.65    4.26
  -2   2   8  206.07    5.75
  -1  -2   8    2.72    0.32
   1   2  -8    2.71    0.30
  -1   2   8    2.29    0.33
  -1   2   8    3.25    0.57
   1   2  -8    2.28    0.39
   0  -2  -8 1272.66   26.00
   0  -2   8 1256.93   26.00
   0   2   8 1287.04   26.25
   0   2   8 1335.84   33.82
   0   2  -8 1261.58   26.00
   0   2  -8 1288.47   27.32
   0   2  -8 1302.14   26.07
   1  -2   8  141.07    3.34
  -1  -2  -8  141.19    3.29
   1   2   8  143.11    4.36
  -1   2  -8  139.05    3.14
  -1   2  -8  139.09    3.49
   1   2   8  144.01    3.33
   2  -2   8 1568.68   31.60
  -2  -2  -8 1529.28   31.47
  -2   2  -8 1593.67   33.11
   2   2   8 1604.63   40.53
  -2   2  -8 1522.73   31.87
   2   2   8 1538.78   31.79
   3  -2   8 2182.24   44.34
  -3  -2  -8 2228.83   45.17
   3   2   8 2215.73   44.27
  -3   2  -8 2207.72   46.42
   3   2   8 2194.85   56.79
  -3   2  -8 2149.49   45.04
  -4  -2  -8  566.55   11.67
   4  -2   8  548.39   11.86
   4   2   8  559.17   11.76
   4   2   8  554.55   15.14
  -4   2  -8  545.58   12.29
  -4   2  -8  553.23   11.55
  -5  -2  -8   78.95    2.23
   5  -2   8   78.69    2.47
   5   2   8   82.06    3.11
   5   2   8   78.34    2.34
  -5   2  -8   74.65    2.13
  -5   2  -8   75.72    2.40
  -6  -2  -8   44.49    1.59
   6  -2   8   42.25    1.81
  -6   2  -8   44.99    1.52
   6   2   8   37.96    2.22
  -6   2  -8   39.83    1.66
   6   2   8   43.28    1.69
   7  -2   8   56.66    2.21
  -7  -2  -8   57.68    1.98
  -7   2  -8   56.17    1.87
  -7   2  -8   58.56    2.10
   7   2   8   47.46    2.61
   7   2   8   57.32    2.07
  -8  -3   8  129.64    3.20
   8  -3  -8  126.86    3.57
  -8   3   8  121.80    3.31
  -8   3   8  125.98    3.66
   7  -3  -8   16.30    1.14
  -7  -3   8   15.90    0.85
  -7   3   8   15.35    0.97
  -7   3   8   15.54    1.14
  -6  -3   8   49.22    1.48
   6  -3  -8   49.52    1.77
  -6   3   8   50.42    1.86
  -6   3   8   51.38    1.63
  -6   3   8   48.02    1.89
  -5  -3   8  279.10    5.97
   5  -3  -8  278.88    6.32
  -5   3   8  277.29    6.13
  -5   3   8  279.77    7.77
  -4  -3   8  612.70   12.65
   4  -3  -8  619.39   12.98
  -4   3   8  621.77   12.83
  -4   3   8  618.59   16.41
   3  -3  -8  545.80   11.58
  -3  -3   8  545.06   11.32
  -3   3   8  557.89   14.79
  -3   3   8  559.70   11.48
  -2  -3   8    0.37    0.22
   2  -3  -8    0.09    0.29
  -2   3   8    0.50    0.30
  -2   3   8    0.96    0.45
   2   3  -8    0.39    0.35
  -1  -3   8   28.35    0.95
   1  -3  -8   29.21    1.07
  -1   3   8   29.16    1.50
   1   3  -8   30.14    1.15
  -1   3   8   29.76    1.03
   0  -3  -8    0.33    0.29
   0  -3   8    0.30    0.25
   0   3  -8    0.50    0.16
   0   3  -8    0.08    0.36
   0   3  -8    0.00    0.14
   0   3   8    0.49    0.53
   0   3   8    0.12    0.27
   1  -3   8  503.96   10.43
  -1  -3  -8  509.27   10.42
  -1   3  -8  492.96   10.13
   1   3   8  496.77   10.38
  -1   3  -8  505.58   11.01
   1   3   8  475.02   13.50
  -2  -3  -8  363.11    7.77
   2  -3   8  361.78    7.86
  -2   3  -8  360.28    7.55
   2   3   8  362.88   10.19
  -2   3  -8  370.28    8.29
   2   3   8  362.34    7.76
   3  -3   8  858.26   17.73
  -3  -3  -8  849.34   17.58
  -3   3  -8  861.62   18.59
  -3   3  -8  849.17   17.39
   3   3   8  849.36   22.77
   3   3   8  862.15   17.60
   4  -3   8  773.19   16.00
  -4  -3  -8  779.48   15.80
   4   3   8  780.51   15.81
   4   3   8  706.96   20.42
  -4   3  -8  772.55   16.71
  -4   3  -8  753.24   15.60
  -5  -3  -8  111.99    2.93
   5  -3   8  108.94    3.13
   5   3   8  110.85    2.94
   5   3   8  108.49    3.99
  -5   3  -8  109.02    3.19
  -5   3  -8  114.59    2.79
   6  -3   8    0.66    0.52
  -6  -3  -8    1.14    0.44
   6   3   8    1.44    0.79
   6   3   8    1.37    0.49
  -6   3  -8    1.39    0.42
  -6   3  -8    1.05    0.58
   8  -4  -8   16.17    1.24
  -8   4   8   14.89    1.06
  -8   4   8   15.06    1.29
   7  -4  -8  404.50    9.04
  -7   4   8  408.18    8.74
  -7   4   8  388.02    9.39
   6  -4  -8   37.21    1.55
  -6   4   8   36.24    1.73
  -6   4   8   35.65    1.63
  -6   4   8   35.53    1.37
   5  -4  -8   28.24    1.28
  -5  -4   8   28.01    0.97
  -5   4   8   28.51    1.38
  -5   4   8   28.34    1.53
  -5   4   8   28.80    1.15
  -4  -4   8  720.03   14.58
   4  -4  -8  703.01   14.97
  -4   4   8  723.31   15.72
  -4   4   8  722.94   14.80
  -4   4   8  712.80   19.09
  -3  -4   8  422.31    8.74
   3  -4  -8  426.92    9.09
  -3   4   8  431.44    8.94
  -3   4   8  413.72   11.64
   2  -4  -8  298.17    6.44
  -2  -4   8  292.09    6.15
   2   4  -8  282.42    6.65
  -2   4   8  287.86    8.33
  -2   4   8  300.18    6.31
  -1  -4   8    2.05    0.31
   1  -4  -8    1.43    0.37
   1   4  -8    1.99    0.45
  -1   4   8    1.89    0.65
  -1   4   8    1.66    0.34
   0  -4   8  384.75    8.12
   0  -4  -8  382.95    8.23
   0   4  -8  393.70    8.71
   0   4   8  388.50    8.13
   0   4   8  379.40   10.77
  -1  -4  -8   25.80    1.02
   1  -4   8   26.32    1.01
  -1   4  -8   25.78    1.20
   1   4   8   22.50    1.46
   1   4   8   24.85    0.97
   2  -4   8  897.10   18.23
  -2  -4  -8  886.84   18.16
  -2   4  -8  882.75   19.23
   2   4   8  846.94   23.54
   2   4   8  909.32   18.09
  -3  -4  -8 1166.01   23.84
   3  -4   8 1158.22   23.97
  -3   4  -8 1178.23   25.22
   3   4   8 1185.94   23.76
  -3   4  -8 1166.94   23.53
   3   4   8 1154.79   30.84
  -4  -4  -8  339.49    7.30
   4  -4   8  331.42    7.48
  -4   4  -8  334.91    7.87
   4   4   8  330.68    7.18
  -4   4  -8  332.43    7.00
   4   4   8  317.89    9.61
   5  -4   8  164.76    4.29
  -5  -4  -8  169.12    4.06
  -5   4  -8  163.90    4.47
   5   4   8  169.60    3.97
  -5   4  -8  166.12    3.87
   5   4   8  157.61    5.45
   6  -4   8   23.65    1.43
  -6  -4  -8   24.95    1.26
   6   4   8   24.00    1.90
  -6   4  -8   24.10    1.49
   7  -5  -8    3.82    0.72
  -7   5   8    3.77    0.76
  -7   5   8    4.51    0.61
  -7   5   8    4.21    0.84
   6  -5  -8   63.89    2.18
  -6   5   8   60.34    1.92
  -6   5   8   62.60    2.56
  -6   5   8   60.95    2.29
   5  -5  -8   41.90    1.63
  -5   5   8   43.75    1.45
  -5   5   8   39.56    1.74
  -5   5   8   41.69    2.04
   4  -5  -8   81.39    2.47
  -4   5   8   84.36    2.64
  -4   5   8   97.36    3.30
  -4   5   8   83.79    2.26
   3  -5  -8   41.26    1.51
  -3   5   8   37.55    1.96
  -3   5   8   42.06    1.32
  -3   5   8   40.33    1.58
   2  -5  -8   90.38    2.51
  -2   5   8   95.07    2.65
  -2   5   8   91.16    2.33
   2   5  -8   95.22    2.59
  -2   5   8   95.75    3.43
   1  -5  -8  115.70    2.93
  -1   5   8  115.81    2.74
  -1   5   8  113.49    4.00
   1   5  -8  117.35    3.10
   0  -5  -8    7.27    0.68
   0   5   8    7.61    0.57
   0   5   8    6.59    0.96
   0   5  -8    7.68    0.83
   1  -5   8    9.60    0.69
  -1  -5  -8    9.40    0.71
   1   5   8    8.98    1.20
  -1   5  -8    9.46    0.93
   1   5   8   10.24    0.62
  -2  -5  -8   26.98    1.13
   2  -5   8   28.59    1.17
   2   5   8   27.91    0.99
   2   5   8   24.66    1.75
  -2   5  -8   26.39    1.38
  -3  -5  -8  943.41   19.44
   3  -5   8  947.79   19.57
   3   5   8  956.24   19.24
   3   5   8  937.44   25.30
  -3   5  -8  937.08   20.66
  -4  -5  -8  118.13    2.92
   4  -5   8  105.64    3.01
   4   5   8  100.33    3.96
  -4   5  -8  103.05    3.24
  -5  -5  -8   48.27    1.72
   5  -5   8   46.99    1.88
   5   5   8   49.54    2.60
  -5   5  -8   46.36    2.06
   6  -6  -8   15.60    1.18
  -6   6   8   17.27    1.55
  -6   6   8   16.49    1.35
  -6   6   8   16.43    0.97
   5  -6  -8   59.34    2.10
  -5   6   8   61.32    2.29
  -5   6   8   61.20    2.75
  -5   6   8   62.04    1.81
   4  -6  -8  346.96    7.73
  -4   6   8  347.59    7.36
  -4   6   8  331.23    8.11
  -4   6   8  346.72   10.00
   3  -6  -8  171.54    4.15
  -3   6   8  161.41    5.44
  -3   6   8  165.66    4.34
  -3   6   8  169.59    3.80
   2  -6  -8  233.74    5.44
  -2   6   8  241.94    5.17
  -2   6   8  241.33    5.74
  -2   6   8  224.23    7.18
   2   6  -8  237.30    5.64
   1  -6  -8    2.16    0.47
   1   6  -8    2.26    0.57
  -1   6   8    1.72    0.78
  -1   6   8    2.65    0.53
   0  -6  -8   84.89    2.38
   0   6  -8   89.00    2.65
   0   6   8   90.10    2.46
   0   6   8   82.07    3.39
  -1  -6  -8    9.16    0.78
  -1   6  -8    9.45    1.00
   1   6   8    8.26    1.21
  -2  -6  -8  413.15    8.75
  -2   6  -8  403.38    9.42
   2   6   8  393.63   11.61
  -3  -6  -8  563.79   11.98
  -3   6  -8  562.95   12.90
   3   6   8  570.56   15.85
  -4   7   8  210.92    6.79
   3  -7  -8  176.76    4.42
  -3   7   8  172.67    4.66
  -3   7   8  183.25    5.98
   2  -7  -8   28.08    1.34
   2   7  -8   30.01    1.44
  -2   7   8   30.88    1.46
  -2   7   8   32.93    2.10
   1  -7  -8   11.57    0.92
  -1   7   8   13.25    1.00
  -1   7   8   12.07    1.55
   1   7  -8   13.33    1.08
   0  -7  -8    0.76    0.43
   0   7  -8    0.27    0.56
   0   7   8    0.55    0.80
  -1  -7  -8  118.35    3.11
   1   7   8  121.78    4.51
  -1   7  -8  118.54    3.48
  -9   0   9    0.89    0.52
   9   0  -9    0.40    0.47
   8   0  -9   52.55    1.85
  -8   0   9   51.27    1.74
  -7   0   9   80.78    2.27
   7   0  -9   82.34    2.39
   6   0  -9   18.08    0.96
  -6   0   9   19.01    0.94
   5   0  -9  893.28   18.55
  -5   0   9  911.83   18.50
  -4   0   9    4.47    0.52
  -4   0   9    4.67    0.55
   4   0  -9    4.07    0.46
   3   0  -9  535.98   11.34
  -3   0   9  560.16   11.35
  -3   0   9  542.13   14.34
  -2   0   9    0.61    0.27
   2   0  -9    0.21    0.24
  -2   0   9    0.18    0.32
   1   0  -9  749.84   15.70
  -1   0   9  786.77   20.16
   0   0  -9  704.17   14.59
   0   0   9  719.21   14.68
   1   0   9    1.18    0.35
  -1   0  -9    1.70    0.32
  -2   0  -9 2770.26   59.22
   2   0   9 2657.94   56.19
  -2   0  -9 2740.11   56.33
   3   0   9   -0.03    0.36
  -3   0  -9    0.57    0.38
  -3   0  -9   -0.14    0.31
   4   0   9   10.01    0.92
  -4   0  -9   10.77    0.75
  -4   0  -9   10.88    0.84
  -5   0  -9  111.60    3.03
   5   0   9  117.17    3.20
  -5   0  -9  111.48    2.95
  -6   0  -9    8.28    0.81
   6   0   9    8.86    1.04
  -6   0  -9    7.83    0.83
  -9  -1   9  306.78    7.05
  -9  -1   9  320.70    7.34
   9  -1  -9  312.04    7.32
  -9   1   9  311.05    7.51
  -9   1   9  313.35    7.12
   8  -1  -9  130.61    3.50
  -8  -1   9  127.86    3.25
   8   1  -9  127.77    3.28
  -8   1   9  120.49    3.49
  -8   1   9  126.30    3.29
   7  -1  -9    0.98    0.43
  -7  -1   9    0.82    0.38
  -7   1   9    1.03    0.41
   7   1  -9    0.79    0.37
   6  -1  -9  622.46   13.24
  -6  -1   9  626.42   13.04
   6   1  -9  634.89   13.09
  -6   1   9  624.78   13.12
  -5  -1   9  956.32   20.10
   5  -1  -9  994.41   20.29
   5   1  -9  968.68   20.11
  -5   1   9 1003.81   25.49
  -5   1   9 1008.48   20.20
  -4  -1   9    9.68    0.61
  -4   1   9   10.34    0.73
   4   1  -9    9.54    0.60
  -4   1   9   11.07    0.72
   3  -1  -9 2046.60   41.52
  -3  -1   9 2020.17   52.88
  -3  -1   9 1975.00   41.91
  -3   1   9 2070.92   42.57
   3   1  -9 1987.26   41.48
  -3   1   9 2160.07   54.04
  -2  -1   9   15.16    0.74
   2  -1  -9   16.21    0.77
   2   1  -9   15.21    0.67
  -2   1   9   17.11    0.99
  -2   1   9   15.35    0.76
   1  -1  -9  447.40    9.40
  -1  -1   9  451.99    9.41
  -1   1   9  452.04    9.43
   1   1  -9  440.04    9.31
  -1   1   9  451.56   12.06
   0  -1   9  960.90   19.62
   0  -1  -9  991.26   19.59
   0   1   9  964.89   19.64
   0   1  -9  946.47   19.48
   0   1   9  934.04   25.13
   0   1  -9  967.84   20.59
  -1  -1  -9  262.93    5.80
   1  -1   9  262.33    5.89
   1   1   9  270.23    5.89
  -1   1  -9  265.96    5.73
  -1   1  -9  260.76    6.11
   1   1   9  275.24    7.61
  -2  -1  -9  515.42   10.70
   2  -1   9  500.02   10.82
  -2   1  -9  504.55   11.24
   2   1   9  510.95   10.80
   2   1   9  515.06   13.90
  -2   1  -9  517.28   10.63
   3  -1   9  158.23    3.89
  -3  -1  -9  157.51    3.72
  -3   1  -9  161.03    3.66
   3   1   9  150.12    4.96
   3   1   9  156.08    3.84
  -3   1  -9  157.79    3.92
   4  -1   9   16.79    1.06
  -4  -1  -9   16.07    0.90
   4   1   9   18.96    1.07
  -4   1  -9   15.09    0.85
   4   1   9   17.63    1.47
  -4   1  -9   16.55    1.03
   5  -1   9   59.09    2.08
  -5  -1  -9   60.12    1.88
  -5  -1  -9   58.60    1.82
   5   1   9   58.96    2.69
   5   1   9   59.73    2.04
  -5   1  -9   58.81    1.96
  -5   1  -9   60.35    1.84
   6  -1   9   82.05    2.64
  -6  -1  -9   80.96    2.39
  -6   1  -9   80.53    2.48
   6   1   9   78.19    3.29
   6   1   9   84.67    2.62
  -6   1  -9   78.67    2.35
  -8  -2   9   33.76    1.34
   8  -2  -9   34.66    1.57
  -8   2   9   32.07    1.60
  -8   2   9   32.25    1.40
   7  -2  -9  254.13    5.96
  -7  -2   9  253.83    5.65
  -7   2   9  252.03    5.75
  -7   2   9  248.54    6.15
  -6  -2   9   34.40    1.22
   6  -2  -9   37.52    1.49
   6   2  -9   36.07    1.16
  -6   2   9   35.56    1.34
  -5  -2   9  241.96    5.29
   5  -2  -9  245.42    5.55
   5   2  -9  235.28    5.19
  -5   2   9  239.47    5.40
  -5   2   9  243.09    6.69
  -4  -2   9   12.00    0.68
   4  -2  -9   11.72    0.81
   4   2  -9   11.91    0.57
  -4   2   9   12.21    0.78
  -4   2   9   13.29    0.91
  -3  -2   9   57.70    1.60
   3  -2  -9   60.00    1.77
   3   2  -9   59.17    1.50
  -3   2   9   60.84    2.16
  -3   2   9   58.28    1.70
   2  -2  -9    8.09    0.64
  -2  -2   9    7.18    0.55
  -2   2   9    7.94    0.62
  -2   2   9    8.31    0.86
   2   2  -9    8.24    0.46
   1  -2  -9   59.76    1.69
  -1  -2   9   56.79    1.62
   1   2  -9   59.95    1.54
   1   2  -9   57.02    1.79
  -1   2   9   58.89    2.20
  -1   2   9   55.52    1.65
   1   2  -9   59.94    1.49
   0  -2   9 1426.35   29.33
   0  -2  -9 1458.29   29.34
   0   2  -9 1434.37   30.81
   0   2   9 1475.46   37.71
   0   2  -9 1447.26   29.90
   0   2   9 1462.73   29.60
  -1  -2  -9   98.71    2.50
   1  -2   9   99.45    2.55
  -1   2  -9   96.11    2.34
   1   2   9   96.92    3.34
  -1   2  -9  100.41    2.68
   1   2   9  100.25    2.55
  -2  -2  -9  928.06   19.19
   2  -2   9  942.18   19.32
   2   2   9  929.11   19.26
  -2   2  -9  951.46   20.22
  -2   2  -9  931.04   19.06
   2   2   9  942.63   24.79
   3  -2   9   -0.27    0.37
  -3  -2  -9   -0.29    0.35
  -3   2  -9    0.16    0.29
   3   2   9    0.00    0.38
   3   2   9    0.30    0.63
  -3   2  -9   -0.40    0.42
  -4  -2  -9  134.29    3.36
   4  -2   9  139.07    3.57
  -4   2  -9  133.69    3.24
  -4   2  -9  134.87    3.59
   4   2   9  128.27    4.50
   4   2   9  136.70    3.46
  -5  -2  -9   29.61    1.27
   5  -2   9   28.53    1.43
  -5   2  -9   27.66    1.41
   5   2   9   29.80    1.90
  -5   2  -9   30.26    1.20
   5   2   9   29.43    1.38
  -6  -2  -9   57.23    1.92
   6  -2   9   56.81    2.16
  -6   2  -9   57.38    1.84
   6   2   9   56.41    2.78
   6   2   9   56.27    2.03
  -6   2  -9   55.64    2.05
   8  -3  -9  147.11    4.01
  -8  -3   9  146.23    3.58
  -8   3   9  147.37    3.73
  -8   3   9  139.02    4.07
   7  -3  -9   88.40    2.67
  -7  -3   9   86.88    2.29
  -7   3   9   78.26    2.67
  -7   3   9   85.97    2.43
   6  -3  -9  216.87    5.23
  -6  -3   9  219.84    4.86
  -6   3   9  215.56    5.02
  -6   3   9  216.57    5.43
  -6   3   9  218.95    6.21
  -5  -3   9  442.06    9.30
   5  -3  -9  443.17    9.64
  -5   3   9  448.14   12.03
   4  -3  -9   30.62    1.30
  -4  -3   9   31.01    1.04
  -4   3   9   29.37    1.15
  -4   3   9   30.07    1.46
   3  -3  -9 1832.34   37.10
  -3  -3   9 1820.08   36.83
  -3   3   9 1855.89   37.42
  -3   3   9 1830.53   47.43
   2  -3  -9  116.68    2.94
  -2  -3   9  117.52    2.75
  -2   3   9  116.64    3.77
  -2   3   9  116.10    2.85
  -1  -3   9  430.76    9.18
   1  -3  -9  429.94    9.29
   1   3  -9  450.28    8.88
  -1   3   9  438.54   12.02
   1   3  -9  447.65    9.78
  -1   3   9  436.57    9.25
   0  -3   9 1444.24   29.14
   0  -3  -9 1442.15   28.96
   0   3   9 1370.90   37.21
   0   3   9 1417.92   28.91
   0   3  -9 1436.43   28.95
   0   3  -9 1463.55   30.44
  -1  -3  -9    0.66    0.36
   1  -3   9    0.91    0.36
   1   3   9    1.69    0.68
   1   3   9    1.47    0.39
  -1   3  -9    1.13    0.48
  -1   3  -9    1.15    0.24
   2  -3   9  628.99   12.99
  -2  -3  -9  618.11   12.88
   2   3   9  619.02   12.88
  -2   3  -9  641.67   13.66
  -2   3  -9  621.96   12.65
   2   3   9  575.45   16.68
   3  -3   9    0.75    0.43
  -3  -3  -9    0.88    0.38
   3   3   9    2.03    0.77
  -3   3  -9    1.87    0.60
   3   3   9    1.47    0.42
  -3   3  -9    1.36    0.31
  -4  -3  -9    5.19    0.60
   4  -3   9    5.41    0.70
  -4   3  -9    3.77    0.69
  -4   3  -9    5.12    0.58
   4   3   9    5.04    0.61
   4   3   9    6.16    1.03
   5  -3   9    4.15    0.69
  -5  -3  -9    3.39    0.55
  -5   3  -9    4.96    0.55
  -5   3  -9    3.86    0.71
   5   3   9    4.52    1.01
   5   3   9    4.23    0.62
   6  -3   9  154.17    4.20
  -6  -3  -9  158.67    3.96
   6   3   9  145.45    5.27
   6   3   9  159.57    3.98
  -6   3  -9  152.70    4.24
  -6   3  -9  153.47    3.76
   7  -4  -9  112.53    3.28
  -7   4   9  112.70    3.42
  -7   4   9  114.26    3.04
   6  -4  -9    0.26    0.46
  -6   4   9    1.36    0.44
  -6   4   9    1.32    0.55
  -6   4   9    1.15    0.59
   5  -4  -9  348.24    7.64
  -5   4   9  346.40    7.41
  -5   4   9  326.70    7.95
  -5   4   9  335.34    9.52
   4  -4  -9    3.34    0.58
  -4  -4   9    3.18    0.39
  -4   4   9    1.99    0.63
  -4   4   9    4.73    0.55
   3  -4  -9  172.26    4.13
  -3  -4   9  172.30    3.81
  -3   4   9  175.14    3.98
  -3   4   9  167.09    5.28
  -2  -4   9    7.29    0.54
   2  -4  -9    7.12    0.73
  -2   4   9    8.72    1.03
   2   4  -9    9.59    0.84
  -2   4   9    6.86    0.64
   1  -4  -9  102.31    2.64
  -1  -4   9  104.08    2.48
   1   4  -9  101.80    2.80
  -1   4   9   97.48    3.53
  -1   4   9  102.29    2.54
   0  -4  -9  600.97   12.75
   0  -4   9  620.52   12.66
   0   4   9  626.12   12.66
   0   4  -9  608.45   13.44
   0   4   9  594.82   16.53
  -1  -4  -9   25.72    1.09
   1  -4   9   26.42    1.08
   1   4   9   27.36    1.69
   1   4   9   26.14    1.05
  -1   4  -9   25.89    1.23
  -2  -4  -9 1034.18   21.34
   2  -4   9 1075.13   21.42
  -2   4  -9 1048.56   22.55
   2   4   9  994.45   27.62
   2   4   9 1053.76   21.26
   3  -4   9    0.69    0.45
  -3  -4  -9   -0.20    0.37
  -3   4  -9    0.94    0.58
   3   4   9    0.87    0.71
   3   4   9    0.06    0.35
   4  -4   9   23.41    1.26
  -4  -4  -9   23.48    1.20
   4   4   9   24.56    1.10
  -4   4  -9   23.32    1.40
   4   4   9   25.85    1.87
   5  -4   9   36.33    1.67
  -5  -4  -9   36.46    1.49
   5   4   9   36.22    1.41
  -5   4  -9   36.68    1.75
   5   4   9   36.64    2.22
   6  -5  -9  450.13   10.05
  -6   5   9  458.10   12.59
  -6   5   9  435.82   10.49
  -6   5   9  465.13    9.75
   5  -5  -9  649.24   13.76
  -5   5   9  651.75   13.45
  -5   5   9  627.78   14.41
  -5   5   9  646.50   17.49
   4  -5  -9  107.93    2.93
  -4   5   9   97.70    3.01
  -4   5   9  106.88    2.67
  -4   5   9  101.33    3.67
   3  -5  -9 1019.33   20.88
  -3   5   9  968.10   26.77
  -3   5   9 1062.90   20.67
  -3   5   9  990.36   21.88
   2  -5  -9   35.37    1.38
  -2   5   9   35.13    1.22
  -2   5   9   36.10    1.93
   2   5  -9   35.45    1.42
   1  -5  -9  102.76    2.75
  -1   5   9  103.62    3.76
   1   5  -9  103.38    2.89
  -1   5   9  104.13    2.57
   0  -5  -9  248.84    5.18
   0   5   9  211.32    6.81
   0   5   9  218.80    4.92
   0   5  -9  213.95    5.45
   1  -5   9  152.53    3.66
  -1  -5  -9  154.26    3.69
   1   5   9  144.83    5.02
   1   5   9  153.11    3.50
  -1   5  -9  149.34    4.02
  -2  -5  -9  244.37    5.54
   2  -5   9  247.01    5.57
   2   5   9  232.80    7.43
  -2   5  -9  237.70    6.00
   2   5   9  250.36    5.36
  -3  -5  -9  152.98    3.79
   3  -5   9  156.49    3.92
   3   5   9  151.16    5.24
  -3   5  -9  150.48    4.23
   3   5   9  159.89    3.64
   4  -5   9    4.91    0.70
  -4  -5  -9    4.28    0.61
  -4   5  -9    5.18    0.88
   4   5   9    4.77    1.07
   5  -6  -9  273.78    6.51
  -5   6   9  283.34    6.15
  -5   6   9  268.56    6.85
  -5   6   9  277.75    8.30
   4  -6  -9    0.00    0.47
  -4   6   9    0.68    0.61
  -4   6   9    0.73    0.78
  -4   6   9    0.65    0.39
   3  -6  -9  210.72    5.04
  -3   6   9  207.82    6.62
  -3   6   9  212.66    4.70
  -3   6   9  204.28    5.26
   2  -6  -9   15.89    1.05
  -2   6   9   17.19    0.83
  -2   6   9   17.24    1.56
   2   6  -9   17.51    1.13
  -2   6   9   18.15    1.11
   1  -6  -9  120.82    3.16
  -1   6   9  118.14    4.34
   1   6  -9  119.69    3.33
  -1   6   9  123.44    3.30
   0  -6  -9  263.02    5.87
   0   6   9  260.85    6.05
   0   6  -9  255.78    6.25
   0   6   9  245.53    7.85
  -1  -6  -9   -0.06    0.42
  -1   6  -9    0.14    0.58
   1   6   9    0.55    0.77
  -2  -6  -9  920.02   18.78
   2   6   9  895.32   24.49
  -2   6  -9  901.31   19.95
  -3  -6  -9    0.40    0.46
  -3   6  -9    0.80    0.69
   3   6   9    0.99    0.90
   2  -7  -9   31.38    1.46
  -2   7   9   29.78    2.11
  -2   7   9   33.12    1.54
   2   7  -9   31.08    1.50
   1  -7  -9  117.81    3.19
   1   7  -9  113.79    3.32
  -1   7   9  118.36    4.44
  -1   7   9  117.78    3.28
   0  -7  -9  310.58    6.87
   0   7   9  298.97    9.22
   0   7  -9  295.83    7.28
  -8   0  10  125.46    3.26
   8   0 -10  123.57    3.35
  -7   0  10    9.44    0.83
   7   0 -10    9.18    0.84
   6   0 -10  671.17   14.05
  -6   0  10  669.34   13.97
   5   0 -10 1064.53   21.55
  -5   0  10 1038.22   21.48
   4   0 -10 1723.09   35.61
  -4   0  10 1770.83   35.77
  -4   0  10 1758.06   45.19
   3   0 -10   22.38    0.95
  -3   0  10   20.59    0.96
  -3   0  10   23.67    1.11
  -2   0  10   63.20    2.24
  -2   0  10   64.71    1.82
   2   0 -10   68.30    1.82
  -1   0  10  288.58    6.18
  -1   0  10  276.48    7.86
   1   0 -10  281.03    6.11
   0   0  10  102.50    2.64
   0   0 -10  102.17    2.54
  -1   0 -10   76.81    2.05
   1   0  10   75.95    2.15
   2   0  10  798.12   16.31
  -2   0 -10  768.17   16.12
  -3   0 -10  141.95    3.48
  -3   0 -10  142.23    3.66
   3   0  10  148.75    3.70
   4   0  10    2.46    0.56
  -4   0 -10    3.37    0.54
  -4   0 -10    3.15    0.55
  -5   0 -10    3.40    0.60
   5   0  10    6.16    0.77
  -5   0 -10    3.94    0.58
  -6   0 -10   38.48    1.57
  -6   0 -10   36.80    1.54
   6   0  10   39.72    1.80
   8  -1 -10  189.03    4.69
  -8  -1  10  186.52    4.44
   8   1 -10  184.49    4.45
  -8   1  10  186.28    4.50
  -8   1  10  175.84    4.76
   7  -1 -10   11.81    0.94
  -7  -1  10   11.62    0.90
   7   1 -10   10.51    0.80
  -7   1  10   11.43    0.86
  -6  -1  10   63.59    1.88
   6  -1 -10   62.64    2.02
   6   1 -10   65.92    1.90
  -6   1  10   64.69    1.94
  -5  -1  10   15.41    0.85
   5  -1 -10   15.37    0.92
  -5   1  10   16.55    0.89
  -5   1  10   15.11    0.89
   5   1 -10   15.75    0.82
  -4  -1  10 2253.31   46.55
  -4  -1  10 2241.55   58.96
   4  -1 -10 2294.18   47.17
  -4   1  10 2257.76   45.56
  -4   1  10 2309.08   59.22
   4   1 -10 2235.91   46.62
  -3  -1  10   99.01    2.48
  -3  -1  10   97.40    3.02
   3  -1 -10   98.01    2.56
  -3   1  10   97.67    2.52
  -3   1  10  103.72    3.15
   3   1 -10   95.70    2.42
  -2  -1  10  158.56    3.63
   2  -1 -10  157.37    3.67
  -2   1  10  155.49    4.63
  -2   1  10  152.44    3.65
   2   1 -10  155.00    3.55
   1  -1 -10  383.29    8.25
  -1  -1  10  390.14    8.26
  -1   1  10  394.31    8.28
   1   1 -10  381.42    8.15
  -1   1  10  387.57   10.58
   0  -1 -10  236.37    5.23
   0  -1  10  240.56    5.28
   0   1 -10  228.99    5.12
   0   1  10  233.37    6.77
  -1  -1 -10  109.96    2.73
   1  -1  10  107.22    2.81
  -1   1 -10  107.92    2.65
   1   1  10  107.72    2.80
  -1   1 -10  109.45    2.92
   1   1  10  110.23    3.67
   2  -1  10   27.78    1.22
  -2  -1 -10   26.73    1.10
  -2   1 -10   28.76    1.24
   2   1  10   25.67    1.62
   2   1  10   28.70    1.22
  -2   1 -10   28.90    1.07
   3  -1  10   19.51    1.13
  -3  -1 -10   21.97    1.03
  -3   1 -10   20.88    1.11
  -3   1 -10   20.90    0.97
   3   1  10   21.43    1.55
   3   1  10   20.54    1.10
  -4  -1 -10   12.97    0.95
   4  -1  10   13.66    1.06
   4   1  10   11.84    1.38
  -4   1 -10   14.56    0.88
  -4   1 -10   13.97    1.02
   4   1  10   15.41    1.02
  -5  -1 -10   86.96    2.50
   5  -1  10   86.59    2.71
  -5   1 -10   85.64    2.44
  -5   1 -10   87.39    2.63
   5   1  10   85.68    2.65
   5   1  10   90.74    3.53
   6  -1  10  547.78   12.11
  -6  -1 -10  556.82   11.83
  -6   1 -10  548.55   12.33
  -6   1 -10  550.85   11.75
   6   1  10  523.54   15.37
   6   1  10  566.03   12.05
  -8  -2  10   11.53    0.88
   8  -2 -10   11.24    1.06
  -8   2  10   10.85    0.92
  -8   2  10    9.88    1.06
   7  -2 -10  119.08    3.35
  -7  -2  10  124.01    3.12
  -7   2  10  120.81    3.18
  -6  -2  10  134.76    3.32
   6  -2 -10  138.87    3.59
  -6   2  10  141.74    3.50
   6   2 -10  133.79    3.21
   5  -2 -10  806.92   16.68
  -5  -2  10  785.22   16.40
  -5   2  10  794.03   16.53
  -5   2  10  813.51   20.95
   5   2 -10  795.48   16.31
   4  -2 -10 2785.30   55.80
  -4  -2  10 2825.06   55.85
   4   2 -10 2718.84   56.29
  -4   2  10 2808.44   72.68
  -4   2  10 2731.19   55.86
  -3  -2  10   -0.09    0.28
   3  -2 -10    0.15    0.35
   3   2 -10    0.15    0.22
  -3   2  10    0.23    0.35
  -3   2  10    0.32    0.44
  -2  -2  10  440.42    9.28
   2  -2 -10  445.97    9.41
  -2   2  10  442.75    9.35
  -2   2  10  438.86   11.98
   2   2 -10  438.39    9.13
   1  -2 -10    3.83    0.47
  -1  -2  10    4.19    0.47
  -1   2  10    3.14    0.63
  -1   2  10    3.52    0.45
   1   2 -10    4.66    0.43
   0  -2  10   11.02    0.75
   0  -2 -10   11.58    0.75
   0   2  10   12.54    1.14
   0   2  10   12.03    0.80
   0   2 -10   11.64    0.82
   0   2 -10   12.52    0.62
   1  -2  10  756.46   15.74
  -1  -2 -10  778.09   15.69
   1   2  10  752.43   15.70
  -1   2 -10  756.16   15.49
   1   2  10  732.62   20.20
  -1   2 -10  771.88   16.52
  -2  -2 -10  860.68   18.01
   2  -2  10  874.15   18.13
   2   2  10  845.53   23.25
   2   2  10  905.40   18.10
  -2   2 -10  871.74   18.95
  -2   2 -10  888.55   17.86
   3  -2  10    3.85    0.59
  -3  -2 -10    3.31    0.52
   3   2  10    3.96    0.59
  -3   2 -10    5.90    0.61
   3   2  10    6.17    0.95
  -3   2 -10    3.29    0.61
  -4  -2 -10   74.96    2.29
   4  -2  10   80.31    2.49
  -4   2 -10   80.53    2.18
   4   2  10   81.51    2.41
  -4   2 -10   81.05    2.49
   4   2  10   73.49    3.15
  -5  -2 -10  115.60    3.09
   5  -2  10  115.38    3.30
   5   2  10  115.80    3.18
  -5   2 -10  110.58    3.24
   5   2  10  105.56    4.16
  -5   2 -10  118.44    2.97
   8  -3 -10   28.41    1.55
  -8  -3  10   28.54    1.25
  -8   3  10   27.31    1.60
  -8   3  10   27.98    1.36
  -7  -3  10   94.01    2.80
   7  -3 -10  114.72    3.22
  -7   3  10  118.13    3.02
  -7   3  10  113.45    3.32
   6  -3 -10  141.33    3.72
  -6  -3  10  140.10    3.37
  -6   3  10  140.05    3.52
  -5  -3  10   54.30    1.58
   5  -3 -10   54.43    1.88
  -5   3  10   53.46    1.73
  -5   3  10   52.86    2.10
  -4  -3  10 1802.63   37.27
   4  -3 -10 1836.26   37.58
  -4   3  10 1913.10   37.47
  -4   3  10 1861.21   47.95
  -3  -3  10    6.86    0.60
   3  -3 -10    6.38    0.75
  -3   3  10    5.61    0.78
  -3   3  10    5.82    0.69
   2  -3 -10  309.72    6.85
  -2  -3  10  309.83    6.66
  -2   3  10  313.17    6.75
  -2   3  10  306.55    8.76
   1  -3 -10   45.70    1.52
  -1  -3  10   44.79    1.41
   1   3 -10   42.66    1.60
  -1   3  10   47.55    1.49
  -1   3  10   46.40    2.06
   1   3 -10   45.65    1.14
   0  -3 -10  627.31   12.90
   0  -3  10  618.59   12.84
   0   3 -10  623.20   12.53
   0   3  10  626.82   12.85
   0   3 -10  594.03   13.55
   0   3  10  607.14   16.65
   1  -3  10   58.11    1.78
  -1  -3 -10   58.73    1.77
   1   3  10   57.64    1.74
  -1   3 -10   56.85    1.93
  -1   3 -10   55.91    1.48
   1   3  10   54.15    2.44
  -2  -3 -10   48.15    1.58
   2  -3  10   46.89    1.63
   2   3  10   46.69    1.56
  -2   3 -10   46.29    1.34
   2   3  10   45.48    2.24
  -2   3 -10   44.78    1.76
  -3  -3 -10   62.03    1.93
   3  -3  10   60.33    2.00
  -3   3 -10   59.65    1.70
   3   3  10   64.66    1.95
  -3   3 -10   59.66    2.11
   3   3  10   61.27    2.72
   4  -3  10   24.27    1.30
  -4  -3 -10   22.81    1.15
   4   3  10   21.28    1.79
  -4   3 -10   22.72    0.99
  -4   3 -10   21.68    1.32
   4   3  10   22.51    1.17
  -5  -3 -10    9.92    0.91
   5  -3  10    7.79    0.88
  -5   3 -10   10.36    0.79
  -5   3 -10    8.67    0.98
   5   3  10    9.03    0.94
   5   3  10   12.42    1.63
   7  -4 -10   36.00    1.69
  -7   4  10   35.74    1.77
  -7   4  10   35.10    1.48
   6  -4 -10  237.61    5.67
  -6   4  10  234.28    6.81
  -6   4  10  242.15    5.40
  -6   4  10  214.29    5.81
   5  -4 -10  576.20   12.11
  -5   4  10  561.72   11.86
  -5   4  10  544.82   15.19
   4  -4 -10 1575.40   32.13
  -4   4  10 1544.33   41.02
  -4   4  10 1604.55   31.95
   3  -4 -10    1.39    0.49
  -3  -4  10    0.76    0.33
  -3   4  10    1.39    0.64
  -3   4  10    1.23    0.42
  -2  -4  10  177.36    4.06
   2  -4 -10  183.57    4.33
  -2   4  10  183.24    4.19
  -2   4  10  176.93    5.60
   1  -4 -10   55.26    1.76
  -1  -4  10   56.23    1.60
  -1   4  10   52.01    2.37
  -1   4  10   55.42    1.66
   1   4 -10   53.38    1.89
   0  -4 -10   28.68    1.21
   0  -4  10   29.36    1.13
   0   4  10   29.86    1.15
   0   4  10   28.38    1.75
   0   4 -10   29.25    1.36
   1  -4  10  352.73    7.71
  -1  -4 -10  357.33    7.74
   1   4  10  349.70    7.63
   1   4  10  352.68   10.17
  -1   4 -10  354.34    8.22
   2  -4  10  592.86   12.58
  -2  -4 -10  600.92   12.53
   2   4  10  599.85   12.44
   2   4  10  598.33   16.37
  -2   4 -10  574.80   13.26
   3  -4  10   18.06    1.12
  -3  -4 -10   22.50    1.11
  -3   4 -10   16.73    1.28
   3   4  10   20.56    1.70
   3   4  10   18.52    1.01
   4  -4  10   30.06    1.48
  -4  -4 -10   29.93    1.38
   4   4  10   30.91    1.30
   4   4  10   32.83    2.11
  -4   4 -10   32.28    1.63
   6  -5 -10   23.84    1.38
  -6   5  10   24.19    1.18
  -6   5  10   21.86    1.48
  -6   5  10   23.28    1.59
   5  -5 -10   50.47    1.91
  -5   5  10   48.18    2.28
  -5   5  10   48.97    1.65
  -5   5  10   45.64    1.97
   4  -5 -10 1207.73   24.72
  -4   5  10 1183.90   25.91
  -4   5  10 1218.71   24.44
  -4   5  10 1177.28   31.59
   3  -5 -10  149.02    3.79
  -3   5  10  151.56    3.59
  -3   5  10  144.35    4.92
   2  -5 -10   46.01    1.66
  -2   5  10   45.34    2.29
  -2   5  10   46.48    1.50
   2   5 -10   47.34    1.74
   1  -5 -10  253.52    5.80
   1   5 -10  252.16    6.09
  -1   5  10  244.35    7.59
  -1   5  10  258.16    5.60
   0  -5 -10   25.51    1.20
   0   5  10   25.93    1.77
   0   5 -10   24.60    1.34
   0   5  10   24.87    1.03
  -1  -5 -10   90.65    2.54
   1   5  10   90.23    3.59
   1   5  10   92.27    2.38
  -1   5 -10   91.51    2.83
  -2  -5 -10   79.16    2.34
   2  -5  10   80.90    2.38
   2   5  10   79.65    2.17
  -2   5 -10   76.49    2.63
   2   5  10   83.52    3.39
   3  -5  10   12.30    1.02
  -3  -5 -10   12.16    0.94
   3   5  10   12.44    0.91
  -3   5 -10   11.22    1.19
   3   5  10   11.49    1.61
   4  -6 -10  720.62   15.18
  -4   6  10  716.40   19.49
  -4   6  10  684.61   15.88
  -4   6  10  726.24   14.79
   3  -6 -10    0.62    0.51
  -3   6  10    0.56    0.38
  -3   6  10    0.81    0.77
  -3   6  10    1.00    0.59
   2  -6 -10   46.14    1.75
  -2   6  10   45.12    1.52
  -2   6  10   46.08    1.78
  -2   6  10   46.57    2.44
   2   6 -10   44.77    1.79
   1  -6 -10   86.98    2.56
  -1   6  10   91.65    2.65
  -1   6  10   81.70    3.50
   1   6 -10   88.22    2.72
   0  -6 -10   48.83    1.74
   0   6  10   49.85    1.76
   0   6 -10   47.44    1.96
   0   6  10   49.55    2.59
  -1  -6 -10  165.93    4.15
   1   6  10  170.44    5.72
  -1   6 -10  165.59    4.52
  -2  -6 -10  355.98    7.88
   2   6  10  351.23   10.53
  -2   6 -10  351.83    8.50
   8   0 -11  204.59    4.96
  -8   0  11  200.46    4.85
   7   0 -11    9.95    0.87
  -7   0  11    9.58    0.88
  -6   0  11    1.86    0.46
   6   0 -11    2.45    0.48
   5   0 -11  743.19   15.58
  -5   0  11  754.51   15.54
   4   0 -11   10.67    0.78
  -4   0  11   12.72    0.83
  -4   0  11   12.85    0.86
  -3   0  11  460.85   12.35
   3   0 -11  462.15    9.77
  -3   0  11  460.88    9.78
  -2   0  11  290.40    8.26
   2   0 -11  296.74    6.50
  -2   0  11  307.27    6.55
  -1   0  11   12.71    0.82
  -1   0  11   14.72    1.10
   1   0 -11   15.70    0.81
   0   0  11  578.53   12.25
   0   0 -11  585.91   12.14
   1   0  11   69.89    2.05
  -1   0 -11   64.44    1.89
  -2   0 -11  156.06    3.79
   2   0  11  162.04    3.96
   3   0  11  827.25   17.40
  -3   0 -11  833.57   17.18
  -4   0 -11  210.02    4.90
  -4   0 -11  207.09    5.12
   4   0  11  208.78    5.12
  -5   0 -11   65.38    2.18
   5   0  11   68.92    2.35
  -5   0 -11   66.15    2.12
   8  -1 -11   68.38    2.31
  -8  -1  11   68.50    2.12
  -8   1  11   66.86    2.16
  -7  -1  11    1.42    0.46
   7  -1 -11    1.62    0.48
   7   1 -11    1.26    0.41
  -7   1  11    1.62    0.49
  -6  -1  11    0.20    0.36
   6  -1 -11    0.10    0.40
  -6   1  11    0.88    0.42
   6   1 -11    0.55    0.33
  -5  -1  11  199.97    4.66
   5  -1 -11  201.28    4.80
   5   1 -11  207.66    4.66
  -5   1  11  204.90    4.74
  -4  -1  11  712.04   19.48
   4  -1 -11  755.09   15.60
  -4  -1  11  748.09   15.47
   4   1 -11  753.15   15.43
  -4   1  11  758.79   15.53
  -4   1  11  764.09   19.67
  -3  -1  11  118.95    2.93
  -3  -1  11  120.09    3.60
   3  -1 -11  115.00    2.99
  -3   1  11  113.83    2.96
   3   1 -11  117.33    2.86
  -3   1  11  120.70    3.70
   2  -1 -11   23.95    1.09
  -2  -1  11   24.80    1.07
   2   1 -11   25.93    0.99
  -2   1  11   25.50    1.39
  -2   1  11   25.20    1.09
   1  -1 -11   94.04    2.49
  -1  -1  11   94.83    2.51
  -1   1  11   95.86    2.53
  -1   1  11   94.64    3.23
   1   1 -11   97.07    2.41
   0  -1 -11 1003.17   20.77
   0  -1  11 1020.08   20.83
   0   1  11  985.24   26.69
   0   1 -11 1032.71   20.68
   0   1  11 1032.82   20.84
   1  -1  11   47.95    1.63
  -1  -1 -11   47.67    1.56
   1   1  11   47.90    2.16
  -1   1 -11   47.75    1.49
   1   1  11   48.24    1.65
  -2  -1 -11   28.87    1.17
   2  -1  11   27.23    1.25
   2   1  11   27.42    1.26
   2   1  11   26.71    1.71
  -2   1 -11   27.12    1.09
  -2   1 -11   26.87    1.27
   3  -1  11   39.41    1.59
  -3  -1 -11   40.29    1.48
   3   1  11   35.34    2.07
   3   1  11   40.72    1.60
  -3   1 -11   39.88    1.58
  -3   1 -11   41.19    1.41
   4  -1  11    1.67    0.55
  -4  -1 -11    1.73    0.47
   4   1  11    1.19    0.79
  -4   1 -11    1.63    0.45
   4   1  11    1.56    0.53
  -4   1 -11    1.91    0.56
   5  -1  11  208.41    5.19
  -5  -1 -11  203.88    4.93
  -5   1 -11  203.59    4.85
   5   1  11  215.14    5.15
   5   1  11  198.80    6.62
  -5   1 -11  199.88    5.15
   8  -2 -11   61.39    2.24
  -8  -2  11   61.34    1.98
  -8   2  11   62.23    2.32
  -8   2  11   64.28    2.10
   7  -2 -11  251.29    6.01
  -7  -2  11  252.53    5.72
  -7   2  11  251.09    5.82
  -6  -2  11    1.76    0.43
   6  -2 -11    1.17    0.49
  -6   2  11    0.95    0.46
   5  -2 -11  170.44    4.24
  -5  -2  11  171.18    4.02
   5   2 -11  169.32    3.89
  -5   2  11  177.93    4.16
  -5   2  11  173.61    5.07
  -4  -2  11   14.25    0.83
   4  -2 -11   15.05    0.97
  -4   2  11   16.20    1.09
   4   2 -11   15.27    0.72
  -4   2  11   15.55    0.95
  -3  -2  11  107.09    2.69
   3  -2 -11  106.12    2.83
  -3   2  11  106.12    2.78
   3   2 -11  105.22    2.54
  -3   2  11  109.90    3.52
   2  -2 -11  851.52   17.72
  -2  -2  11  865.16   17.61
  -2   2  11  852.74   22.66
  -2   2  11  867.39   17.68
   2   2 -11  850.02   17.44
   1  -2 -11    0.47    0.38
  -1  -2  11    0.33    0.35
  -1   2  11    0.56    0.58
   1   2 -11    0.59    0.28
  -1   2  11    0.20    0.35
   0  -2  11   41.91    1.46
   0  -2 -11   42.31    1.47
   0   2  11   40.80    1.46
   0   2  11   41.17    2.00
   0   2 -11   42.72    1.28
   0   2 -11   45.12    1.66
   1  -2  11   10.84    0.83
  -1  -2 -11    9.01    0.77
  -1   2 -11   10.41    0.93
   1   2  11    9.46    0.84
   1   2  11    9.94    1.16
  -1   2 -11   10.04    0.65
   2  -2  11  574.85   12.29
  -2  -2 -11  584.27   12.18
   2   2  11  572.03   15.82
  -2   2 -11  576.35   12.85
  -2   2 -11  577.24   12.00
   2   2  11  576.62   12.25
   3  -2  11  335.03    7.50
  -3  -2 -11  335.07    7.33
  -3   2 -11  333.48    7.18
  -3   2 -11  325.98    7.75
   3   2  11  334.08    9.67
   3   2  11  319.33    7.39
   4  -2  11   42.35    1.77
  -4  -2 -11   42.52    1.60
  -4   2 -11   40.25    1.75
  -4   2 -11   42.21    1.49
   4   2  11   43.91    1.70
   4   2  11   43.14    2.35
  -5  -2 -11  324.78    7.41
   5  -2  11  326.86    7.67
  -5   2 -11  319.20    7.81
  -5   2 -11  327.84    7.27
   5   2  11  334.52    7.55
   5   2  11  334.58    9.85
  -7  -3  11    1.12    0.42
   7  -3 -11    0.55    0.50
  -7   3  11    0.93    0.47
  -7   3  11    1.33    0.65
  -6  -3  11   87.47    2.36
   6  -3 -11   87.74    2.68
  -6   3  11   87.52    2.52
  -5  -3  11   98.82    2.54
   5  -3 -11   99.41    2.85
  -5   3  11   98.22    3.33
  -5   3  11  101.70    2.72
   4  -3 -11 1169.78   24.14
  -4  -3  11 1171.70   23.84
  -4   3  11 1163.69   30.72
  -4   3  11 1185.14   24.00
   3  -3 -11    0.46    0.45
  -3  -3  11    1.34    0.38
  -3   3  11    1.27    0.46
  -3   3  11    1.66    0.58
   2  -3 -11    0.76    0.43
  -2  -3  11    1.40    0.37
  -2   3  11    3.14    0.51
  -2   3  11    1.05    0.65
  -1  -3  11   12.46    0.79
   1  -3 -11   12.48    0.88
  -1   3  11   12.48    1.30
  -1   3  11   13.65    0.86
   0  -3 -11  870.59   17.99
   0  -3  11  888.93   17.95
   0   3  11  859.45   23.18
   0   3  11  865.90   17.93
   0   3 -11  858.83   17.60
   0   3 -11  871.69   18.92
  -1  -3 -11  330.07    7.16
   1  -3  11  324.49    7.18
   1   3  11  323.58    7.12
  -1   3 -11  315.35    7.56
  -1   3 -11  322.09    6.82
   1   3  11  322.73    9.37
  -2  -3 -11    0.44    0.40
   2  -3  11    0.19    0.41
   2   3  11    0.36    0.40
  -2   3 -11    0.14    0.53
   2   3  11    0.27    0.71
  -2   3 -11    0.40    0.28
  -3  -3 -11  164.56    3.98
   3  -3  11  163.79    4.12
   3   3  11  163.04    3.97
   3   3  11  150.20    5.30
  -3   3 -11  156.04    4.25
  -3   3 -11  160.20    3.70
   4  -3  11   34.08    1.55
  -4  -3 -11   34.10    1.46
   4   3  11   31.91    1.43
   4   3  11   32.13    2.13
  -4   3 -11   32.20    1.23
  -4   3 -11   31.51    1.65
   6  -4 -11    5.43    0.77
  -6   4  11    4.83    0.64
  -6   4  11    4.17    0.78
   5  -4 -11  290.35    6.72
  -5   4  11  286.27    8.31
  -5   4  11  285.06    6.51
   4  -4 -11    0.90    0.50
  -4   4  11    1.82    0.68
  -4   4  11    0.90    0.45
   3  -4 -11  160.87    4.04
  -3  -4  11  160.69    3.81
  -3   4  11  163.07    3.89
  -3   4  11  157.99    5.16
   2  -4 -11  385.36    8.37
  -2  -4  11  375.13    8.09
  -2   4  11  371.14   10.75
  -2   4  11  386.05    8.21
  -1  -4  11   16.67    0.88
   1  -4 -11   15.84    1.00
   1   4 -11   15.93    1.11
  -1   4  11   16.32    1.43
  -1   4  11   16.13    0.93
   0  -4 -11  155.48    3.89
   0  -4  11  163.15    3.83
   0   4  11  160.60    3.82
   0   4  11  155.88    5.20
   1  -4  11   28.76    1.25
  -1  -4 -11   27.64    1.26
   1   4  11   27.75    1.22
   1   4  11   29.52    1.92
  -1   4 -11   33.17    1.52
   2  -4  11  216.47    5.14
  -2  -4 -11  216.96    5.10
   2   4  11  214.97    6.82
  -2   4 -11  209.35    5.46
   2   4  11  220.94    5.01
  -3  -4 -11  366.35    8.02
   3  -4  11  362.52    8.13
   3   4  11  372.66    7.93
  -3   4 -11  358.53    8.57
   3   4  11  340.49   10.54
   4  -4  11   70.80    2.42
  -4  -4 -11   70.40    2.29
   4   4  11   72.77    3.30
   4   4  11   72.21    2.21
  -4   4 -11   74.19    2.59
   5  -5 -11  143.25    3.86
  -5   5  11  140.63    4.77
  -5   5  11  144.35    3.57
  -5   5  11  136.31    3.99
   4  -5 -11  269.71    6.32
  -4   5  11  281.20    6.10
  -4   5  11  262.10    6.59
  -4   5  11  260.03    8.01
   3  -5 -11   88.35    2.65
  -3   5  11   85.96    3.39
  -3   5  11   89.19    2.43
   2  -5 -11   52.84    1.86
  -2   5  11   50.92    1.66
  -2   5  11   48.53    2.46
   1  -5 -11  107.43    3.00
  -1   5  11  107.57    4.03
  -1   5  11  111.20    2.81
   1   5 -11  110.42    3.18
   0  -5 -11  672.07   14.27
   0   5  11  691.82   14.07
   0   5 -11  667.55   15.05
   0   5  11  674.18   18.56
  -1  -5 -11    2.61    0.58
   1   5  11    2.92    0.97
  -1   5 -11    1.92    0.71
   1   5  11    2.00    0.48
  -2  -5 -11   28.73    1.36
   2   5  11   28.64    1.20
   2   5  11   27.86    2.02
  -2   5 -11   28.76    1.60
   3  -6 -11  172.84    4.46
  -3   6  11  176.22    4.12
  -3   6  11  170.64    4.62
  -3   6  11  177.01    5.83
   2  -6 -11  153.45    3.93
  -2   6  11  147.57    5.19
   2   6 -11  145.52    4.05
  -2   6  11  149.85    4.05
   1  -6 -11   38.47    1.62
  -1   6  11   38.19    2.35
   1   6 -11   38.46    1.78
  -1   6  11   39.77    1.64
   0  -6 -11  194.94    4.71
   0   6  11  193.06    6.40
   0   6 -11  186.48    5.01
  -8   0  12   78.59    2.40
   8   0 -12   77.10    2.45
  -7   0  12  274.19    6.27
   7   0 -12  274.67    6.34
  -6   0  12   18.66    1.03
   6   0 -12   18.60    1.04
  -5   0  12    4.76    0.60
   5   0 -12    3.75    0.53
  -4   0  12  229.92    5.24
  -4   0  12  229.38    6.46
   4   0 -12  228.80    5.25
  -3   0  12   71.43    2.53
  -3   0  12   71.93    2.08
   3   0 -12   71.17    2.05
  -2   0  12   87.10    3.04
  -2   0  12   93.90    2.47
   2   0 -12   88.86    2.40
   1   0 -12   21.62    1.00
  -1   0  12   21.53    1.07
  -1   0  12   21.98    1.39
   0   0  12   17.47    1.34
   0   0 -12   15.48    0.91
   0   0  12   17.00    0.99
  -1   0 -12   57.78    1.79
   1   0  12   58.15    1.90
  -2   0 -12    7.24    0.71
   2   0  12    5.12    0.65
  -3   0 -12   51.88    1.74
   3   0  12   51.67    1.92
  -4   0 -12    1.17    0.48
   4   0  12    0.78    0.53
   7  -1 -12   49.76    1.87
  -7  -1  12   51.13    1.73
   7   1 -12   48.94    1.70
  -7   1  12   51.43    1.82
  -6  -1  12   50.52    1.71
   6  -1 -12   48.96    1.80
  -6   1  12   53.75    1.80
   6   1 -12   51.16    1.67
  -5  -1  12  347.07    7.54
   5  -1 -12  344.85    7.68
  -5   1  12  346.86    7.60
   5   1 -12  339.76    7.48
  -4  -1  12    7.96    0.75
   4  -1 -12    5.59    0.62
  -4   1  12    7.34    0.85
  -4   1  12    8.19    0.80
   4   1 -12    7.18    0.66
  -3  -1  12  250.10    5.62
   3  -1 -12  251.27    5.70
  -3  -1  12  243.77    7.01
   3   1 -12  249.44    5.54
  -3   1  12  251.89    5.67
  -3   1  12  252.65    7.16
  -2  -1  12   78.13    2.21
   2  -1 -12   79.37    2.25
   2   1 -12   77.31    2.11
  -2   1  12   79.49    2.25
  -2   1  12   81.01    2.86
   1  -1 -12 1166.81   23.90
  -1  -1  12 1173.40   23.91
  -1   1  12 1157.67   23.92
  -1   1  12 1141.90   30.62
   1   1 -12 1202.47   23.79
   0  -1 -12  407.65    8.73
   0  -1  12  409.19    8.79
   0   1  12  391.24   11.27
   0   1  12  408.59    8.80
   0   1 -12  406.78    8.63
  -1  -1 -12   46.99    1.61
   1  -1  12   46.42    1.69
   1   1  12   46.90    1.69
  -1   1 -12   47.31    1.52
   1   1  12   50.37    2.27
  -2  -1 -12  194.14    4.67
   2  -1  12  199.01    4.82
  -2   1 -12  200.44    4.59
   2   1  12  194.16    6.22
   2   1  12  204.43    4.81
   3  -1  12   91.15    2.72
  -3  -1 -12   90.82    2.57
  -3   1 -12   90.92    2.76
   3   1  12   91.35    2.69
  -3   1 -12   90.36    2.49
   3   1  12   89.31    3.56
   4  -1  12    2.20    0.61
  -4  -1 -12    1.94    0.52
  -4   1 -12    2.22    0.61
   4   1  12    2.32    0.62
  -4   1 -12    4.03    0.59
   4   1  12    2.68    0.95
   7  -2 -12  169.90    4.42
  -7  -2  12  169.12    4.13
  -7   2  12  171.46    4.26
   6  -2 -12  246.33    5.85
  -6  -2  12  243.19    5.58
  -6   2  12  246.54    5.70
   5  -2 -12   41.87    1.66
  -5  -2  12   43.83    1.48
  -5   2  12   43.55    1.60
  -5   2  12   42.99    1.82
  -4  -2  12   53.05    1.67
   4  -2 -12   53.46    1.83
  -4   2  12   55.16    1.78
   4   2 -12   51.78    1.51
  -4   2  12   52.89    2.13
   3  -2 -12   19.16    1.05
  -3  -2  12   19.03    0.96
   3   2 -12   18.22    0.79
  -3   2  12   17.83    1.23
  -3   2  12   18.98    1.06
  -2  -2  12   49.70    1.60
   2  -2 -12   49.27    1.68
  -2   2  12   49.56    1.67
   2   2 -12   48.56    1.43
  -2   2  12   49.46    2.17
   1  -2 -12  105.30    2.79
  -1  -2  12  105.65    2.73
  -1   2  12   99.55    3.59
   1   2 -12  103.91    2.53
  -1   2  12  103.38    2.76
   0  -2 -12   99.54    2.68
   0  -2  12   94.13    2.66
   0   2  12  100.11    2.71
   0   2 -12   98.21    2.47
   0   2  12  101.56    3.59
  -1  -2 -12   17.45    1.03
   1  -2  12   16.83    1.01
  -1   2 -12   16.44    1.14
  -1   2 -12   16.37    0.84
   1   2  12   17.30    1.06
   1   2  12   17.03    1.45
  -2  -2 -12  169.58    4.10
   2  -2  12  170.84    4.20
   2   2  12  160.43    5.43
  -2   2 -12  158.94    4.32
  -2   2 -12  170.86    3.91
   2   2  12  166.50    4.13
   3  -2  12  156.35    4.10
  -3  -2 -12  159.17    3.96
   3   2  12  152.98    5.32
   3   2  12  155.79    4.02
  -3   2 -12  164.15    3.81
  -3   2 -12  156.54    4.22
  -4  -2 -12  151.19    3.88
   4  -2  12  150.59    4.07
   4   2  12  152.81    3.97
  -4   2 -12  150.44    4.14
   4   2  12  149.48    5.27
  -4   2 -12  153.05    3.73
   7  -3 -12    5.07    0.76
  -7  -3  12    5.42    0.62
  -7   3  12    4.77    0.66
  -6  -3  12  107.73    2.85
   6  -3 -12  110.74    3.20
  -6   3  12  113.07    3.07
   5  -3 -12  107.28    3.08
  -5  -3  12  106.78    2.76
  -5   3  12  108.61    3.61
  -5   3  12  106.83    2.90
   4  -3 -12   34.91    1.49
  -4  -3  12   32.39    1.24
  -4   3  12   33.60    1.39
  -4   3  12   34.28    1.75
  -3  -3  12  119.51    2.97
   3  -3 -12  115.80    3.17
  -3   3  12  114.86    3.96
  -3   3  12  123.61    3.10
  -2  -3  12  326.33    7.09
   2  -3 -12  324.81    7.26
  -2   3  12  331.17    7.18
  -2   3  12  314.56    9.28
   1  -3 -12  911.11   18.63
  -1  -3  12  883.77   18.49
  -1   3  12  877.30   23.93
  -1   3  12  915.08   18.55
   0  -3  12   53.90    1.75
   0  -3 -12   50.63    1.78
   0   3 -12   50.81    1.94
   0   3  12   53.07    2.45
   0   3  12   54.00    1.77
   1  -3  12  135.94    3.51
  -1  -3 -12  138.14    3.52
   1   3  12  138.46    4.73
  -1   3 -12  136.28    3.77
   1   3  12  137.24    3.48
  -2  -3 -12  371.61    8.11
   2  -3  12  365.14    8.17
  -2   3 -12  364.47    8.59
   2   3  12  366.98    8.09
   2   3  12  356.81   10.61
  -3  -3 -12    0.35    0.44
   3  -3  12    0.22    0.48
   3   3  12    0.57    0.77
  -3   3 -12    0.68    0.60
   3   3  12    0.25    0.45
   4   3  12   14.63    1.70
   6  -4 -12   88.96    2.78
  -6   4  12   87.69    2.55
  -6   4  12   81.93    2.86
   5  -4 -12    4.55    0.72
  -5   4  12    4.64    0.85
  -5   4  12    4.84    0.67
   4  -4 -12   87.83    2.63
  -4   4  12   84.80    2.43
  -4   4  12   81.59    3.17
   3  -4 -12    1.30    0.52
  -3   4  12    0.72    0.43
  -3   4  12    1.26    0.72
  -2  -4  12   35.10    1.31
   2  -4 -12   33.94    1.47
  -2   4  12   33.93    1.94
  -2   4  12   36.61    1.39
  -1  -4  12    9.32    0.77
   1  -4 -12    8.21    0.88
   1   4 -12    6.55    0.84
  -1   4  12    7.26    1.07
  -1   4  12    7.04    0.79
   0  -4  12   41.86    1.52
   0  -4 -12   39.60    1.61
   0   4 -12   41.43    1.77
   0   4  12   41.52    1.51
   0   4  12   44.32    2.28
  -1  -4 -12    0.61    0.50
   1  -4  12    1.69    0.48
  -1   4 -12    2.15    0.67
   1   4  12    1.94    0.90
   1   4  12    1.39    0.48
  -2  -4 -12   44.77    1.72
   2  -4  12   47.50    1.76
  -2   4 -12   44.20    1.93
   2   4  12   46.84    1.66
   2   4  12   46.09    2.51
   3  -4  12   82.07    2.59
  -3  -4 -12   82.70    2.50
   3   4  12   78.09    3.54
   3   4  12   84.45    2.42
  -3   4 -12   77.42    2.74
   4  -5 -12   24.62    1.41
  -4   5  12   25.95    1.27
  -4   5  12   26.31    1.79
   3  -5 -12  179.57    4.61
  -3   5  12  185.47    5.97
  -3   5  12  184.72    4.38
   2  -5 -12    0.67    0.53
  -2   5  12    1.17    0.81
  -2   5  12    0.86    0.45
   1  -5 -12  689.93   14.63
  -1   5  12  703.63   14.41
  -1   5  12  689.43   18.95
   1   5 -12  675.23   15.35
   0  -5 -12  347.55    7.77
   0   5 -12  336.95    8.21
   0   5  12  343.61   10.22
   0   5  12  350.22    7.55
  -1  -5 -12    3.39    0.66
   1   5  12    5.93    1.19
  -1   5 -12    3.53    0.81
   1   5  12    5.20    0.62
  -7   0  13  567.70   12.22
   7   0 -13  575.35   12.28
  -6   0  13    7.56    0.82
   6   0 -13    7.49    0.82
  -5   0  13    8.42    0.87
   5   0 -13    7.93    0.80
  -4   0  13  672.40   18.26
  -4   0  13  696.79   14.48
   4   0 -13  703.22   14.49
  -3   0  13   12.91    0.91
  -3   0  13   13.36    1.10
   3   0 -13   15.02    0.92
  -2   0  13  496.50   10.46
  -2   0  13  473.12   13.28
   2   0 -13  494.38   10.41
   1   0 -13  281.46    6.21
  -1   0  13  269.96    8.00
  -1   0  13  278.37    6.28
   0   0 -13  521.79   11.14
   0   0  13  536.21   11.29
   0   0  13  518.94   14.45
  -1   0 -13    3.30    0.52
   1   0  13    3.98    0.60
   1   0  13    3.82    0.91
   2   0  13    1.73    0.54
   2   0  13    1.53    0.87
  -2   0 -13    1.24    0.44
   3   0  13  281.70    6.67
  -3   0 -13  285.77    6.48
   3   0  13  285.33    8.66
  -4   0 -13   49.28    1.79
   4   0  13   46.92    2.64
   4   0  13   47.42    1.96
   7  -1 -13    0.07    0.45
  -7  -1  13    0.04    0.42
  -7   1  13   -0.01    0.46
  -6  -1  13  167.71    4.07
   6  -1 -13  163.82    4.20
  -6   1  13  167.07    4.14
   6   1 -13  162.95    3.99
  -5  -1  13   20.73    1.10
   5  -1 -13   20.76    1.15
   5   1 -13   21.53    1.04
  -5   1  13   21.11    1.15
  -4  -1  13  420.43    9.21
   4  -1 -13  429.66    9.33
  -4   1  13  422.25   11.65
   4   1 -13  426.23    9.14
  -4   1  13  438.52    9.29
  -3  -1  13   59.38    2.30
   3  -1 -13   61.98    1.96
  -3  -1  13   63.51    1.92
  -3   1  13   61.01    1.94
  -3   1  13   60.99    2.41
   3   1 -13   60.45    1.81
   2  -1 -13  156.36    3.85
  -2  -1  13  149.22    4.80
  -2  -1  13  156.95    3.82
   2   1 -13  154.78    3.71
  -2   1  13  161.01    3.88
  -2   1  13  155.84    4.90
   1  -1 -13  119.45    3.10
  -1  -1  13  116.29    3.10
   1   1 -13  118.29    2.97
  -1   1  13  120.85    3.14
  -1   1  13  117.59    4.00
   0  -1 -13   63.70    2.01
   0  -1  13   64.46    2.06
   0   1 -13   66.81    1.92
   0   1  13   66.95    2.10
   0   1  13   63.50    2.74
  -1  -1 -13  197.73    4.62
   1  -1  13  194.10    4.71
   1   1  13  194.12    4.70
  -1   1 -13  192.76    4.49
   1   1  13  185.46    6.06
   2  -1  13   14.77    1.07
  -2  -1 -13   14.83    1.01
   2   1  13   14.47    1.05
   2   1  13   15.65    1.54
  -2   1 -13   13.29    0.91
  -3  -1 -13   15.32    1.05
   3  -1  13   14.82    1.16
   3   1  13   12.24    1.57
  -3   1 -13   13.30    0.94
   3   1  13   13.06    1.08
  -7  -2  13  175.13    4.31
   7  -2 -13  179.43    4.62
   6  -2 -13   39.06    1.70
  -6  -2  13   40.01    1.51
  -6   2  13   40.40    1.62
   5  -2 -13    3.85    0.64
  -5  -2  13    3.11    0.52
  -5   2  13    3.49    0.60
  -4  -2  13  160.94    3.96
   4  -2 -13  166.78    4.16
  -4   2  13  164.63    5.09
  -4   2  13  167.63    4.08
  -3  -2  13   15.91    0.96
   3  -2 -13   15.91    1.05
  -3   2  13   15.16    1.04
   3   2 -13   15.83    0.78
  -3   2  13   16.39    1.28
   2  -2 -13   66.29    2.09
  -2  -2  13   65.74    2.01
   2   2 -13   66.57    1.82
  -2   2  13   68.29    2.09
  -2   2  13   64.05    2.66
   1  -2 -13   81.35    2.36
  -1  -2  13   80.35    2.32
  -1   2  13   78.23    2.32
  -1   2  13   80.37    3.09
   1   2 -13   77.90    2.09
   0  -2 -13  133.25    3.46
   0  -2  13  133.68    3.46
   0   2 -13  135.52    3.23
   0   2  13  137.80    4.63
   0   2  13  131.99    3.46
  -1  -2 -13   93.87    2.69
   1  -2  13   92.88    2.72
  -1   2 -13   99.23    2.49
   1   2  13   91.55    3.60
   1   2  13   95.76    2.73
  -2  -2 -13    5.32    0.70
   2  -2  13    6.38    0.76
   2   2  13    5.39    0.69
   2   2  13    7.03    1.17
  -2   2 -13    5.39    0.58
  -2   2 -13    5.63    0.85
   3  -2  13   17.49    1.21
  -3  -2 -13   18.12    1.15
   3   2  13   19.68    1.22
  -3   2 -13   20.93    1.36
  -3   2 -13   19.18    1.03
   3   2  13   21.95    1.85
  -6  -3  13   38.35    1.46
   6  -3 -13   37.56    1.72
  -6   3  13   37.50    1.62
  -5  -3  13   13.51    0.90
   5  -3 -13   12.59    1.12
  -5   3  13   14.75    1.21
  -5   3  13   13.59    1.02
  -4  -3  13  290.39    6.41
   4  -3 -13  285.89    6.68
  -4   3  13  286.08    6.53
  -4   3  13  287.33    8.34
   3  -3 -13    2.38    0.56
  -3  -3  13    2.27    0.47
  -3   3  13    2.41    0.54
  -3   3  13    3.76    0.81
   2  -3 -13  195.98    4.77
  -2  -3  13  194.75    4.59
  -2   3  13  195.14    6.11
  -2   3  13  197.08    4.68
  -1  -3  13    1.82    0.46
   1  -3 -13    0.65    0.48
  -1   3  13    1.48    0.81
   0  -3 -13    0.28    0.48
   0  -3  13    0.10    0.40
   0   3  13   -0.31    0.40
   0   3  13    0.58    0.75
  -1  -3 -13   51.29    1.87
   1  -3  13   54.33    1.89
   1   3  13   51.80    1.84
  -1   3 -13   58.66    2.12
   1   3  13   48.02    2.56
   2  -3  13  154.02    4.00
  -2  -3 -13  154.52    3.95
   2   3  13  154.77    3.94
   2   3  13  156.01    5.37
  -2   3 -13  150.18    4.24
   3   3  13    6.88    1.23
   5  -4 -13    0.32    0.55
  -5   4  13   -0.29    0.57
  -5   4  13    0.12    0.47
   4  -4 -13  278.61    6.46
  -4   4  13  268.40    6.23
  -4   4  13  269.49    8.11
   3  -4 -13    6.43    0.78
  -3   4  13    7.38    1.08
  -3   4  13    7.58    0.84
   2  -4 -13  164.08    4.16
  -2   4  13  158.84    5.34
  -2   4  13  162.35    3.99
   1  -4 -13  124.84    3.37
  -1  -4  13  123.40    3.21
  -1   4  13  126.62    3.25
  -1   4  13  121.08    4.42
   0  -4 -13  193.55    4.68
   0  -4  13  188.59    4.55
   0   4  13  187.23    4.52
   0   4 -13  178.77    4.92
   0   4  13  191.61    6.17
   1  -4  13   12.95    1.00
  -1  -4 -13   11.74    1.03
   1   4  13   11.84    0.96
   1   4  13   10.07    1.40
  -3   5  13  127.62    4.63
   2  -5 -13   74.68    2.45
  -2   5  13   73.39    2.25
  -2   5  13   77.50    3.29
   1  -5 -13  156.20    4.07
  -1   5  13  155.71    3.84
  -1   5  13  154.10    5.43
  -6   0  14    5.16    0.67
   6   0 -14    5.11    0.67
   5   0 -14   39.54    1.55
  -5   0  14   39.01    1.55
  -4   0  14   91.20    2.62
   4   0 -14   92.07    2.60
  -3   0  14   99.67    3.44
  -3   0  14   98.61    2.77
   3   0 -14  101.75    2.74
   2   0 -14  113.06    3.01
  -2   0  14  113.31    3.88
  -2   0  14  117.81    3.10
   1   0 -14    2.46    0.49
  -1   0  14    2.05    0.53
  -1   0  14    2.56    0.77
   0   0 -14    1.87    0.47
   0   0  14    2.08    0.80
   0   0  14    1.81    0.52
  -1   0 -14   17.52    1.05
   1   0  14   17.98    1.17
   1   0  14   18.46    1.64
   2   0  14  166.28    4.33
   2   0  14  168.96    5.68
  -2   0 -14  168.46    4.17
   3   0  14  140.96    3.86
   3   0  14  141.34    5.10
  -3   0 -14  140.20    3.68
  -6  -1  14   80.50    2.43
   6  -1 -14   80.21    2.54
  -6   1  14   83.93    2.51
   5  -1 -14  224.62    5.40
  -5  -1  14  228.46    5.30
   5   1 -14  221.09    5.19
  -5   1  14  228.65    5.36
  -4  -1  14  105.51    2.86
   4  -1 -14  105.93    2.94
  -4   1  14  102.78    2.90
   4   1 -14  102.53    2.74
  -4   1  14  105.24    3.53
  -3  -1  14   37.89    1.48
   3  -1 -14   37.82    1.51
  -3  -1  14   35.19    1.75
   3   1 -14   38.24    1.38
  -3   1  14   39.02    1.90
  -3   1  14   38.71    1.54
  -2  -1  14   12.23    1.23
  -2  -1  14   13.43    0.98
   2  -1 -14   12.35    0.97
  -2   1  14   12.60    0.97
  -2   1  14   13.44    1.30
   2   1 -14   12.86    0.84
   1  -1 -14   19.63    1.11
  -1  -1  14   19.27    1.13
  -1  -1  14   18.73    1.52
  -1   1  14   18.93    1.52
   1   1 -14   19.78    1.00
  -1   1  14   19.52    1.15
   0  -1 -14   11.26    0.89
   0  -1  14   10.91    0.95
   0   1  14   11.54    0.97
   0   1  14   10.38    1.31
   0   1 -14   10.79    0.81
  -1  -1 -14   42.94    1.61
   1  -1  14   41.18    1.67
  -1   1 -14   41.38    1.51
   1   1  14   43.89    1.71
   1   1  14   44.17    2.35
   2  -1  14   61.54    2.20
  -2  -1 -14   66.63    2.13
   2   1  14   66.34    2.24
   2   1  14   60.66    2.95
  -2   1 -14   63.01    2.00
  -6  -2  14    0.07    0.45
   6  -2 -14   -0.01    0.50
  -6   2  14   -0.24    0.47
  -5  -2  14   32.91    1.38
   5  -2 -14   32.67    1.54
  -5   2  14   32.57    1.45
  -4  -2  14  133.21    3.43
   4  -2 -14  133.88    3.60
  -4   2  14  135.67    3.52
  -4   2  14  135.98    4.42
   3  -2 -14  432.92    9.44
  -3  -2  14  410.83   11.73
  -3  -2  14  437.95    9.30
  -3   2  14  432.92    9.37
  -3   2  14  427.89   11.96
  -2  -2  14    3.14    0.56
   2  -2 -14    4.42    0.67
  -2   2  14    3.83    0.62
  -2   2  14    3.30    0.79
  -1  -2  14   45.97    1.70
   1  -2 -14   47.56    1.74
   1   2 -14   45.06    1.48
  -1   2  14   47.72    2.32
  -1   2  14   50.01    1.76
   0  -2 -14  118.57    3.21
   0  -2  14  121.50    3.26
   0   2 -14  122.43    3.00
   0   2  14  117.90    3.24
   0   2  14  119.26    4.30
  -1  -2 -14    7.70    0.88
   1  -2  14    6.03    0.74
   1   2  14    8.11    1.22
  -1   2 -14    6.65    0.71
   1   2  14    8.51    0.98
  -2  -2 -14  582.15   12.28
   2  -2  14  573.05   12.38
  -2   2 -14  564.96   12.02
   2   2  14  555.21   15.95
   2   2  14  573.77   12.32
   5  -3 -14  197.65    5.07
  -5  -3  14  198.95    4.74
  -5   3  14  204.91    4.92
  -4  -3  14    0.76    0.43
   4  -3 -14    1.17    0.56
  -4   3  14    0.56    0.46
  -4   3  14    0.82    0.65
  -3  -3  14    3.27    0.56
   3  -3 -14    2.89    0.63
  -3   3  14    2.78    0.59
  -3   3  14    2.46    0.80
   2  -3 -14   16.06    1.13
  -2  -3  14   16.93    1.03
  -2   3  14   16.81    1.55
  -2   3  14   17.03    1.08
  -1  -3  14  137.91    3.60
   1  -3 -14  139.92    3.71
  -1   3  14  141.14    3.64
  -1   3  14  144.04    4.93
   0  -3 -14   43.91    1.75
   0  -3  14   44.45    1.69
   0   3  14   44.36    2.41
   0   3  14   45.36    1.71
  -1  -3 -14  229.37    5.45
   1  -3  14  223.88    5.44
   1   3  14  227.19    7.23
   1   3  14  222.63    5.38
   3  -4 -14  172.29    4.44
  -3   4  14  174.58    4.27
  -3   4  14  164.98    5.58
   2  -4 -14   24.48    1.41
  -2   4  14   21.83    1.76
  -2   4  14   23.36    1.25
   1  -4 -14   11.84    1.06
  -1   4  14   11.40    1.00
  -1   4  14   14.12    1.63
   0   4  14   17.32    1.74
   5   0 -15  340.45    7.58
  -5   0  15  330.68    7.56
   4   0 -15  445.12    9.66
  -4   0  15  439.95    9.69
  -3   0  15  103.87    3.60
  -3   0  15  102.31    2.89
   3   0 -15   99.04    2.81
  -2   0  15   61.18    2.06
   2   0 -15   62.40    1.99
  -2   0  15   61.59    2.64
   1   0 -15   -0.34    0.40
  -1   0  15    0.04    0.48
  -1   0  15    0.00    0.69
   0   0 -15    1.00    0.45
   0   0  15    1.35    0.86
   0   0  15    2.15    0.59
  -1   0 -15  540.10   11.62
   1   0  15  548.82   11.82
   1   0  15  536.26   15.21
  -5  -1  15  368.49    8.20
   5  -1 -15  365.84    8.30
  -5   1  15  371.50    8.28
  -4  -1  15   19.01    1.13
   4  -1 -15   20.14    1.22
   4   1 -15   19.23    1.05
  -4   1  15   20.88    1.26
   3  -1 -15  117.37    3.13
  -3  -1  15  110.31    3.06
  -3  -1  15  104.32    3.75
  -3   1  15  116.50    3.92
  -3   1  15  108.74    3.09
   3   1 -15  113.88    2.94
  -2  -1  15   90.03    2.65
   2  -1 -15   91.16    2.65
  -2  -1  15   91.44    3.36
  -2   1  15   93.26    2.70
   2   1 -15   88.59    2.49
  -2   1  15   89.58    3.40
   1  -1 -15   12.94    1.02
  -1  -1  15   14.86    1.05
  -1  -1  15   14.56    1.47
  -1   1  15   13.98    1.06
  -1   1  15   16.03    1.48
   1   1 -15   12.97    0.93
   0  -1  15    4.03    1.00
   0  -1  15    4.87    0.69
   0  -1 -15    3.31    0.61
   0   1  15    3.76    0.69
   0   1 -15    3.43    0.54
   0   1  15    5.43    1.07
   1  -1  15    0.35    0.49
  -1  -1 -15   -0.13    0.49
  -1   1 -15    0.44    0.43
   1   1  15    0.32    0.88
   1   1  15   -0.27    0.52
   4  -2 -15  117.93    3.31
  -4  -2  15  112.98    3.11
  -4   2  15  114.09    4.01
  -4   2  15  119.88    3.26
  -3  -2  15    0.43    0.45
   3  -2 -15    1.05    0.54
  -3   2  15    0.65    0.54
  -3   2  15    1.06    0.73
  -2  -2  15    4.74    0.65
   2  -2 -15    4.75    0.69
  -2   2  15    5.18    0.99
  -2   2  15    4.00    0.66
   1  -2 -15  140.88    3.74
  -1  -2  15  142.71    3.68
  -1   2  15  137.14    4.87
  -1   2  15  142.65    3.73
   0  -2  15    2.99    0.61
   0  -2 -15    1.91    0.59
   0   2  15    3.37    0.97
   0   2  15    2.07    0.58
  -3  -3  15  226.71    5.32
   3  -3 -15  225.24    5.53
  -3   3  15  222.09    6.99
  -3   3  15  227.33    5.41
   2  -3 -15    0.03    0.51
  -2  -3  15    0.74    0.48
  -2   3  15    0.72    0.54
  -2   3  15    1.01    0.80
  -1  -3  15    1.71    0.53
   1  -3 -15    2.16    0.62
  -1   3  15    1.09    0.90
  -1   3  15    1.95    0.60
   3   0 -16   24.16    1.26
  -3   0  16   24.06    1.63
  -3   0  16   26.42    1.40
   2   0 -16  168.78    4.21
  -2   0  16  167.31    5.44
  -2   0  16  168.50    4.30
   1   0 -16  126.00    3.35
  -1   0  16  125.97    4.49
  -1   0  16  123.36    3.45
   3  -1 -16   71.06    2.35
  -3  -1  16   71.05    2.32
  -3   1  16   74.85    2.40
   3   1 -16   73.35    2.28
  -3   1  16   71.73    2.97
   2  -1 -16   21.06    1.24
  -2  -1  16   19.86    1.21
  -2  -1  16   21.02    1.64
  -2   1  16   21.71    1.31
   2   1 -16   19.36    1.10
  -2   1  16   21.84    1.72
  -1  -1  16   36.58    2.19
  -1   1  16   36.23    2.19

_computing_structure_solution     'SHELXT 2014/4 (Sheldrick, 2014)'
;
_shelx_hkl_checksum              98854
_shelx_shelxl_version_number     2014/7
_olex2_submission_original_sample_id cf371.f1
_olex2_submission_special_instructions 'No special instructions were received'
loop_
_space_group_symop_operation_xyz
'x, y, z'
'-x, y+1/2, -z'
'-x, -y, -z'
'x, -y-1/2, z'
loop_
_atom_site_label
_atom_site_type_symbol
_atom_site_fract_x
_atom_site_fract_y
_atom_site_fract_z
_atom_site_U_iso_or_equiv
_atom_site_adp_type
_atom_site_occupancy
_atom_site_site_symmetry_order
_atom_site_calc_flag
_atom_site_refinement_flags_posn
_atom_site_refinement_flags_adp
_atom_site_refinement_flags_occupancy
_atom_site_disorder_assembly
_atom_site_disorder_group
O1 O 0.49113(12) 0.7500 0.64661(7) 0.0174(2) Uani 1 2 d S T P . .
N4 N 0.56397(13) 0.7500 0.88807(8) 0.0114(2) Uani 1 2 d S T P . .
N1 N 0.27691(14) 0.7500 0.87016(9) 0.0151(2) Uani 1 2 d S T P . .
N3 N 0.52853(14) 0.7500 0.98799(8) 0.0142(2) Uani 1 2 d S T P . .
N2 N 0.35729(14) 0.7500 0.97626(9) 0.0163(2) Uani 1 2 d S T P . .
C8 C 0.18242(16) 0.7500 0.63909(10) 0.0138(3) Uani 1 2 d S T P . .
H8 H 0.0921 0.7500 0.6796 0.017 Uiso 1 2 calc RS T P . .
C9 C 0.37010(16) 0.7500 0.69429(10) 0.0130(3) Uani 1 2 d S T P . .
C6 C -0.03484(16) 0.7500 0.45963(10) 0.0126(3) Uani 1 2 d S T P . .
C10 C 0.40579(16) 0.7500 0.81580(10) 0.0125(3) Uani 1 2 d S T P . .
C11 C 0.75458(15) 0.7500 0.87653(9) 0.0118(3) Uani 1 2 d S T P . .
C7 C 0.14125(16) 0.7500 0.53061(10) 0.0134(3) Uani 1 2 d S T P . .
H7 H 0.2383 0.7500 0.4955 0.016 Uiso 1 2 calc RS T P . .
C1 C -0.19097(17) 0.7500 0.49873(10) 0.0151(3) Uani 1 2 d S T P . .
H1 H -0.1849 0.7500 0.5746 0.018 Uiso 1 2 calc RS T P . .
C5 C -0.04695(17) 0.7500 0.34740(10) 0.0145(3) Uani 1 2 d S T P . .
H5 H 0.0580 0.7500 0.3198 0.017 Uiso 1 2 calc RS T P . .
C13 C 0.78870(11) 0.55993(14) 0.81720(7) 0.0147(2) Uani 1 1 d . . . . .
H13B H 0.7619 0.4432 0.8575 0.022 Uiso 1 1 calc GR . . . .
H13C H 0.9131 0.5557 0.8118 0.022 Uiso 1 1 calc GR . . . .
H13A H 0.7130 0.5592 0.7444 0.022 Uiso 1 1 calc GR . . . .
C4 C -0.21110(18) 0.7500 0.27600(10) 0.0168(3) Uani 1 2 d S T P . .
H4 H -0.2179 0.7500 0.2001 0.020 Uiso 1 2 calc RS T P . .
C2 C -0.35486(17) 0.7500 0.42739(11) 0.0172(3) Uani 1 2 d S T P . .
H2 H -0.4603 0.7500 0.4545 0.021 Uiso 1 2 calc RS T P . .
C14 C 0.87251(16) 0.7500 0.99008(10) 0.0153(3) Uani 1 2 d S T P . .
H14C H 0.8515 0.8719 1.0282 0.023 Uiso 0.5 1 calc GR . . A -1
H14B H 0.9969 0.7447 0.9847 0.023 Uiso 0.5 1 calc GR . . A -1
H14A H 0.8448 0.6334 1.0302 0.023 Uiso 0.5 1 calc GR . . A -1
C3 C -0.36444(17) 0.7500 0.31596(10) 0.0168(3) Uani 1 2 d S T P . .
H3 H -0.4765 0.7500 0.2673 0.020 Uiso 1 2 calc RS T P . .
loop_
_atom_site_aniso_label
_atom_site_aniso_U_11
_atom_site_aniso_U_22
_atom_site_aniso_U_33
_atom_site_aniso_U_23
_atom_site_aniso_U_13
_atom_site_aniso_U_12
O1 0.0130(4) 0.0259(5) 0.0137(4) 0.000 0.0038(3) 0.000
N4 0.0113(5) 0.0132(5) 0.0101(5) 0.000 0.0032(4) 0.000
N1 0.0139(5) 0.0182(5) 0.0139(5) 0.000 0.0045(4) 0.000
N3 0.0154(5) 0.0166(5) 0.0120(5) 0.000 0.0059(4) 0.000
N2 0.0144(5) 0.0205(6) 0.0145(5) 0.000 0.0045(4) 0.000
C8 0.0125(6) 0.0137(6) 0.0152(6) 0.000 0.0029(4) 0.000
C9 0.0140(6) 0.0117(5) 0.0132(6) 0.000 0.0023(4) 0.000
C6 0.0132(6) 0.0110(5) 0.0131(5) 0.000 0.0017(4) 0.000
C10 0.0111(5) 0.0122(6) 0.0142(6) 0.000 0.0027(4) 0.000
C11 0.0085(5) 0.0147(6) 0.0125(5) 0.000 0.0030(4) 0.000
C7 0.0113(6) 0.0136(6) 0.0157(6) 0.000 0.0035(5) 0.000
C1 0.0157(6) 0.0175(6) 0.0121(5) 0.000 0.0032(5) 0.000
C5 0.0158(6) 0.0143(6) 0.0145(6) 0.000 0.0058(5) 0.000
C13 0.0139(4) 0.0153(4) 0.0152(4) -0.0011(3) 0.0038(3) 0.0020(3)
C4 0.0223(6) 0.0158(6) 0.0116(5) 0.000 0.0020(5) 0.000
C2 0.0129(6) 0.0197(6) 0.0196(6) 0.000 0.0045(5) 0.000
C14 0.0126(6) 0.0199(6) 0.0128(6) 0.000 0.0010(4) 0.000
C3 0.0152(6) 0.0158(6) 0.0170(6) 0.000 -0.0021(5) 0.000
loop_
_atom_type_symbol
_atom_type_description
_atom_type_scat_dispersion_real
_atom_type_scat_dispersion_imag
_atom_type_scat_source
C C 0.0033 0.0016 'International Tables Vol C Tables 4.2.6.8 and 6.1.1.4'
H H 0.0000 0.0000 'International Tables Vol C Tables 4.2.6.8 and 6.1.1.4'
N N 0.0061 0.0033 'International Tables Vol C Tables 4.2.6.8 and 6.1.1.4'
O O 0.0106 0.0060 'International Tables Vol C Tables 4.2.6.8 and 6.1.1.4'
loop_
_geom_angle_atom_site_label_1
_geom_angle_atom_site_label_2
_geom_angle_atom_site_label_3
_geom_angle
_geom_angle_site_symmetry_3
N3 N4 C10 107.15(10) .
N3 N4 C11 119.19(10) .
C10 N4 C11 133.65(10) .
C10 N1 N2 106.03(10) .
N2 N3 N4 107.40(10) .
N3 N2 N1 110.76(10) .
C9 C8 H8 120.6 .
C7 C8 H8 120.6 .
C7 C8 C9 118.72(11) .
O1 C9 C8 123.46(11) .
O1 C9 C10 120.90(11) .
C8 C9 C10 115.64(11) .
C1 C6 C7 123.01(11) .
C1 C6 C5 118.75(11) .
C5 C6 C7 118.24(11) .
N4 C10 C9 128.96(11) .
N1 C10 N4 108.66(11) .
N1 C10 C9 122.38(11) .
N4 C11 C13 108.72(6) 4_575
N4 C11 C13 108.72(6) .
N4 C11 C14 107.97(9) .
C13 C11 C13 112.84(10) 4_575
C14 C11 C13 109.24(6) 4_575
C14 C11 C13 109.23(6) .
C8 C7 C6 127.92(11) .
C8 C7 H7 116.0 .
C6 C7 H7 116.0 .
C6 C1 H1 119.7 .
C2 C1 C6 120.51(11) .
C2 C1 H1 119.7 .
C6 C5 H5 119.6 .
C4 C5 C6 120.72(12) .
C4 C5 H5 119.6 .
C11 C13 H13B 109.5 .
C11 C13 H13C 109.5 .
C11 C13 H13A 109.5 .
H13B C13 H13C 109.5 .
H13B C13 H13A 109.5 .
H13C C13 H13A 109.5 .
C5 C4 H4 120.1 .
C3 C4 C5 119.84(12) .
C3 C4 H4 120.1 .
C1 C2 H2 120.0 .
C1 C2 C3 119.97(12) .
C3 C2 H2 120.0 .
C11 C14 H14C 109.5 .
C11 C14 H14B 109.5 .
C11 C14 H14A 109.5 .
H14C C14 H14B 109.5 .
H14C C14 H14A 109.5 .
H14B C14 H14A 109.5 .
C4 C3 C2 120.21(12) .
C4 C3 H3 119.9 .
C2 C3 H3 119.9 .
loop_
_geom_bond_atom_site_label_1
_geom_bond_atom_site_label_2
_geom_bond_distance
_geom_bond_site_symmetry_2
O1 C9 1.2170(15) .
N4 N3 1.3483(14) .
N4 C10 1.3621(15) .
N4 C11 1.5128(15) .
N1 N2 1.3525(15) .
N1 C10 1.3263(16) .
N3 N2 1.3015(15) .
C8 H8 0.9500 .
C8 C9 1.4709(17) .
C8 C7 1.3398(17) .
C9 C10 1.5013(17) .
C6 C7 1.4627(16) .
C6 C1 1.3995(17) .
C6 C5 1.4015(16) .
C11 C13 1.5303(11) .
C11 C13 1.5303(11) 4_575
C11 C14 1.5277(16) .
C7 H7 0.9500 .
C1 H1 0.9500 .
C1 C2 1.3904(17) .
C5 H5 0.9500 .
C5 C4 1.3923(18) .
C13 H13B 0.9800 .
C13 H13C 0.9800 .
C13 H13A 0.9800 .
C4 H4 0.9500 .
C4 C3 1.3853(19) .
C2 H2 0.9500 .
C2 C3 1.3944(18) .
C14 H14C 0.9800 .
C14 H14B 0.9800 .
C14 H14A 0.9800 .
C3 H3 0.9500 .
