#------------------------------------------------------------------------------
#$Date: 2019-12-06 11:36:51 +0200 (Fri, 06 Dec 2019) $
#$Revision: 244930 $
#$URL: file:///home/coder/svn-repositories/cod/cif/1/55/64/1556433.cif $
#------------------------------------------------------------------------------
#
# This file is available in the Crystallography Open Database (COD),
# http://www.crystallography.net/
#
# All data on this site have been placed in the public domain by the
# contributors.
#
data_1556433
loop_
_publ_author_name
'Yang, X.'
'Lunsford, A.'
'Darensbourg, M.Y.'
_publ_section_title
;
 Connecting Main-Group Metals (Al, Ga, In) and Tungsten(0) Carbonyls via
 the N2S2 Metallo-Ligand Strategy
;
_journal_name_full               Inorganics
_journal_page_first              115
_journal_paper_doi               10.3390/inorganics7090115
_journal_volume                  7
_journal_year                    2019
_chemical_formula_moiety         'C10 H21 Al N2 S2'
_chemical_formula_sum            'C10 H21 Al N2 S2'
_chemical_formula_weight         260.39
_space_group_crystal_system      triclinic
_space_group_IT_number           2
_space_group_name_Hall           '-P 1'
_space_group_name_H-M_alt        'P -1'
_atom_sites_solution_hydrogens   geom
_cell_angle_alpha                94.767(7)
_cell_angle_beta                 98.204(7)
_cell_angle_gamma                115.566(6)
_cell_formula_units_Z            2
_cell_length_a                   7.354(4)
_cell_length_b                   7.723(4)
_cell_length_c                   12.601(6)
_cell_measurement_reflns_used    6296
_cell_measurement_temperature    100(2)
_cell_measurement_theta_max      50.99
_cell_measurement_theta_min      3.31
_cell_volume                     630.5(6)
_computing_data_reduction        'SAINT V8.38A (?, 2016)'
_computing_structure_refinement  'SHELXL-2014/7 (Sheldrick, 2014)'
_computing_structure_solution    'ShelXT (Sheldrick, 2015)'
_diffrn_ambient_temperature      100(2)
_diffrn_measured_fraction_theta_full 0.994
_diffrn_measured_fraction_theta_max 0.994
_diffrn_measurement_device_type  'Bruker CMOS area detector'
_diffrn_radiation_type           MoK\a
_diffrn_radiation_wavelength     0.71073
_diffrn_reflns_av_R_equivalents  0.0971
_diffrn_reflns_av_unetI/netI     0.1270
_diffrn_reflns_Laue_measured_fraction_full 0.994
_diffrn_reflns_Laue_measured_fraction_max 0.994
_diffrn_reflns_limit_h_max       8
_diffrn_reflns_limit_h_min       -8
_diffrn_reflns_limit_k_max       9
_diffrn_reflns_limit_k_min       -9
_diffrn_reflns_limit_l_max       15
_diffrn_reflns_limit_l_min       -15
_diffrn_reflns_number            6296
_diffrn_reflns_point_group_measured_fraction_full 0.994
_diffrn_reflns_point_group_measured_fraction_max 0.994
_diffrn_reflns_theta_full        25.242
_diffrn_reflns_theta_max         25.495
_diffrn_reflns_theta_min         1.655
_exptl_absorpt_coefficient_mu    0.463
_exptl_absorpt_correction_type   multi-scan
_exptl_crystal_colour            colorless
_exptl_crystal_density_diffrn    1.371
_exptl_crystal_description       needle
_exptl_crystal_F_000             280
_exptl_crystal_size_max          0.050
_exptl_crystal_size_mid          0.020
_exptl_crystal_size_min          0.020
_exptl_transmission_factor_max   10
_exptl_transmission_factor_min   -18
_refine_diff_density_max         0.633
_refine_diff_density_min         -0.437
_refine_diff_density_rms         0.104
_refine_ls_goodness_of_fit_ref   1.250
_refine_ls_hydrogen_treatment    constr
_refine_ls_matrix_type           full
_refine_ls_number_parameters     138
_refine_ls_number_reflns         2333
_refine_ls_number_restraints     0
_refine_ls_restrained_S_all      1.250
_refine_ls_R_factor_all          0.1185
_refine_ls_R_factor_gt           0.0733
_refine_ls_shift/su_max          0.017
_refine_ls_shift/su_mean         0.004
_refine_ls_structure_factor_coef Fsqd
_refine_ls_weighting_details     'w=1/[\s^2^(Fo^2^)] where P=(Fo^2^+2Fc^2^)/3'
_refine_ls_weighting_scheme      calc
_refine_ls_wR_factor_gt          0.1248
_refine_ls_wR_factor_ref         0.1386
_reflns_Friedel_coverage         0.000
_reflns_Friedel_fraction_full    .
_reflns_Friedel_fraction_max     .
_reflns_number_gt                1437
_reflns_number_total             2333
_reflns_threshold_expression     'I > 2\s(I)'
_cod_data_source_file            AlMeN2S2.cif
_cod_data_source_block           mo_AlMe_0m
_cod_original_cell_volume        630.6(5)
_cod_database_code               1556433
_shelx_space_group_comment
;
The symmetry employed for this shelxl refinement is uniquely defined
by the following loop, which should always be used as a source of
symmetry information in preference to the above space-group names.
They are only intended as comments.
;
_shelx_estimated_absorpt_t_min   0.977
_shelx_estimated_absorpt_t_max   0.991
_shelx_res_file
;

    mo_AlMe_0m.res created by SHELXL-2014/7

TITL mo_AlMe_0m in P-1
CELL 0.71073 7.3543 7.7230 12.6006 94.767 98.204 115.566
ZERR 2.00 0.0035 0.0036 0.0060 0.007 0.007 0.006
LATT 1
SFAC C  H  N  Al S
UNIT 20  42  4  2  4
OMIT 3 -2 4
OMIT 1 0  0
OMIT -2 2 1
OMIT 0 -1 1
OMIT 1 2 5
OMIT -1 1 3
OMIT -1 1 1
OMIT -3 51
L.S. 4
ACTA
BOND $H
FMAP 2
PLAN 20
HTAB
CONF
SIZE 0.05 0.02 0.02
TEMP -173.000
WGHT    0.000000
EXTI    0.000548
FVAR       0.32335
S1    5    0.371700   -0.062499    0.796459    11.00000    0.02546    0.03618 =
         0.05090    0.01524    0.00272    0.01898
S2    5    0.469855    0.266648    0.619924    11.00000    0.02398    0.04655 =
         0.02956    0.01488    0.00129    0.02247
AL1   4    0.647866    0.206498    0.765829    11.00000    0.02119    0.02706 =
         0.02237    0.00578    0.00136    0.01800
C4    1    1.081253    0.366793    0.768143    11.00000    0.02133    0.04209 =
         0.02540    0.00111    0.00072    0.01602
AFIX  23
H4A   2    1.119915    0.497103    0.808620    11.00000   -1.20000
H4B   2    1.196361    0.374392    0.733315    11.00000   -1.20000
AFIX   0
C2    1    0.912168   -0.007260    0.641141    11.00000    0.04942    0.04630 =
         0.03769    0.01492    0.01362    0.03845
AFIX  43
H2    2    1.001811   -0.052205    0.615160    11.00000   -1.20000
AFIX   0
C3    1    0.872656    0.149073    0.598101    11.00000    0.03298    0.03431 =
         0.02617    0.00441    0.00380    0.01918
AFIX  23
H3A   2    0.732203    0.090142    0.553070    11.00000   -1.20000
H3B   2    0.970727    0.209207    0.550297    11.00000   -1.20000
AFIX   0
C1    1    0.799590   -0.087362    0.728268    11.00000    0.03598    0.03297 =
         0.04452   -0.00536   -0.00893    0.02252
AFIX  23
H1A   2    0.651895   -0.166633    0.695703    11.00000   -1.20000
H1B   2    0.851146   -0.174482    0.760210    11.00000   -1.20000
AFIX   0
N2    3    0.891895    0.304643    0.684007    11.00000    0.02079    0.02310 =
         0.01815    0.00315   -0.00288    0.01309
C10   1    0.740655    0.420513    0.888317    11.00000    0.02729    0.03816 =
         0.03165    0.00856    0.00318    0.02485
AFIX 137
H10A  2    0.795126    0.384812    0.954014    11.00000   -1.50000
H10B  2    0.624342    0.444777    0.900340    11.00000   -1.50000
H10C  2    0.848652    0.538405    0.871525    11.00000   -1.50000
AFIX   0
C7    1    0.514739   -0.164293    0.878612    11.00000    0.03591    0.04044 =
         0.04116    0.01705    0.00949    0.02385
AFIX  23
H7A   2    0.458854   -0.194064    0.945433    11.00000   -1.20000
H7B   2    0.495566   -0.287722    0.837299    11.00000   -1.20000
AFIX   0
C8    1    0.889457    0.472213    0.634484    11.00000    0.02733    0.03624 =
         0.03635    0.01511    0.00522    0.02245
AFIX  23
H8A   2    1.002527    0.522837    0.593883    11.00000   -1.20000
H8B   2    0.910932    0.577943    0.692341    11.00000   -1.20000
AFIX   0
C9    1    0.683474    0.407627    0.557586    11.00000    0.03397    0.03962 =
         0.03476    0.01750    0.00269    0.02760
AFIX  23
H9A   2    0.678454    0.328198    0.490373    11.00000   -1.20000
H9B   2    0.670822    0.523647    0.537299    11.00000   -1.20000
AFIX   0
C6    1    0.741352   -0.026966    0.909600    11.00000    0.04113    0.04189 =
         0.04812    0.01295    0.00443    0.03005
AFIX  23
H6A   2    0.764959    0.076688    0.969333    11.00000   -1.20000
H6B   2    0.817522   -0.098865    0.936176    11.00000   -1.20000
AFIX   0
C5    1    1.038013    0.213972    0.848301    11.00000    0.03690    0.05057 =
         0.02743   -0.00786   -0.01264    0.03552
AFIX  23
H5A   2    1.131663    0.153005    0.846053    11.00000   -1.20000
H5B   2    1.062839    0.279657    0.923535    11.00000   -1.20000
AFIX   0
N1    3    0.820773    0.062726    0.815258    11.00000    0.02685    0.02820 =
         0.03236    0.01263    0.00917    0.01795
HKLF 4 1 1 0 0 0 1 0 0 0 1

REM  mo_AlMe_0m in P-1
REM R1 =  0.0733 for    1437 Fo > 4sig(Fo)  and  0.1185 for all    2333 data
REM    138 parameters refined using      0 restraints

END

WGHT      0.0644      0.4491

REM Instructions for potential hydrogen bonds
EQIV $1 x+1, y, z
HTAB C4 S2_$1
HTAB C3 S2
EQIV $2 -x+1, -y, -z+1
HTAB C3 S2_$2
HTAB C1 S1
EQIV $3 -x+1, -y+1, -z+1
HTAB C9 S2_$3
HTAB C5 S1_$1

REM Highest difference peak  0.633,  deepest hole -0.437,  1-sigma level  0.104
Q1    1   1.0773  0.0541  0.6784  11.00000  0.05    0.63
Q2    1   1.1911  0.3124  0.8208  11.00000  0.05    0.62
Q3    1   0.8378 -0.1343  0.5791  11.00000  0.05    0.55
Q4    1   0.5080  0.4037  0.6615  11.00000  0.05    0.55
Q5    1   0.6645 -0.1647  0.8013  11.00000  0.05    0.55
Q6    1   0.6998  0.3328  0.8155  11.00000  0.05    0.54
Q7    1   0.4198 -0.0246  0.7208  11.00000  0.05    0.47
Q8    1   0.7985 -0.0325  0.6615  11.00000  0.05    0.43
Q9    1   0.3831 -0.2007  0.7607  11.00000  0.05    0.39
Q10   1   0.9474  0.0684  0.8429  11.00000  0.05    0.39
Q11   1   0.4483  0.4594  0.8613  11.00000  0.05    0.35
Q12   1   0.5948  0.0583  0.7209  11.00000  0.05    0.33
Q13   1   0.4555  0.0965  0.8282  11.00000  0.05    0.33
Q14   1   1.1688  0.0352  0.7367  11.00000  0.05    0.33
Q15   1   0.6030  0.3679  0.6006  11.00000  0.05    0.32
Q16   1   0.8544 -0.1711  0.8416  11.00000  0.05    0.30
Q17   1   0.5288  0.2965  0.5568  11.00000  0.05    0.30
Q18   1   0.7617  0.3592  0.4785  11.00000  0.05    0.30
Q19   1   0.5603 -0.1289  0.9373  11.00000  0.05    0.29
Q20   1   0.7612 -0.2496  0.7786  11.00000  0.05    0.29
;
_shelx_res_checksum              66174
_shelx_hkl_file
;
  -1   0   0   12.01    1.58
  -1   0   0   15.29    1.75
  -1   0   0   11.84    1.43
  -1   0   0   15.27    1.48
  -2   0   0    5.94    1.53
  -2   0   0    5.09    1.49
  -2   0   0    5.91    1.35
  -3   0   0    3.76    1.67
  -3   0   0    6.12    1.84
  -3   0   0    6.43    1.62
   3   0   0    2.34    1.23
  -4   0   0   39.29    5.56
  -4   0   0   44.60    4.89
  -4   0   0   35.77    5.27
   4   0   0   42.71    4.83
  -5   0   0   12.66    3.56
  -5   0   0   13.40    2.94
  -5   0   0   10.87    3.20
   5   0   0   16.51    3.24
  -6   0   0    8.28    3.17
   6   0   0   10.47    3.62
  -7   0   0   49.94    8.45
   7   0   0   41.71    7.44
  -8   0   0   15.77    5.30
   8   0   0   11.93    5.32
   8  -1   0    2.91    3.59
  -8   1   0    1.22    3.26
   7  -1   0    3.27    2.67
  -7   1   0    0.81    2.41
  -7   1   0    0.67    2.50
   6  -1   0    2.54    2.10
  -6   1   0    8.06    3.27
  -6   1   0    0.00    2.19
   5  -1   0  281.37   18.01
  -5   1   0  287.36   17.68
  -5   1   0  276.18   18.21
  -5   1   0  296.75   18.86
  -4   1   0  100.58    7.70
  -4   1   0   99.48    7.22
  -4   1   0  100.78    7.87
  -4   1   0  100.71    7.55
  -3   1   0    2.20    1.18
  -3   1   0    6.16    1.58
  -3   1   0    0.02    0.91
  -3   1   0    2.12    1.13
  -2   1   0    8.03    1.74
  -2   1   0    8.78    1.45
  -2   1   0    9.52    1.71
  -2   1   0    7.28    1.54
   1  -1   0  266.53   14.79
  -1   1   0  262.55   14.77
   0  -1   0  183.98   10.14
   0  -1   0  169.76   10.11
   0   1   0  179.87    9.88
  -1  -1   0   23.32    2.45
  -2  -1   0   53.66    3.88
  -2  -1   0   40.65    5.00
   2   1   0   51.55    3.68
   2   1   0   50.33    4.39
  -3  -1   0    1.47    1.14
  -3  -1   0    0.31    1.24
   3   1   0   -0.06    0.73
   3   1   0    0.56    1.42
  -4  -1   0    2.32    1.79
  -4  -1   0    4.98    1.86
   4   1   0    0.27    1.03
   4   1   0    3.20    2.09
  -5  -1   0    8.48    3.26
   5   1   0   16.55    3.90
  -6  -1   0   30.39    6.30
   6   1   0   20.00    5.09
  -7  -1   0   27.40    6.41
   7   1   0   24.05    5.99
   8  -2   0    2.32    2.76
  -8   2   0    3.91    3.13
   7  -2   0    0.88    2.14
  -7   2   0    5.37    3.12
  -7   2   0    1.79    2.47
  -6   2   0   84.50    9.66
  -6   2   0   84.46    9.14
  -6   2   0   83.12    9.33
  -5   2   0   89.28    7.86
  -5   2   0   90.75    8.00
  -5   2   0   94.44    7.44
   4  -2   0   10.35    2.43
  -4   2   0   18.68    3.46
  -4   2   0   14.01    2.97
   3  -2   0   23.97    3.39
  -3   2   0   23.66    3.64
  -3   2   0   25.72    2.85
   2  -2   0  120.16    6.84
   2  -2   0  116.46    7.69
  -2   2   0  117.45    7.66
   1  -2   0   65.93    4.37
   1  -2   0   72.57    5.02
  -1   2   0   70.96    4.92
  -1   2   0   71.36    4.82
   0  -2   0    0.51    0.94
   0  -2   0    1.32    0.94
   0   2   0    1.16    0.73
   0   2   0   -0.97    0.78
  -1  -2   0   82.43    6.28
  -1  -2   0   86.50    5.75
   1   2   0   76.27    5.12
  -2  -2   0  177.47   11.20
  -2  -2   0  176.90   12.28
   2   2   0  182.07   10.71
  -3  -2   0   47.32    6.11
  -3  -2   0   44.29    4.88
   3   2   0   42.64    4.36
   3   2   0   45.64    5.86
  -4  -2   0    7.50    2.70
  -4  -2   0    5.57    3.41
   4   2   0    5.76    2.62
  -5  -2   0    2.05    2.49
   5   2   0   -0.59    2.14
  -6  -2   0    2.47    2.87
   6   2   0    0.97    2.85
  -7  -2   0   -0.75    3.12
   7   2   0    2.81    3.80
   9  -3   0    8.74    4.13
  -9   3   0   26.35    6.70
   8  -3   0    3.71    2.92
  -8   3   0    3.73    3.63
   7  -3   0    7.52    2.85
  -7   3   0    2.98    2.35
  -7   3   0    8.06    3.30
   6  -3   0    6.20    2.57
  -6   3   0    4.83    2.50
  -6   3   0    7.37    3.07
   5  -3   0    9.08    2.69
  -5   3   0   17.37    2.96
  -5   3   0   13.65    3.14
   4  -3   0   30.44    4.41
   4  -3   0   41.99    4.00
  -4   3   0   32.05    4.98
  -4   3   0   38.53    4.94
   3  -3   0   24.91    3.57
   3  -3   0   26.92    2.13
  -3   3   0   22.19    3.61
   2  -3   0   37.10    2.76
  -2   3   0   40.76    4.49
   1  -3   0   22.66    2.79
   1  -3   0   20.00    3.36
  -1   3   0   20.51    2.81
   0  -3   0   -0.48    0.96
   0  -3   0    0.25    0.92
   0   3   0   -0.16    0.95
   0   3   0    0.58    0.89
  -1  -3   0   29.85    4.42
  -1  -3   0   25.09    3.59
   1   3   0   32.18    3.31
   1   3   0   27.70    4.20
  -2  -3   0   11.45    2.51
  -2  -3   0   13.21    3.49
   2   3   0   18.76    3.58
   2   3   0   13.26    2.14
  -3  -3   0    1.36    1.44
  -3  -3   0   -0.41    1.43
   3   3   0    0.12    1.11
  -4  -3   0    3.39    2.49
   4   3   0    1.91    2.07
  -5  -3   0    0.35    2.16
   5   3   0   -1.63    2.12
  -6  -3   0    2.62    3.12
   6   3   0    6.31    3.55
   9  -4   0    3.50    3.33
  -8   4   0    4.83    3.43
  -8   4   0    3.95    3.46
   7  -4   0   -0.08    1.95
  -7   4   0    1.10    2.33
  -7   4   0    0.96    2.34
   6  -4   0   12.94    3.47
  -6   4   0    6.50    2.85
  -6   4   0    9.11    3.33
   5  -4   0   -0.60    1.38
  -5   4   0    0.25    1.46
  -5   4   0   -0.92    1.63
   4  -4   0    9.34    1.68
   4  -4   0   13.31    3.24
  -4   4   0   14.03    3.29
  -4   4   0    8.58    2.60
   3  -4   0   22.81    4.06
   3  -4   0   21.73    2.18
  -3   4   0   18.35    3.49
  -3   4   0   16.13    3.28
   2  -4   0   33.49    4.44
   2  -4   0   20.53    2.75
  -2   4   0   29.52    4.15
  -2   4   0   30.30    4.24
   1  -4   0    1.75    1.48
   1  -4   0    3.21    1.35
  -1   4   0    1.60    1.51
  -1   4   0    5.05    1.70
   0  -4   0   26.30    4.00
   0  -4   0   23.15    3.85
   0   4   0   24.27    3.13
   0   4   0   21.86    3.81
  -1  -4   0   18.57    3.35
  -1  -4   0   15.99    3.56
   1   4   0   25.13    4.31
   1   4   0   13.72    2.37
  -2  -4   0   22.26    4.57
  -2  -4   0   17.55    3.47
   2   4   0   14.77    3.67
  -3  -4   0    2.82    2.33
   3   4   0    3.80    2.54
  -4  -4   0    0.04    2.46
   4   4   0    0.43    2.09
  -5  -4   0    6.91    3.55
   5   4   0    1.49    2.65
  -9   5   0    2.73    3.38
   8  -5   0    1.22    2.63
  -8   5   0    2.05    3.39
  -8   5   0    3.96    3.39
   7  -5   0    4.26    2.92
  -7   5   0    2.86    2.89
  -7   5   0    3.20    2.40
   6  -5   0   26.11    5.24
  -6   5   0   33.87    5.96
  -6   5   0   39.71    6.52
   5  -5   0   37.14    5.94
  -5   5   0   34.86    5.62
   4  -5   0    6.21    2.63
  -4   5   0    4.44    2.21
  -4   5   0    8.51    2.83
   3  -5   0   51.30    6.79
  -3   5   0   52.99    6.49
  -3   5   0   59.92    6.95
   2  -5   0    0.99    1.46
   2  -5   0    0.10    0.97
  -2   5   0    3.37    1.93
  -2   5   0   -0.30    1.31
   1  -5   0   23.38    4.21
   1  -5   0   16.54    3.32
  -1   5   0   20.27    3.52
  -1   5   0   17.33    3.83
   0  -5   0    3.43    1.81
   0  -5   0    2.14    1.83
   0   5   0    4.40    1.78
   0   5   0    2.28    2.23
  -1  -5   0    5.11    2.17
  -1  -5   0    8.63    3.21
   1   5   0    3.81    2.61
  -2  -5   0   16.57    4.41
  -2  -5   0   16.87    3.77
   2   5   0   15.44    4.03
  -3  -5   0   17.99    4.53
   3   5   0   23.32    5.34
  -4  -5   0    0.37    2.96
   4   5   0    4.81    3.47
  -9   6   0    1.98    3.67
   8  -6   0   11.33    4.47
  -8   6   0   11.29    4.51
   7  -6   0    9.30    3.99
  -7   6   0   10.63    3.87
  -7   6   0   10.25    4.28
   6  -6   0   38.68    6.71
  -6   6   0   37.74    6.90
  -6   6   0   40.36    6.62
   5  -6   0    6.17    2.87
  -5   6   0    2.97    2.37
  -5   6   0    8.69    3.39
   4  -6   0    1.80    1.60
  -4   6   0    0.07    1.89
  -4   6   0    0.34    1.72
   3  -6   0    2.13    2.08
  -3   6   0    5.63    2.68
  -3   6   0    1.48    1.78
   2  -6   0  116.21    9.40
  -2   6   0   96.89    8.38
  -2   6   0   95.47    8.71
   1  -6   0    0.61    1.57
   1  -6   0    3.46    2.22
  -1   6   0    4.76    2.63
  -1   6   0    2.87    1.90
   0  -6   0   18.07    4.20
   0  -6   0    8.08    3.08
   0   6   0    9.27    3.20
  -1  -6   0   32.25    5.82
  -1  -6   0   33.21    5.47
   1   6   0   27.13    5.81
  -2  -6   0   41.21    6.93
   2   6   0   29.27    6.31
  -3  -6   0   -1.72    2.06
   3   6   0    1.63    2.72
   8  -7   0   10.53    4.63
  -8   7   0    8.56    4.79
   7  -7   0   10.15    3.89
  -7   7   0   17.85    5.27
   6  -7   0    5.84    3.54
  -6   7   0    6.98    3.44
  -6   7   0   10.97    4.51
   5  -7   0   26.98    6.29
  -5   7   0   28.26    5.52
  -5   7   0   30.66    6.47
   4  -7   0   52.55    7.90
  -4   7   0   53.58    7.47
  -4   7   0   63.30    8.34
   3  -7   0   87.97   11.00
  -3   7   0  119.03    9.88
  -3   7   0  106.91   11.34
   2  -7   0    6.04    2.84
  -2   7   0    8.57    3.17
  -2   7   0    7.46    3.37
   1  -7   0    1.35    2.07
  -1   7   0    1.57    2.48
   0  -7   0    6.73    2.98
   0  -7   0    3.36    2.75
   0   7   0    6.60    3.61
  -1  -7   0    4.25    2.89
   1   7   0    8.27    4.15
  -2  -7   0    2.85    3.00
   2   7   0    7.41    4.35
   8  -8   0   37.04    8.01
  -8   8   0   41.18    8.99
   7  -8   0    6.99    4.05
  -7   8   0    8.47    5.04
   6  -8   0   11.49    4.50
  -6   8   0   13.27    4.99
   5  -8   0   20.35    5.49
  -5   8   0   16.46    4.68
  -5   8   0   10.13    4.32
   4  -8   0   18.46    5.01
  -4   8   0   10.46    3.96
  -4   8   0   17.60    4.95
   3  -8   0    2.68    3.04
  -3   8   0    3.25    3.02
  -3   8   0    1.76    2.65
   2  -8   0    3.96    2.77
  -2   8   0    0.96    2.64
   1  -8   0    3.81    2.83
  -1   8   0    4.60    3.65
   0  -8   0    1.02    2.98
   0   8   0    3.35    4.03
   1   8   0    1.52    3.48
   7  -9   0   -4.62    2.48
   6  -9   0    1.67    3.44
  -6   9   0    0.58    3.14
   5  -9   0    2.34    3.32
  -5   9   0   -1.03    3.16
   4  -9   0    2.28    2.97
  -4   9   0   -0.50    3.57
  -4   9   0    7.26    4.45
   3  -9   0   15.22    4.93
  -3   9   0    5.37    3.76
   2  -9   0   18.34    5.24
  -2   9   0   12.27    4.71
   1  -9   0   19.77    5.56
  -1   9   0   16.05    5.57
  -1   9  -1    1.15    3.86
   1  -9   1   -1.89    2.51
  -2   9  -1    5.52    3.78
   2  -9   1   18.84    5.79
  -3   9  -1   -0.36    3.12
   3  -9   1   -1.48    2.57
  -4   9  -1    2.07    2.97
   4  -9   1    0.13    2.36
  -5   9  -1    0.08    3.35
  -5   9  -1   -3.98    2.63
   5  -9   1   -1.59    2.57
  -6   9  -1    2.05    3.56
   6  -9   1   -2.25    2.67
   1   8  -1   -3.69    2.95
   0   8  -1    0.42    2.98
   0  -8   1   -0.54    2.89
  -1   8  -1    3.00    3.45
   1  -8   1   12.88    4.34
  -2   8  -1   -0.50    2.58
   2  -8   1    1.86    2.78
  -3   8  -1    3.11    3.25
  -3   8  -1    5.91    4.14
   3  -8   1    5.68    3.11
  -4   8  -1    1.06    2.95
  -4   8  -1    8.14    3.69
   4  -8   1    9.19    3.93
  -5   8  -1    0.64    2.87
  -5   8  -1    3.73    3.26
   5  -8   1    1.41    2.56
  -6   8  -1   10.50    4.77
  -6   8  -1   11.93    4.63
   6  -8   1   15.53    5.60
  -7   8  -1   -2.96    2.72
   7  -8   1   -1.49    2.89
  -8   8  -1   -0.08    3.32
   8  -8   1    2.56    4.11
   2   7  -1    2.80    4.10
  -2  -7   1   -1.11    2.42
   1   7  -1   -0.55    2.67
  -1  -7   1   -0.35    2.73
  -1  -7   1    3.68    2.62
   0   7  -1    4.25    3.52
   0  -7   1    1.66    2.38
   0  -7   1    3.65    2.60
  -1   7  -1    7.90    3.78
   1  -7   1    2.74    2.50
  -2   7  -1   -0.93    1.86
  -2   7  -1    1.66    2.14
   2  -7   1   -1.41    1.56
  -3   7  -1    1.28    2.20
  -3   7  -1    0.50    1.95
   3  -7   1    2.96    2.53
  -4   7  -1    3.33    2.54
  -4   7  -1    2.32    2.57
   4  -7   1   -1.92    1.49
  -5   7  -1    1.53    2.63
  -5   7  -1    2.08    2.00
   5  -7   1    2.88    2.68
  -6   7  -1   20.11    5.49
  -6   7  -1   35.98    6.71
   6  -7   1   27.81    6.04
  -7   7  -1   16.18    5.25
  -7   7  -1   33.53    6.99
   7  -7   1   27.57    6.41
  -8   7  -1    7.99    4.23
   8  -7   1    3.93    3.22
   4   6  -1    2.05    3.17
  -4  -6   1    3.01    3.17
   3   6  -1    0.56    2.96
  -3  -6   1    2.93    2.76
   2   6  -1   -2.55    2.59
  -2  -6   1    3.17    2.37
  -2  -6   1   -0.24    2.35
   1   6  -1    1.14    2.79
  -1  -6   1    1.19    1.99
  -1  -6   1    1.62    2.44
   0   6  -1    0.37    2.20
   0  -6   1    0.08    1.78
   0  -6   1   -0.24    1.28
  -1   6  -1   46.43    5.74
  -1   6  -1   58.79    8.03
   1  -6   1   44.86    5.57
   1  -6   1   35.13    5.85
  -2   6  -1   31.78    4.86
  -2   6  -1   32.41    5.62
   2  -6   1   28.84    5.09
  -3   6  -1  144.04   10.97
  -3   6  -1  136.80   10.93
  -4   6  -1    6.02    2.71
  -4   6  -1   10.92    3.66
   4  -6   1   11.64    3.73
  -5   6  -1    0.27    1.98
  -5   6  -1    3.57    2.57
   5  -6   1   -1.56    1.62
  -6   6  -1   -1.14    2.19
  -6   6  -1    3.56    2.65
   6  -6   1    0.38    2.05
  -7   6  -1   15.08    4.65
  -7   6  -1   28.22    6.39
   7  -6   1   28.37    6.05
  -8   6  -1   27.54    6.10
  -8   6  -1   19.13    5.57
   8  -6   1   22.14    5.92
   5   5  -1    2.60    3.74
  -5  -5   1   -2.02    2.78
   4   5  -1    4.46    3.31
  -4  -5   1    0.13    2.54
   3   5  -1    9.55    3.60
  -3  -5   1   12.28    4.22
   2   5  -1   61.33    7.89
  -2  -5   1   64.18    7.49
  -2  -5   1   47.44    7.12
   1   5  -1   27.89    5.04
  -1  -5   1   24.71    4.48
  -1  -5   1   20.29    4.24
   0   5  -1    5.89    2.70
   0   5  -1    4.87    1.66
   0  -5   1    4.69    2.08
   0  -5   1    5.62    2.06
  -1   5  -1   34.44    4.41
  -1   5  -1   25.23    4.87
   1  -5   1   16.67    3.74
   1  -5   1   36.08    4.52
  -2   5  -1  100.91    7.84
  -2   5  -1   88.69    7.40
   2  -5   1   87.61    6.38
   2  -5   1   99.40    8.14
  -3   5  -1    1.77    1.69
  -3   5  -1    0.57    1.66
   3  -5   1    0.83    1.59
  -4   5  -1    8.71    2.90
  -4   5  -1    4.72    2.55
   4  -5   1    5.41    2.38
  -5   5  -1   17.73    4.09
  -5   5  -1   20.69    4.60
   5  -5   1   22.55    4.69
  -6   5  -1   12.46    3.65
  -6   5  -1   14.98    4.40
   6  -5   1    9.56    3.37
  -7   5  -1   19.96    4.96
  -7   5  -1   14.65    4.22
   7  -5   1   10.56    3.98
  -8   5  -1   94.73   12.14
  -8   5  -1   85.44   11.18
  -9   5  -1   26.79    9.81
   9  -5   1   31.95    7.17
   5   4  -1   -2.80    2.51
  -5  -4   1    2.14    2.35
   4   4  -1    2.70    3.06
  -4  -4   1    7.73    3.51
   3   4  -1  112.24   10.07
  -3  -4   1  122.82   10.44
  -3  -4   1  114.47    9.39
  -2  -4   1   30.12    5.13
  -2  -4   1   30.62    4.61
   1   4  -1    0.55    0.88
   1   4  -1    1.01    1.78
  -1  -4   1   -1.22    0.91
  -1  -4   1    0.13    1.14
   0   4  -1   16.07    2.50
   0   4  -1   23.77    4.28
   0  -4   1   19.77    3.49
   0  -4   1   18.53    3.45
  -1   4  -1   30.99    3.75
  -1   4  -1   19.62    3.67
   1  -4   1   23.27    3.16
   1  -4   1   24.10    3.93
  -2   4  -1  127.67    9.05
  -2   4  -1  135.68    9.03
   2  -4   1  121.22    7.60
  -3   4  -1  111.13    9.01
  -3   4  -1  132.55    9.31
   3  -4   1  124.99    9.24
  -4   4  -1  184.95   12.77
  -4   4  -1  176.93   12.51
   4  -4   1  175.25   12.46
  -5   4  -1  117.43    9.83
   5  -4   1  119.04    9.39
  -6   4  -1    0.62    1.96
  -6   4  -1   -0.82    1.56
   6  -4   1    3.24    2.32
  -7   4  -1    0.53    2.48
  -7   4  -1    3.18    2.69
   7  -4   1    0.76    2.11
  -8   4  -1   24.18    5.88
   8  -4   1   20.78    5.16
  -9   4  -1    2.76    3.95
   9  -4   1   -2.75    2.86
   6   3  -1   13.70    4.61
  -6  -3   1    8.27    4.11
   5   3  -1   14.15    4.02
  -5  -3   1    4.14    2.45
   4   3  -1   13.68    3.94
  -4  -3   1    8.05    3.13
   3   3  -1    4.34    2.02
  -3  -3   1    0.98    1.46
  -3  -3   1   -1.44    1.19
   2   3  -1   26.24    4.70
   2   3  -1   42.84    3.30
  -2  -3   1   59.71    6.12
  -2  -3   1   50.52    6.02
   1   3  -1   71.07    4.55
   1   3  -1   61.11    5.70
  -1  -3   1   65.78    5.56
  -1  -3   1   71.48    5.89
   0   3  -1  116.86    7.84
   0   3  -1   99.16    6.53
   0  -3   1   93.55    7.12
   0  -3   1  107.12    7.35
  -1   3  -1    1.90    1.18
  -1   3  -1   -1.35    0.80
   1  -3   1    5.56    1.68
   1  -3   1    5.68    1.34
  -2   3  -1  129.20    8.56
   2  -3   1  117.76    8.47
  -3   3  -1  141.10   10.03
  -3   3  -1  147.15   10.16
   3  -3   1  149.32    9.99
  -4   3  -1   53.60    6.27
  -4   3  -1   48.74    3.72
  -4   3  -1   43.56    5.87
   4  -3   1   45.89    5.62
  -5   3  -1    0.41    1.10
  -5   3  -1    3.78    2.21
  -5   3  -1    4.62    2.23
   5  -3   1    5.32    2.07
  -6   3  -1    2.75    2.23
  -6   3  -1   -0.89    1.77
   6  -3   1    0.49    1.61
  -7   3  -1    1.15    2.53
   7  -3   1   -0.63    2.01
  -8   3  -1    4.62    3.44
   8  -3   1    4.55    3.17
   7   2  -1    1.73    3.36
  -7  -2   1    3.08    3.92
   6   2  -1    9.71    3.70
  -6  -2   1   16.40    5.14
   5   2  -1   11.00    3.83
  -5  -2   1    9.00    3.29
   4   2  -1   -1.24    1.66
  -4  -2   1    1.70    1.59
  -4  -2   1   -1.01    1.15
   3   2  -1   25.98    2.89
   3   2  -1   21.61    3.87
  -3  -2   1   31.80    4.06
   2   2  -1   55.76    3.65
   2   2  -1   52.33    4.78
  -2  -2   1   49.31    5.32
  -2  -2   1   52.87    5.79
   1   2  -1   67.20    4.18
  -1  -2   1   68.66    5.22
  -1  -2   1   72.15    5.40
   0   2  -1  214.34   14.74
   0   2  -1  263.20   14.08
   0  -2   1  264.03   14.79
   0  -2   1  262.80   14.53
  -1   2  -1  154.17    9.32
  -1   2  -1  147.78    9.15
   1  -2   1  147.63    9.37
  -2   2  -1  125.31    8.42
  -2   2  -1  127.95    8.43
   2  -2   1  129.24    8.29
  -3   2  -1   16.33    2.18
  -3   2  -1   17.82    3.23
  -3   2  -1   18.58    3.22
   3  -2   1   21.81    3.03
  -4   2  -1   39.87    5.27
  -4   2  -1   23.10    4.01
   4  -2   1   31.91    4.12
  -5   2  -1   78.16    8.43
  -5   2  -1   75.09    8.47
  -5   2  -1   83.25    6.50
   5  -2   1   66.20    6.08
  -6   2  -1   -1.05    1.75
  -6   2  -1    4.06    2.25
   6  -2   1    1.99    1.71
   6  -2   1    1.49    2.11
  -7   2  -1   29.33    6.31
   7  -2   1   31.68    5.72
  -8   2  -1    3.80    3.55
   8  -2   1    3.36    3.01
   7   1  -1   16.21    5.07
  -7  -1   1   22.41    5.95
   6   1  -1    6.78    3.26
  -6  -1   1   -0.48    2.08
   5   1  -1   42.97    6.56
  -5  -1   1   41.99    6.39
  -5  -1   1   43.84    5.72
   4   1  -1   18.80    2.94
   4   1  -1   15.80    3.67
  -4  -1   1   26.25    3.89
  -4  -1   1   18.34    3.86
   3   1  -1    4.35    1.99
   3   1  -1    2.67    1.13
  -3  -1   1    3.56    1.43
  -3  -1   1    2.80    1.61
   2   1  -1    2.06    0.79
   2   1  -1    0.73    1.20
  -2  -1   1    3.67    1.30
  -2  -1   1   -0.24    0.54
   1   1  -1   50.00    3.67
  -1  -1   1   44.88    3.68
  -1  -1   1   48.68    3.69
   0  -1   1   68.15    4.40
  -1   1  -1   90.00    5.67
  -1   1  -1   85.23    5.61
   1  -1   1   87.61    5.45
  -2   1  -1   94.74    6.16
  -2   1  -1   92.59    6.58
  -2   1  -1   96.72    6.64
   2  -1   1   99.44    6.11
  -3   1  -1   36.58    4.71
  -3   1  -1   40.78    4.64
  -3   1  -1   32.53    3.87
  -4   1  -1   76.72    6.66
  -4   1  -1   70.46    6.06
   4  -1   1   71.45    6.11
  -5   1  -1    0.73    1.44
  -5   1  -1   -0.57    1.25
   5  -1   1    0.08    1.54
  -6   1  -1    1.65    2.18
  -6   1  -1    1.94    1.90
   6  -1   1    4.48    2.55
  -7   1  -1    8.70    3.87
  -7   1  -1   19.69    5.72
   7  -1   1   13.55    3.94
  -8   1  -1   11.08    4.61
   8   0  -1   -0.14    3.38
  -8   0   1   -0.12    3.56
   7   0  -1    0.89    3.12
  -7   0   1    4.75    3.72
   6   0  -1    1.72    2.72
  -6   0   1    5.08    2.83
   5   0  -1    1.13    1.43
  -5   0   1   -1.34    1.37
  -5   0   1   -1.29    1.22
   4   0  -1   10.03    2.34
  -4   0   1   13.21    2.98
  -4   0   1   11.59    2.76
  -4   0   1    9.42    2.62
  -3   0   1    5.05    1.73
  -3   0   1    4.95    1.47
  -3   0   1    1.28    1.02
  -3   0   1    3.01    1.49
  -2   0   1   14.49    2.15
  -2   0   1   16.66    2.29
  -2   0   1   14.93    2.28
  -2   0   1   10.64    1.74
   1   0  -1  206.86   11.37
  -1   0   1  202.26   11.54
  -1   0   1  198.23   11.26
  -1   0   1  205.47   11.61
   0   0  -1   13.73    1.24
   0   0   1   15.00    1.21
  -1   0  -1  284.32   15.83
   1   0   1  276.05   15.77
  -2   0  -1  270.58   15.92
  -2   0  -1  266.11   14.96
   2   0   1  263.01   15.61
  -3   0  -1   80.22    6.65
  -3   0  -1   83.31    5.68
  -3   0  -1   78.11    6.58
   3   0   1   91.14    6.44
  -4   0  -1    1.80    1.19
  -4   0  -1   -0.95    1.16
  -4   0  -1    1.09    1.58
   4   0   1    1.30    1.36
  -5   0  -1   89.80    9.32
  -5   0  -1   77.31    9.04
   5   0   1   82.94    7.24
  -6   0  -1   -1.86    1.74
  -6   0  -1    3.36    2.63
   6   0   1    0.70    1.65
  -7   0  -1    0.36    2.89
   7   0   1   -1.59    2.98
  -8   0  -1   -0.39    3.29
   8   0   1    5.59    4.27
   8  -1  -1   -0.84    2.96
  -8   1   1    3.80    3.69
  -7   1   1   -0.94    2.74
   6  -1  -1    9.70    2.93
  -6   1   1    5.57    2.51
  -6   1   1   11.62    3.14
  -6   1   1    7.15    2.93
  -5   1   1   12.17    2.98
  -5   1   1   13.44    3.12
  -5   1   1   20.49    4.11
  -5   1   1   16.04    3.58
  -4   1   1   -0.61    0.99
  -4   1   1    0.92    1.21
  -4   1   1   -0.22    1.08
  -4   1   1   -0.24    1.04
  -3   1   1   -0.56    0.75
  -3   1   1    0.30    0.85
  -3   1   1    1.52    1.13
  -3   1   1    0.09    0.80
  -2   1   1  432.47   24.42
  -2   1   1  448.07   24.71
  -2   1   1  448.66   24.39
  -2   1   1  431.49   24.65
   1  -1  -1    5.91    1.00
  -1   1   1    4.79    0.92
  -1   1   1    3.32    0.90
   0  -1  -1  674.10   37.10
   0  -1  -1  680.45   37.44
   0   1   1  708.57   37.24
   0   1   1  687.36   37.19
  -1  -1  -1   16.54    1.79
   1   1   1   14.08    1.93
   1   1   1   15.14    2.34
  -2  -1  -1   94.05    7.46
  -2  -1  -1  103.92    6.32
   2   1   1  102.91    6.75
  -3  -1  -1   14.14    2.26
  -3  -1  -1   12.61    3.06
   3   1   1   18.60    2.77
  -4  -1  -1    6.58    2.59
  -4  -1  -1    0.79    1.34
   4   1   1   12.67    2.54
   4   1   1    7.90    2.93
  -5  -1  -1    6.21    2.67
   5   1   1    8.07    3.10
   5   1   1   11.57    2.85
  -6  -1  -1    3.76    2.90
   6   1   1    4.68    3.57
  -7  -1  -1    4.79    3.43
   7   1   1   10.55    4.82
  -8   2   1   -0.59    2.87
  -7   2   1   24.75    5.45
  -7   2   1   30.21    5.92
  -6   2   1   21.46    4.48
  -6   2   1   29.98    5.15
  -6   2   1   23.85    4.74
  -6   2   1   25.81    4.90
  -5   2   1  190.24   13.44
  -5   2   1  190.82   13.28
  -5   2   1  216.86   13.78
  -5   2   1  191.66   13.22
  -4   2   1    9.73    2.70
  -4   2   1   10.74    2.52
  -4   2   1   17.74    3.49
   3  -2  -1   74.53    5.19
  -3   2   1   69.75    5.68
  -3   2   1   74.20    5.51
   2  -2  -1   76.96    5.57
   1  -2  -1   25.67    3.22
   1  -2  -1   32.23    2.66
  -1   2   1   31.37    2.78
  -1   2   1   32.69    2.87
   0  -2  -1   36.19    3.83
   0  -2  -1   31.79    3.45
   0   2   1   32.80    2.96
   0   2   1   36.60    3.17
  -1  -2  -1    3.93    1.19
  -1  -2  -1    2.60    1.48
   1   2   1    1.60    1.16
   1   2   1    4.33    1.24
  -2  -2  -1  111.77    6.99
   2   2   1   87.08    7.51
   2   2   1  104.61    6.95
  -3  -2  -1    0.14    0.86
  -3  -2  -1    0.49    1.45
   3   2   1    0.39    1.07
   3   2   1    0.43    0.98
  -4  -2  -1   33.65    5.89
   4   2   1   34.50    5.45
   4   2   1   50.89    6.68
  -5  -2  -1   52.35    7.81
   5   2   1   47.71    7.17
  -6  -2  -1   36.30    7.17
   6   2   1   35.38    6.88
  -7  -2  -1    4.19    3.70
   7   2   1    0.49    3.45
  -8   3   1    2.61    3.23
   7  -3  -1   68.48    8.60
  -7   3   1   79.62    9.33
  -7   3   1   78.30    9.73
   6  -3  -1  118.68    9.83
  -6   3   1  123.88   10.21
  -6   3   1  129.78   10.40
   5  -3  -1   38.55    4.69
   5  -3  -1   36.47    5.25
  -5   3   1   32.67    4.90
  -5   3   1   29.53    4.93
   4  -3  -1   -0.35    0.83
   4  -3  -1    1.15    1.20
  -4   3   1    1.21    1.60
  -4   3   1    0.39    1.03
   3  -3  -1   46.66    3.57
   3  -3  -1   51.12    5.50
  -3   3   1   43.09    4.82
   2  -3  -1   30.34    4.00
   2  -3  -1   23.95    2.72
  -2   3   1   24.08    3.17
  -2   3   1   20.93    3.20
   1  -3  -1   39.83    3.62
  -1   3   1   40.72    4.20
  -1   3   1   41.83    4.45
   0  -3  -1  129.72    9.10
   0   3   1  129.86    8.97
   0   3   1  133.57    8.50
  -1  -3  -1  156.46   11.21
   1   3   1  166.58   10.98
   1   3   1  157.61   10.13
  -2  -3  -1   72.54    5.81
  -2  -3  -1   74.72    8.31
   2   3   1   75.02    5.67
   2   3   1   80.90    8.19
  -3  -3  -1    0.19    1.61
   3   3   1   -0.57    1.48
  -4  -3  -1    6.58    2.84
   4   3   1    5.22    2.67
  -5  -3  -1   16.74    5.32
   5   3   1   10.39    4.02
  -6  -3  -1    0.88    2.95
   6   3   1   -1.11    3.28
   8  -4  -1    7.89    3.39
  -8   4   1   15.51    4.64
   7  -4  -1    2.73    2.08
  -7   4   1   -3.01    1.50
  -7   4   1   -2.09    2.10
   6  -4  -1    2.21    2.05
  -6   4   1    1.55    2.15
  -6   4   1    0.86    1.94
   5  -4  -1   29.09    4.86
  -5   4   1   24.17    4.24
  -5   4   1   16.13    3.79
   4  -4  -1  114.39    7.30
   4  -4  -1  114.65    8.80
  -4   4   1  109.60    8.43
   3  -4  -1   94.99    6.21
  -3   4   1   92.25    7.58
  -3   4   1   94.15    7.15
   2  -4  -1    0.16    0.82
   2  -4  -1    2.14    1.49
  -2   4   1    1.39    1.30
  -2   4   1   -1.27    0.85
   1  -4  -1   54.35    6.10
   1  -4  -1   51.61    5.48
  -1   4   1   53.64    5.94
  -1   4   1   50.59    5.39
   0  -4  -1   81.43    6.73
   0  -4  -1   80.34    6.43
   0   4   1   68.45    6.44
   0   4   1   84.11    6.13
  -1  -4  -1   28.75    5.03
  -1  -4  -1   32.01    4.27
   1   4   1   35.48    4.23
   1   4   1   34.21    5.39
  -2  -4  -1   -0.77    1.27
  -2  -4  -1    2.14    2.21
   2   4   1   -1.79    1.58
  -3  -4  -1    3.20    2.76
   3   4   1    2.35    2.62
  -4  -4  -1    0.97    2.15
   4   4   1    0.05    2.32
  -5  -4  -1   -0.52    2.20
   5   4   1    2.60    2.78
  -9   5   1    5.69    3.82
   8  -5  -1   -1.55    2.41
  -8   5   1   -0.17    2.49
   7  -5  -1   -0.99    1.93
  -7   5   1    2.69    3.78
  -7   5   1   -1.79    1.96
   6  -5  -1   21.02    4.63
  -6   5   1   25.51    5.28
  -6   5   1   24.54    4.79
   5  -5  -1   60.29    7.78
  -5   5   1   57.20    7.07
  -4   5   1  168.48   12.52
  -4   5   1  168.84   11.87
   3  -5  -1   72.12    7.86
   3  -5  -1   70.66    5.26
  -3   5   1   64.69    5.91
  -3   5   1   56.92    7.17
   2  -5  -1   18.25    3.78
   2  -5  -1   21.86    3.22
  -2   5   1   22.10    3.97
  -2   5   1   18.38    3.55
   1  -5  -1    1.33    1.71
   1  -5  -1    0.12    1.22
  -1   5   1    0.22    1.86
  -1   5   1   -0.44    1.34
   0  -5  -1    1.89    1.79
   0  -5  -1    7.26    2.47
   0   5   1    5.67    2.81
   0   5   1    7.59    2.39
  -1  -5  -1    7.29    2.85
  -1  -5  -1    2.83    1.85
   1   5   1    2.91    2.29
  -2  -5  -1   45.41    7.38
   2   5   1   40.11    6.63
  -3  -5  -1    7.05    3.50
   3   5   1   19.49    5.23
  -4  -5  -1    2.94    3.34
   4   5   1   -1.83    2.82
   9  -6  -1   21.55    6.42
  -9   6   1   20.45    6.61
   8  -6  -1   47.77    8.33
  -8   6   1   46.52    8.71
   7  -6  -1    5.96    3.27
  -7   6   1    3.07    3.00
   6  -6  -1    8.65    3.61
  -6   6   1   16.24    4.55
  -6   6   1   12.25    3.75
   5  -6  -1   11.48    3.74
  -5   6   1   10.59    3.58
  -5   6   1    6.86    2.76
   4  -6  -1   26.85    5.43
  -4   6   1   18.00    3.95
  -4   6   1   15.16    3.85
   3  -6  -1   34.17    5.68
  -3   6   1   25.18    4.53
  -3   6   1   40.41    6.11
   2  -6  -1   14.70    3.10
   2  -6  -1   14.42    3.73
  -2   6   1   11.07    3.31
  -2   6   1   10.92    3.02
   1  -6  -1    8.97    3.00
   1  -6  -1    3.52    2.07
  -1   6   1   10.06    3.33
  -1   6   1    4.77    2.49
   0  -6  -1    1.96    1.99
   0  -6  -1   -0.52    1.78
   0   6   1    1.48    2.06
  -1  -6  -1    7.26    3.24
  -1  -6  -1    6.14    2.85
   1   6   1    3.78    2.83
  -2  -6  -1    9.53    4.05
   2   6   1    7.79    3.59
  -3  -6  -1    2.57    2.97
   3   6   1    2.04    3.40
   8  -7  -1    5.92    4.06
  -8   7   1    1.44    3.07
   7  -7  -1   13.49    4.95
  -7   7   1    8.53    4.22
   6  -7  -1   10.03    3.55
  -6   7   1    9.24    4.15
   5  -7  -1   17.27    4.80
  -5   7   1   21.88    5.40
  -5   7   1   24.03    4.81
   4  -7  -1    1.46    2.44
  -4   7   1    2.01    2.14
  -4   7   1    2.51    2.72
   3  -7  -1   13.19    4.01
  -3   7   1   10.40    3.54
  -3   7   1    8.22    3.55
   2  -7  -1    3.36    2.37
  -2   7   1   -0.49    1.93
  -2   7   1    1.99    2.47
   1  -7  -1   11.60    3.83
  -1   7   1   14.05    4.58
   0  -7  -1    4.53    3.04
   0  -7  -1    9.44    3.73
   0   7   1    6.51    3.64
  -1  -7  -1    1.24    2.66
   1   7   1    5.76    3.63
  -2  -7  -1   10.27    4.38
   2   7   1    5.72    3.77
   8  -8  -1   -0.84    3.12
  -8   8   1   -3.61    3.15
   7  -8  -1    1.75    2.91
  -7   8   1   -2.20    2.87
   6  -8  -1    1.81    2.49
  -6   8   1    0.74    2.90
   5  -8  -1    2.94    3.12
  -5   8   1   -2.76    2.53
   4  -8  -1   10.97    4.46
  -4   8   1   14.97    4.79
  -4   8   1    8.49    3.71
   3  -8  -1    8.54    3.82
  -3   8   1    8.23    3.84
  -3   8   1    6.27    3.10
   2  -8  -1    5.67    3.49
  -2   8   1    4.22    3.04
   1  -8  -1    1.48    2.41
  -1   8   1    1.00    2.80
   0   8   1   14.64    5.36
  -1  -8  -1    2.89    3.14
   1   8   1    0.11    3.69
   6  -9  -1    4.82    4.22
  -6   9   1    0.03    3.77
   5  -9  -1    2.77    3.43
  -5   9   1    2.39    3.72
   4  -9  -1    5.72    4.38
  -4   9   1    6.84    4.04
   3  -9  -1    0.16    3.02
  -3   9   1    5.41    3.85
   2  -9  -1    2.43    3.58
  -2   9   1   -2.37    2.76
  -1   9   1    0.51    3.24
  -1   9  -2    0.23    3.18
   1  -9   2    5.41    3.69
  -2   9  -2    7.50    4.34
   2  -9   2    6.72    4.01
  -3   9  -2   11.70    4.39
   3  -9   2   18.98    5.65
  -4   9  -2    0.81    2.83
   4  -9   2    3.93    3.47
  -5   9  -2   37.52    7.41
  -5   9  -2   26.02    6.42
   5  -9   2   21.76    5.78
  -6   9  -2    9.15    4.64
  -6   9  -2   19.23    5.56
   6  -9   2   11.13    5.13
   1   8  -2   12.04    5.13
  -1  -8   2    1.69    3.47
   0   8  -2   32.26    7.20
   0  -8   2   39.10    7.13
  -1   8  -2   31.08    6.82
   1  -8   2   20.31    5.12
  -2   8  -2   26.11    5.55
   2  -8   2   27.60    5.97
  -3   8  -2   -2.16    1.95
   3  -8   2   -0.41    2.41
  -4   8  -2    5.94    3.42
  -4   8  -2    6.16    3.40
   4  -8   2   14.79    4.49
  -5   8  -2   12.87    4.69
  -5   8  -2   10.58    4.23
   5  -8   2   18.81    5.53
  -6   8  -2   17.25    5.20
  -6   8  -2   19.32    5.62
   6  -8   2   15.26    5.14
  -7   8  -2   17.94    5.99
  -7   8  -2   21.06    6.35
   7  -8   2   27.34    6.79
   2   7  -2    2.18    3.69
  -2  -7   2    7.71    3.50
   1   7  -2    5.35    4.05
  -1  -7   2    6.81    3.08
  -1  -7   2    3.59    2.75
   0   7  -2   29.11    6.37
   0  -7   2   40.61    6.52
  -1   7  -2    7.82    3.16
   1  -7   2   -0.44    1.92
  -2   7  -2    0.17    2.09
   2  -7   2    1.55    2.34
  -3   7  -2   15.83    4.32
  -3   7  -2   24.27    5.17
   3  -7   2   31.31    5.96
  -4   7  -2   13.67    4.24
  -4   7  -2   13.33    4.27
   4  -7   2   14.19    4.23
  -5   7  -2    9.92    4.04
  -5   7  -2    5.79    3.10
   5  -7   2   10.76    4.03
  -6   7  -2    2.88    2.98
  -6   7  -2   -2.21    2.41
   6  -7   2    3.77    3.08
  -7   7  -2   37.81    7.56
  -7   7  -2   33.87    7.27
   7  -7   2   28.37    6.59
  -8   7  -2   21.38    6.28
  -8   7  -2   10.05    4.64
   8  -7   2    7.30    4.28
   4   6  -2    0.08    3.84
  -4  -6   2   -0.38    2.46
   3   6  -2    0.57    2.65
  -3  -6   2    3.24    2.59
   2   6  -2   -0.15    2.64
  -2  -6   2    0.99    2.64
  -2  -6   2   -0.98    1.70
   1   6  -2   23.44    5.48
  -1  -6   2   30.91    5.48
  -1  -6   2   21.81    4.82
   0   6  -2   -0.19    2.00
   0  -6   2    2.75    2.08
   0  -6   2    0.41    1.67
  -1   6  -2    2.96    2.45
   1  -6   2    5.52    2.10
   1  -6   2    3.19    2.32
  -2   6  -2   56.25    7.57
  -2   6  -2   59.98    6.86
   2  -6   2   52.53    7.31
  -3   6  -2   34.50    5.69
  -3   6  -2   49.45    6.90
  -4   6  -2   10.09    3.35
  -4   6  -2   13.80    3.67
   4  -6   2   11.90    3.67
  -5   6  -2   16.14    4.46
  -5   6  -2   27.63    5.58
   5  -6   2   14.43    4.26
  -6   6  -2    1.98    2.45
  -6   6  -2   -1.15    2.28
   6  -6   2    1.92    2.41
  -7   6  -2   -0.03    2.31
  -7   6  -2    0.30    2.73
   7  -6   2   -2.07    2.14
  -8   6  -2    3.72    3.92
  -8   6  -2    6.91    4.24
   5   5  -2   -0.85    3.39
  -5  -5   2    1.04    3.00
   4   5  -2    0.85    3.04
  -4  -5   2   -0.81    2.38
   3   5  -2   14.20    4.69
  -3  -5   2   12.13    3.88
  -3  -5   2   17.42    4.20
   2   5  -2    9.14    3.43
  -2  -5   2    7.42    2.92
  -2  -5   2    3.79    2.41
  -1  -5   2   19.27    4.14
  -1  -5   2   11.65    3.42
   0   5  -2    7.45    2.81
   0  -5   2    6.82    2.45
   0  -5   2    8.08    2.37
  -1   5  -2    0.82    1.52
  -1   5  -2    2.80    1.94
   1  -5   2    1.60    1.57
   1  -5   2    1.13    1.19
  -2   5  -2   -0.02    1.44
  -2   5  -2    3.10    1.78
   2  -5   2   -0.15    0.82
   2  -5   2    2.00    1.01
  -3   5  -2    3.38    2.17
  -3   5  -2    1.53    1.82
   3  -5   2    1.07    1.61
  -4   5  -2    3.96    2.19
  -4   5  -2    1.33    1.64
   4  -5   2    0.83    1.66
  -5   5  -2   -0.83    1.77
  -5   5  -2    4.16    2.61
   5  -5   2    0.34    2.00
  -6   5  -2   -0.47    1.89
  -6   5  -2    2.67    2.03
   6  -5   2    0.84    2.01
  -7   5  -2   17.51    4.78
  -7   5  -2   13.28    4.42
   7  -5   2   15.36    4.52
  -8   5  -2    1.81    3.31
   5   4  -2    1.65    3.30
  -5  -4   2    4.70    3.41
   4   4  -2   -1.69    2.43
  -4  -4   2    2.43    2.62
   3   4  -2    4.42    2.84
  -3  -4   2    3.62    2.46
  -3  -4   2    1.71    2.33
   2   4  -2   -0.37    1.37
  -2  -4   2    1.42    1.80
  -2  -4   2    4.23    2.22
   1   4  -2    1.24    1.24
  -1  -4   2    5.27    2.08
  -1  -4   2    3.00    1.74
   0   4  -2    9.49    1.89
   0   4  -2    6.12    2.45
   0  -4   2    7.86    2.01
   0  -4   2    6.48    2.28
  -1   4  -2    2.23    1.55
  -1   4  -2    0.81    0.92
   1  -4   2    1.75    1.34
   1  -4   2   -0.17    0.70
  -2   4  -2   72.96    7.34
  -2   4  -2   55.24    6.09
   2  -4   2   58.28    6.55
  -3   4  -2   41.64    5.67
  -3   4  -2   35.98    5.22
   3  -4   2   44.45    5.82
  -4   4  -2   40.13    5.93
  -4   4  -2   45.50    6.32
   4  -4   2   41.17    5.69
  -5   4  -2    0.27    1.24
  -5   4  -2    0.84    1.77
   5  -4   2    2.57    2.02
  -6   4  -2    1.06    1.86
  -6   4  -2   -0.27    1.78
   6  -4   2   -0.50    1.55
  -7   4  -2   40.71    7.34
  -8   4  -2   36.46    7.34
   8  -4   2   35.65    6.57
   6   3  -2    5.31    3.82
  -6  -3   2    0.63    2.60
   5   3  -2   12.75    4.28
  -5  -3   2   10.04    3.30
   4   3  -2   11.06    3.36
  -4  -3   2   11.50    3.72
  -4  -3   2    7.46    2.66
   3   3  -2   44.18    6.36
  -3  -3   2   53.59    6.72
  -3  -3   2   40.60    5.64
   2   3  -2    0.74    1.57
  -2  -3   2    5.18    2.03
  -2  -3   2    4.93    2.06
   1   3  -2    2.58    1.46
   1   3  -2    6.01    0.98
  -1  -3   2   11.51    2.53
  -1  -3   2    3.69    1.68
   0   3  -2    6.13    2.12
   0   3  -2   20.13    2.23
   0  -3   2   17.79    2.60
   0  -3   2   19.26    3.17
  -1   3  -2   21.61    3.31
  -1   3  -2   23.73    3.17
   1  -3   2   25.03    2.52
  -2   3  -2  133.18    9.39
  -2   3  -2  152.25    9.80
   2  -3   2  136.40    9.56
  -3   3  -2  345.54   20.77
  -3   3  -2  347.59   20.84
   3  -3   2  330.14   20.32
  -4   3  -2   73.12    7.73
  -4   3  -2   55.50    4.21
  -4   3  -2   56.03    6.85
   4  -3   2   62.96    6.60
  -5   3  -2    3.28    2.18
  -5   3  -2    2.19    1.91
   5  -3   2    0.07    1.39
  -6   3  -2   27.81    5.60
   6  -3   2   47.53    6.73
   6  -3   2   36.01    5.18
  -7   3  -2   17.16    5.01
   7  -3   2   14.31    4.13
  -8   3  -2   10.19    4.20
   8  -3   2   11.30    4.68
   7   2  -2    1.43    2.80
  -7  -2   2    4.27    3.61
  -6  -2   2   -0.49    2.30
   5   2  -2   -0.83    2.13
  -5  -2   2    0.93    2.28
  -5  -2   2    0.24    1.95
   4   2  -2    0.01    1.69
  -4  -2   2   -0.36    1.47
  -4  -2   2   -0.67    1.09
   3   2  -2   14.28    2.24
   3   2  -2    9.28    2.59
  -3  -2   2   15.61    3.10
  -3  -2   2   12.69    2.99
   2   2  -2   90.95    7.00
  -2  -2   2   86.53    6.84
  -2  -2   2   94.46    7.16
   1   2  -2  101.43    7.08
  -1  -2   2   97.64    6.97
   0   2  -2    8.46    1.96
   0   2  -2    9.76    1.42
   0  -2   2    9.64    1.70
  -1   2  -2   16.28    2.51
  -1   2  -2   19.54    1.80
   1  -2   2   15.65    2.48
  -2   2  -2  404.64   21.50
  -2   2  -2  383.96   22.85
   2  -2   2  388.84   22.47
  -3   2  -2  300.02   18.59
  -3   2  -2  295.88   18.44
  -3   2  -2  310.58   17.37
   3  -2   2  295.76   17.69
  -4   2  -2    1.29    1.48
  -4   2  -2   -0.73    0.66
   4  -2   2    2.20    1.20
  -5   2  -2   41.01    5.31
  -5   2  -2   29.76    5.26
   5  -2   2   33.68    5.10
   5  -2   2   39.35    4.73
  -6   2  -2    0.32    1.66
  -6   2  -2   -1.31    1.52
   6  -2   2   -0.80    1.86
  -7   2  -2    3.09    3.10
   7  -2   2    3.48    2.98
  -8   2  -2   19.84    5.93
   8  -2   2   10.78    4.10
   7   1  -2    8.56    3.90
  -7  -1   2    8.66    4.20
   6   1  -2   16.80    4.78
  -6  -1   2   22.82    5.42
   5   1  -2    6.47    2.69
  -5  -1   2    6.23    2.71
  -5  -1   2    8.25    3.20
   4   1  -2   11.48    2.99
   4   1  -2   16.07    2.55
  -4  -1   2   10.02    2.53
  -4  -1   2   12.79    3.07
   3   1  -2  240.15   15.04
   3   1  -2  236.70   13.80
  -3  -1   2  246.07   15.03
  -3  -1   2  242.65   15.47
   1   1  -2   61.73    4.45
  -1  -1   2   60.31    4.57
  -1  -1   2   61.95    4.60
   0   1  -2    1.23    0.74
   0   1  -2    1.02    0.82
   0  -1   2    1.49    0.87
   0  -1   2    3.34    0.78
  -1   1  -2    1.21    0.71
  -1   1  -2    0.52    0.70
   1  -1   2    3.28    1.15
   1  -1   2    2.37    0.99
  -2   1  -2    4.80    1.34
   2  -1   2    5.23    1.58
   2  -1   2    5.08    1.23
  -3   1  -2   58.34    5.37
   3  -1   2   63.87    4.46
   3  -1   2   65.20    5.33
  -4   1  -2   56.10    6.29
  -4   1  -2   45.57    6.06
   4  -1   2   47.10    4.05
   4  -1   2   50.14    5.70
  -5   1  -2  210.15   14.14
  -5   1  -2  199.76   14.72
   5  -1   2  204.15   14.24
  -6   1  -2    3.94    2.79
  -6   1  -2    8.85    3.25
   6  -1   2    6.41    3.27
  -7   1  -2   -1.40    2.43
  -7   1  -2    0.44    2.35
   7  -1   2    2.38    2.49
  -8   1  -2   -1.78    3.30
   8   0  -2   10.77    4.74
  -8   0   2   10.15    4.70
   7   0  -2  103.01   11.55
  -7   0   2   89.23   11.63
   6   0  -2   25.08    5.01
  -6   0   2   24.06    4.62
  -6   0   2   27.88    5.41
   5   0  -2   12.30    3.22
   5   0  -2    8.81    2.42
  -5   0   2    1.76    2.00
  -5   0   2   12.48    3.20
   4   0  -2    6.81    2.21
  -4   0   2    5.07    1.57
  -4   0   2    5.83    2.11
  -4   0   2    4.55    1.88
   3   0  -2  158.62   10.43
  -3   0   2  162.47   10.95
  -3   0   2  168.56   10.18
  -3   0   2  164.43   10.64
   2   0  -2   94.97    6.35
  -2   0   2  101.91    6.71
  -2   0   2   99.42    6.85
  -2   0   2   99.19    6.21
   1   0  -2   17.04    1.53
  -1   0   2   20.08    1.89
   0   0  -2  498.76   27.29
   0   0  -2  501.99   27.52
   0   0   2  500.04   27.20
   0   0   2  508.97   27.42
  -1   0  -2    7.69    1.58
  -1   0  -2    8.94    1.74
   1   0   2    7.52    1.51
  -2   0  -2   77.32    5.75
   2   0   2   71.58    5.51
  -3   0  -2   18.96    3.40
  -3   0  -2   17.99    3.32
  -3   0  -2   24.82    2.13
   3   0   2   18.57    3.12
  -4   0  -2  279.52   16.19
  -4   0  -2  269.96   18.08
  -4   0  -2  283.86   18.08
   4   0   2  264.19   17.22
  -5   0  -2   60.02    7.90
  -5   0  -2   65.52    8.60
   5   0   2   72.63    7.63
  -6   0  -2    1.68    2.23
  -6   0  -2    1.99    2.40
   6   0   2    1.83    2.37
  -7   0  -2    3.99    3.35
   8  -1  -2   13.45    4.91
  -8   1   2   27.46    6.29
   7  -1  -2   17.92    4.72
  -7   1   2   10.18    5.06
  -7   1   2   17.87    5.10
  -6   1   2   20.80    4.46
  -6   1   2   26.55    5.39
  -6   1   2   19.41    3.92
  -6   1   2   18.92    4.57
  -5   1   2   18.33    3.78
  -5   1   2   16.72    3.40
  -5   1   2   14.95    3.41
  -5   1   2   18.27    3.90
  -4   1   2   17.82    3.38
  -4   1   2   20.21    3.21
  -4   1   2   15.10    3.00
  -4   1   2   12.60    2.85
  -3   1   2   34.58    4.12
  -3   1   2   15.86    2.76
  -3   1   2   35.99    3.68
   2  -1  -2   76.38    5.38
  -2   1   2   77.43    5.33
  -2   1   2   74.14    4.80
  -2   1   2   77.19    5.52
   1  -1  -2  503.72   28.57
  -1   1   2  527.36   28.59
  -1   1   2  523.91   28.59
   0  -1  -2  512.56   28.11
   0  -1  -2  506.91   28.71
   0   1   2  532.38   28.56
  -1  -1  -2  211.08   12.99
   1   1   2  216.37   12.71
  -2  -1  -2    0.84    1.11
  -2  -1  -2    0.77    1.10
   2   1   2   -0.10    0.89
  -3  -1  -2    0.33    0.80
  -3  -1  -2    6.73    2.29
   3   1   2    4.52    1.63
  -4  -1  -2   -1.30    0.95
  -4  -1  -2    1.29    1.82
   4   1   2    0.47    1.31
  -5  -1  -2   21.94    4.75
   5   1   2   13.06    4.25
   5   1   2   16.11    3.69
  -6  -1  -2   12.22    4.10
   6   1   2    8.93    4.24
  -7  -1  -2    4.14    3.69
   7   1   2   -4.28    3.16
  -8   2   2    0.97    3.21
  -7   2   2    6.80    3.23
  -7   2   2    5.66    2.87
  -7   2   2   10.79    3.68
  -7   2   2    4.86    2.90
  -6   2   2   87.47    9.27
  -6   2   2   63.48    8.11
  -6   2   2   94.39    9.47
  -6   2   2   90.28    9.34
  -5   2   2   46.05    6.02
  -5   2   2   61.92    7.11
  -5   2   2   59.53    6.67
  -5   2   2   56.21    6.30
   4  -2  -2   23.65    3.61
  -4   2   2   28.47    4.15
  -4   2   2   24.08    4.06
   3  -2  -2    2.02    1.18
  -3   2   2    1.00    1.08
  -3   2   2    1.95    0.94
  -3   2   2    2.76    1.41
   2  -2  -2    4.23    1.29
  -2   2   2    0.63    0.78
  -2   2   2    5.56    1.14
   1  -2  -2   91.30    6.63
   1  -2  -2  106.85    6.76
  -1   2   2  100.44    6.79
  -1   2   2  105.68    6.38
   0  -2  -2   -0.02    0.84
   0  -2  -2    1.39    1.23
   0   2   2   -0.51    0.72
  -1  -2  -2    7.23    1.42
  -1  -2  -2    6.14    2.10
   1   2   2    4.35    1.70
   1   2   2    8.37    1.89
  -2  -2  -2   -0.42    0.63
  -2  -2  -2    0.51    0.81
   2   2   2    0.86    1.48
   2   2   2   -0.18    0.99
  -3  -2  -2   13.55    3.53
   3   2   2   16.16    2.95
   3   2   2   17.22    3.62
  -4  -2  -2   17.70    4.37
   4   2   2   11.98    3.02
   4   2   2   10.54    3.33
  -5  -2  -2    2.02    2.35
   5   2   2   -2.33    1.86
  -6  -2  -2    1.25    2.85
   6   2   2    3.02    3.39
   8  -3  -2    6.99    3.59
  -8   3   2    2.43    2.78
   7  -3  -2    0.01    1.82
  -7   3   2    1.02    2.60
  -7   3   2    1.00    2.41
   6  -3  -2    7.94    2.49
  -6   3   2    8.28    3.01
  -6   3   2    9.18    2.98
   5  -3  -2   -0.54    1.00
  -5   3   2    0.79    1.43
  -5   3   2   -0.62    1.23
   4  -3  -2    8.34    1.95
   4  -3  -2    9.22    2.48
  -4   3   2    8.04    2.31
   3  -3  -2   44.24    3.70
  -3   3   2   51.54    5.48
  -3   3   2   40.17    4.31
   2  -3  -2    3.68    1.57
   2  -3  -2    1.43    1.05
  -2   3   2    0.53    0.93
  -2   3   2    4.70    1.69
   1  -3  -2   76.37    5.91
  -1   3   2   80.49    5.76
  -1   3   2   74.05    5.81
   0  -3  -2   -0.98    0.70
   0  -3  -2    2.05    1.45
   0   3   2    2.35    1.52
   0   3   2    3.16    1.36
  -1  -3  -2   17.17    3.54
   1   3   2   17.32    2.82
   1   3   2   15.80    3.12
  -2  -3  -2    2.38    1.85
  -2  -3  -2    1.21    1.08
   2   3   2   -0.52    1.03
   2   3   2   -0.07    1.46
  -3  -3  -2    6.49    2.79
   3   3   2   10.45    3.17
   3   3   2    8.79    2.56
  -4  -3  -2   34.78    6.40
   4   3   2   34.53    6.05
  -5  -3  -2    3.88    2.77
   5   3   2    1.05    3.09
  -6  -3  -2    3.90    3.33
   6   3   2   -0.93    2.65
  -9   4   2    4.88    3.77
   8  -4  -2   11.68    4.30
  -8   4   2   16.08    5.16
   7  -4  -2   14.59    4.26
  -7   4   2   11.55    4.03
   6  -4  -2   12.32    3.53
  -6   4   2   11.19    3.65
  -6   4   2   11.82    3.19
   5  -4  -2    1.63    1.76
   5  -4  -2    2.65    1.45
  -5   4   2    2.90    1.88
  -5   4   2    1.06    1.64
   4  -4  -2    6.86    1.71
   4  -4  -2    5.40    2.14
  -4   4   2    3.98    1.70
  -4   4   2    0.88    1.28
   3  -4  -2   25.58    3.39
   3  -4  -2   31.98    4.47
  -3   4   2   29.28    4.33
   2  -4  -2    8.37    2.11
   2  -4  -2    6.75    2.31
  -2   4   2    5.19    2.08
  -2   4   2    4.11    1.71
   1  -4  -2   58.69    6.44
   1  -4  -2   67.36    5.77
  -1   4   2   68.39    5.74
  -1   4   2   58.98    5.42
   0  -4  -2   24.39    4.40
   0  -4  -2   31.14    4.31
   0   4   2   32.36    4.28
   0   4   2   41.29    5.34
  -1  -4  -2    1.85    1.61
  -1  -4  -2    3.10    2.19
   1   4   2    1.19    1.56
   1   4   2    2.46    1.97
  -2  -4  -2    2.83    2.20
   2   4   2    3.49    2.06
   2   4   2    1.36    2.03
  -3  -4  -2   26.52    5.65
   3   4   2   13.79    3.95
  -4  -4  -2   14.69    4.79
   4   4   2   13.79    4.29
  -5  -4  -2    0.70    2.50
   5   4   2    0.16    2.58
   9  -5  -2   -5.31    2.08
  -9   5   2   -0.22    3.27
   8  -5  -2    6.39    3.14
  -8   5   2    6.88    3.79
   7  -5  -2    4.23    2.42
  -7   5   2    2.27    2.70
   6  -5  -2    2.33    2.24
  -6   5   2    5.44    2.93
   5  -5  -2   22.19    4.58
  -5   5   2   16.69    3.61
  -4   5   2    6.72    2.36
  -4   5   2   10.89    3.15
   3  -5  -2   10.83    2.35
   3  -5  -2    9.62    3.05
  -3   5   2    9.92    3.04
  -3   5   2    8.62    2.48
   2  -5  -2   38.35    5.82
   2  -5  -2   44.91    5.43
  -2   5   2   50.45    6.17
  -2   5   2   47.07    5.95
   1  -5  -2  131.13   10.24
   1  -5  -2  127.58   10.05
  -1   5   2  144.80   10.47
  -1   5   2  142.92   10.08
   0  -5  -2    7.26    2.52
   0  -5  -2    7.47    2.64
   0   5   2    7.98    2.38
   0   5   2    7.83    2.76
  -1  -5  -2    4.86    2.69
  -1  -5  -2    0.99    1.63
   1   5   2    0.84    2.20
  -2  -5  -2    1.62    2.65
   2   5   2   -0.14    2.06
  -3  -5  -2    7.68    3.69
   3   5   2   11.71    4.37
   9  -6  -2   10.00    4.85
  -9   6   2    5.14    4.58
   8  -6  -2    2.41    2.83
  -8   6   2    4.78    3.80
   7  -6  -2   11.83    4.16
  -7   6   2    9.86    4.29
   6  -6  -2  102.56   11.82
  -6   6   2  107.27   11.97
   5  -6  -2   69.06    8.70
  -5   6   2   47.82    7.72
   4  -6  -2   -2.52    1.49
  -4   6   2   -0.04    1.55
  -4   6   2   -0.86    1.84
   3  -6  -2   28.00    5.36
  -3   6   2   20.50    4.34
  -3   6   2   24.64    4.42
   2  -6  -2   55.12    7.23
   2  -6  -2   51.81    6.38
  -2   6   2   37.72    6.03
  -2   6   2   52.84    6.79
   1  -6  -2   10.03    3.06
   1  -6  -2    7.04    2.72
  -1   6   2    6.44    2.61
  -1   6   2    5.03    2.69
   0  -6  -2   17.75    4.47
   0  -6  -2   15.15    3.81
   0   6   2   16.93    4.26
  -1  -6  -2    5.96    3.08
   1   6   2    1.15    2.68
  -2  -6  -2   51.36    8.37
   2   6   2   36.59    6.60
  -3  -6  -2    0.44    2.75
   3   6   2    1.86    3.51
   8  -7  -2    7.22    4.20
  -8   7   2    7.56    4.68
   7  -7  -2   19.32    5.67
  -7   7   2   24.35    6.58
   6  -7  -2   28.40    6.26
  -6   7   2   55.90    8.55
   5  -7  -2   11.98    4.04
  -5   7   2   16.33    4.38
   4  -7  -2   15.32    4.60
  -4   7   2    7.57    3.40
   3  -7  -2   23.85    5.43
  -3   7   2    8.31    3.05
  -3   7   2   15.50    4.21
   2  -7  -2   19.02    4.58
  -2   7   2   15.21    4.13
  -2   7   2    8.54    3.29
   1  -7  -2   -0.33    2.30
   1  -7  -2    0.17    2.03
  -1   7   2    0.27    2.32
   0  -7  -2   15.09    4.29
   0   7   2   17.76    4.84
  -1  -7  -2   38.64    7.53
   1   7   2   27.53    6.47
  -2  -7  -2    3.68    3.53
   2   7   2    4.09    3.60
   8  -8  -2    1.72    3.48
  -8   8   2    0.46    3.66
   7  -8  -2    1.66    2.44
  -7   8   2    1.66    3.61
   6  -8  -2    0.66    2.62
  -6   8   2   -2.24    2.46
   5  -8  -2   47.07    8.34
  -5   8   2   58.27    9.21
   4  -8  -2   47.51    8.40
  -4   8   2   59.87    8.93
   3  -8  -2   12.48    4.78
  -3   8   2   10.17    4.22
   2  -8  -2    6.95    3.77
  -2   8   2    2.12    2.89
   1  -8  -2    4.83    3.27
  -1   8   2   -1.20    2.41
   0   8   2    1.73    3.34
   6  -9  -2    2.96    3.86
  -6   9   2   -1.63    3.46
   5  -9  -2    0.46    3.41
  -5   9   2    1.40    3.90
   4  -9  -2   17.15    5.79
  -4   9   2   11.53    4.72
   3  -9  -2    5.22    3.14
   2  -9  -2   -0.71    2.78
  -1   9  -3    4.50    3.86
   1  -9   3   -0.99    3.07
  -2   9  -3    1.81    3.47
   2  -9   3    7.57    4.38
  -3   9  -3    6.23    3.89
   3  -9   3    8.52    3.80
  -4   9  -3    0.98    2.94
   4  -9   3    0.15    2.58
  -5   9  -3   -0.66    3.16
  -5   9  -3    4.80    3.98
   5  -9   3    1.85    2.90
  -6   9  -3   -0.36    3.66
  -6   9  -3    0.24    3.53
   6  -9   3    7.01    4.21
   1   8  -3   -0.27    3.63
  -1  -8   3   -0.13    2.97
   0   8  -3    0.48    3.46
   0  -8   3    1.45    3.00
  -1   8  -3   -0.33    2.82
   1  -8   3    0.62    2.25
  -2   8  -3   -0.38    2.57
   2  -8   3    3.22    2.80
  -3   8  -3    0.06    2.33
   3  -8   3   -0.24    2.08
  -4   8  -3   -1.15    2.33
  -4   8  -3   -0.68    2.37
   4  -8   3    0.67    2.56
  -5   8  -3   41.80    7.52
  -5   8  -3   44.17    8.02
   5  -8   3   31.20    6.93
  -6   8  -3    9.32    4.22
  -6   8  -3    0.09    2.84
   6  -8   3    4.66    3.52
  -7   8  -3    0.23    3.93
  -7   8  -3   -2.79    2.70
   7  -8   3   -2.07    2.74
   3   7  -3    6.67    4.49
   2   7  -3    4.53    4.18
  -2  -7   3    6.22    3.68
  -2  -7   3    6.63    3.63
   1   7  -3    0.21    2.75
  -1  -7   3   -0.89    1.85
  -1  -7   3    4.21    3.30
   0   7  -3   52.22    8.56
   0  -7   3   67.90    9.08
  -1   7  -3   24.03    5.45
   1  -7   3   30.52    5.55
  -2   7  -3   -2.19    2.05
   2  -7   3    0.63    2.23
  -3   7  -3    3.76    2.64
  -3   7  -3    4.07    2.68
   3  -7   3    3.31    2.18
  -4   7  -3    1.10    2.67
  -4   7  -3    5.69    3.36
   4  -7   3   -0.95    1.72
  -5   7  -3    1.48    2.87
  -5   7  -3   -0.51    2.34
   5  -7   3   -1.31    1.92
  -6   7  -3   32.11    6.58
  -6   7  -3   25.12    5.80
   6  -7   3   27.39    6.59
  -7   7  -3   14.59    5.36
  -7   7  -3   36.41    7.66
   7  -7   3   31.39    7.14
  -8   7  -3    0.29    2.54
  -8   7  -3    4.65    4.12
   8  -7   3   -1.82    6.02
   4   6  -3   12.97    4.99
  -4  -6   3    5.88    3.85
   3   6  -3    3.33    3.26
  -3  -6   3    2.09    3.13
  -3  -6   3    2.43    2.82
   2   6  -3    0.53    2.89
  -2  -6   3    1.94    2.65
  -2  -6   3    6.31    3.12
   1   6  -3    3.66    2.58
  -1  -6   3    6.70    2.57
  -1  -6   3    6.64    3.11
   0   6  -3   48.47    7.08
   0  -6   3   36.18    5.99
   0  -6   3   35.69    5.34
  -1   6  -3   28.88    5.56
   1  -6   3   22.62    4.80
  -2   6  -3   47.83    6.92
  -2   6  -3   46.20    5.89
  -3   6  -3   16.53    3.88
  -3   6  -3   15.97    4.24
   3  -6   3   10.57    3.40
  -4   6  -3    0.24    2.01
  -4   6  -3    1.39    1.98
   4  -6   3    0.40    1.88
  -5   6  -3  122.75   12.82
  -5   6  -3  101.74   11.91
   5  -6   3  117.59   10.44
  -6   6  -3   23.30    5.93
  -6   6  -3   15.67    4.78
   6  -6   3   32.08    6.31
  -7   6  -3   51.95    8.86
  -7   6  -3   39.91    7.58
   7  -6   3   75.50    9.84
  -8   6  -3    6.16    3.92
   8  -6   3    6.55    3.77
   5   5  -3   10.48    4.71
  -5  -5   3   29.76    7.36
   4   5  -3    0.95    3.33
  -4  -5   3    0.11    2.56
   3   5  -3    2.35    2.96
  -3  -5   3    4.37    2.77
  -3  -5   3    3.45    2.63
   2   5  -3    2.52    2.44
  -2  -5   3    6.90    2.87
  -2  -5   3    2.73    2.03
   1   5  -3   -0.37    1.35
  -1  -5   3   -0.85    1.60
  -1  -5   3    0.52    1.51
   0  -5   3   63.79    5.67
   0  -5   3   61.71    7.34
  -1   5  -3   71.52    8.19
  -1   5  -3   75.75    5.97
   1  -5   3   64.18    5.43
   1  -5   3   75.58    8.23
  -2   5  -3  171.54   11.61
  -2   5  -3  161.13   12.03
   2  -5   3  167.63   12.18
  -3   5  -3   56.83    7.08
  -3   5  -3   52.28    6.98
   3  -5   3   53.96    7.01
  -4   5  -3    6.50    2.76
  -4   5  -3   10.20    3.54
   4  -5   3    9.79    3.15
  -5   5  -3   14.26    4.03
  -5   5  -3   16.56    4.51
   5  -5   3   14.30    4.03
  -6   5  -3   20.65    4.92
  -6   5  -3   28.10    5.83
   6  -5   3   26.28    5.19
  -7   5  -3   13.00    4.73
  -8   5  -3   17.55    5.98
   8  -5   3   16.47    4.91
   6   4  -3    2.30    3.92
  -6  -4   3   -0.18    3.34
   5   4  -3    9.55    4.45
  -5  -4   3   14.06    4.61
   4   4  -3   19.02    4.96
  -4  -4   3   13.64    3.86
  -4  -4   3   18.43    5.07
   3   4  -3   67.30    8.36
  -3  -4   3   65.84    8.05
  -3  -4   3   81.62    9.34
   2   4  -3   11.93    3.43
  -2  -4   3   18.64    3.86
  -2  -4   3   21.44    4.20
   1   4  -3   -1.82    1.20
  -1  -4   3    2.01    1.58
  -1  -4   3    1.17    1.48
   0   4  -3    0.31    0.87
   0   4  -3    0.83    0.97
   0  -4   3    0.37    1.01
   0  -4   3   -0.74    0.92
  -1   4  -3  161.21   11.53
  -1   4  -3  168.08   10.75
   1  -4   3  167.77   10.30
  -2   4  -3    7.70    2.74
  -2   4  -3   13.12    2.82
   2  -4   3   11.65    2.88
  -3   4  -3    0.16    1.36
  -3   4  -3   -1.05    1.08
   3  -4   3    1.84    1.77
  -4   4  -3    1.73    1.89
  -4   4  -3    3.52    2.10
   4  -4   3    6.26    2.28
  -5   4  -3   51.12    7.46
   5  -4   3   84.00    8.41
  -6   4  -3   26.07    5.71
   6  -4   3   24.12    4.58
   6  -4   3   23.12    5.17
  -7   4  -3   85.61   10.92
   7  -4   3   97.72   10.96
  -8   4  -3   13.92    5.10
   8  -4   3   33.45    6.88
   6   3  -3    0.98    3.50
  -6  -3   3    4.11    3.83
   5   3  -3    5.01    3.50
  -5  -3   3    4.84    2.87
  -5  -3   3    6.45    4.54
   4   3  -3   52.45    7.66
  -4  -3   3   66.29    8.64
  -4  -3   3   52.55    7.05
   3   3  -3   47.95    6.62
  -3  -3   3   50.24    6.71
  -3  -3   3   39.49    5.94
   2   3  -3   17.06    3.50
  -2  -3   3   13.60    3.09
  -2  -3   3   24.51    4.04
   1   3  -3   -0.45    1.22
  -1  -3   3   -0.42    1.04
  -1  -3   3    0.12    1.02
   0   3  -3    4.05    1.16
   0   3  -3    5.37    1.87
   0  -3   3    3.22    1.53
   0  -3   3    3.43    1.35
  -1   3  -3   29.07    2.53
  -1   3  -3   42.52    4.27
   1  -3   3   19.00    3.35
  -2   3  -3  447.67   26.18
  -2   3  -3  453.91   25.95
   2  -3   3  429.68   25.79
  -3   3  -3  112.61    6.69
  -3   3  -3  114.32    8.74
  -3   3  -3  113.83    8.62
   3  -3   3  105.78    8.11
  -4   3  -3   55.63    7.35
  -4   3  -3   50.86    4.14
   4  -3   3   70.41    6.79
  -5   3  -3   46.88    6.88
   5  -3   3   53.02    5.84
   5  -3   3   42.98    6.06
  -6   3  -3   -1.97    1.64
   6  -3   3   -0.13    1.89
  -7   3  -3   -0.42    2.21
   7  -3   3   -1.27    2.31
  -8   3  -3   -0.96    2.88
   8  -3   3    3.93    3.58
   7   2  -3    0.15    3.14
  -7  -2   3    1.34    3.71
   6   2  -3    4.69    3.22
  -6  -2   3   -2.11    2.09
   5   2  -3    0.79    2.19
  -5  -2   3    1.23    2.12
  -5  -2   3   -0.56    1.69
   4   2  -3   23.03    4.27
  -4  -2   3   18.02    3.76
   3   2  -3   20.18    3.63
  -3  -2   3   26.79    4.68
  -3  -2   3   23.23    3.93
   2   2  -3   74.78    5.96
  -2  -2   3   67.26    5.91
  -2  -2   3   63.38    5.81
   1   2  -3   52.44    5.48
  -1  -2   3   52.33    5.67
  -1  -2   3   55.39    4.63
   0   2  -3   19.03    2.94
   0  -2   3   20.99    2.33
   0  -2   3   21.03    3.15
  -1   2  -3   44.90    4.12
  -1   2  -3   47.60    3.31
   1  -2   3   45.81    3.92
   1  -2   3   45.41    3.80
  -2   2  -3  111.29    6.74
   2  -2   3  108.27    7.68
   2  -2   3  106.87    7.35
  -3   2  -3    5.90    1.59
  -3   2  -3    8.66    2.39
   3  -2   3    6.61    1.88
  -4   2  -3    1.48    1.28
  -4   2  -3    2.61    1.68
   4  -2   3    4.11    2.16
   4  -2   3    0.36    1.04
  -5   2  -3   31.92    5.69
  -5   2  -3   39.30    5.11
   5  -2   3   29.71    5.17
  -6   2  -3   16.80    3.98
  -6   2  -3   19.04    4.91
   6  -2   3   24.16    5.09
  -7   2  -3    2.41    2.70
   7  -2   3    3.78    2.76
  -8   2  -3    4.15    3.51
   8  -2   3    8.49    4.12
   7   1  -3   15.96    4.86
  -7  -1   3   11.24    5.00
   6   1  -3    0.02    2.00
  -6  -1   3   -0.97    2.36
  -6  -1   3   -1.47    1.95
   5   1  -3    3.45    2.39
  -5  -1   3    1.57    2.12
  -5  -1   3    0.99    2.14
   4   1  -3    2.45    1.50
   4   1  -3    0.93    1.50
  -4  -1   3    1.11    1.62
  -4  -1   3    0.06    1.12
   3   1  -3   60.07    5.43
  -3  -1   3   75.41    5.99
  -3  -1   3   66.96    4.65
  -3  -1   3   70.97    6.23
   2   1  -3    5.25    1.59
  -2  -1   3    6.23    1.00
  -2  -1   3    4.43    1.59
  -2  -1   3    6.36    1.86
   1   1  -3    1.06    0.99
  -1  -1   3   -0.20    0.43
  -1  -1   3   -0.58    0.38
  -1  -1   3    1.05    0.97
   0   1  -3  143.87    8.81
   0   1  -3  141.01    8.72
   0  -1   3  153.17    8.98
   0  -1   3  139.09    8.51
  -1   1  -3  136.54    8.82
  -1   1  -3  134.79    8.31
   1  -1   3  141.15    8.28
   1  -1   3  136.65    8.74
  -2   1  -3  139.49    8.48
  -2   1  -3  117.43    8.79
   2  -1   3  131.96    7.90
  -3   1  -3    1.42    1.15
  -3   1  -3    2.29    1.23
   3  -1   3    1.77    0.90
   3  -1   3    4.10    1.82
  -4   1  -3   16.19    3.59
  -4   1  -3    8.59    2.64
   4  -1   3    9.17    1.77
   4  -1   3   13.30    3.26
  -5   1  -3    3.76    2.36
  -5   1  -3    8.64    3.03
   5  -1   3    0.35    1.77
  -6   1  -3   -0.65    1.85
  -6   1  -3    5.62    2.81
   6  -1   3    4.12    2.54
  -7   1  -3    5.14    3.54
  -7   1  -3    7.81    3.91
   7  -1   3    8.04    3.51
  -8   1  -3   21.41    6.64
   8   0  -3    1.49    3.54
  -8   0   3    7.68    4.83
   7   0  -3   16.20    4.66
  -7   0   3   11.22    4.62
   6   0  -3    6.75    3.12
  -6   0   3    6.08    3.01
  -6   0   3    7.63    3.69
   5   0  -3   33.78    5.14
  -5   0   3   19.66    4.18
  -5   0   3   26.91    3.87
  -5   0   3   19.32    4.59
   4   0  -3   40.39    5.10
  -4   0   3   45.71    5.69
  -4   0   3   40.07    5.76
   3   0  -3  103.96    7.17
  -3   0   3  103.81    7.70
  -3   0   3  109.38    7.03
  -3   0   3  103.27    7.94
   2   0  -3  108.66    6.64
   2   0  -3  100.86    7.31
  -2   0   3  107.17    6.66
   1   0  -3  168.95    9.93
  -1   0   3  173.79   10.57
  -1   0   3  184.44   10.33
   0   0  -3   31.26    2.69
   0   0  -3   33.41    2.95
   0   0   3   35.78    2.62
   0   0   3   34.26    2.85
  -1   0  -3    3.55    1.25
  -1   0  -3    4.50    1.48
   1   0   3    3.68    1.24
  -2   0  -3    4.68    1.74
  -2   0  -3    3.29    1.40
   2   0   3    1.36    1.16
  -3   0  -3   64.16    5.69
  -3   0  -3   58.61    6.68
   3   0   3   63.51    6.43
  -4   0  -3    2.76    1.98
  -4   0  -3    0.76    1.15
   4   0   3    0.68    1.35
  -5   0  -3   30.42    5.54
  -5   0  -3   29.80    5.77
   5   0   3   27.09    4.80
  -6   0  -3   11.08    3.86
  -6   0  -3    3.22    2.66
   6   0   3    9.64    3.41
  -7   0  -3   29.56    6.44
   8  -1  -3   14.55    5.03
  -8   1   3   14.82    5.11
   7  -1  -3   24.36    4.91
  -7   1   3   13.31    3.93
  -7   1   3   15.01    4.74
   6  -1  -3    2.15    2.29
  -6   1   3    3.48    2.31
  -6   1   3    3.70    2.09
  -6   1   3    3.11    2.29
  -5   1   3   13.10    3.54
  -5   1   3   14.80    3.69
  -5   1   3   13.99    3.15
  -4   1   3   29.17    3.94
  -4   1   3   29.14    4.45
  -4   1   3   23.10    4.09
  -4   1   3   24.96    3.63
   3  -1  -3   11.37    2.40
  -3   1   3   11.05    2.52
  -3   1   3   12.91    2.03
   2  -1  -3  144.14    9.34
   2  -1  -3  146.31    8.18
  -2   1   3  145.73    9.17
   1  -1  -3    3.84    1.32
  -1   1   3    2.59    1.07
  -1   1   3    4.46    1.30
   0  -1  -3    6.76    1.35
   0   1   3    4.07    1.05
   0   1   3    4.40    1.26
  -1  -1  -3    1.05    1.08
  -1  -1  -3    1.15    1.09
   1   1   3   -0.32    0.79
  -2  -1  -3  126.79    9.34
  -2  -1  -3  128.63    9.31
   2   1   3  132.65    8.97
  -3  -1  -3   32.81    5.05
  -3  -1  -3   38.07    5.52
   3   1   3   36.05    4.69
  -4  -1  -3  104.65    8.91
   4   1   3   85.48    8.98
  -5  -1  -3    4.04    3.29
   5   1   3    2.15    2.21
  -6  -1  -3    4.20    3.26
   6   1   3    2.41    3.34
  -7  -1  -3    0.47    2.86
   7   1   3    5.56    4.36
  -8   2   3   31.61    6.51
  -7   2   3   -0.80    2.43
  -7   2   3    1.80    2.23
  -7   2   3    1.68    2.22
  -6   2   3    1.71    2.17
  -6   2   3    0.09    1.73
  -6   2   3    1.59    1.76
   5  -2  -3    8.67    2.72
  -5   2   3   11.81    2.77
  -5   2   3   13.60    3.41
  -5   2   3    7.42    2.43
   4  -2  -3    2.98    1.65
  -4   2   3    3.40    1.70
  -4   2   3    5.29    1.56
  -4   2   3    5.08    1.90
   3  -2  -3  121.53    8.16
  -3   2   3  123.63    7.45
  -3   2   3  117.87    8.41
  -3   2   3  114.01    8.44
   2  -2  -3   27.34    3.32
  -2   2   3   16.61    2.78
  -2   2   3   24.93    3.35
  -2   2   3   20.49    1.75
   1  -2  -3  991.82   54.65
   1  -2  -3  999.29   54.41
  -1   2   3 1000.00   53.75
  -1   2   3  990.42   54.68
   0  -2  -3   17.23    2.42
   0  -2  -3   19.78    3.25
   0   2   3   20.45    2.72
   0   2   3   20.83    2.80
  -1  -2  -3    2.40    0.96
  -1  -2  -3    1.71    1.26
   1   2   3    2.13    1.26
   1   2   3    3.56    1.69
  -2  -2  -3   48.40    6.27
   2   2   3   43.73    5.22
   2   2   3   55.41    6.34
  -3  -2  -3   22.79    4.62
   3   2   3   18.86    3.81
   3   2   3   15.01    3.07
  -4  -2  -3    8.49    3.32
   4   2   3   15.25    3.22
   4   2   3   12.95    3.67
  -5  -2  -3   16.24    4.90
   5   2   3   14.06    4.35
  -6  -2  -3    9.73    4.02
   6   2   3   17.00    5.08
  -8   3   3   12.48    4.46
   7  -3  -3   32.46    5.84
  -7   3   3   27.29    5.30
   6  -3  -3  122.14    9.84
  -6   3   3  132.11    9.75
  -6   3   3  120.29   10.34
  -6   3   3  123.65   10.43
   5  -3  -3   36.23    4.93
  -5   3   3   28.14    4.90
  -5   3   3   31.40    4.37
  -5   3   3   33.03    5.45
   4  -3  -3   -1.26    0.69
  -4   3   3    1.24    1.35
  -4   3   3    1.23    0.94
   3  -3  -3   47.74    5.76
   3  -3  -3   51.12    5.16
  -3   3   3   46.87    3.79
  -3   3   3   51.01    5.82
   2  -3  -3   84.42    6.19
   2  -3  -3   81.72    6.36
  -2   3   3   81.71    5.58
  -2   3   3   81.15    6.51
   1  -3  -3   78.74    6.03
   1  -3  -3   78.58    6.31
  -1   3   3   79.28    6.21
  -1   3   3   80.53    5.75
   0  -3  -3   68.01    6.86
   0   3   3   53.16    4.88
   0   3   3   62.50    5.26
  -1  -3  -3   47.20    4.12
  -1  -3  -3   53.22    6.52
   1   3   3   57.56    5.93
   1   3   3   58.61    6.39
  -2  -3  -3    0.59    1.18
   2   3   3    0.04    1.40
   2   3   3   -0.19    1.54
  -3  -3  -3   17.24    4.41
   3   3   3   14.86    3.38
   3   3   3   21.30    4.70
  -4  -3  -3   53.52    8.23
   4   3   3   32.18    6.05
  -5  -3  -3    4.30    3.28
   5   3   3   10.02    4.33
  -6  -3  -3   12.64    4.65
   6   3   3   14.44    5.61
   9  -4  -3    1.03    3.29
  -9   4   3    1.62    3.78
   8  -4  -3   20.89    5.13
  -8   4   3   20.33    5.43
   7  -4  -3   54.50    8.04
  -7   4   3   55.33    8.24
   6  -4  -3   75.42    8.80
  -6   4   3   64.85    8.55
   5  -4  -3    2.36    1.37
   5  -4  -3    3.38    2.21
  -5   4   3    4.34    2.45
  -5   4   3    9.90    2.61
   4  -4  -3   33.25    4.11
  -4   4   3   22.60    4.24
   3  -4  -3    1.29    1.17
   3  -4  -3    0.04    1.19
  -3   4   3    0.04    1.14
  -3   4   3    0.93    1.14
   2  -4  -3   52.84    6.02
   2  -4  -3   57.34    4.96
  -2   4   3   40.78    5.29
   1  -4  -3   83.94    7.01
   1  -4  -3   90.08    6.86
  -1   4   3   79.66    6.55
  -1   4   3   79.17    6.69
   0  -4  -3   48.47    6.05
   0  -4  -3   45.37    5.27
   0   4   3   41.35    5.23
   0   4   3   44.72    5.54
  -1  -4  -3   41.03    6.28
  -1  -4  -3   41.28    4.82
   1   4   3   50.00    5.92
   1   4   3   40.74    5.74
  -2  -4  -3    7.06    3.12
   2   4   3    4.76    2.32
   2   4   3    8.51    2.65
  -3  -4  -3    1.22    2.10
   3   4   3    3.40    2.42
  -4  -4  -3   -1.34    2.02
   4   4   3    2.69    3.18
  -5  -4  -3    2.73    3.10
   5   4   3   -2.43    2.80
   9  -5  -3    9.65    4.42
  -9   5   3    4.32    3.94
   8  -5  -3    5.80    3.50
  -8   5   3    2.67    2.83
   7  -5  -3    5.45    2.78
  -7   5   3    0.67    2.54
   6  -5  -3   14.43    3.74
  -6   5   3   12.79    3.79
   5  -5  -3   29.18    4.85
  -5   5   3   16.32    4.07
   4  -5  -3   17.33    3.01
   4  -5  -3   23.67    4.40
  -4   5   3   19.80    4.16
  -4   5   3   20.26    3.39
   3  -5  -3    0.06    1.16
   3  -5  -3   -0.13    1.40
  -3   5   3   -0.13    1.29
  -3   5   3    0.20    1.21
   2  -5  -3   22.16    4.34
   2  -5  -3   28.02    4.38
  -2   5   3   21.16    3.94
  -2   5   3   21.40    4.22
   1  -5  -3   -0.88    1.15
   1  -5  -3    1.01    1.54
  -1   5   3   -1.09    1.25
  -1   5   3    1.05    1.61
   0  -5  -3    3.59    1.92
   0  -5  -3    1.72    1.84
   0   5   3   -1.26    1.26
   0   5   3    4.37    2.34
  -1  -5  -3   31.87    5.96
   1   5   3   22.96    4.01
   1   5   3   23.63    4.75
  -2  -5  -3    0.07    2.45
   2   5   3   -2.38    2.06
  -3  -5  -3   -1.57    2.42
   3   5   3    0.20    2.62
  -4  -5  -3    7.48    4.28
   4   5   3    0.96    3.15
   9  -6  -3    0.56    3.56
  -9   6   3    3.28    3.78
   8  -6  -3    7.43    3.97
  -8   6   3    7.63    4.44
   7  -6  -3    0.79    2.79
  -7   6   3    1.03    2.75
   6  -6  -3   22.20    5.04
  -6   6   3   13.17    4.34
   5  -6  -3    0.09    1.78
  -5   6   3   -0.45    1.89
   4  -6  -3   28.89    5.63
  -4   6   3   31.44    5.56
   3  -6  -3   32.97    5.25
   3  -6  -3   37.74    6.10
  -3   6   3   35.44    5.01
  -3   6   3   36.91    6.02
   2  -6  -3    1.75    1.82
   2  -6  -3    1.20    2.08
  -2   6   3    3.35    2.40
  -2   6   3    2.18    1.80
   1  -6  -3   19.63    4.76
   1  -6  -3   43.27    6.24
  -1   6   3   26.83    5.01
  -1   6   3   24.04    4.46
   0  -6  -3    3.21    2.66
   0  -6  -3    6.81    3.86
   0   6   3    3.67    2.40
   0   6   3    3.76    2.87
  -1  -6  -3   -3.39    1.92
   1   6   3   -2.44    1.58
  -2  -6  -3    6.88    3.83
   2   6   3    3.17    3.05
  -3  -6  -3   -0.22    3.17
   3   6   3   -1.74    2.96
   8  -7  -3    8.52    4.18
  -8   7   3    6.23    4.23
   7  -7  -3    0.49    2.50
  -7   7   3   -1.49    2.59
   6  -7  -3   12.79    4.51
  -6   7   3   14.05    4.89
   5  -7  -3    5.43    3.02
  -5   7   3    5.98    3.55
   4  -7  -3   13.55    4.43
  -4   7   3   11.83    4.25
   3  -7  -3   -0.01    2.24
  -3   7   3   -1.45    2.03
   2  -7  -3    0.15    2.22
  -2   7   3   -0.20    2.44
  -2   7   3    2.01    2.58
   1  -7  -3   12.96    4.00
   1  -7  -3   10.34    3.54
  -1   7   3    9.08    4.13
  -1   7   3    7.53    3.46
   0  -7  -3   -0.87    2.16
   0   7   3    1.02    2.85
  -1  -7  -3   -1.44    2.22
   1   7   3    1.27    3.04
  -2  -7  -3    1.22    3.11
   2   7   3    0.43    3.25
   7  -8  -3    4.43    3.17
  -7   8   3    6.72    4.49
   6  -8  -3    7.72    3.76
  -6   8   3    8.54    4.36
   5  -8  -3   -2.73    2.25
  -5   8   3    0.08    2.97
   4  -8  -3   -3.44    2.53
  -4   8   3    0.86    2.78
   3  -8  -3    8.52    4.24
  -3   8   3    9.73    3.85
   2  -8  -3    7.70    3.68
  -1   8   3    2.68    3.21
   0  -8  -3   28.68   10.13
   0   8   3   12.13    4.86
   6  -9  -3    1.50    3.47
  -6   9   3    3.43    3.71
   5  -9  -3   23.75    6.69
  -5   9   3   15.48    5.96
   4  -9  -3   43.93    8.56
  -4   9   3   30.11    6.99
   3  -9  -3    1.80    3.03
  -1   9  -4    0.20    3.45
   1  -9   4    5.56    3.70
  -2   9  -4    3.01    3.76
   2  -9   4    0.89    2.75
  -3   9  -4    2.13    3.51
   3  -9   4    4.62    2.82
  -4   9  -4    3.39    3.71
   4  -9   4    6.84    3.84
  -5   9  -4   61.67    9.20
  -5   9  -4   44.89    8.57
   5  -9   4   42.75    8.68
  -6   9  -4    9.57    4.78
  -6   9  -4    4.37    4.56
   6  -9   4   12.26    5.30
   1   8  -4   -0.50    3.38
  -1  -8   4    2.94    3.41
   0   8  -4    5.62    4.21
   0  -8   4    5.16    3.65
  -1   8  -4    5.74    3.84
   1  -8   4   15.23    4.79
  -2   8  -4   19.97    5.69
   2  -8   4   30.45    6.26
  -3   8  -4    1.18    2.60
   3  -8   4    0.91    1.88
  -4   8  -4   40.23    7.29
  -4   8  -4   30.29    6.92
   4  -8   4   27.91    6.26
  -5   8  -4   35.21    7.64
  -5   8  -4   26.08    6.04
   5  -8   4   33.80    6.79
  -6   8  -4    6.63    4.36
  -6   8  -4    3.14    3.21
   6  -8   4    5.04    4.00
  -7   8  -4   -3.42    2.94
  -7   8  -4    2.35    3.75
   7  -8   4    0.37    3.42
   2   7  -4    2.08    3.30
  -2  -7   4   -0.86    2.99
  -2  -7   4    0.48    2.45
   1   7  -4    6.42    3.80
  -1  -7   4    3.81    3.14
   0   7  -4   51.16    8.27
   0  -7   4   54.40    8.12
  -1   7  -4    5.81    3.27
   1  -7   4    7.18    3.34
  -2   7  -4    5.50    3.39
   2  -7   4    3.81    2.21
  -3   7  -4    4.77    2.88
  -3   7  -4    1.75    2.46
   3  -7   4    1.89    2.15
  -4   7  -4    6.75    3.49
  -4   7  -4   14.86    4.70
   4  -7   4    5.18    3.27
  -5   7  -4    3.84    3.59
  -5   7  -4    3.97    3.40
   5  -7   4    8.22    3.52
  -6   7  -4    7.56    4.20
  -6   7  -4   14.66    4.96
   6  -7   4    6.53    3.62
  -7   7  -4   25.48    6.58
   7  -7   4   27.53    6.52
  -8   7  -4    5.67    4.47
   8  -7   4   11.44    4.83
   4   6  -4    8.18    4.72
  -4  -6   4   10.95    5.07
   3   6  -4   -4.30    2.72
  -3  -6   4    2.24    3.14
  -3  -6   4    1.11    3.19
   2   6  -4    3.27    3.19
  -2  -6   4    3.45    3.17
  -2  -6   4    3.87    2.96
   1   6  -4   13.98    4.45
  -1  -6   4   14.30    4.03
  -1  -6   4   10.32    3.39
   0   6  -4    0.46    2.26
   0  -6   4    0.16    1.90
   0  -6   4    0.22    1.69
  -1   6  -4   12.84    4.06
   1  -6   4    8.36    2.95
  -2   6  -4    0.13    2.10
  -2   6  -4    1.21    1.96
   2  -6   4   -0.13    1.10
  -3   6  -4    0.73    1.97
  -3   6  -4   -1.05    1.65
   3  -6   4    1.53    1.99
  -4   6  -4   -0.25    1.90
  -4   6  -4   -0.74    1.92
   4  -6   4   -0.36    1.65
  -5   6  -4    0.90    2.03
  -5   6  -4    0.75    2.47
   5  -6   4    0.49    1.98
  -6   6  -4    0.45    2.56
  -6   6  -4   -1.82    1.78
   6  -6   4    3.50    2.56
  -7   6  -4    7.68    4.04
   7  -6   4    4.12    3.13
  -8   6  -4    1.14    3.27
   8  -6   4    6.10    3.67
   5   5  -4   -0.21    3.77
  -5  -5   4   -0.55    2.87
   4   5  -4    5.32    3.67
  -4  -5   4   -2.10    2.13
  -4  -5   4    1.61    2.67
   3   5  -4   -1.25    2.46
  -3  -5   4    1.52    2.38
  -3  -5   4    2.83    2.86
   2   5  -4    1.26    2.50
  -2  -5   4   -0.16    1.91
  -2  -5   4   -0.36    1.70
   1   5  -4    2.87    2.39
  -1  -5   4    2.17    1.93
  -1  -5   4    3.82    2.53
   0   5  -4   -0.06    1.51
   0  -5   4    0.75    1.36
   0  -5   4    1.20    1.83
  -1   5  -4    0.49    1.49
  -1   5  -4    2.10    1.52
   1  -5   4   -1.27    0.95
   1  -5   4   -0.16    1.01
  -2   5  -4    1.82    1.73
  -2   5  -4    1.36    1.72
   2  -5   4    1.02    1.53
  -3   5  -4   25.05    4.54
  -3   5  -4   23.48    4.86
   3  -5   4   24.05    4.60
  -4   5  -4   10.08    3.74
  -4   5  -4    6.33    2.83
   4  -5   4    9.48    3.13
  -5   5  -4   71.69    9.86
  -5   5  -4   79.71    9.86
   5  -5   4   80.18    9.25
  -6   5  -4   32.63    6.82
   6  -5   4   21.34    5.18
   6  -5   4   38.11    6.35
  -7   5  -4    4.30    3.05
   7  -5   4    3.88    3.01
  -8   5  -4    4.35    3.61
   8  -5   4    0.75    3.17
   6   4  -4   -2.07    3.40
  -6  -4   4   -1.09    3.11
   5   4  -4   10.28    4.21
  -5  -4   4    5.59    3.96
   4   4  -4    1.65    2.66
  -4  -4   4    2.78    2.93
  -4  -4   4    2.40    2.61
   3   4  -4    0.96    2.38
  -3  -4   4    0.44    1.79
  -3  -4   4    4.22    2.86
   2   4  -4   13.77    3.87
  -2  -4   4    4.48    2.25
  -2  -4   4   14.67    3.72
   1   4  -4   10.70    3.30
  -1  -4   4    7.01    2.57
  -1  -4   4   12.81    2.93
   0   4  -4  132.49    9.79
   0  -4   4  121.30    7.77
   0  -4   4  122.75    8.70
   0  -4   4  111.55    9.25
  -1   4  -4    0.22    1.10
  -1   4  -4   -0.84    0.84
  -1   4  -4   -0.50    0.78
   1  -4   4   -1.03    0.91
  -2   4  -4  103.17    6.41
  -2   4  -4  102.24    8.49
  -2   4  -4  107.93    8.16
   2  -4   4  106.77    8.29
  -3   4  -4    8.62    2.62
  -3   4  -4   10.82    2.90
   3  -4   4   12.93    2.94
  -4   4  -4   19.42    4.47
   4  -4   4   25.88    4.42
  -5   4  -4    1.04    1.97
   5  -4   4    0.50    1.66
   5  -4   4   -0.97    1.40
  -6   4  -4   29.04    5.96
   6  -4   4   36.77    6.24
  -7   4  -4   16.21    5.24
   7  -4   4   36.45    6.52
  -8   4  -4   11.78    5.04
   8  -4   4    6.97    4.23
   6   3  -4    4.32    3.77
  -6  -3   4   -1.59    2.01
   5   3  -4   26.19    5.67
  -5  -3   4   24.38    5.11
  -5  -3   4   34.63    6.96
   4   3  -4   16.00    4.15
  -4  -3   4   14.58    4.09
  -4  -3   4   30.23    5.80
   3   3  -4   39.81    5.87
  -3  -3   4   32.51    5.54
  -3  -3   4   26.56    5.13
   2   3  -4    0.42    1.58
  -2  -3   4    0.69    1.57
  -2  -3   4    3.20    1.91
   1   3  -4   61.90    6.82
  -1  -3   4   65.00    5.73
  -1  -3   4   69.48    6.08
   0   3  -4   -0.53    1.15
   0  -3   4    0.31    0.86
   0  -3   4    2.30    1.20
   0  -3   4    3.26    1.19
  -1   3  -4  123.91    8.78
  -1   3  -4  113.56    7.59
   1  -3   4  126.31    8.70
  -2   3  -4   -0.02    0.82
  -2   3  -4    0.58    0.69
   2  -3   4    1.29    1.23
   2  -3   4   -0.68    0.95
  -3   3  -4   90.68    7.75
  -3   3  -4   94.36    5.95
   3  -3   4   86.83    7.29
   3  -3   4   87.54    6.99
  -4   3  -4    0.53    1.05
  -4   3  -4    1.85    1.84
   4  -3   4    0.42    1.00
   4  -3   4    1.57    1.33
  -5   3  -4    5.44    2.40
   5  -3   4    2.30    1.69
   5  -3   4    8.14    2.93
  -6   3  -4   19.55    5.05
   6  -3   4   19.45    4.74
  -7   3  -4  100.87   12.96
   7  -3   4  108.70   12.58
  -8   3  -4   28.50    7.07
   8  -3   4   25.12    6.51
   7   2  -4   -1.69    3.06
  -7  -2   4    8.30    5.08
   6   2  -4   17.87    4.66
  -6  -2   4   16.80    4.45
  -6  -2   4   22.07    6.44
   5   2  -4    4.83    2.90
  -5  -2   4   14.88    3.80
  -5  -2   4   14.31    4.27
   4   2  -4   85.33    7.88
  -4  -2   4   93.10    8.11
   3   2  -4   56.44    6.59
  -3  -2   4   50.88    6.49
  -3  -2   4   50.19    6.61
   2   2  -4    3.90    1.75
  -2  -2   4    5.54    2.22
  -2  -2   4    6.58    2.20
   1   2  -4   32.63    4.14
  -1  -2   4   36.00    4.27
  -1  -2   4   29.35    2.23
  -1  -2   4   35.05    4.54
   0   2  -4   23.90    3.13
   0   2  -4   18.02    2.93
   0  -2   4   19.66    3.16
   0  -2   4   20.68    2.45
  -1   2  -4  104.80    6.24
  -1   2  -4  103.38    7.14
   1  -2   4   68.63    6.31
   1  -2   4   99.38    6.67
  -2   2  -4  331.03   18.46
  -2   2  -4  327.07   19.72
   2  -2   4  332.77   18.88
   2  -2   4  296.72   19.36
   3  -2   4  124.14    9.29
  -4   2  -4    7.23    2.67
  -4   2  -4   10.21    2.48
   4  -2   4    8.40    2.81
   4  -2   4    9.76    2.21
  -5   2  -4    5.65    2.92
  -5   2  -4    7.13    2.62
   5  -2   4    9.17    3.00
  -6   2  -4    5.94    3.05
   6  -2   4    7.71    3.53
  -7   2  -4   30.96    6.91
   7  -2   4   38.04    6.84
  -8   2  -4    2.89    3.58
   8  -2   4    1.65    3.07
   7   1  -4    2.19    2.60
  -7  -1   4    6.91    4.27
   6   1  -4   13.73    3.74
  -6  -1   4   20.97    5.18
  -6  -1   4   16.90    4.00
   5   1  -4   -0.60    1.49
  -5  -1   4    3.20    2.54
  -5  -1   4    5.78    2.87
   4   1  -4    1.51    1.51
  -4  -1   4    0.79    1.29
  -4  -1   4   -0.02    1.51
   3   1  -4   40.78    4.77
  -3  -1   4   34.48    4.72
  -3  -1   4   43.17    3.25
   2   1  -4  484.63   27.84
  -2  -1   4  494.15   26.94
  -2  -1   4  483.80   28.48
  -2  -1   4  507.04   28.48
   1   1  -4   -0.58    0.82
   1   1  -4    3.45    1.24
  -1  -1   4    3.12    0.91
  -1  -1   4    4.73    1.66
   0   1  -4   54.05    4.39
   0   1  -4   57.03    4.47
   0  -1   4   52.81    4.20
   0  -1   4   64.54    4.65
  -1   1  -4  124.14    7.79
  -1   1  -4  107.74    8.05
   1  -1   4  125.22    7.63
  -2   1  -4  274.17   17.41
  -2   1  -4  283.00   16.82
   2  -1   4  288.55   16.05
  -3   1  -4    7.53    2.19
  -3   1  -4   11.34    2.80
   3  -1   4    9.53    2.72
  -4   1  -4   -0.52    1.31
  -4   1  -4   -0.57    0.99
   4  -1   4    2.27    1.80
  -5   1  -4    8.74    2.82
  -5   1  -4    5.19    2.42
   5  -1   4    2.28    2.09
  -6   1  -4    1.59    2.47
  -6   1  -4    2.84    2.45
   6  -1   4    3.39    2.63
  -7   1  -4   18.86    5.54
  -7   1  -4   12.47    4.71
   7  -1   4   17.77    4.65
  -8   0   4    2.70    3.91
   7   0  -4   37.64    6.30
  -7   0   4   33.28    6.73
  -7   0   4   41.55    8.03
   6   0  -4   11.96    3.57
  -6   0   4    7.69    3.80
  -6   0   4   11.68    3.76
   5   0  -4   62.35    7.11
  -5   0   4   74.19    8.48
  -5   0   4   69.38    8.73
   4   0  -4   61.14    5.35
  -4   0   4   75.06    7.72
  -4   0   4   63.74    7.21
   3   0  -4  275.24   16.45
  -3   0   4  282.21   17.51
  -3   0   4  290.10   16.51
   2   0  -4  106.78    6.35
   2   0  -4   83.09    6.99
  -2   0   4  103.66    6.55
   1   0  -4   15.77    1.88
  -1   0   4   15.24    2.14
   0   0  -4   93.88    6.16
   0   0  -4   93.64    6.53
   0   0   4   93.28    6.00
   0   0   4   92.11    6.37
  -1   0  -4   32.30    3.94
  -2   0  -4   96.05    7.37
  -2   0  -4   88.42    7.35
   2   0   4  105.91    7.46
  -3   0  -4   26.81    4.60
  -3   0  -4   37.01    5.18
   3   0   4   34.65    4.73
  -4   0  -4   82.02    8.72
   4   0   4   76.56    8.15
  -5   0  -4   10.61    3.46
  -5   0  -4   15.73    3.95
   5   0   4   18.47    4.06
  -6   0  -4    3.00    2.86
  -6   0  -4   -0.78    2.00
   6   0   4   -1.84    1.90
  -7   0  -4    3.02    3.49
  -7   0  -4   -1.69    2.59
   7  -1  -4   25.79    7.20
  -7   1   4   30.71    5.97
  -7   1   4   39.63    7.38
   6  -1  -4    0.95    2.13
  -6   1   4    4.08    2.48
  -6   1   4    4.07    2.16
  -6   1   4    6.71    3.06
   5  -1  -4    2.24    1.77
  -5   1   4    2.84    2.02
  -5   1   4    1.85    1.52
   4  -1  -4   -1.67    0.84
   4  -1  -4    0.84    1.16
  -4   1   4    1.78    1.22
  -4   1   4   -0.99    1.19
   3  -1  -4   24.40    2.50
   3  -1  -4   21.23    3.47
  -3   1   4   15.06    2.64
  -3   1   4   18.09    3.38
   2  -1  -4    4.44    1.44
  -2   1   4    3.26    1.49
  -2   1   4    1.18    1.04
   1  -1  -4   27.81    3.53
   1  -1  -4   24.69    1.86
  -1   1   4   26.00    3.18
   0  -1  -4    1.24    0.90
   0  -1  -4    1.06    0.99
   0   1   4    3.48    1.01
   0   1   4   -0.18    0.38
  -1  -1  -4    9.21    2.21
  -1  -1  -4    7.40    2.16
   1   1   4    9.41    2.06
  -2  -1  -4   13.13    2.79
  -2  -1  -4   13.02    2.96
   2   1   4   13.64    2.87
  -3  -1  -4   24.09    4.64
  -3  -1  -4   19.37    4.02
   3   1   4   17.82    3.65
  -4  -1  -4   10.73    3.30
  -4  -1  -4   12.11    3.53
   4   1   4   19.93    3.95
  -5  -1  -4   17.62    4.65
  -5  -1  -4    7.11    3.49
   5   1   4   13.25    3.81
  -6  -1  -4    8.30    4.02
   6   1   4    4.60    3.51
  -7  -1  -4   16.25    5.52
   7   1   4    9.64    5.28
   8  -2  -4    0.06    2.65
  -8   2   4   -1.58    2.23
   7  -2  -4    2.79    2.74
  -7   2   4    2.19    2.47
  -7   2   4    5.36    2.80
   6  -2  -4    3.22    2.19
  -6   2   4    9.16    2.96
  -6   2   4    7.13    2.81
   5  -2  -4    1.56    1.67
  -5   2   4    2.59    1.62
  -5   2   4    3.29    2.18
  -5   2   4    2.50    1.74
   4  -2  -4    3.54    1.75
  -4   2   4    0.93    1.34
  -4   2   4    3.51    1.77
  -4   2   4    3.65    1.34
   3  -2  -4    6.92    2.06
  -3   2   4   11.05    2.52
  -3   2   4    9.80    1.26
  -3   2   4   12.45    2.62
   2  -2  -4   52.24    4.74
  -2   2   4   66.35    5.08
  -2   2   4   52.00    4.71
   1  -2  -4  134.71    9.04
  -1   2   4  107.12    8.68
  -1   2   4  142.02    7.85
   0  -2  -4    6.37    2.06
   0  -2  -4    9.57    1.80
   0   2   4    3.71    1.61
   0   2   4    6.00    1.61
   1   2   4   66.91    5.61
   1   2   4   61.32    5.57
  -2  -2  -4   67.07    7.80
   2   2   4   84.04    6.64
   2   2   4   70.25    6.56
  -3  -2  -4   -0.74    1.34
   3   2   4    0.48    1.89
   3   2   4   -1.47    1.14
  -4  -2  -4    9.03    3.65
   4   2   4   15.68    3.41
   4   2   4   16.16    4.25
  -5  -2  -4    3.98    3.44
   5   2   4    2.69    3.11
  -6  -2  -4    2.58    3.26
   6   2   4   -0.83    2.89
  -8   3   4    2.14    3.05
  -8   3   4    3.21    3.04
   7  -3  -4    2.82    2.41
  -7   3   4   -0.02    2.20
  -7   3   4    1.41    2.12
   6  -3  -4    7.58    2.94
  -6   3   4    8.13    3.13
  -6   3   4    5.69    2.69
   5  -3  -4   11.56    2.81
  -5   3   4    4.90    2.38
  -5   3   4   13.32    3.65
   4  -3  -4    3.13    1.47
  -4   3   4    2.30    1.10
  -4   3   4   -0.02    0.74
  -4   3   4    2.80    1.70
   3  -3  -4   68.35    5.85
  -3   3   4   76.36    4.87
  -3   3   4   69.93    6.27
   2  -3  -4   20.00    3.31
   2  -3  -4   22.21    3.54
  -2   3   4   22.88    2.64
  -2   3   4   24.54    3.91
   1  -3  -4   60.15    5.13
   1  -3  -4   61.95    5.69
  -1   3   4   74.71    5.92
  -1   3   4   64.65    4.98
   0  -3  -4   -0.63    0.82
   0  -3  -4   -0.54    1.20
   0   3   4    0.34    1.10
   0   3   4   -1.20    1.12
  -1  -3  -4   75.19    8.32
  -1  -3  -4   68.92    5.06
   1   3   4   64.82    6.00
   1   3   4   69.90    6.07
   2   3   4   11.10    3.01
   2   3   4   19.23    4.10
  -3  -3  -4    2.01    2.05
   3   3   4    1.69    2.44
   3   3   4   -0.38    1.76
  -4  -3  -4    5.14    3.02
   4   3   4    1.11    2.50
  -5  -3  -4    3.25    3.67
   5   3   4   -1.82    2.42
   9  -4  -4    1.14    3.38
  -9   4   4    5.51    4.09
   8  -4  -4   16.35    4.55
  -8   4   4   20.50    5.22
   7  -4  -4   -0.31    2.11
  -7   4   4    2.49    2.75
   6  -4  -4   11.98    3.58
   6  -4  -4   10.03    2.60
  -6   4   4   16.23    4.08
   5  -4  -4    1.62    1.21
   5  -4  -4    0.14    1.05
  -5   4   4    1.54    2.00
   4  -4  -4   51.64    5.91
   4  -4  -4   61.92    7.31
  -4   4   4   56.49    7.02
   3  -4  -4  118.93    9.18
   3  -4  -4  132.70    9.00
  -3   4   4  119.31    9.43
  -3   4   4  119.17    7.99
   2  -4  -4    3.26    1.64
   2  -4  -4    5.59    2.02
  -2   4   4    4.57    2.02
  -2   4   4    0.56    0.99
   1  -4  -4    0.38    1.45
   1  -4  -4    3.19    1.70
  -1   4   4    3.80    1.61
  -1   4   4    5.73    2.14
   0  -4  -4    1.46    1.63
   0  -4  -4    0.67    1.22
   0   4   4    0.42    1.44
   0   4   4    1.84    1.61
  -1  -4  -4   17.49    4.23
   1   4   4   10.57    2.97
   1   4   4    8.51    2.84
  -2  -4  -4    3.66    2.53
   2   4   4    2.89    2.18
   2   4   4    3.16    1.96
  -3  -4  -4   29.72    6.39
   3   4   4   22.93    5.21
  -4  -4  -4   39.25    7.57
   4   4   4   22.54    5.72
   5   4   4    3.35    3.52
   9  -5  -4    0.79    2.92
  -9   5   4    6.11    4.28
   8  -5  -4   56.53    8.81
  -8   5   4   68.41   10.38
   7  -5  -4   21.37    5.07
  -7   5   4   22.70    5.47
   6  -5  -4   10.07    3.46
  -6   5   4    6.52    3.13
   5  -5  -4   -0.71    1.27
  -5   5   4    3.55    2.49
   4  -5  -4   69.50    8.01
   4  -5  -4   56.12    6.53
   3  -5  -4    4.16    2.39
   3  -5  -4    2.70    1.76
  -3   5   4    4.95    2.32
  -3   5   4    2.08    2.05
   2  -5  -4   52.14    6.76
   2  -5  -4   52.26    6.45
  -2   5   4   42.50    5.41
  -2   5   4   35.52    5.62
   1  -5  -4   83.42    8.66
   1  -5  -4   73.67    8.52
  -1   5   4   75.81    8.09
  -1   5   4   77.38    6.96
   0  -5  -4   11.15    2.83
   0  -5  -4    6.45    3.05
   0   5   4    5.25    2.51
   0   5   4    8.55    2.79
  -1  -5  -4   -0.37    2.14
   1   5   4    2.78    2.34
   1   5   4    1.02    2.00
  -2  -5  -4    2.30    2.79
   2   5   4    1.43    2.48
  -3  -5  -4   24.97    6.57
   3   5   4   15.41    4.39
  -4  -5  -4    7.32    4.41
   4   5   4    8.39    4.04
   8  -6  -4    1.64    2.88
  -8   6   4    0.58    3.13
   7  -6  -4   13.35    4.33
  -7   6   4   17.32    4.91
   6  -6  -4   14.94    4.18
  -6   6   4   28.78    6.14
   5  -6  -4   44.00    7.07
  -5   6   4   32.91    6.43
   4  -6  -4    0.89    2.15
  -4   6   4   -0.28    2.20
   3  -6  -4    4.48    2.49
   3  -6  -4    1.66    1.79
  -3   6   4    1.41    2.05
   2  -6  -4   45.30    6.75
   2  -6  -4   34.01    5.73
  -2   6   4   35.44    5.36
  -2   6   4   38.50    5.95
   1  -6  -4   73.72    9.06
   1  -6  -4   73.29    8.41
  -1   6   4   63.18    8.19
  -1   6   4   57.05    7.72
   0  -6  -4    1.43    2.39
   0   6   4    5.22    3.11
   0   6   4   -0.07    2.19
  -1  -6  -4    0.78    2.42
   1   6   4   -0.58    2.44
  -2  -6  -4    2.44    3.19
   2   6   4    2.36    3.27
  -3  -6  -4   -1.90    2.90
   3   6   4    2.31    3.56
   8  -7  -4    6.96    3.87
  -8   7   4    5.91    4.04
   7  -7  -4   18.34    5.31
  -7   7   4   27.14    6.24
   6  -7  -4   29.16    6.55
  -6   7   4   25.01    5.97
   5  -7  -4    8.17    3.67
  -5   7   4   10.33    4.28
   4  -7  -4    4.57    2.78
  -4   7   4    3.13    2.93
   3  -7  -4    1.16    2.53
  -3   7   4    3.31    2.65
   2  -7  -4   11.61    4.13
   2  -7  -4    5.13    3.09
  -2   7   4    8.86    3.53
   1  -7  -4    5.73    2.89
  -1   7   4    3.02    3.11
  -1   7   4    4.59    3.14
   0  -7  -4   16.68    4.96
   0   7   4   14.26    4.64
  -1  -7  -4    7.29    4.32
   1   7   4    3.68    3.73
   7  -8  -4    0.18    2.80
  -7   8   4    2.91    3.53
   6  -8  -4   -1.23    2.16
  -6   8   4    2.75    3.41
   5  -8  -4   -0.91    2.51
  -5   8   4    2.80    3.12
   4  -8  -4    9.96    4.40
  -4   8   4    5.48    3.73
   3  -8  -4    1.95    3.29
  -3   8   4    3.40    3.28
   2  -8  -4    1.26    2.95
  -2   8   4    0.82    2.86
   0  -8  -4    1.77    3.23
   0   8   4    0.83    4.19
   6  -9  -4   18.10    6.14
   5  -9  -4   -1.89    2.94
  -5   9   4    4.37    4.38
   4  -9  -4    9.18    5.03
  -4   9   4    4.05    3.93
   3  -9  -4    4.99    3.85
  -1   9  -5   -1.38    3.70
   1  -9   5    1.56    3.11
  -2   9  -5   -2.97    2.86
   2  -9   5    2.79    3.17
  -3   9  -5    9.78    4.81
   3  -9   5    5.11    3.75
  -4   9  -5   -1.31    3.03
   4  -9   5    2.44    3.09
  -5   9  -5    0.48    3.22
   5  -9   5    2.02    3.09
   1   8  -5    1.90    3.94
  -1  -8   5    1.08    3.44
   0   8  -5   -4.79    2.55
   0  -8   5    2.69    2.96
  -1   8  -5    1.02    3.24
   1  -8   5    1.08    2.70
  -2   8  -5    3.11    3.67
   2  -8   5   -0.40    2.00
  -3   8  -5   -0.02    2.77
   3  -8   5   -1.31    1.76
  -4   8  -5   20.10    6.19
  -4   8  -5   29.40    5.97
   4  -8   5   23.94    5.86
  -5   8  -5   24.70    6.04
  -5   8  -5   35.25    6.86
   5  -8   5   28.69    6.89
  -6   8  -5   -0.13    3.27
   6  -8   5    0.81    3.00
  -7   8  -5    2.82    3.62
   7  -8   5    6.58    4.26
   7  -8   5    0.24    3.32
   2   7  -5    3.70    4.09
  -2  -7   5    2.03    3.16
  -2  -7   5    0.66    2.90
   1   7  -5    9.90    4.23
  -1  -7   5   11.29    4.13
   0   7  -5   12.61    4.29
   0  -7   5   13.08    4.26
  -1   7  -5    0.77    2.45
   1  -7   5    4.81    3.01
  -2   7  -5    2.79    2.66
   2  -7   5    2.93    2.50
  -3   7  -5   19.53    4.46
  -3   7  -5   17.37    4.76
   3  -7   5   13.45    4.20
  -4   7  -5   38.64    7.22
  -4   7  -5   45.07    7.13
   4  -7   5   38.68    7.00
  -5   7  -5   42.55    8.21
  -5   7  -5   37.83    7.22
   5  -7   5   40.45    7.45
  -6   7  -5    2.34    3.47
   6  -7   5    6.33    3.38
  -7   7  -5    5.46    4.48
   7  -7   5    1.79    5.41
   7  -7   5   10.40    4.28
   4   6  -5   -1.80    3.53
  -4  -6   5    5.40    4.13
   3   6  -5   -1.84    2.75
  -3  -6   5    2.21    3.09
  -3  -6   5   -1.56    2.88
   2   6  -5   33.08    6.97
  -2  -6   5   18.79    4.88
  -2  -6   5   22.60    5.23
   1   6  -5   50.38    7.96
  -1  -6   5   56.10    7.44
  -1  -6   5   49.83    7.52
   0   6  -5   71.41    9.20
   0  -6   5   56.75    8.24
  -1   6  -5   16.76    4.36
   1  -6   5   11.64    3.50
  -2   6  -5    4.22    2.63
  -2   6  -5   12.82    3.35
   2  -6   5    3.60    2.47
  -3   6  -5    2.60    2.17
  -3   6  -5   -0.49    2.04
   3  -6   5   -1.20    1.54
  -4   6  -5   17.39    4.58
  -4   6  -5   16.02    4.15
   4  -6   5   14.44    4.10
  -5   6  -5   27.02    6.10
   5  -6   5   48.63    7.32
  -6   6  -5   54.37    9.29
   6  -6   5   67.17    9.13
   6  -6   5   50.47    8.10
  -7   6  -5   30.00    7.26
   7  -6   5   43.72    7.60
  -8   6  -5    4.84    4.03
   8  -6   5    4.29    3.63
   5   5  -5   18.58    5.93
  -5  -5   5   42.77    8.84
   4   5  -5    8.82    4.44
  -4  -5   5    3.75    3.08
  -4  -5   5    7.58    3.79
   3   5  -5   -0.95    2.59
  -3  -5   5   -0.71    1.93
  -3  -5   5   -0.01    2.42
   2   5  -5    6.16    3.31
  -2  -5   5    4.54    2.61
  -2  -5   5    3.25    2.82
   1   5  -5   52.98    7.53
  -1  -5   5   38.60    6.02
  -1  -5   5   41.75    6.44
   0   5  -5    4.30    2.52
   0  -5   5    4.27    2.06
   0  -5   5    0.56    1.58
  -1   5  -5   24.63    3.58
   1  -5   5   27.95    3.86
   2  -5   5   36.39    5.66
  -3   5  -5    1.48    1.89
   3  -5   5   10.72    3.07
  -4   5  -5   70.09    9.21
   4  -5   5   76.69    8.82
   4  -5   5   82.90    9.26
  -5   5  -5   51.76    8.39
   5  -5   5   76.85    8.65
   5  -5   5   86.34    9.52
  -6   5  -5   81.62   10.98
   6  -5   5   66.37    8.86
  -7   5  -5    3.59    3.51
   7  -5   5   -0.83    2.16
  -8   5  -5    7.25    4.54
   8  -5   5    8.33    4.44
   5   4  -5    2.03    3.35
  -5  -4   5    3.75    3.42
  -5  -4   5    2.68    3.21
   4   4  -5   -3.01    2.24
  -4  -4   5   -2.38    1.88
  -4  -4   5    1.34    2.29
   3   4  -5    0.53    2.65
  -3  -4   5   -0.93    1.56
  -3  -4   5    2.45    2.45
   2   4  -5   11.72    3.59
  -2  -4   5   20.17    4.36
  -2  -4   5   12.80    3.40
   1   4  -5   22.97    4.54
  -1  -4   5   21.35    4.24
  -1  -4   5   20.32    3.91
   0   4  -5   91.72    8.04
   0  -4   5   94.66    6.50
  -1   4  -5  152.61   10.61
  -1   4  -5  106.46    8.84
   1  -4   5  158.61    9.57
   1  -4   5  154.96   10.48
  -2   4  -5   83.56    5.44
  -2   4  -5   57.68    7.84
   2  -4   5   82.28    7.00
   2  -4   5   85.28    6.71
  -3   4  -5   -0.28    0.91
   3  -4   5    1.68    1.56
   3  -4   5   -0.27    1.24
  -4   4  -5    2.81    2.22
   4  -4   5    3.94    2.14
   4  -4   5   12.70    3.53
  -5   4  -5    5.99    2.87
   5  -4   5    5.45    2.27
   5  -4   5    3.21    2.40
  -6   4  -5    0.67    2.17
   6  -4   5    4.78    2.28
  -7   4  -5   17.92    5.79
   7  -4   5   12.46    4.35
  -8   4  -5   -0.60    2.95
   8  -4   5    2.29    3.66
   6   3  -5    3.41    3.57
  -6  -3   5   -0.66    2.41
   5   3  -5   13.97    4.17
  -5  -3   5    9.48    3.75
  -5  -3   5   16.53    5.03
   4   3  -5   36.25    5.74
  -4  -3   5   28.77    6.06
  -4  -3   5   36.00    6.17
   3   3  -5    7.95    3.03
  -3  -3   5    6.75    3.01
  -3  -3   5    6.51    3.03
   2   3  -5   11.18    3.02
  -2  -3   5    6.75    2.60
  -2  -3   5    5.94    2.48
   1   3  -5    2.55    1.96
  -1  -3   5    4.77    1.97
  -1  -3   5    1.54    1.35
  -1  -3   5    1.92    0.69
   0   3  -5    0.60    1.20
   0   3  -5    2.08    1.69
   0  -3   5    0.85    1.27
   0  -3   5    0.96    0.84
  -1   3  -5   57.40    6.51
  -1   3  -5   46.35    4.14
   1  -3   5   57.35    4.87
   1  -3   5   63.10    6.37
  -2   3  -5    0.89    1.52
  -2   3  -5    0.43    0.75
   2  -3   5    0.70    0.99
   2  -3   5    1.67    1.45
  -3   3  -5    0.86    1.05
  -3   3  -5   -0.71    0.75
   3  -3   5   -0.60    1.28
   3  -3   5    1.74    1.21
  -5   3  -5    7.19    3.05
   5  -3   5    6.81    2.82
  -6   3  -5   21.73    5.68
   6  -3   5   29.84    6.24
  -7   3  -5   15.83    5.41
   7  -3   5    7.67    3.97
  -8   3  -5    2.15    3.42
   8  -3   5    2.13    3.17
   7   2  -5    2.99    3.63
  -7  -2   5    4.87    3.98
   6   2  -5    5.50    3.51
  -6  -2   5   -1.60    2.38
  -6  -2   5   -0.21    2.63
   5   2  -5    1.72    2.28
  -5  -2   5   -1.15    1.99
  -5  -2   5    0.63    2.38
   4   2  -5   27.77    4.81
  -4  -2   5   28.12    4.93
  -4  -2   5   27.10    5.63
   3   2  -5   -0.38    1.35
  -3  -2   5    1.12    1.53
  -3  -2   5   -0.41    1.48
   2   2  -5    4.30    1.84
  -2  -2   5    2.74    1.72
  -2  -2   5    6.43    2.31
   1   2  -5  183.05   12.35
   1   2  -5  189.74   12.41
  -1  -2   5  206.54   12.94
  -1  -2   5  190.44   11.15
   0   2  -5    0.71    0.93
   0   2  -5   -0.46    0.87
   0  -2   5   -0.35    0.77
   0  -2   5   -0.68    0.98
  -1   2  -5   20.07    2.88
  -1   2  -5   20.19    3.59
   1  -2   5   21.08    3.35
   1  -2   5   16.00    2.86
  -2   2  -5    8.34    1.79
  -2   2  -5   10.65    2.76
   2  -2   5   10.63    2.65
   2  -2   5    6.34    1.85
  -3   2  -5   25.65    4.75
  -3   2  -5   22.40    3.47
   3  -2   5   24.87    4.39
   3  -2   5   24.70    3.37
  -4   2  -5   29.39    4.11
  -4   2  -5    0.34    0.98
   4  -2   5    6.36    2.40
  -5   2  -5   18.43    4.61
  -5   2  -5   34.69    5.12
   5  -2   5   25.85    5.11
  -6   2  -5    4.80    3.30
   6  -2   5    8.05    3.44
  -7   2  -5   12.02    4.83
   7  -2   5   12.36    4.34
  -8   2  -5    2.80    3.75
   7   1  -5    7.13    3.71
  -7  -1   5    2.95    3.34
  -7  -1   5    2.73    3.75
   6   1  -5    6.70    3.11
  -6  -1   5   16.89    4.60
  -6  -1   5   14.13    4.61
   5   1  -5    5.13    2.38
  -5  -1   5    5.36    3.12
  -5  -1   5    6.19    2.75
   4   1  -5   -0.15    1.46
  -4  -1   5   -1.57    1.06
  -4  -1   5   -0.99    1.12
   3   1  -5   17.78    3.10
  -3  -1   5   16.69    3.46
  -3  -1   5   25.72    2.70
   2   1  -5    2.24    1.38
   2   1  -5    1.50    1.31
  -2  -1   5    0.06    0.66
  -2  -1   5    2.32    0.96
   1   1  -5   35.54    4.40
   1   1  -5   34.01    3.59
  -1  -1   5   25.37    3.04
  -1  -1   5   31.28    4.06
   0   1  -5   58.07    4.98
   0  -1   5   67.10    5.00
   0  -1   5   69.11    5.20
  -1   1  -5   38.17    4.61
   1  -1   5   30.86    3.49
   1  -1   5   26.12    3.62
  -2   1  -5    3.47    1.74
  -2   1  -5    4.28    1.67
   2  -1   5    3.84    1.57
   2  -1   5    3.00    1.11
  -3   1  -5    4.96    2.09
  -3   1  -5    3.59    1.69
   3  -1   5    6.27    2.56
  -4   1  -5   18.85    3.84
   4  -1   5   12.67    3.28
  -5   1  -5   47.56    7.67
  -5   1  -5   53.74    7.20
   5  -1   5   59.86    7.47
  -6   1  -5   20.19    5.01
  -6   1  -5   24.00    5.65
   6  -1   5   21.08    4.87
  -7   1  -5    5.61    3.71
   7  -1   5    8.50    3.68
  -7   0   5    5.67    3.79
  -7   0   5   -0.99    2.62
   6   0  -5   25.72    4.64
  -6   0   5   31.07    6.12
  -6   0   5   15.78    4.62
   5   0  -5    3.99    1.92
  -5   0   5   -0.02    1.59
   4   0  -5   47.64    4.46
   4   0  -5   59.24    6.88
  -4   0   5   51.13    5.17
  -4   0   5   46.74    6.18
   3   0  -5    2.19    1.74
   3   0  -5    1.21    1.04
  -3   0   5    3.92    1.77
  -3   0   5    1.82    1.09
   2   0  -5   25.53    2.82
  -2   0   5   23.15    2.98
  -2   0   5   28.91    3.95
   1   0  -5    6.17    1.36
   1   0  -5    5.37    1.59
  -1   0   5    3.70    1.27
  -1   0   5    6.18    1.69
   0   0  -5  121.26    8.88
   0   0  -5  135.09    8.56
   0   0   5  133.73    8.88
   0   0   5  139.66    8.42
  -1   0  -5   97.77    7.15
  -1   0  -5   97.56    7.01
   1   0   5   88.01    7.02
   1   0   5   94.66    5.86
  -2   0  -5  161.48   11.69
  -2   0  -5  174.88   12.03
   2   0   5  185.93   12.06
  -3   0  -5    5.85    2.01
  -3   0  -5    8.32    3.04
   3   0   5    2.20    1.64
  -4   0  -5   26.76    4.84
  -4   0  -5   41.56    6.52
   4   0   5   31.22    5.32
  -5   0  -5   -0.93    1.83
  -5   0  -5    2.27    2.10
   5   0   5   -2.32    1.81
  -6   0  -5    7.06    3.78
  -6   0  -5    2.91    3.07
   6   0   5    3.27    2.94
  -7   0  -5   22.57    5.70
  -7   0  -5   31.19    6.91
   8  -1  -5    0.02    3.00
  -8   1   5    2.49    3.22
   7  -1  -5   16.28    4.84
  -7   1   5   15.32    5.00
   6  -1  -5    1.80    2.30
  -6   1   5    5.06    2.92
   5  -1  -5   86.99    6.42
   5  -1  -5   81.79    9.13
  -5   1   5   71.44    6.56
  -5   1   5   71.52    8.83
   4  -1  -5  140.11   10.10
   4  -1  -5  126.42    8.28
  -4   1   5  124.04    9.06
  -4   1   5  130.63   10.09
   3  -1  -5  103.49    6.06
   3  -1  -5   93.19    7.59
  -3   1   5  111.18    7.43
  -3   1   5   81.24    7.46
   2  -1  -5   -0.27    0.90
  -2   1   5    1.64    1.17
  -2   1   5    1.48    1.23
   1  -1  -5   21.62    3.53
   1  -1  -5   23.34    2.03
  -1   1   5   26.01    3.26
  -1   1   5   20.35    2.99
   0  -1  -5   33.24    3.57
   0  -1  -5   29.64    4.05
   0   1   5   30.13    3.20
  -1  -1  -5    8.73    2.20
  -1  -1  -5   10.86    2.60
   1   1   5   11.63    2.69
  -2  -1  -5   83.34    7.10
  -2  -1  -5   84.86    7.36
   2   1   5   82.00    7.02
  -3  -1  -5   37.91    5.76
  -3  -1  -5   41.82    6.10
   3   1   5   40.61    5.68
  -4  -1  -5   34.31    5.79
  -4  -1  -5   31.84    6.13
   4   1   5   49.22    6.78
  -5  -1  -5    1.45    1.97
  -5  -1  -5    2.18    2.58
   5   1   5    3.55    2.50
  -6  -1  -5   20.09    5.78
   8  -2  -5   48.97    8.45
  -8   2   5   46.65    7.94
   7  -2  -5    1.97    2.44
  -7   2   5    0.66    2.41
  -7   2   5    2.30    2.76
   6  -2  -5    7.14    2.86
  -6   2   5    6.87    2.78
  -6   2   5    5.91    2.61
   5  -2  -5   17.11    4.10
  -5   2   5   10.50    3.16
  -5   2   5   15.74    3.33
   4  -2  -5   65.45    6.72
   4  -2  -5   53.79    4.09
  -4   2   5   44.16    5.93
  -4   2   5   54.94    6.37
   3  -2  -5   49.13    5.42
  -3   2   5   32.71    4.61
  -3   2   5   32.07    4.45
   2  -2  -5    8.43    2.22
  -2   2   5   11.38    2.54
  -2   2   5   11.13    2.58
   1  -2  -5  163.84   11.29
  -1   2   5  171.17    9.93
  -1   2   5  165.38   10.76
   0  -2  -5    8.95    1.70
   0  -2  -5    2.42    1.51
   0   2   5   -0.27    0.86
   0   2   5    3.72    1.72
  -1  -2  -5   68.35    7.38
  -2  -2  -5    7.66    2.65
   2   2   5    7.23    2.49
  -3  -2  -5   62.78    8.53
   3   2   5   58.14    7.61
   3   2   5   57.13    7.36
  -4  -2  -5   15.12    4.57
   4   2   5   13.79    4.03
   4   2   5   14.42    3.71
  -5  -2  -5    0.29    2.74
   5   2   5   -1.42    2.76
  -6  -2  -5    0.53    3.41
   6   2   5    0.65    3.54
  -8   3   5   -3.54    2.50
  -8   3   5    4.38    3.54
   7  -3  -5    2.06    2.49
  -7   3   5    0.55    2.12
  -7   3   5    4.93    3.00
   6  -3  -5    4.34    2.39
  -6   3   5    5.24    2.78
  -6   3   5    9.03    3.35
   5  -3  -5    4.85    2.06
  -5   3   5    3.23    1.91
  -5   3   5   -1.26    1.06
   4  -3  -5   52.25    6.11
  -4   3   5   52.61    6.43
  -4   3   5   51.46    6.63
   3  -3  -5  113.28    8.61
  -3   3   5  112.37    8.86
  -3   3   5  119.90    9.00
   2  -3  -5   49.24    6.09
   2  -3  -5   66.55    6.65
  -2   3   5   58.58    4.14
   1  -3  -5  161.20   10.83
   1  -3  -5  164.15   11.74
  -1   3   5  172.46   11.79
  -1   3   5  170.51   10.49
   0  -3  -5   -1.60    0.96
   0  -3  -5    1.28    1.13
   0   3   5   -1.72    0.92
   0   3   5   -1.00    1.27
  -1  -3  -5   11.73    3.32
   1   3   5   15.02    3.35
   1   3   5   14.63    3.17
   2   3   5   13.64    3.59
   2   3   5   15.79    3.64
  -3  -3  -5   10.81    3.78
   3   3   5    9.64    3.63
   3   3   5    8.01    3.17
  -4  -3  -5    2.13    2.65
   4   3   5    4.86    3.44
  -5  -3  -5    8.39    4.17
   5   3   5    1.85    3.58
   9  -4  -5    4.02    3.31
  -9   4   5    9.20    5.72
   8  -4  -5   12.30    4.24
  -8   4   5   20.48    5.50
  -7   4   5   19.50    5.03
   6  -4  -5   44.28    6.17
  -6   4   5   49.38    7.39
   5  -4  -5    0.52    1.29
   5  -4  -5    1.53    1.72
  -5   4   5    0.49    1.77
   4  -4  -5   37.72    5.79
   4  -4  -5   41.20    5.43
  -4   4   5   46.12    6.51
   3  -4  -5    5.11    2.13
   3  -4  -5    3.16    1.80
  -3   4   5    0.16    0.93
   2  -4  -5   13.12    3.17
   2  -4  -5   16.98    3.46
  -2   4   5   13.45    3.21
  -2   4   5   12.01    2.40
   1  -4  -5   10.83    2.94
   1  -4  -5    6.71    2.52
  -1   4   5    8.61    2.78
  -1   4   5    5.31    2.01
   0  -4  -5    4.28    1.98
   0  -4  -5    3.26    2.44
   0   4   5    3.02    1.71
   0   4   5    4.43    2.39
  -1  -4  -5    0.78    1.78
   1   4   5    2.59    1.91
   1   4   5    2.28    1.84
  -2  -4  -5    8.29    3.36
   2   4   5    9.24    3.36
   2   4   5    7.64    2.87
  -3  -4  -5   12.74    4.28
   3   4   5   11.11    4.11
  -4  -4  -5    4.37    3.27
   4   4   5    3.47    3.52
   9  -5  -5   32.08    7.33
  -9   5   5   22.42    6.63
   8  -5  -5    7.39    3.64
  -8   5   5    4.53    3.27
   7  -5  -5    7.07    3.43
  -7   5   5    4.79    3.19
   6  -5  -5    8.70    3.31
  -6   5   5    2.90    2.86
   5  -5  -5   -0.85    1.13
   5  -5  -5    2.72    2.04
  -5   5   5   -1.23    1.64
   4  -5  -5    6.56    2.86
   4  -5  -5    2.66    1.74
  -4   5   5    6.20    2.50
   3  -5  -5   29.29    4.89
   3  -5  -5   26.84    4.89
  -3   5   5   25.47    5.15
   2  -5  -5   22.13    4.35
   2  -5  -5   24.16    4.53
  -2   5   5   15.60    3.76
   1  -5  -5    5.75    2.71
   1  -5  -5    1.46    1.88
  -1   5   5    4.53    2.68
  -1   5   5    1.10    1.76
   0  -5  -5   13.28    3.94
   0   5   5   14.68    3.63
   0   5   5   13.22    3.24
  -1  -5  -5    7.65    3.59
   1   5   5    2.85    2.73
   1   5   5   -0.16    2.07
  -2  -5  -5    2.06    2.96
   2   5   5    1.90    2.57
  -3  -5  -5    4.65    3.78
   3   5   5    1.53    2.63
   8  -6  -5   10.16    3.96
  -8   6   5    2.75    3.98
   7  -6  -5    4.26    2.97
  -7   6   5    5.93    3.90
   6  -6  -5   -1.70    1.47
  -6   6   5    0.39    2.41
   5  -6  -5    1.80    2.21
  -5   6   5    2.26    2.67
   4  -6  -5    4.80    2.76
  -4   6   5    6.14    3.04
   3  -6  -5    2.09    2.51
   3  -6  -5    0.46    1.92
  -3   6   5    0.42    2.20
   2  -6  -5    0.55    2.04
   2  -6  -5   -0.58    1.76
  -2   6   5    0.32    2.04
   1  -6  -5    3.99    2.52
  -1   6   5   11.46    3.74
  -1   6   5    7.86    3.09
   0  -6  -5   -0.25    2.64
   0   6   5    1.88    2.39
   0   6   5   -0.80    2.17
  -1  -6  -5   32.70    6.93
   1   6   5   24.15    5.49
  -2  -6  -5   13.42    5.29
   2   6   5   10.89    4.53
   8  -7  -5   -0.43    2.80
  -8   7   5   -1.12    3.43
   7  -7  -5    1.26    2.56
  -7   7   5    2.50    2.99
   6  -7  -5    7.64    3.98
  -6   7   5    3.27    3.15
   5  -7  -5   -2.47    1.76
  -5   7   5    7.70    3.86
   4  -7  -5    9.72    4.02
  -4   7   5    1.94    3.05
   3  -7  -5   39.27    6.89
  -3   7   5   16.25    4.52
   2  -7  -5   21.38    4.91
   2  -7  -5   28.00    6.04
  -2   7   5   22.20    5.10
   1  -7  -5    5.03    3.24
  -1   7   5    8.66    3.68
   0  -7  -5    1.73    2.81
  -1  -7  -5    0.10    3.06
   1   7   5    2.09    3.53
   7  -8  -5   13.73    5.10
  -7   8   5    6.08    4.47
   6  -8  -5   10.95    5.01
  -6   8   5    6.18    4.32
   5  -8  -5    2.05    3.23
  -5   8   5   -1.93    2.80
   4  -8  -5    0.87    3.34
  -4   8   5   -0.55    2.60
   3  -8  -5   16.98    5.37
  -3   8   5   14.44    4.70
  -2   8   5    0.90    3.16
   4  -9  -5   -2.73    3.00
  -2   9  -6   15.63    5.43
   2  -9   6   23.75    6.21
  -3   9  -6    6.23    4.15
   3  -9   6    3.96    3.35
  -4   9  -6   -1.63    3.35
   4  -9   6    0.36    2.95
  -5   9  -6    0.44    2.91
   5  -9   6   -0.19    2.67
   1   8  -6    1.77    3.86
  -1  -8   6   -1.00    3.46
   0   8  -6    3.15    3.29
   0  -8   6    1.36    2.99
  -1   8  -6    0.29    2.86
   1  -8   6    0.51    2.46
  -2   8  -6   -1.58    2.53
   2  -8   6    1.49    2.58
  -3   8  -6    5.93    3.69
   3  -8   6    5.51    3.34
  -4   8  -6   28.92    6.73
   4  -8   6   23.40    6.06
  -5   8  -6    3.82    3.42
   5  -8   6    3.67    3.02
   5  -8   6    2.52    2.87
  -6   8  -6   12.09    4.69
   6  -8   6   27.98    7.02
   6  -8   6   15.77    4.97
   2   7  -6    0.66    3.73
  -2  -7   6    1.05    2.95
   1   7  -6    2.38    3.68
  -1  -7   6    2.29    2.95
   0   7  -6    2.00    2.97
   0  -7   6    2.43    3.01
  -1   7  -6   -3.04    1.75
   1  -7   6    5.33    2.77
  -2   7  -6    0.34    2.11
   2  -7   6    2.45    2.44
  -3   7  -6   -0.09    2.45
   3  -7   6   -0.18    2.21
  -4   7  -6   11.16    4.20
   4  -7   6    7.42    3.32
   4  -7   6    9.49    3.47
  -5   7  -6    2.68    3.16
   5  -7   6    2.23    2.53
   5  -7   6    8.68    4.10
  -6   7  -6   10.19    4.87
   6  -7   6   10.35    4.25
   6  -7   6    5.26    3.24
  -7   7  -6    0.62    3.29
   7  -7   6    2.00    3.50
   4   6  -6    0.50    4.13
   3   6  -6    1.06    3.91
  -3  -6   6    4.49    3.40
  -3  -6   6   -1.03    2.78
   2   6  -6   -1.87    2.76
  -2  -6   6    0.65    2.46
  -2  -6   6    3.25    3.42
   1   6  -6    1.08    2.84
  -1  -6   6   -0.83    2.14
  -1  -6   6    1.21    2.32
   0   6  -6    3.47    3.31
   0  -6   6    4.11    2.58
  -1   6  -6   25.46    5.32
   1  -6   6   20.10    4.73
  -2   6  -6    5.16    2.83
   2  -6   6   13.27    3.29
   2  -6   6    7.95    3.05
  -3   6  -6    0.32    2.26
   3  -6   6    1.96    1.99
   3  -6   6    1.83    2.11
  -4   6  -6    7.73    3.56
   4  -6   6   10.32    3.57
   4  -6   6   12.98    3.77
  -5   6  -6   10.22    4.05
   5  -6   6   19.10    4.57
   5  -6   6    8.32    3.27
  -6   6  -6   -0.76    2.50
   6  -6   6    2.74    2.85
  -7   6  -6   -2.02    2.74
   7  -6   6   -4.93    2.37
   5   5  -6   -0.38    3.67
  -5  -5   6   -2.21    2.87
  -5  -5   6   -2.35    2.62
   4   5  -6    4.53    3.74
  -4  -5   6    3.70    3.09
  -4  -5   6    1.93    3.20
   3   5  -6   14.99    5.06
  -3  -5   6   13.91    4.62
  -3  -5   6    5.13    3.40
   2   5  -6    1.63    2.62
  -2  -5   6    0.87    2.05
  -2  -5   6    0.84    2.19
   1   5  -6   14.65    4.17
  -1  -5   6    8.76    3.16
  -1  -5   6   17.13    4.03
   0   5  -6   10.81    2.94
   0   5  -6   16.84    4.27
  -1   5  -6    3.75    2.31
   1  -5   6    1.62    1.99
   1  -5   6    4.22    1.86
  -2   5  -6   -0.15    1.50
   2  -5   6    3.29    2.03
   2  -5   6    6.19    2.35
  -3   5  -6    0.89    1.80
   3  -5   6    0.47    1.55
   3  -5   6    0.27    1.39
  -4   5  -6    5.99    3.19
   4  -5   6    6.81    2.78
   4  -5   6    5.24    2.98
  -5   5  -6   43.43    7.87
   5  -5   6   40.61    6.52
   5  -5   6   40.09    6.87
  -6   5  -6   15.86    5.31
   6  -5   6    9.45    4.02
  -7   5  -6    2.43    3.24
   7  -5   6    0.25    2.49
  -8   5  -6    8.68    4.85
   8  -5   6    0.69    3.58
   5   4  -6    8.76    4.32
  -5  -4   6    8.51    4.30
  -5  -4   6    4.44    4.02
   4   4  -6    3.48    3.48
  -4  -4   6    8.72    4.04
  -4  -4   6    0.96    2.63
   3   4  -6   10.07    3.84
  -3  -4   6    9.20    3.42
  -3  -4   6   12.07    3.79
   2   4  -6    2.52    2.75
  -2  -4   6    0.92    1.92
  -2  -4   6    2.58    2.08
   1   4  -6   85.46    9.28
   0   4  -6   27.09    4.68
   0   4  -6   21.86    3.78
   0  -4   6   23.03    3.00
   0  -4   6   16.55    3.94
  -1   4  -6   63.32    7.75
  -1   4  -6   60.69    5.03
   1  -4   6   60.81    5.42
   1  -4   6   57.58    7.04
  -2   4  -6    2.77    2.04
   2  -4   6    1.14    1.47
   2  -4   6    0.86    1.56
  -3   4  -6   -0.66    1.08
   3  -4   6    3.22    1.75
   3  -4   6    1.00    1.71
   4  -4   6  274.34   18.11
   4  -4   6  291.29   19.29
  -5   4  -6   26.48    5.89
   5  -4   6   24.31    5.09
  -6   4  -6   28.47    6.47
   6  -4   6   37.49    6.62
  -7   4  -6   -1.05    2.48
   7  -4   6    3.76    3.51
  -8   4  -6   15.50    5.95
   8  -4   6   12.29    4.91
   6   3  -6   16.41    4.89
  -6  -3   6   24.54    6.50
  -6  -3   6    9.45    4.29
   5   3  -6   -1.27    2.30
  -5  -3   6   -1.23    2.36
  -5  -3   6   -0.78    2.19
   4   3  -6   16.41    4.34
  -4  -3   6   18.33    4.40
  -4  -3   6   18.36    5.39
   3   3  -6    2.11    2.55
  -3  -3   6    0.81    1.81
  -3  -3   6    2.39    2.25
   2   3  -6    4.72    2.58
  -2  -3   6    6.73    2.81
   1   3  -6  134.04    9.62
   1   3  -6  121.63    9.14
  -1  -3   6  130.99    8.37
  -1  -3   6  101.85    9.26
   0   3  -6  138.99    9.72
   0   3  -6  141.73   10.09
   0  -3   6  137.05   10.37
  -1   3  -6  139.61   10.51
   1  -3   6  146.41   10.52
   1  -3   6  146.54    9.90
  -2   3  -6   -0.09    1.28
  -2   3  -6   -0.31    0.88
   2  -3   6    2.15    1.74
   2  -3   6   -0.79    0.94
  -3   3  -6   64.44    8.05
   3  -3   6   61.48    5.57
   3  -3   6   62.71    7.66
   4  -3   6   15.14    3.14
   4  -3   6   16.92    4.14
  -5   3  -6    1.95    2.31
   5  -3   6    3.60    2.28
  -6   3  -6   -1.49    1.98
   6  -3   6   -0.79    2.05
  -7   3  -6   15.21    5.28
   7  -3   6   21.66    5.60
  -7  -2   6   -0.60    3.20
  -7  -2   6    0.90    3.39
   6   2  -6   10.64    3.76
  -6  -2   6    6.54    3.62
  -6  -2   6   20.43    6.02
   5   2  -6   49.15    6.70
  -5  -2   6   26.73    5.60
  -5  -2   6   44.00    7.39
   4   2  -6  122.56    9.59
  -4  -2   6  117.91   10.34
  -4  -2   6  110.06    9.95
   3   2  -6    0.99    1.58
  -3  -2   6    2.95    1.82
   2   2  -6   83.86    6.98
   2   2  -6   85.80    7.30
  -2  -2   6   86.47    5.47
  -2  -2   6   80.25    8.92
   1   2  -6   38.86    4.83
   1   2  -6   39.92    5.29
  -1  -2   6   36.83    3.81
  -1  -2   6   45.83    5.78
   0   2  -6    6.04    1.95
   0   2  -6    6.67    2.25
   0  -2   6    2.82    1.53
  -1   2  -6    1.88    1.59
  -1   2  -6    0.03    1.09
   1  -2   6    1.45    1.31
   1  -2   6    1.00    1.15
  -2   2  -6   -0.12    0.87
  -2   2  -6    0.18    1.40
   2  -2   6    0.51    1.04
   2  -2   6    0.88    1.35
  -3   2  -6   24.58    3.64
  -3   2  -6   21.53    4.43
   3  -2   6   24.15    3.31
   3  -2   6   27.68    4.58
  -4   2  -6    1.68    1.84
  -4   2  -6    0.64    1.57
   4  -2   6    0.95    1.34
  -5   2  -6   22.63    4.95
  -5   2  -6   20.84    5.07
   5  -2   6   22.12    4.57
  -6   2  -6   38.86    7.32
   6  -2   6   52.55    7.91
  -7   2  -6   39.74    7.84
   7  -2   6   35.84    6.76
  -7  -1   6    5.37    3.50
  -7  -1   6    5.55    4.00
   6   1  -6   35.79    5.97
  -6  -1   6   42.40    7.81
  -6  -1   6   35.93    6.61
   5   1  -6   53.73    6.79
  -5  -1   6   59.13    8.12
   4   1  -6   10.53    2.65
  -4  -1   6   11.07    3.25
   3   1  -6   17.77    3.51
   3   1  -6   20.21    3.40
  -3  -1   6   22.58    4.14
  -3  -1   6   22.57    2.75
   2   1  -6   29.89    3.95
   2   1  -6   36.62    4.94
  -2  -1   6   35.01    3.70
  -2  -1   6   34.66    4.75
   1   1  -6   45.01    4.04
   1   1  -6   51.33    5.53
  -1  -1   6   50.18    5.32
   0   1  -6   40.29    4.73
   0   1  -6   45.18    4.85
   0  -1   6   47.66    5.05
   0  -1   6   38.51    4.46
  -1   1  -6   69.57    5.79
  -1   1  -6   70.47    6.11
   1  -1   6   68.55    5.97
   1  -1   6   75.00    5.42
  -2   1  -6  157.01   11.44
  -2   1  -6  158.09   10.95
   2  -1   6  164.27    9.89
   2  -1   6  163.75   11.45
  -3   1  -6   56.06    6.44
  -3   1  -6   59.49    7.30
   3  -1   6   43.89    5.89
  -4   1  -6    2.46    2.23
  -4   1  -6    3.53    2.04
   4  -1   6   -1.11    1.44
  -5   1  -6    1.74    2.05
  -5   1  -6    5.55    2.72
   5  -1   6    2.42    2.53
  -6   1  -6    6.98    3.46
  -6   1  -6    0.54    2.51
   6  -1   6    2.13    2.91
  -7   1  -6   -0.61    2.60
   7  -1   6    0.82    2.94
   8   0  -6    1.67    3.37
  -8   0   6    3.78    3.60
   7   0  -6    0.80    2.71
  -7   0   6   -1.43    2.72
   6   0  -6    8.37    3.63
  -6   0   6    0.42    2.52
   5   0  -6    8.16    3.13
   5   0  -6   11.06    2.98
  -5   0   6    4.35    2.32
   4   0  -6    6.14    2.68
   4   0  -6    6.53    1.95
  -4   0   6    3.25    1.59
  -4   0   6    2.76    2.00
   3   0  -6   27.70    4.60
   3   0  -6   26.37    3.40
  -3   0   6   31.09    3.81
   2   0  -6  111.00    8.57
   2   0  -6  112.72    7.37
  -2   0   6  121.05    8.18
  -2   0   6  138.39    9.00
   1   0  -6    0.11    0.83
   1   0  -6   -0.02    1.02
  -1   0   6    0.39    1.06
  -1   0   6    0.99    1.02
   0   0  -6   29.47    4.02
   0   0  -6   32.04    3.81
   0   0   6   29.81    3.48
   0   0   6   33.70    4.26
  -1   0  -6   85.35    6.65
  -1   0  -6   85.22    6.82
   1   0   6   86.78    6.94
   1   0   6   81.48    5.49
  -2   0  -6   13.13    3.07
  -2   0  -6    9.57    2.74
   2   0   6   12.73    3.20
  -3   0  -6   -1.09    1.29
  -3   0  -6    0.55    1.50
   3   0   6   -0.65    1.65
  -4   0  -6   13.61    3.78
  -4   0  -6    8.91    3.62
   4   0   6    8.58    3.51
  -5   0  -6   15.70    4.36
  -5   0  -6    6.25    3.42
   5   0   6    9.34    3.49
  -6   0  -6    1.99    2.95
  -6   0  -6    9.49    4.07
   6   0   6    2.23    3.32
   8  -1  -6    0.41    2.86
  -8   1   6    2.32    3.36
   7  -1  -6    2.83    2.77
  -7   1   6    0.22    2.69
   6  -1  -6    7.60    3.57
  -6   1   6   10.47    3.91
   5  -1  -6   12.15    3.60
  -5   1   6    8.56    3.30
  -5   1   6    7.12    2.47
   4  -1  -6   64.60    7.71
  -4   1   6   37.94    6.15
  -4   1   6   52.84    5.72
   3  -1  -6   38.12    2.79
   3  -1  -6   43.57    5.40
  -3   1   6   39.77    4.78
  -3   1   6   51.06    6.09
   2  -1  -6   28.33    4.37
  -2   1   6   35.46    4.50
  -2   1   6   31.99    4.31
  -1   1   6   13.42    2.55
  -1   1   6   11.55    2.59
   0  -1  -6   51.78    5.82
   0  -1  -6   44.34    4.05
   0   1   6   55.16    6.01
   0   1   6   44.87    3.87
  -1  -1  -6   54.55    5.86
  -1  -1  -6   47.64    5.92
   1   1   6   36.21    4.94
  -2  -1  -6   24.53    4.45
  -2  -1  -6   22.31    4.23
   2   1   6   27.60    4.48
  -3  -1  -6    7.32    2.77
  -3  -1  -6    5.70    2.61
   3   1   6    5.31    2.53
  -4  -1  -6    4.24    2.61
  -4  -1  -6    4.66    2.67
   4   1   6    2.33    2.46
  -5  -1  -6    3.16    2.99
  -5  -1  -6   -0.14    2.49
   5   1   6    0.45    2.17
  -6  -1  -6    5.25    3.80
   6   1   6    5.06    3.65
   8  -2  -6   15.74    5.33
  -8   2   6   20.66    5.45
   7  -2  -6   -0.32    2.39
  -7   2   6    2.32    2.24
   6  -2  -6   17.17    4.46
  -6   2   6   17.73    4.19
  -6   2   6   16.95    4.50
   5  -2  -6   11.97    3.50
  -5   2   6    5.37    2.22
  -5   2   6    9.96    3.25
  -4   2   6   11.56    2.94
  -4   2   6    8.08    2.60
   3  -2  -6   46.46    5.89
  -3   2   6   36.33    4.82
  -3   2   6   41.90    5.30
   2  -2  -6   27.32    4.31
  -2   2   6   21.66    3.56
  -2   2   6   24.57    3.71
   1  -2  -6   24.99    4.09
  -1   2   6   21.27    3.18
  -1   2   6   23.54    3.85
  -1   2   6   26.84    2.96
   0  -2  -6   20.66    2.91
   0  -2  -6   11.62    2.88
   0   2   6   16.60    3.32
  -1  -2  -6    0.27    1.44
  -1  -2  -6   -1.54    1.03
   1   2   6   -0.18    1.32
  -2  -2  -6   56.85    7.26
  -2  -2  -6   47.85    6.55
   2   2   6   40.50    5.82
  -3  -2  -6   24.99    5.37
   3   2   6   16.44    3.92
  -4  -2  -6    0.10    2.44
   4   2   6   -3.02    2.34
   4   2   6   -0.48    2.20
  -5  -2  -6   11.91    5.06
   5   2   6    6.73    3.44
   5   2   6    8.95    4.66
  -9   3   6   -5.26    2.77
   8  -3  -6   -1.24    2.57
  -8   3   6    0.56    2.77
   7  -3  -6    0.85    2.10
  -7   3   6   -1.97    1.99
  -7   3   6    0.66    2.42
   6  -3  -6   21.40    4.48
  -6   3   6   18.33    4.48
  -6   3   6   19.04    4.53
   5  -3  -6   27.61    4.83
  -5   3   6   27.81    5.09
   4  -3  -6   35.44    5.14
  -4   3   6   30.27    4.78
  -4   3   6   33.79    5.27
   3  -3  -6   53.25    6.38
  -3   3   6   44.97    5.83
  -3   3   6   55.86    6.49
   2  -3  -6    1.23    1.41
  -2   3   6   -0.38    0.84
   1  -3  -6    6.29    2.06
   1  -3  -6    3.37    1.98
  -1   3   6    3.57    2.01
  -1   3   6    0.17    0.98
   0  -3  -6    9.85    2.91
   0   3   6    5.52    2.08
   0   3   6    9.20    2.81
   1   3   6  135.40   10.04
   1   3   6  129.89   10.27
  -2  -3  -6   16.28    4.08
   2   3   6    9.98    3.36
   2   3   6   16.72    3.80
  -3  -3  -6    0.74    2.40
   3   3   6    0.79    2.33
   3   3   6    1.04    2.39
  -4  -3  -6    2.44    2.98
   4   3   6   -1.77    2.55
   4   3   6   -4.21    2.38
  -5  -3  -6    5.36    4.27
   5   3   6   -0.65    3.39
   9  -4  -6   16.21    5.55
  -8   4   6   10.14    4.23
  -7   4   6   -1.68    2.18
   6  -4  -6    1.24    1.87
  -6   4   6    0.56    1.95
   5  -4  -6    0.98    1.45
  -5   4   6    1.16    1.96
   4  -4  -6   86.67    9.18
   4  -4  -6   76.76    8.52
  -4   4   6   90.67    9.73
   3  -4  -6   53.25    6.67
   3  -4  -6   42.15    5.93
   2  -4  -6    6.62    2.36
   2  -4  -6    1.91    1.79
  -2   4   6    2.56    2.01
   1  -4  -6    0.37    1.65
   1  -4  -6   -0.94    1.42
  -1   4   6    0.50    1.94
  -1   4   6    1.33    1.48
   0  -4  -6    0.23    1.92
   0   4   6    5.43    2.76
   0   4   6    1.28    1.65
  -1  -4  -6   57.45    8.33
   1   4   6   59.42    7.31
   1   4   6   65.92    8.00
  -2  -4  -6   -1.70    1.98
   2   4   6   -0.02    2.06
   2   4   6   -2.30    1.92
  -3  -4  -6   -0.82    2.16
   3   4   6    5.87    3.38
  -4  -4  -6    2.54    3.54
   4   4   6    3.33    3.98
   8  -5  -6   41.12    7.63
  -8   5   6   35.93    7.32
   7  -5  -6   18.96    5.28
  -7   5   6   17.39    5.25
   6  -5  -6   11.73    3.57
  -6   5   6    2.14    2.61
   5  -5  -6    1.80    2.31
   5  -5  -6    1.74    1.97
  -5   5   6    0.14    2.08
   4  -5  -6   68.06    7.69
   4  -5  -6   60.49    7.61
  -4   5   6   56.13    7.40
   3  -5  -6    9.66    2.98
   3  -5  -6    8.26    2.82
  -3   5   6    4.31    2.63
   2  -5  -6    3.22    2.52
   2  -5  -6    6.16    2.77
  -2   5   6    2.26    2.19
   1  -5  -6   15.80    3.73
   1  -5  -6    0.96    2.50
  -1   5   6    3.67    2.25
   0  -5  -6   13.53    4.09
   0   5   6   19.48    4.39
   0   5   6    9.98    3.61
  -1  -5  -6    0.45    2.66
   1   5   6    2.30    2.63
   1   5   6   -0.68    2.11
  -2  -5  -6    8.98    4.00
   2   5   6   11.99    3.83
  -3  -5  -6   21.76    6.10
   3   5   6   24.30    5.76
   8  -6  -6   25.36    6.04
  -8   6   6   14.72    6.10
   7  -6  -6    0.66    2.05
  -7   6   6    3.05    3.31
   6  -6  -6   -1.94    1.71
  -6   6   6    0.20    2.66
   5  -6  -6   11.22    3.78
  -5   6   6    4.23    2.96
   4  -6  -6    3.24    2.71
   4  -6  -6    6.48    2.83
  -4   6   6    4.61    2.76
   3  -6  -6   24.87    5.09
   3  -6  -6   22.25    4.79
  -3   6   6    7.47    3.21
   2  -6  -6   25.29    4.98
   2  -6  -6   37.30    6.39
  -2   6   6   26.72    5.48
   1  -6  -6   29.54    6.00
  -1   6   6   16.72    4.32
   0  -6  -6   -0.45    2.66
   0   6   6    4.58    2.94
  -1  -6  -6    0.61    3.29
   1   6   6    3.30    3.15
  -2  -6  -6    1.97    3.79
   2   6   6   -1.52    2.71
   8  -7  -6    1.73    2.97
  -8   7   6   -3.51    2.74
   7  -7  -6   12.18    4.57
  -7   7   6   13.64    5.03
   6  -7  -6   13.24    4.50
  -6   7   6    7.94    4.13
  -5   7   6    9.61    4.17
   4  -7  -6    6.05    3.84
  -4   7   6    0.25    2.66
   3  -7  -6   14.85    4.57
  -3   7   6   10.20    4.11
   2  -7  -6    0.52    2.67
  -2   7   6    2.15    3.07
   1  -7  -6    1.01    2.88
  -1   7   6    1.51    3.00
   0  -7  -6   -0.20    2.97
   7  -8  -6    1.83    3.88
  -7   8   6   20.19    6.48
   6  -8  -6   -2.18    2.68
  -6   8   6   -0.10    3.06
   5  -8  -6   -0.50    2.38
  -5   8   6    0.20    2.72
   4  -8  -6   13.98    4.86
  -4   8   6    2.75    3.57
   3  -8  -6   -3.45    2.74
  -3   8   6   -0.28    2.97
  -2   8   6    6.24    3.94
  -2   9  -7    3.91    3.35
   2  -9   7    8.04    4.19
  -3   9  -7    8.85    5.34
   3  -9   7    8.91    4.66
  -4   9  -7    1.84    3.79
   4  -9   7    2.06    2.85
   0   8  -7   -0.38    3.11
   0  -8   7   -0.97    2.47
  -1   8  -7   16.51    5.54
   1  -8   7   16.25    5.45
  -2   8  -7    4.51    3.30
   2  -8   7    8.19    3.95
  -3   8  -7    5.67    4.25
   3  -8   7    3.62    2.81
  -4   8  -7    8.29    4.44
   4  -8   7    6.28    3.75
  -5   8  -7    8.35    4.42
   5  -8   7    7.05    3.91
   5  -8   7    2.61    2.86
  -6   8  -7   -0.76    3.19
   6  -8   7   -1.43    2.70
   6  -8   7    0.77    2.35
   2   7  -7    9.06    4.61
  -2  -7   7    7.68    4.21
   1   7  -7   -1.89    3.18
  -1  -7   7    4.97    3.66
   0   7  -7    2.61    3.02
   0  -7   7   -1.89    1.98
  -1   7  -7    3.05    2.91
   1  -7   7    2.56    2.79
  -2   7  -7    2.70    2.92
   2  -7   7    0.04    2.47
  -3   7  -7   40.40    7.47
   3  -7   7   23.15    5.24
  -4   7  -7   72.89   10.47
   4  -7   7   69.54    9.21
   4  -7   7   56.13    8.97
  -5   7  -7   12.65    4.78
   5  -7   7   12.99    3.84
   5  -7   7   17.94    5.14
  -6   7  -7   -2.04    2.87
   6  -7   7   -0.53    3.01
  -7   7  -7   -0.37    3.18
   7  -7   7   13.18    5.55
   3   6  -7    2.01    3.78
  -3  -6   7   -1.50    2.68
  -3  -6   7   -1.28    2.36
   2   6  -7   11.93    4.70
  -2  -6   7   19.13    5.15
  -2  -6   7    8.22    3.48
   1   6  -7   24.65    6.14
  -1  -6   7   25.76    5.82
   0   6  -7    6.11    3.37
   0  -6   7    3.33    2.66
  -1   6  -7    3.89    2.63
   1  -6   7    1.44    2.22
  -2   6  -7    8.89    3.99
   2  -6   7    6.53    3.03
  -3   6  -7   47.92    7.63
   3  -6   7   39.39    6.58
   3  -6   7   54.33    7.12
  -4   6  -7   78.86   10.88
   4  -6   7   49.10    7.95
   4  -6   7   82.98    9.65
  -5   6  -7    0.08    2.73
   5  -6   7   -0.03    2.34
   5  -6   7    0.95    1.99
  -6   6  -7    1.25    3.47
   6  -6   7    0.56    3.05
  -7   6  -7    1.38    3.36
   7  -6   7    0.59    3.02
   4   5  -7   -0.44    3.54
  -4  -5   7    1.02    2.63
  -4  -5   7    1.98    3.04
   3   5  -7    8.88    4.14
  -3  -5   7    9.75    3.77
  -3  -5   7    6.84    3.80
   2   5  -7   31.99    6.56
  -2  -5   7   23.66    5.13
  -2  -5   7   42.15    7.29
   1   5  -7   97.03    8.46
   1   5  -7   87.61   10.34
  -1  -5   7   88.77   10.65
   0   5  -7    7.27    2.64
   0   5  -7    7.45    3.14
   0  -5   7    8.06    3.07
  -1   5  -7    2.06    2.28
   1  -5   7    4.52    2.83
  -2   5  -7   13.52    4.24
   2  -5   7   10.71    3.13
   2  -5   7    5.25    2.59
  -3   5  -7    2.34    2.23
   3  -5   7   10.97    3.49
   3  -5   7    7.31    2.81
  -4   5  -7   35.47    6.82
   4  -5   7   23.22    4.58
   4  -5   7   20.36    4.76
  -5   5  -7   23.35    5.79
   5  -5   7   37.93    6.85
  -6   5  -7   15.17    5.40
   6  -5   7   26.63    6.23
  -7   5  -7    2.47    3.52
   7  -5   7    1.37    3.17
   5   4  -7   17.02    5.51
  -5  -4   7   19.34    6.32
  -5  -4   7    9.20    4.64
   4   4  -7   -4.09    2.12
  -4  -4   7    0.13    2.23
  -4  -4   7    1.88    2.59
   3   4  -7    2.38    3.15
  -3  -4   7    5.73    3.34
  -3  -4   7    1.81    2.57
   2   4  -7   33.01    5.79
   2   4  -7   24.16    4.59
  -2  -4   7   24.54    5.29
   1   4  -7   10.47    3.72
   1   4  -7    7.35    2.77
  -1  -4   7    1.29    1.58
   0   4  -7   78.09    8.42
   0   4  -7   71.37    6.43
   0  -4   7   66.04    8.19
  -1   4  -7    2.19    1.99
  -1   4  -7    0.36    1.07
   1  -4   7   -0.62    1.27
   1  -4   7    2.43    1.54
  -2   4  -7    7.91    3.14
   2  -4   7    6.36    2.31
   2  -4   7   10.76    3.21
  -3   4  -7    2.06    1.96
   3  -4   7   -0.22    1.82
   3  -4   7    2.80    1.92
  -4   4  -7   39.66    6.84
   4  -4   7   30.21    5.84
   4  -4   7   40.19    5.77
  -5   4  -7   10.21    3.88
   5  -4   7   11.67    3.96
  -6   4  -7   24.25    5.87
   6  -4   7   24.11    5.34
  -7   4  -7    0.25    2.88
   7  -4   7    5.38    3.76
   6   3  -7    3.78    3.96
  -6  -3   7   10.52    4.36
  -6  -3   7    5.64    4.02
   5   3  -7   -1.75    2.84
  -5  -3   7    0.42    2.57
  -5  -3   7    2.10    2.58
   4   3  -7   -0.11    2.29
  -4  -3   7   -0.60    1.81
  -4  -3   7    0.76    2.25
   3   3  -7   19.13    4.68
   3   3  -7   26.59    5.32
  -3  -3   7   13.75    3.57
   2   3  -7    1.19    1.85
   2   3  -7    0.84    1.46
  -2  -3   7   -0.19    1.07
   1   3  -7   55.50    6.46
   1   3  -7   34.88    5.33
  -1  -3   7   41.15    6.05
   0   3  -7   63.29    6.59
   0   3  -7   66.98    7.31
   0  -3   7   52.33    4.84
   0  -3   7   58.25    7.24
  -1   3  -7    3.47    2.15
  -1   3  -7    4.42    1.71
   1  -3   7    8.43    2.21
   1  -3   7    2.27    1.79
  -2   3  -7   51.76    7.08
  -2   3  -7   45.78    5.21
   2  -3   7   47.30    5.98
   2  -3   7   42.33    5.78
  -3   3  -7    3.69    1.73
  -3   3  -7   17.10    4.46
   3  -3   7    6.04    2.12
   3  -3   7    8.58    2.97
  -4   3  -7   93.60   11.45
   4  -3   7  109.48    9.49
  -5   3  -7    6.21    2.94
   5  -3   7    7.68    3.06
  -6   3  -7    0.77    2.12
   6  -3   7    2.02    2.45
  -7   3  -7    3.08    3.16
   7  -3   7   -1.52    2.74
  -7  -2   7   -2.28    3.72
  -6  -2   7    6.13    3.62
   5   2  -7    3.32    3.00
  -5  -2   7    9.24    3.59
   4   2  -7    3.89    2.72
   4   2  -7    0.63    2.18
  -4  -2   7    1.92    1.96
   3   2  -7    0.99    1.55
   3   2  -7   -0.71    1.60
  -3  -2   7    1.02    1.46
   2   2  -7    7.44    2.64
   2   2  -7   15.75    3.28
  -2  -2   7    4.13    2.05
   1   2  -7  116.46    8.53
   1   2  -7   97.97    7.85
  -1  -2   7  114.75    8.96
   0   2  -7    4.62    1.81
   0  -2   7    5.37    1.84
   0  -2   7    6.12    2.13
  -1   2  -7    2.42    1.41
  -1   2  -7   -1.48    1.10
   1  -2   7   -0.31    0.98
   1  -2   7    0.99    1.34
  -2   2  -7   18.04    4.15
  -2   2  -7   17.08    3.22
   2  -2   7   15.31    2.94
   2  -2   7   17.68    3.38
  -3   2  -7   72.90    7.25
  -3   2  -7   67.99    8.29
   3  -2   7   43.09    6.20
  -4   2  -7   11.18    3.52
  -4   2  -7   24.22    4.19
   4  -2   7   20.59    4.36
  -5   2  -7    3.39    2.75
   5  -2   7    1.93    2.36
  -6   2  -7   16.85    5.32
   6  -2   7    9.45    4.10
  -7   2  -7   -2.14    2.47
   7  -2   7    2.32    3.28
   7   1  -7   -0.64    3.25
  -7  -1   7   -2.62    2.82
   6   1  -7   14.78    4.72
  -6  -1   7    6.74    3.68
   5   1  -7    1.71    2.25
   5   1  -7    1.29    2.00
  -5  -1   7    4.41    2.93
   4   1  -7    1.05    1.37
   4   1  -7    4.94    2.21
  -4  -1   7    3.55    2.12
   3   1  -7   54.11    7.01
   3   1  -7   47.19    5.56
   2   1  -7   86.37    7.56
   2   1  -7   91.30    6.71
  -2  -1   7   99.11    7.89
   1   1  -7   64.82    5.93
   1   1  -7   64.63    5.44
  -1  -1   7   72.68    5.63
  -1  -1   7   71.37    6.05
   0   1  -7    3.44    1.54
   0   1  -7    4.90    1.87
   0  -1   7    0.98    1.24
   0  -1   7    2.46    1.51
  -1   1  -7   -0.15    1.35
  -1   1  -7    0.27    1.19
   1  -1   7    3.65    1.54
   1  -1   7    6.97    2.39
  -2   1  -7   -1.00    0.84
  -2   1  -7    4.65    2.22
   2  -1   7    1.55    0.93
   2  -1   7    1.93    1.72
  -3   1  -7    2.59    1.80
  -3   1  -7   -0.33    1.49
   3  -1   7    2.14    1.61
  -4   1  -7   28.44    5.24
  -4   1  -7   30.10    5.82
   4  -1   7   24.46    4.92
  -5   1  -7   36.53    6.99
  -5   1  -7   50.56    7.21
   5  -1   7   36.34    6.46
  -6   1  -7   25.15    6.43
   6  -1   7   21.93    5.62
  -7   1  -7    2.30    3.10
   7  -1   7    1.27    3.34
   8   0  -7    5.51    4.07
  -8   0   7    0.42    3.99
   7   0  -7   39.02    7.93
  -7   0   7   25.65    6.22
   6   0  -7   21.55    5.09
  -6   0   7    7.08    3.54
   5   0  -7   15.79    4.16
  -5   0   7   15.41    4.11
   4   0  -7    6.60    2.53
  -4   0   7    2.39    1.59
  -4   0   7    0.93    1.65
   3   0  -7    3.16    1.38
   3   0  -7    0.09    0.83
  -3   0   7    0.82    1.53
  -3   0   7    1.06    1.32
   2   0  -7   11.88    1.97
   2   0  -7    8.97    2.57
  -2   0   7   10.19    2.45
  -2   0   7    8.75    2.35
   1   0  -7    2.23    1.25
   1   0  -7    2.05    1.41
  -1   0   7    1.25    1.21
  -1   0   7    2.66    1.52
   0   0  -7   75.01    6.22
   0   0  -7   64.57    5.46
   0   0   7   64.84    5.24
   0   0   7   69.87    6.05
  -1   0  -7   77.25    6.42
  -1   0  -7   61.41    5.84
   1   0   7   68.70    7.10
   1   0   7   66.95    4.87
  -2   0  -7   35.64    5.50
  -2   0  -7   45.67    6.22
  -3   0  -7   11.03    3.31
  -3   0  -7    8.50    3.05
   3   0   7   16.61    4.01
  -4   0  -7   45.46    6.82
  -4   0  -7   39.36    6.85
   4   0   7   46.64    7.08
  -5   0  -7    5.93    3.08
  -5   0  -7    5.35    3.37
   5   0   7    8.21    3.54
  -6   0  -7    7.80    4.34
  -6   0  -7   12.95    4.85
   6   0   7   17.37    5.45
   8  -1  -7    0.72    3.51
  -8   1   7   -0.80    3.04
   7  -1  -7   25.81    6.80
  -7   1   7   14.04    4.81
   6  -1  -7    6.96    3.80
  -6   1   7    0.16    2.16
   5  -1  -7   11.20    3.74
  -5   1   7   15.36    3.26
  -5   1   7    8.28    3.14
   4  -1  -7    9.32    2.87
  -4   1   7    7.54    2.25
  -4   1   7    1.65    1.51
   3  -1  -7   78.80    6.99
  -3   1   7   84.21    8.65
  -3   1   7   71.52    6.34
   2  -1  -7   -0.58    0.90
  -2   1   7   -0.56    0.99
  -2   1   7    3.11    1.62
   1  -1  -7   90.40    6.27
   1  -1  -7   99.38    7.82
  -1   1   7   87.62    7.26
  -1   1   7   98.61    7.24
   0  -1  -7   84.68    6.44
   0  -1  -7   89.85    7.51
   0   1   7   73.90    6.92
   0   1   7   88.39    6.22
  -1  -1  -7   85.08    6.94
  -1  -1  -7   83.41    8.89
   1   1   7   82.39    7.31
  -2  -1  -7    1.12    1.73
  -2  -1  -7    2.10    2.13
   2   1   7   -0.46    1.38
  -3  -1  -7    3.30    2.28
  -3  -1  -7    7.29    3.01
   3   1   7   12.59    3.68
  -4  -1  -7    6.71    3.27
  -4  -1  -7    8.55    3.67
   4   1   7    0.17    2.35
  -5  -1  -7    3.36    2.64
  -5  -1  -7   -0.73    2.28
   5   1   7    3.69    3.41
  -6  -1  -7   25.57    6.38
   6   1   7   10.91    4.37
   8  -2  -7   10.65    4.57
  -8   2   7    3.68    3.20
   7  -2  -7    5.45    3.35
  -7   2   7   -0.08    2.49
   6  -2  -7   62.90    8.64
  -6   2   7   50.21    6.96
  -6   2   7   50.55    7.81
   5  -2  -7   44.62    6.35
  -5   2   7   32.35    5.59
  -5   2   7   50.81    6.58
   4  -2  -7  118.99    9.60
  -4   2   7  124.39   10.04
  -4   2   7  115.87    9.30
   3  -2  -7   19.62    3.97
  -3   2   7   11.13    3.04
  -3   2   7   12.05    3.05
   2  -2  -7   17.04    3.49
  -2   2   7   15.33    3.11
  -2   2   7   19.01    3.43
   1  -2  -7   -0.67    1.07
  -1   2   7    0.71    1.25
  -1   2   7   -0.29    0.87
  -1   2   7   -0.31    0.88
   0  -2  -7    1.03    1.50
   0  -2  -7   -0.79    0.81
   0  -2  -7   -0.47    0.94
   0   2   7    2.07    1.56
  -1  -2  -7   43.40    5.59
   1   2   7   40.02    5.90
  -2  -2  -7   16.71    4.53
  -2  -2  -7    7.08    2.95
   2   2   7    6.54    2.94
  -3  -2  -7   18.76    4.66
   3   2   7   18.95    4.63
  -4  -2  -7    6.86    3.38
   4   2   7   10.18    4.35
   4   2   7    7.46    3.68
  -5  -2  -7   13.35    5.14
   5   2   7   10.22    4.44
   5   2   7    9.25    3.97
   8  -3  -7   25.52    6.18
  -8   3   7   26.57    6.45
   7  -3  -7    0.39    1.86
  -7   3   7    0.63    2.42
  -7   3   7   -1.41    2.35
   6  -3  -7   16.80    4.39
  -6   3   7    9.38    3.33
  -6   3   7   18.89    4.51
   5  -3  -7    5.09    2.15
  -5   3   7    0.03    1.69
  -5   3   7    2.46    2.22
   4  -3  -7    5.92    2.46
  -4   3   7    6.19    2.49
  -4   3   7    8.13    2.88
   3  -3  -7   20.66    3.95
  -3   3   7   12.34    3.06
  -3   3   7   14.59    3.41
   2  -3  -7   -1.16    0.92
  -2   3   7    0.02    1.36
   1  -3  -7    0.96    1.43
   1  -3  -7    1.41    1.87
  -1   3   7    1.80    1.68
   0  -3  -7    0.59    1.59
   0   3   7   -0.65    1.57
   0   3   7    0.70    1.45
  -1  -3  -7   49.26    7.40
   1   3   7   57.73    6.78
   1   3   7   56.19    7.14
  -2  -3  -7    1.28    1.97
   2   3   7    0.38    2.28
   2   3   7    0.40    2.08
  -3  -3  -7   16.28    4.84
   3   3   7   12.05    4.16
   3   3   7   13.70    4.48
  -4  -3  -7    3.69    3.09
   4   3   7    3.85    3.08
   4   3   7    1.84    3.13
  -8   4   7   -1.76    2.88
   7  -4  -7    2.94    2.61
  -7   4   7   -2.88    1.53
  -7   4   7    2.87    2.85
   6  -4  -7    2.69    2.19
  -6   4   7    2.67    2.29
  -6   4   7    1.80    2.36
   5  -4  -7    5.59    2.46
  -5   4   7    6.26    3.01
   4  -4  -7   62.63    7.56
  -4   4   7   41.12    6.29
   3  -4  -7    1.07    1.74
   3  -4  -7    0.52    1.62
  -3   4   7   -0.28    1.33
   2  -4  -7   24.55    4.36
   2  -4  -7   30.09    5.17
  -2   4   7   18.06    3.99
   1  -4  -7   13.26    3.93
   1  -4  -7   23.76    4.18
  -1   4   7   15.72    3.87
   0  -4  -7   -0.17    1.99
   0   4   7    2.54    2.41
   0   4   7    5.11    2.10
  -1  -4  -7   14.39    4.48
   1   4   7    7.92    3.33
   1   4   7   17.62    4.18
  -2  -4  -7    6.51    3.44
   2   4   7    4.18    2.77
   2   4   7    0.77    2.45
  -3  -4  -7    5.36    3.12
   3   4   7   -2.64    2.10
   3   4   7    1.68    3.13
   4   4   7    4.22    3.70
   8  -5  -7    3.20    2.88
  -8   5   7   -1.76    2.68
   7  -5  -7   -2.35    1.89
  -7   5   7    2.91    3.07
   6  -5  -7    9.95    3.76
   6  -5  -7   13.96    4.36
  -6   5   7   13.24    4.54
   5  -5  -7    9.28    3.55
   5  -5  -7    2.65    2.18
  -5   5   7    0.10    2.28
   4  -5  -7    0.35    1.71
   4  -5  -7    4.02    2.51
  -4   5   7   -0.80    1.68
   3  -5  -7    1.55    1.82
   3  -5  -7   -0.47    1.75
  -3   5   7    0.03    1.77
   2  -5  -7    2.23    2.16
   2  -5  -7   -0.23    1.62
  -2   5   7    0.39    2.18
   1  -5  -7   14.30    4.40
  -1   5   7    8.95    3.60
   0  -5  -7    5.51    3.31
   0   5   7   -0.45    1.98
  -1  -5  -7    8.18    3.87
   1   5   7    5.02    3.22
   1   5   7    8.05    3.26
  -2  -5  -7    0.71    2.77
   2   5   7    2.14    4.04
   2   5   7    1.05    2.68
   3   5   7    3.56    3.52
   8  -6  -7    0.82    2.86
  -8   6   7   -1.18    3.04
   7  -6  -7    0.14    2.16
  -7   6   7   -1.53    2.69
   6  -6  -7   22.90    5.18
  -6   6   7   25.89    5.93
   5  -6  -7    7.27    3.52
  -5   6   7    4.43    2.79
   4  -6  -7   29.56    5.50
  -4   6   7   22.88    5.41
   3  -6  -7    5.75    3.00
   3  -6  -7    7.65    3.66
  -3   6   7    4.27    2.97
   2  -6  -7    1.45    2.82
  -2   6   7    2.06    2.68
   1  -6  -7   -0.50    2.65
  -1   6   7    0.57    2.29
   0  -6  -7    1.53    2.81
   0   6   7    5.25    2.96
  -1  -6  -7    4.44    3.39
   7  -7  -7    4.10    3.56
  -7   7   7    1.73    3.90
   6  -7  -7   -0.36    2.79
  -6   7   7   -2.68    1.99
   5  -7  -7    7.97    3.90
  -5   7   7    3.40    3.62
   4  -7  -7   -1.40    2.44
  -4   7   7    5.58    3.34
   3  -7  -7   14.52    4.41
   3  -7  -7   21.92    5.34
  -3   7   7   10.84    4.24
   2  -7  -7   20.64    5.49
  -2   7   7    9.59    4.21
   1  -7  -7    0.55    3.08
  -1   7   7    0.86    2.55
   0  -7  -7    2.02    3.23
   6  -8  -7   12.30    4.98
  -6   8   7    8.12    4.55
   5  -8  -7    9.08    4.33
  -5   8   7    4.43    3.96
   4  -8  -7   16.21    5.16
  -4   8   7    9.82    4.26
  -3   8   7    8.72    4.67
  -2   8   7    2.78    3.16
   0   8  -8    5.74    4.38
   0  -8   8    1.83    3.27
  -1   8  -8    1.66    3.31
   1  -8   8    0.33    2.71
  -2   8  -8   -0.26    3.26
   2  -8   8   -0.91    2.55
  -3   8  -8    3.20    3.65
   3  -8   8    3.34    3.28
  -4   8  -8   -1.42    2.66
   4  -8   8    1.00    2.41
  -5   8  -8   -0.20    2.99
   5  -8   8   -0.82    2.33
   5  -8   8    0.53    3.36
   2   7  -8    2.79    4.33
  -2  -7   8    1.16    3.59
   1   7  -8    2.68    3.51
  -1  -7   8    0.39    2.85
   0   7  -8    1.96    3.38
   0  -7   8    4.80    3.13
  -1   7  -8    6.89    3.78
   1  -7   8    6.97    3.85
  -2   7  -8    9.14    4.10
   2  -7   8   10.82    4.00
  -3   7  -8    7.29    3.77
   3  -7   8   11.49    4.18
  -4   7  -8    0.37    2.35
   4  -7   8   -0.17    2.10
   4  -7   8    4.30    3.40
  -5   7  -8   -1.23    2.22
   5  -7   8    0.47    2.41
   5  -7   8   -0.82    2.75
  -6   7  -8   11.76    5.30
   6  -7   8    6.89    4.13
   3   6  -8    1.40    3.92
  -3  -6   8    8.13    4.61
   2   6  -8    3.53    3.91
   2   6  -8    0.74    2.58
  -2  -6   8    2.37    3.16
   1   6  -8    3.58    3.18
  -1  -6   8   -0.74    2.36
   0   6  -8   -0.11    2.44
   0  -6   8    0.69    2.02
  -1   6  -8   -0.74    2.22
   1  -6   8    0.13    2.21
  -2   6  -8    2.63    2.74
   2  -6   8   -0.92    1.71
  -3   6  -8   12.64    4.58
   3  -6   8    8.09    3.25
   3  -6   8    5.67    2.97
  -4   6  -8   17.80    5.07
   4  -6   8   25.47    5.97
   4  -6   8   13.70    4.22
  -5   6  -8    5.33    3.33
   5  -6   8    8.99    4.07
  -6   6  -8   39.29    8.70
   6  -6   8   48.73    8.53
  -7   6  -8   15.18    5.88
   7  -6   8   26.10    6.95
   4   5  -8    2.06    4.10
  -4  -5   8   -1.25    2.95
   3   5  -8    0.03    3.29
   3   5  -8    1.72    2.71
  -3  -5   8    1.67    2.97
   2   5  -8    2.13    2.60
   2   5  -8   13.65    4.21
  -2  -5   8   12.77    4.17
   1   5  -8    4.62    3.19
   1   5  -8    6.41    2.75
  -1  -5   8    4.95    2.70
   0   5  -8    0.27    2.28
   0   5  -8    1.87    2.13
   0  -5   8   -0.88    1.74
  -1   5  -8   78.69    9.56
   1  -5   8   66.41    9.00
  -2   5  -8   52.00    7.90
   2  -5   8   69.04    7.73
   2  -5   8   54.38    7.96
  -3   5  -8   11.57    4.19
   3  -5   8   10.19    3.40
   3  -5   8   13.91    3.84
  -4   5  -8   21.36    5.43
   4  -5   8   43.80    7.52
   4  -5   8   20.76    4.48
  -5   5  -8    1.87    2.76
   5  -5   8    0.53    3.04
  -6   5  -8   -0.58    2.18
   6  -5   8   12.59    4.87
  -7   5  -8    9.83    4.51
   7  -5   8    3.28    3.68
   5   4  -8   -1.94    3.38
  -5  -4   8    1.49    3.81
   4   4  -8    0.62    3.35
   4   4  -8    3.54    3.17
  -4  -4   8    2.55    2.98
   3   4  -8   55.25    8.15
   3   4  -8   52.69    8.07
  -3  -4   8   51.25    8.05
   2   4  -8   21.68    4.93
   2   4  -8   21.52    4.87
  -2  -4   8   15.46    4.55
   1   4  -8   66.73    7.95
   1   4  -8   57.24    7.38
  -1  -4   8   61.55    8.17
   0   4  -8   -0.71    1.33
   0   4  -8    0.13    1.94
   0  -4   8   -0.72    1.65
  -1   4  -8  101.45    7.99
  -1   4  -8   98.43    9.08
   1  -4   8  110.38    8.25
   1  -4   8   98.00   10.62
  -2   4  -8   15.51    4.07
   2  -4   8   13.95    3.60
   2  -4   8   19.54    4.06
  -3   4  -8    0.80    2.19
   3  -4   8   -0.09    1.52
   3  -4   8    1.41    2.00
  -4   4  -8   12.56    4.17
   4  -4   8    8.75    3.60
  -5   4  -8   17.11    4.82
   5  -4   8   25.46    5.30
  -6   4  -8    7.46    3.75
   6  -4   8    5.80    3.34
  -7   4  -8   -1.02    2.57
   7  -4   8    1.53    3.19
   6   3  -8   15.65    5.17
  -6  -3   8    7.53    4.22
   5   3  -8   11.69    4.46
   5   3  -8    1.07    2.41
  -5  -3   8    0.56    2.64
   4   3  -8   23.41    5.35
   4   3  -8   26.24    5.66
  -4  -3   8   23.53    5.03
   3   3  -8    3.64    2.46
   3   3  -8    2.57    2.30
  -3  -3   8    9.07    3.41
   2   3  -8    3.56    2.32
   2   3  -8   11.45    3.31
  -2  -3   8    7.29    2.61
   1   3  -8    1.21    1.77
   1   3  -8    0.66    1.61
  -1  -3   8   -1.14    1.60
   0   3  -8   39.95    5.98
   0   3  -8   45.72    5.74
   0  -3   8   36.16    5.72
   0  -3   8   42.79    5.06
  -1   3  -8   29.92    5.28
  -1   3  -8   39.94    5.23
   1  -3   8   32.28    4.83
   1  -3   8   30.29    5.29
  -2   3  -8   15.78    4.08
  -2   3  -8   13.45    3.19
   2  -3   8    9.58    2.73
   2  -3   8   10.54    2.99
  -3   3  -8   65.78    8.46
   3  -3   8   61.31    7.67
   3  -3   8   54.90    6.83
  -4   3  -8   73.38    9.96
   4  -3   8   74.12    8.75
  -5   3  -8   37.60    7.40
   5  -3   8   36.67    6.58
  -6   3  -8   -0.54    2.25
   6  -3   8    1.97    2.69
  -7   3  -8    1.89    3.43
   7  -3   8    0.43    3.17
   6   2  -8    0.09    2.57
  -6  -2   8    3.07    3.00
   5   2  -8    1.53    2.34
  -5  -2   8    1.51    2.36
   4   2  -8    7.70    3.23
   4   2  -8    7.88    3.29
  -4  -2   8    6.11    3.12
   3   2  -8   12.11    3.23
   3   2  -8    9.81    3.45
  -3  -2   8    4.48    2.63
   2   2  -8   56.15    7.20
   2   2  -8   55.58    6.30
  -2  -2   8   43.22    6.43
   1   2  -8   62.34    5.95
   1   2  -8   81.17    8.01
  -1  -2   8   71.73    5.77
  -1  -2   8   67.58    7.52
   0   2  -8  126.61    9.42
   0   2  -8  120.11    9.33
   0  -2   8  122.84    9.62
   0  -2   8  124.98    9.02
  -1   2  -8   44.04    5.89
  -1   2  -8   42.53    5.47
   1  -2   8   39.19    5.49
   1  -2   8   35.85    5.08
  -2   2  -8    1.33    1.37
  -2   2  -8    3.22    2.58
   2  -2   8    0.18    1.58
   2  -2   8    2.32    1.68
  -3   2  -8   30.65    4.90
  -3   2  -8   28.15    5.47
   3  -2   8   19.87    4.24
  -4   2  -8    1.47    2.05
  -4   2  -8    4.36    2.73
   4  -2   8    2.08    2.02
  -5   2  -8    4.62    3.21
   5  -2   8    6.74    3.15
  -6   2  -8   15.00    5.07
   6  -2   8    8.27    4.11
  -7   2  -8    0.55    3.10
   7   1  -8    4.04    3.36
  -7  -1   8    8.20    4.37
   6   1  -8   19.34    5.39
  -6  -1   8   22.77    6.14
   5   1  -8   61.62    8.87
  -5  -1   8   47.98    7.63
   4   1  -8    3.53    2.33
  -4  -1   8    1.75    2.12
   3   1  -8   -0.67    1.29
   3   1  -8   -2.89    1.11
  -3  -1   8    1.80    1.64
   2   1  -8   18.44    3.07
   2   1  -8   20.97    3.97
  -2  -1   8   18.82    3.13
  -2  -1   8   14.49    3.45
   1   1  -8    1.13    1.23
   1   1  -8   14.43    3.40
  -1  -1   8    1.00    1.24
  -1  -1   8    0.39    1.33
   0   1  -8   11.81    2.90
   0   1  -8    9.23    2.41
   0  -1   8    8.16    2.40
   0  -1   8    2.95    1.63
  -1   1  -8   -0.74    1.50
  -1   1  -8   -0.63    1.30
   1  -1   8    1.26    1.55
   1  -1   8   -0.27    0.88
  -2   1  -8    3.96    2.15
  -2   1  -8    0.63    1.51
   2  -1   8    1.04    1.75
  -3   1  -8   22.79    4.55
  -3   1  -8   21.88    4.84
   3  -1   8   30.98    5.46
  -4   1  -8    9.01    3.94
  -4   1  -8    8.35    2.87
   4  -1   8    5.80    3.19
  -5   1  -8    8.55    3.73
  -5   1  -8    6.47    3.57
   5  -1   8   12.30    4.34
  -6   1  -8   12.11    4.63
   6  -1   8    3.03    3.36
   7   0  -8    8.12    4.37
  -7   0   8   15.91    5.23
   6   0  -8    8.54    4.23
  -6   0   8    7.30    3.83
   5   0  -8   37.93    6.37
  -5   0   8   25.17    5.36
   4   0  -8    4.43    2.46
  -4   0   8    5.45    1.98
  -4   0   8   -0.39    0.97
   3   0  -8   -0.40    0.73
  -3   0   8    4.37    2.16
  -3   0   8    4.73    1.82
   2   0  -8   49.82    4.10
   2   0  -8   52.70    6.60
  -2   0   8   41.32    5.60
  -2   0   8   60.19    6.28
   1   0  -8   36.98    4.19
   1   0  -8   31.87    4.74
  -1   0   8   36.81    4.62
  -1   0   8   30.11    4.47
   0   0  -8   18.45    3.73
   0   0  -8   23.48    3.57
   0   0   8   25.42    4.30
   0   0   8   20.29    3.17
  -1   0  -8    5.21    2.02
  -1   0  -8    8.24    2.51
   1   0   8    7.17    2.43
  -2   0  -8    6.15    2.55
  -2   0  -8    7.94    2.95
   2   0   8    0.58    1.41
  -3   0  -8    3.81    2.85
  -3   0  -8   10.18    3.47
   3   0   8   14.57    4.05
  -4   0  -8   28.35    5.97
  -4   0  -8   29.47    5.52
   4   0   8   25.97    5.88
  -5   0  -8    0.00    2.68
  -5   0  -8    2.19    2.76
   5   0   8   -2.50    2.16
  -6   0  -8   -2.78    2.50
  -6   0  -8    2.26    3.19
   6   0   8    5.16    3.67
   8  -1  -8    8.81    4.66
  -8   1   8    6.08    4.27
   7  -1  -8    9.40    4.49
  -7   1   8    8.90    4.33
   6  -1  -8    5.30    3.25
  -6   1   8    9.58    3.49
   5  -1  -8    0.32    1.96
  -5   1   8   -0.81    1.50
  -5   1   8    0.26    1.48
   4  -1  -8    2.21    2.21
  -4   1   8    3.04    2.22
  -4   1   8    3.99    2.14
   3  -1  -8    2.46    1.84
  -3   1   8    1.86    1.45
  -3   1   8   -0.10    1.59
  -2   1   8   16.83    3.58
  -2   1   8   11.93    3.01
   1  -1  -8   18.73    3.88
   1  -1  -8   18.12    2.66
  -1   1   8   19.55    3.62
  -1   1   8   14.42    2.89
   0  -1  -8   10.33    3.17
   0  -1  -8    9.47    2.37
   0   1   8    6.89    2.52
   0   1   8    8.74    2.00
  -1  -1  -8    1.16    1.52
  -1  -1  -8    0.66    1.70
   1   1   8   -0.07    1.09
  -2  -1  -8    3.81    2.35
  -2  -1  -8    4.49    2.73
   2   1   8    6.96    2.99
  -3  -1  -8   27.25    5.51
  -3  -1  -8   17.58    4.46
   3   1   8   14.40    4.10
  -4  -1  -8   38.14    7.30
  -4  -1  -8   38.36    7.09
   4   1   8   25.01    5.55
  -5  -1  -8    3.09    3.20
  -5  -1  -8   13.45    4.96
   5   1   8   -2.14    2.68
   8  -2  -8   -2.85    2.61
  -8   2   8    1.08    3.46
   7  -2  -8   29.80    6.58
  -7   2   8   18.06    5.53
   6  -2  -8   -0.95    1.57
  -6   2   8    1.98    2.77
  -6   2   8   -0.93    1.96
   5  -2  -8   19.09    4.39
  -5   2   8   15.81    3.68
  -5   2   8   15.50    4.10
   4  -2  -8   19.45    4.29
  -4   2   8   10.81    3.06
  -4   2   8   14.71    3.75
   3  -2  -8   -0.54    1.22
  -3   2   8   -0.42    1.29
  -3   2   8    2.47    1.64
   2  -2  -8   27.45    4.74
  -2   2   8   25.34    4.24
  -2   2   8   21.66    4.08
  -1   2   8  117.78    8.22
  -1   2   8   95.46    8.66
   0  -2  -8   15.23    2.89
   0  -2  -8   -0.71    1.14
   0   2   8    0.81    1.30
  -1  -2  -8   45.03    6.99
  -1  -2  -8   47.86    6.23
   1   2   8   42.87    6.52
  -2  -2  -8    9.18    3.31
  -2  -2  -8    5.07    2.79
   2   2   8    2.81    2.61
  -3  -2  -8    4.32    2.95
   3   2   8    4.80    3.05
  -4  -2  -8    0.65    2.41
   4   2   8   -1.59    2.47
   4   2   8    0.67    3.16
  -5  -2  -8   -0.41    3.21
   5   2   8   -0.46    3.59
   5   2   8   -0.26    2.98
   8  -3  -8   -0.33    2.38
  -8   3   8   -2.63    2.64
   7  -3  -8   -1.70    2.08
  -7   3   8   -0.65    2.31
  -7   3   8    2.20    2.77
   6  -3  -8   63.70    8.43
  -6   3   8   62.26    8.74
  -6   3   8   45.26    7.01
   5  -3  -8   35.98    6.03
  -5   3   8   31.67    5.78
  -5   3   8   33.83    5.78
   4  -3  -8    7.47    2.87
  -4   3   8    5.62    2.52
  -4   3   8    6.58    2.73
   3  -3  -8    7.09    2.83
  -3   3   8   11.02    3.05
  -3   3   8    6.46    2.63
   2  -3  -8   28.20    5.13
  -2   3   8   19.35    3.86
   1  -3  -8    0.90    1.67
   1  -3  -8    4.16    1.87
  -1   3   8    0.30    1.30
   0  -3  -8    7.44    3.14
   0   3   8    9.83    3.19
   0   3   8    6.80    3.92
  -1  -3  -8   18.03    4.58
   1   3   8   18.76    4.00
   1   3   8   17.31    4.33
  -2  -3  -8    8.23    3.68
   2   3   8    6.01    3.23
   2   3   8   11.40    3.80
  -3  -3  -8    0.11    2.79
   3   3   8    0.83    2.54
   3   3   8    2.02    2.84
  -4  -3  -8   12.89    4.73
   4   3   8    5.29    3.73
   4   3   8    4.25    3.82
  -8   4   8    0.35    2.83
  -8   4   8    3.65    3.43
   7  -4  -8   17.82    4.89
  -7   4   8   21.21    5.45
  -7   4   8   13.16    4.70
   6  -4  -8   12.06    3.98
  -6   4   8    9.32    3.63
  -6   4   8   12.55    4.32
   5  -4  -8   15.59    4.03
  -5   4   8   20.09    4.82
  -5   4   8   20.03    4.98
   4  -4  -8    6.26    2.88
  -4   4   8    7.10    3.21
   3  -4  -8   18.35    4.28
   3  -4  -8   17.10    3.91
  -3   4   8   11.53    3.49
   2  -4  -8    9.99    3.63
   2  -4  -8   12.15    3.25
  -2   4   8    5.53    2.81
   1  -4  -8   17.91    4.68
  -1   4   8   13.49    4.08
   0  -4  -8   39.07    6.88
   0   4   8   24.59    5.19
  -1  -4  -8   51.97    8.18
   1   4   8   28.32    5.46
   1   4   8   34.75    6.28
  -2  -4  -8    6.21    3.61
   2   4   8    0.94    2.57
   2   4   8    5.65    3.63
  -3  -4  -8   -1.70    2.50
   3   4   8    1.71    3.32
   3   4   8   -0.18    2.70
   8  -5  -8    6.61    3.73
  -8   5   8    2.17    3.38
   7  -5  -8    1.00    2.45
  -7   5   8   -1.07    2.43
   6  -5  -8    9.23    3.61
   6  -5  -8   11.06    3.68
  -6   5   8   12.46    4.37
   5  -5  -8    3.52    2.61
   5  -5  -8    1.21    2.19
  -5   5   8    6.03    3.26
   4  -5  -8   51.54    7.35
   4  -5  -8   40.79    6.89
  -4   5   8   54.61    7.67
   3  -5  -8   18.41    4.33
   3  -5  -8   15.76    4.14
  -3   5   8   14.69    4.15
   2  -5  -8    4.17    2.94
   2  -5  -8   -0.53    1.78
  -2   5   8    1.32    2.31
   1  -5  -8    2.76    2.63
  -1   5   8    6.34    3.27
   0  -5  -8   14.76    4.58
   0   5   8    7.17    3.88
  -1  -5  -8    5.34    3.65
   1   5   8    1.30    3.28
  -2  -5  -8   -2.90    2.64
   2   5   8    1.00    3.14
   8  -6  -8    1.84    3.12
  -8   6   8   10.58    4.74
   7  -6  -8    2.50    2.69
  -7   6   8    0.50    2.99
   6  -6  -8    7.19    3.57
  -6   6   8    0.86    3.12
   5  -6  -8   -0.98    2.18
   5  -6  -8    4.56    4.63
  -5   6   8    4.11    3.17
   4  -6  -8    1.13    2.46
   4  -6  -8    3.01    2.82
  -4   6   8   -0.79    2.26
   3  -6  -8   -1.53    2.49
   3  -6  -8   -0.20    2.30
  -3   6   8    0.38    2.45
   2  -6  -8    2.21    2.78
  -2   6   8    1.30    2.60
   1  -6  -8    0.92    2.70
  -1   6   8    1.56    3.18
   0  -6  -8    0.60    2.79
   0   6   8   -1.57    2.61
  -1  -6  -8    5.74    4.11
   1   6   8    3.02    3.46
   7  -7  -8    1.33    3.14
  -7   7   8    0.45    3.37
   6  -7  -8    1.96    2.97
  -6   7   8    1.70    2.96
   5  -7  -8    1.50    2.87
  -5   7   8    2.74    3.25
   4  -7  -8    7.69    4.20
  -4   7   8    9.02    4.12
   3  -7  -8    8.29    3.95
  -3   7   8    2.91    3.14
   2  -7  -8    1.58    3.03
  -2   7   8   -0.18    3.18
   1  -7  -8   -2.05    2.59
  -1   7   8   -0.24    2.85
  -1   8  -9   19.81    6.14
   1  -8   9   25.19    6.62
  -2   8  -9   17.02    6.08
   2  -8   9   16.90    5.63
  -3   8  -9    3.14    2.97
   3  -8   9    4.77    3.39
  -4   8  -9    0.93    3.18
   4  -8   9   -0.37    2.38
   1   7  -9   -2.97    3.15
  -1  -7   9   -1.21    3.02
   0   7  -9   -0.69    3.19
   0  -7   9    0.95    2.93
  -1   7  -9   33.31    7.39
   1  -7   9   35.75    7.76
  -2   7  -9   14.95    5.66
   2  -7   9    6.15    3.96
  -3   7  -9    4.14    3.60
   3  -7   9    1.02    2.49
  -4   7  -9    7.46    4.39
   4  -7   9    6.55    3.45
   4  -7   9    4.73    3.52
  -5   7  -9    4.00    3.67
   5  -7   9    6.10    4.13
  -6   7  -9    7.83    4.75
   3   6  -9   10.41    4.74
  -3  -6   9   13.88    5.64
   2   6  -9   -2.35    3.18
   2   6  -9    7.17    3.79
  -2  -6   9    1.33    2.98
   1   6  -9    0.81    2.88
  -1  -6   9   -1.87    2.25
   0   6  -9    5.21    3.24
   0  -6   9    0.96    2.62
  -1   6  -9    0.74    2.84
   1  -6   9    0.46    1.97
  -2   6  -9   33.85    7.05
   2  -6   9   16.92    4.59
  -3   6  -9   88.17   11.19
   3  -6   9   84.35    9.62
   3  -6   9   51.93    8.32
  -4   6  -9   13.65    4.79
   4  -6   9   18.47    5.10
   4  -6   9   10.44    4.04
  -5   6  -9    0.42    2.33
   5  -6   9   -0.91    2.66
  -6   6  -9    1.45    2.78
   6  -6   9   -1.28    2.94
   4   5  -9   -0.68    3.15
   4   5  -9    2.25    3.21
  -4  -5   9    5.89    3.92
   3   5  -9    7.35    3.66
   3   5  -9    3.58    3.44
  -3  -5   9   -1.00    2.81
   2   5  -9   15.55    4.60
   2   5  -9   15.36    4.78
  -2  -5   9    2.72    2.70
   1   5  -9   13.06    3.83
   1   5  -9   29.19    6.14
  -1  -5   9    8.64    3.43
   0   5  -9   -1.28    2.17
   0  -5   9   -0.36    1.86
  -1   5  -9    8.26    3.65
   1  -5   9   12.26    3.80
  -2   5  -9   -0.46    2.25
   2  -5   9   -0.46    1.92
   2  -5   9   -2.02    1.37
  -3   5  -9   23.67    5.70
   3  -5   9   17.83    4.39
   3  -5   9   21.27    4.86
  -4   5  -9    7.94    3.57
   4  -5   9    6.33    3.01
  -5   5  -9    0.04    3.34
   5  -5   9    2.65    3.00
  -6   5  -9   14.11    5.54
   6  -5   9   17.85    5.28
   5   4  -9    0.57    2.63
  -5  -4   9    3.72    3.48
   4   4  -9   10.30    4.36
   4   4  -9   13.38    5.04
  -4  -4   9    8.88    4.63
   3   4  -9    9.12    4.19
   3   4  -9   14.97    4.21
  -3  -4   9   12.63    4.03
   2   4  -9    2.60    2.71
   2   4  -9    5.47    3.01
  -2  -4   9    4.26    2.75
   1   4  -9   30.42    5.49
   1   4  -9   26.35    5.11
  -1  -4   9   33.30    6.08
   0   4  -9    5.03    2.30
   0   4  -9    7.49    3.20
   0  -4   9    4.29    2.50
  -1   4  -9   42.29    6.75
  -1   4  -9   49.06    6.27
   1  -4   9   41.03    6.77
   1  -4   9   52.14    6.43
  -2   4  -9   55.59    8.30
   2  -4   9   66.26    8.07
   2  -4   9   66.32    8.00
  -3   4  -9    2.95    2.66
   3  -4   9    5.13    2.65
   3  -4   9    3.26    2.16
  -4   4  -9   15.45    5.11
   4  -4   9   12.26    4.05
  -5   4  -9    7.04    3.67
   5  -4   9   24.83    5.78
  -6   4  -9    3.25    3.50
   6  -4   9    0.21    2.38
   6   3  -9    8.37    4.03
  -6  -3   9    8.81    4.51
   5   3  -9    3.19    3.48
  -5  -3   9    1.17    2.71
   4   3  -9    5.76    3.06
   4   3  -9    3.73    3.21
  -4  -3   9    5.86    3.08
   3   3  -9   27.43    5.47
   3   3  -9   27.34    5.40
  -3  -3   9   20.56    4.75
   2   3  -9    0.80    2.03
   2   3  -9   -0.52    1.65
  -2  -3   9   -0.74    1.72
   1   3  -9    0.77    2.11
   1   3  -9    2.11    1.71
  -1  -3   9    1.87    1.96
   0   3  -9    3.45    1.85
   0   3  -9    3.17    2.23
   0  -3   9    0.08    1.30
   0  -3   9    1.44    1.81
  -1   3  -9   34.51    5.20
  -1   3  -9   43.45    6.47
   1  -3   9   32.25    5.30
   1  -3   9   41.73    5.96
  -2   3  -9    0.03    1.45
  -2   3  -9    3.01    2.30
   2  -3   9    0.98    1.57
   2  -3   9    2.37    1.94
  -3   3  -9    1.18    2.45
   3  -3   9    3.58    2.25
  -4   3  -9    0.83    2.16
   4  -3   9   -0.96    2.02
  -5   3  -9   -0.51    2.37
   5  -3   9    4.48    2.76
  -6   3  -9   14.99    5.37
   6  -3   9    7.30    3.69
   6   2  -9    5.44    4.29
  -6  -2   9   -0.30    2.94
   5   2  -9    1.62    2.58
  -5  -2   9    4.96    2.97
   4   2  -9   30.79    6.47
  -4  -2   9   33.88    6.17
   3   2  -9    2.93    2.06
   3   2  -9    0.02    2.09
  -3  -2   9   -0.57    1.44
   2   2  -9    8.16    3.03
   2   2  -9   17.21    3.43
  -2  -2   9    3.71    2.46
   1   2  -9    0.41    1.75
   1   2  -9    0.87    1.42
  -1  -2   9   -0.10    1.00
  -1  -2   9    0.75    1.32
   0   2  -9   -0.51    1.61
   0   2  -9    2.99    1.63
   0  -2   9   -1.07    1.28
   0  -2   9   -0.81    1.18
  -1   2  -9    3.61    2.34
  -1   2  -9    3.83    2.00
   1  -2   9    4.29    2.07
   1  -2   9    8.59    2.69
  -2   2  -9   15.58    4.28
  -2   2  -9   14.92    3.63
   2  -2   9   17.93    3.97
  -3   2  -9  166.54   13.19
  -3   2  -9  165.26   12.22
   3  -2   9  153.90   12.88
  -4   2  -9   26.55    5.91
   4  -2   9   15.04    4.21
  -5   2  -9    6.03    3.50
   5  -2   9    1.87    2.83
  -6   2  -9    6.98    4.34
   6  -2   9    1.31    3.14
   7   1  -9    5.06    4.34
  -7  -1   9    1.04    3.30
   6   1  -9   -0.71    2.93
  -6  -1   9   -0.72    2.31
   5   1  -9    1.08    1.93
  -5  -1   9    1.53    2.49
   4   1  -9    1.57    2.06
  -4  -1   9    0.83    1.68
   3   1  -9    8.73    3.15
  -3  -1   9    7.21    3.04
   2   1  -9   67.03    5.63
   2   1  -9   84.81    9.09
  -2  -1   9   51.78    6.97
  -2  -1   9   60.38    6.56
   1   1  -9   42.17    6.27
   1   1  -9   45.68    5.34
  -1  -1   9   41.93    5.88
  -1  -1   9   37.96    5.14
   0   1  -9   27.71    4.85
   0   1  -9   28.51    4.66
   0  -1   9   20.12    3.90
   0  -1   9   19.23    3.54
  -1   1  -9   29.57    4.87
  -1   1  -9   23.68    4.51
   1  -1   9   16.18    2.96
   1  -1   9   18.90    3.93
  -2   1  -9   73.83    8.37
  -2   1  -9   76.47    9.07
   2  -1   9   79.66    9.00
  -3   1  -9   32.55    6.40
  -3   1  -9   46.60    6.68
   3  -1   9   27.65    5.65
  -4   1  -9    2.11    3.00
  -4   1  -9    5.48    2.59
   4  -1   9    3.94    2.87
  -5   1  -9    2.52    2.85
  -5   1  -9    5.78    3.13
   5  -1   9    2.83    3.46
  -6   1  -9    4.22    3.59
   6  -1   9    0.72    3.65
   7   0  -9   15.10    5.38
  -7   0   9   16.63    5.62
   6   0  -9   20.42    5.83
  -6   0   9   16.72    5.29
   5   0  -9   24.59    5.48
  -5   0   9    9.18    3.38
   4   0  -9    7.62    2.83
  -4   0   9    5.83    2.92
  -3   0   9  101.92    8.56
  -3   0   9   78.00    6.95
   2   0  -9   79.40    9.08
  -2   0   9   91.42    7.41
  -2   0   9   86.39    7.72
   1   0  -9   -0.50    1.41
   1   0  -9   -0.35    1.24
  -1   0   9   -1.07    1.03
  -1   0   9    1.21    1.49
   0   0  -9    4.31    1.95
   0   0  -9    1.64    1.68
   0   0   9    1.11    1.29
   0   0   9    7.08    2.65
  -1   0  -9    7.18    2.81
  -1   0  -9    3.54    2.30
   1   0   9    6.41    2.50
  -2   0  -9    2.28    2.02
  -2   0  -9   -1.80    1.78
   2   0   9    2.31    1.91
  -3   0  -9   35.08    5.93
  -3   0  -9   27.12    5.51
   3   0   9   27.48    5.50
  -4   0  -9   26.12    5.37
  -4   0  -9   21.97    5.72
   4   0   9   18.40    4.92
  -5   0  -9    5.17    3.37
  -5   0  -9    5.87    3.79
   5   0   9    6.33    3.74
   8  -1  -9    7.87    4.18
  -8   1   9    4.67    3.87
   7  -1  -9   46.56    9.16
  -7   1   9   36.21    7.71
   6  -1  -9   12.52    4.00
  -6   1   9   24.55    6.18
   5  -1  -9    2.88    2.21
  -5   1   9    0.27    1.66
  -5   1   9    1.23    2.07
   4  -1  -9    0.34    1.70
  -4   1   9    0.31    1.70
  -4   1   9    1.60    1.69
  -3   1   9   31.71    4.76
  -3   1   9   27.49    5.10
  -2   1   9   18.83    3.94
  -2   1   9   12.37    3.23
  -1   1   9   70.66    7.80
  -1   1   9   79.67    6.76
   0  -1  -9   13.04    2.78
   0  -1  -9    7.04    2.76
   0   1   9    7.53    2.82
  -1  -1  -9   11.35    3.46
  -1  -1  -9   13.85    3.49
   1   1   9   15.39    3.77
  -2  -1  -9    7.16    3.18
  -2  -1  -9    2.56    2.62
   2   1   9   -0.09    2.16
  -3  -1  -9   10.09    3.92
  -3  -1  -9    8.44    3.89
   3   1   9    8.13    3.47
  -4  -1  -9    3.51    3.22
  -4  -1  -9    5.21    3.90
   4   1   9    2.19    2.86
  -5  -1  -9    0.35    2.94
  -5  -1  -9    0.50    3.14
   5   1   9    2.96    3.21
   8  -2  -9    5.71    3.86
  -8   2   9    1.51    2.97
   7  -2  -9   -0.30    2.42
  -7   2   9   -1.74    2.26
   6  -2  -9   20.64    4.78
  -6   2   9   22.92    5.48
  -6   2   9   17.11    4.29
   5  -2  -9    8.02    2.89
  -5   2   9   10.02    3.30
  -5   2   9    7.34    3.56
   4  -2  -9    0.84    1.69
  -4   2   9    0.16    1.61
  -4   2   9    1.78    1.92
   3  -2  -9   32.47    5.33
  -3   2   9   29.89    4.88
  -3   2   9   26.34    4.84
   2  -2  -9   30.42    5.53
  -2   2   9   21.59    4.05
  -2   2   9   29.73    5.17
  -1   2   9   12.43    3.55
  -1   2   9    9.59    2.55
   0  -2  -9   16.08    4.11
   0   2   9    8.25    2.87
  -1  -2  -9   12.32    4.17
  -1  -2  -9   20.30    4.19
   1   2   9   16.64    4.26
  -2  -2  -9    0.10    2.39
  -2  -2  -9    1.79    2.31
   2   2   9   -0.14    2.29
  -3  -2  -9   -2.37    2.13
   3   2   9   -1.69    2.49
  -4  -2  -9    1.85    2.94
   4   2   9    1.24    3.35
   4   2   9    6.15    3.98
   8  -3  -9    1.32    3.11
  -8   3   9    3.54    3.46
   7  -3  -9   12.95    4.67
  -7   3   9   12.26    4.63
  -7   3   9   15.26    4.75
   6  -3  -9   34.12    6.48
  -6   3   9   30.79    6.24
  -6   3   9   23.10    5.29
   5  -3  -9   -0.38    1.96
  -5   3   9    1.65    2.22
  -5   3   9    1.54    2.13
   4  -3  -9   13.56    3.76
  -4   3   9    9.04    3.06
  -4   3   9   15.01    4.07
   3  -3  -9   21.31    4.60
  -3   3   9   19.89    4.35
  -3   3   9   20.19    4.23
   2  -3  -9   -0.23    1.41
  -2   3   9   -0.50    1.53
  -2   3   9   -0.48    1.41
   1  -3  -9   18.99    4.65
  -1   3   9   12.03    3.37
   0  -3  -9   -0.76    1.81
   0   3   9    3.51    2.67
  -1  -3  -9   25.87    5.77
   1   3   9   10.25    3.53
  -2  -3  -9    1.61    2.45
   2   3   9    0.70    2.70
   2   3   9   -2.55    2.12
  -3  -3  -9    7.04    4.23
   3   3   9    0.34    2.70
   3   3   9    3.97    3.47
  -8   4   9    2.60    2.57
  -8   4   9    3.95    3.93
   7  -4  -9   -0.97    1.81
  -7   4   9   -1.35    2.07
  -7   4   9    2.55    2.83
   6  -4  -9    2.24    2.15
  -6   4   9   -0.37    2.20
  -6   4   9    6.38    3.25
   5  -4  -9   -0.11    2.07
  -5   4   9    2.65    2.54
  -5   4   9    0.48    2.23
   4  -4  -9    9.67    3.55
  -4   4   9    6.60    3.47
   3  -4  -9    3.15    2.34
   3  -4  -9    5.81    2.85
  -3   4   9    1.09    2.04
   2  -4  -9   10.58    3.07
   2  -4  -9   10.11    3.84
  -2   4   9    8.77    3.12
   1  -4  -9    2.96    2.82
  -1   4   9    6.87    3.37
   0  -4  -9    2.95    2.58
   0   4   9    3.44    2.87
  -1  -4  -9    5.52    3.42
   1   4   9    5.82    3.30
  -2  -4  -9    0.34    2.93
   2   4   9    0.73    2.83
   3   4   9    0.54    3.02
   8  -5  -9    3.44    2.59
  -8   5   9    3.11    3.78
   7  -5  -9    8.08    3.72
  -7   5   9    8.60    4.41
   6  -5  -9    9.96    4.08
   6  -5  -9    8.00    3.88
  -6   5   9    2.53    3.02
   5  -5  -9   12.28    4.38
   5  -5  -9    6.73    3.03
  -5   5   9   15.97    4.66
   4  -5  -9    0.86    2.30
   4  -5  -9    0.23    2.11
  -4   5   9    0.40    2.36
   3  -5  -9    0.13    2.39
   3  -5  -9   -1.10    1.94
  -3   5   9   -0.43    2.21
   2  -5  -9   -0.62    2.19
  -2   5   9    1.14    2.54
   1  -5  -9   18.89    5.62
  -1   5   9   17.86    4.70
   0  -5  -9   43.77    8.31
   0   5   9   36.11    6.83
  -1  -5  -9   10.65    4.75
   1   5   9    3.46    3.97
   7  -6  -9    0.80    2.83
  -7   6   9   -1.30    2.83
   6  -6  -9    4.97    3.40
  -6   6   9    7.43    4.02
   5  -6  -9   26.00    5.68
   5  -6  -9   18.49    5.23
  -5   6   9   15.23    4.91
   4  -6  -9    6.38    3.55
   4  -6  -9    3.40    3.13
  -4   6   9    7.60    3.82
   3  -6  -9   -0.01    2.57
  -3   6   9   -0.56    2.59
   2  -6  -9   16.86    5.10
  -2   6   9   10.30    3.95
   1  -6  -9    1.91    3.20
  -1   6   9    4.79    3.73
   0  -6  -9   14.67    4.98
   0   6   9    9.80    4.53
   6  -7  -9    1.76    3.56
  -6   7   9    4.91    3.57
   5  -7  -9   28.83    6.53
  -5   7   9   11.05    4.66
   4  -7  -9   -2.07    3.07
  -4   7   9    1.91    3.42
   3  -7  -9    0.15    3.15
  -3   7   9    3.86    3.30
   2  -7  -9    7.71    4.20
  -2   7   9    2.54    3.44
  -2   8 -10    4.25    4.21
   2  -8  10    5.83    4.03
  -3   8 -10    8.08    4.58
   3  -8  10   -0.71    2.80
   1   7 -10    5.33    4.05
  -1  -7  10    8.25    4.06
   0   7 -10    3.81    3.94
   0  -7  10   -0.52    2.80
  -1   7 -10    0.57    3.15
   1  -7  10    0.53    2.54
  -2   7 -10    8.21    4.72
   2  -7  10    0.84    2.45
  -3   7 -10    2.49    3.79
   3  -7  10   12.36    4.96
  -4   7 -10   19.23    6.11
   4  -7  10   13.15    4.91
  -5   7 -10    6.34    4.64
   5  -7  10    3.17    3.61
   2   6 -10    0.42    3.46
  -2  -6  10    0.82    3.18
   1   6 -10    5.09    3.65
  -1  -6  10    5.59    3.53
   0   6 -10    9.95    4.26
   0  -6  10   12.86    4.53
  -1   6 -10   14.86    5.22
   1  -6  10   18.06    5.18
  -2   6 -10    6.46    3.63
   2  -6  10    5.39    3.01
  -3   6 -10    9.49    4.17
   3  -6  10    4.87    3.19
   3  -6  10    3.66    2.95
  -4   6 -10    9.14    4.73
   4  -6  10    6.70    3.47
  -5   6 -10    7.22    4.12
   5  -6  10    0.64    2.75
   4   5 -10    6.50    4.39
   4   5 -10    1.29    3.74
  -4  -5  10    5.89    4.35
   3   5 -10   14.42    5.06
   3   5 -10    8.48    4.17
  -3  -5  10    9.09    4.13
   2   5 -10    7.50    3.80
   2   5 -10    7.89    3.59
  -2  -5  10    4.27    3.33
   1   5 -10    5.49    3.02
   1   5 -10    6.62    3.51
  -1  -5  10    3.40    2.86
   0   5 -10    3.26    3.21
   0  -5  10   -0.19    2.26
  -1   5 -10   11.85    4.30
   1  -5  10    8.82    3.73
  -2   5 -10   46.97    8.08
   2  -5  10   38.60    6.73
   2  -5  10   45.64    6.81
  -3   5 -10   20.46    5.72
   3  -5  10   23.81    5.10
   3  -5  10   19.60    5.10
  -4   5 -10    0.16    2.52
   4  -5  10    1.68    2.42
  -5   5 -10   28.60    7.16
   5  -5  10   16.04    5.03
  -6   5 -10   44.68    9.19
   6  -5  10   49.81    8.47
   5   4 -10    7.76    4.42
  -5  -4  10    1.72    3.29
   4   4 -10   -1.03    2.58
  -4  -4  10    0.33    2.84
   3   4 -10   18.39    5.06
   3   4 -10   18.90    4.97
  -3  -4  10    9.64    4.23
   2   4 -10   21.01    4.85
   2   4 -10   26.29    5.53
  -2  -4  10   27.16    5.82
   1   4 -10    3.38    2.75
   1   4 -10    2.77    2.15
  -1  -4  10    0.00    2.21
   0   4 -10    4.94    3.28
   0   4 -10    8.51    3.05
   0  -4  10    2.80    2.58
  -1   4 -10   98.35   10.94
   1  -4  10   76.38   10.11
   1  -4  10   95.18    9.80
  -2   4 -10   21.64    5.69
   2  -4  10   28.77    5.21
   2  -4  10   21.49    4.94
  -3   4 -10   16.78    5.11
   3  -4  10   20.28    4.87
  -4   4 -10    3.63    3.70
   4  -4  10    4.85    3.19
  -5   4 -10   23.53    6.41
   5  -4  10   15.88    5.03
  -6   4 -10   -2.35    2.26
   6  -4  10    2.62    3.01
   5   3 -10    5.41    4.17
  -5  -3  10   -2.64    2.53
   4   3 -10   41.05    7.54
   3   3 -10   28.64    6.08
   3   3 -10   51.66    7.24
  -3  -3  10   36.87    6.77
   2   3 -10   19.33    4.44
   2   3 -10   17.27    4.17
  -2  -3  10   14.10    4.63
   1   3 -10    6.92    3.04
   1   3 -10    3.24    2.13
  -1  -3  10    0.92    2.29
   0   3 -10   -0.86    1.99
   0   3 -10    1.70    1.75
   0  -3  10    2.31    2.17
   0  -3  10    4.14    2.23
  -1   3 -10    4.57    2.81
  -1   3 -10   -1.12    1.25
   1  -3  10    1.34    2.01
   1  -3  10   -1.00    1.77
  -2   3 -10    6.03    2.64
  -2   3 -10    6.76    3.43
   2  -3  10    5.46    2.90
   2  -3  10    1.20    2.13
  -3   3 -10   13.88    4.53
   3  -3  10    6.64    3.38
  -4   3 -10   13.31    4.73
   4  -3  10   11.53    4.31
  -5   3 -10   14.14    5.05
   5  -3  10   10.26    4.10
  -6   3 -10    7.31    4.33
   6  -3  10    0.29    2.85
   6   2 -10    5.31    3.93
  -6  -2  10   -0.78    2.72
   5   2 -10   -2.76    1.74
  -5  -2  10    0.50    3.06
   4   2 -10    0.18    2.31
  -4  -2  10    0.93    2.33
   3   2 -10    3.33    2.41
  -3  -2  10    5.89    3.18
   2   2 -10    0.19    1.93
   2   2 -10    2.12    1.98
  -2  -2  10    1.10    1.87
   1   2 -10   10.47    3.32
   1   2 -10   13.35    3.43
  -1  -2  10   11.65    3.50
  -1  -2  10   10.42    2.85
   0   2 -10    4.04    2.34
   0   2 -10    5.58    2.40
   0  -2  10    8.74    2.85
   0  -2  10    4.70    2.34
  -1   2 -10   11.24    3.26
  -1   2 -10   11.93    3.66
   1  -2  10   14.03    3.78
   1  -2  10   17.30    3.59
  -2   2 -10    7.54    3.27
  -2   2 -10    6.90    3.02
   2  -2  10    8.20    3.20
  -3   2 -10   38.96    7.51
  -3   2 -10   42.62    6.53
   3  -2  10   39.93    6.86
  -4   2 -10    2.63    3.55
   4  -2  10    6.93    3.55
  -5   2 -10   15.46    5.45
   5  -2  10   16.50    5.23
  -6   2 -10    9.35    4.88
   6  -2  10    2.51    3.79
   7   1 -10    4.92    3.83
  -7  -1  10    0.36    3.48
   6   1 -10    1.28    3.20
  -6  -1  10    6.26    3.84
   5   1 -10   -0.52    1.74
  -5  -1  10   -2.24    1.55
   4   1 -10    5.55    2.95
  -4  -1  10   10.59    3.92
   3   1 -10    1.22    1.97
  -3  -1  10    1.54    2.07
   2   1 -10   34.59    5.92
  -2  -1  10   30.87    5.68
  -2  -1  10   44.60    5.61
   1   1 -10   58.41    6.40
   1   1 -10   43.05    6.37
  -1  -1  10   47.49    6.51
  -1  -1  10   52.32    6.33
   0   1 -10    7.94    2.73
   0   1 -10    6.22    2.54
   0  -1  10    7.97    2.85
   0  -1  10    5.03    2.04
  -1   1 -10   10.80    3.30
  -1   1 -10   10.87    3.37
   1  -1  10   10.54    3.31
  -2   1 -10    2.22    2.19
  -2   1 -10    1.53    2.11
   2  -1  10    4.64    3.07
  -3   1 -10   51.72    8.06
  -3   1 -10   30.50    5.71
   3  -1  10   31.48    6.12
  -4   1 -10    1.34    2.94
  -4   1 -10   -0.13    2.61
   4  -1  10   -0.55    2.69
  -5   1 -10   -0.67    3.07
   5  -1  10   -0.42    3.33
   7   0 -10    1.92    3.43
  -7   0  10   14.53    5.74
   6   0 -10   10.94    4.49
  -6   0  10   10.68    4.86
   5   0 -10    2.86    2.62
  -5   0  10    1.34    2.47
   4   0 -10   -1.01    1.08
  -4   0  10    1.12    2.19
   3   0 -10   -0.57    1.44
  -3   0  10    1.15    1.61
  -3   0  10    4.02    2.73
   2   0 -10   33.89    5.52
  -2   0  10   35.16    5.31
  -2   0  10   22.01    4.48
   1   0 -10    0.02    1.44
  -1   0  10    1.02    1.44
  -1   0  10    4.16    2.03
   0   0 -10    5.99    2.75
   0   0 -10    7.82    2.75
   0   0  10    8.44    3.10
   0   0  10    3.14    1.81
  -1   0 -10   20.70    4.37
  -1   0 -10   21.15    4.70
   1   0  10   15.70    3.96
  -2   0 -10   14.82    4.32
  -2   0 -10   21.55    4.75
   2   0  10    6.92    2.99
  -3   0 -10   16.85    4.72
  -3   0 -10   10.29    4.13
   3   0  10   10.53    3.93
  -4   0 -10   -3.06    2.15
  -4   0 -10    3.26    3.22
   4   0  10   -1.80    2.63
  -5   0 -10   -1.35    2.92
  -5   0 -10    3.75    3.26
   5   0  10    0.14    3.15
   7  -1 -10    1.81    3.00
  -7   1  10   -1.64    2.65
   6  -1 -10    3.16    2.83
  -6   1  10    6.71    3.70
   5  -1 -10    0.21    1.96
  -5   1  10   -0.24    2.19
   4  -1 -10   31.61    5.72
  -4   1  10   38.98    5.88
  -4   1  10   37.62    6.80
   3  -1 -10   46.87    6.91
  -3   1  10   44.33    6.19
  -3   1  10   37.33    6.13
   2  -1 -10   86.22    9.88
  -2   1  10   81.09    8.85
  -2   1  10   77.06    8.88
   1  -1 -10    2.73    2.19
  -1   1  10    1.64    1.82
  -1   1  10    0.54    1.26
   0  -1 -10   10.53    3.79
   0   1  10    8.39    3.21
  -1  -1 -10   12.22    4.08
  -1  -1 -10    5.30    2.61
   1   1  10    5.85    2.89
  -2  -1 -10    2.41    2.80
  -2  -1 -10    1.08    2.46
   2   1  10    1.14    2.81
  -3  -1 -10   12.01    4.20
  -3  -1 -10   21.44    5.06
   3   1  10   10.84    3.80
  -4  -1 -10   16.00    5.45
  -4  -1 -10   37.25    7.69
   4   1  10   22.33    6.02
   7  -2 -10   13.27    4.62
  -7   2  10    7.55    3.97
   6  -2 -10    4.04    2.82
  -6   2  10    7.20    3.73
   5  -2 -10   31.40    5.99
  -5   2  10   24.48    4.93
  -5   2  10   29.26    6.17
   4  -2 -10    1.85    2.01
  -4   2  10   -0.46    1.99
  -4   2  10   -0.24    1.92
   3  -2 -10    0.80    1.89
  -3   2  10   -0.19    1.59
  -3   2  10    1.37    1.70
   2  -2 -10   -0.93    1.15
  -2   2  10    4.13    2.19
  -2   2  10   -2.36    1.47
   1  -2 -10   57.84    7.74
  -1   2  10   42.23    6.56
   0  -2 -10   -1.34    1.57
   0   2  10   -0.34    1.66
  -1  -2 -10   10.23    4.30
   1   2  10    3.95    2.68
  -2  -2 -10   12.47    4.67
  -2  -2 -10    8.26    3.66
   2   2  10    3.56    3.41
  -3  -2 -10   57.48    9.18
   3   2  10   40.06    7.67
  -4  -2 -10    1.05    3.24
   4   2  10    1.32    3.67
   4   2  10    6.37    4.29
   8  -3 -10    9.20    4.67
  -8   3  10    8.28    4.49
   7  -3 -10    5.68    3.37
  -7   3  10   -2.03    1.98
   6  -3 -10   10.95    4.20
  -6   3  10   10.07    3.86
  -6   3  10   15.43    4.84
   5  -3 -10    6.50    3.01
  -5   3  10    6.43    3.14
  -5   3  10    3.62    2.65
   4  -3 -10   10.35    3.39
  -4   3  10    6.99    2.91
  -4   3  10   12.98    3.93
   3  -3 -10   10.50    3.57
  -3   3  10    3.10    2.38
  -3   3  10    1.32    1.96
   2  -3 -10   28.34    5.68
  -2   3  10   16.06    3.76
  -2   3  10   23.07    4.86
   1  -3 -10   41.28    6.83
  -1   3  10   38.30    6.22
   0  -3 -10   10.52    3.85
   0   3  10    9.01    3.47
  -1  -3 -10    7.65    3.85
   1   3  10   -2.10    2.15
  -2  -3 -10    2.43    3.59
   2   3  10    9.62    4.05
  -3  -3 -10   -2.64    2.61
   3   3  10    0.13    3.08
   3   3  10   -1.15    3.19
   7  -4 -10   16.33    5.04
  -7   4  10   15.92    4.98
  -7   4  10   11.78    4.76
   6  -4 -10   14.94    4.58
  -6   4  10   17.54    5.19
  -6   4  10   17.92    4.91
   5  -4 -10   10.72    3.81
  -5   4  10   12.44    4.08
  -5   4  10   12.29    4.28
   4  -4 -10   -1.03    1.65
  -4   4  10   -0.79    1.87
   3  -4 -10   11.70    3.45
   3  -4 -10    5.65    3.19
  -3   4  10    7.61    3.36
   2  -4 -10    3.74    3.22
  -2   4  10    2.47    2.37
   1  -4 -10   -1.27    2.19
  -1   4  10    1.25    2.68
   0  -4 -10    7.22    4.07
   0   4  10    4.40    3.09
  -1  -4 -10    8.67    4.24
   1   4  10    1.20    2.86
  -2  -4 -10    0.34    2.53
   2   4  10    1.47    3.00
   7  -5 -10    5.24    3.66
  -7   5  10    2.72    3.24
   6  -5 -10    4.29    2.82
   6  -5 -10    4.23    3.35
  -6   5  10    6.43    3.46
   5  -5 -10    4.22    2.73
   5  -5 -10   -1.11    1.81
  -5   5  10   -1.27    2.48
   4  -5 -10    7.42    3.73
   4  -5 -10   11.92    3.81
  -4   5  10   15.02    4.49
   3  -5 -10   -1.13    2.22
  -3   5  10    0.26    2.39
   2  -5 -10   12.43    4.62
  -2   5  10    5.13    3.18
   1  -5 -10    0.70    2.29
  -1   5  10    2.87    3.01
   0  -5 -10   16.33    5.55
   0   5  10   12.02    4.85
  -1  -5 -10    0.69    3.26
   1   5  10    7.31    4.88
   6  -6 -10    7.02    4.13
  -6   6  10    1.09    3.36
   5  -6 -10   21.88    5.35
   5  -6 -10   20.03    5.31
  -5   6  10   19.01    5.38
   4  -6 -10    0.07    2.80
   4  -6 -10   -1.45    2.50
  -4   6  10   -0.19    2.38
   3  -6 -10   -1.07    2.87
  -3   6  10   -0.38    2.96
   2  -6 -10    1.24    2.85
  -2   6  10    1.78    2.96
   1  -6 -10   -1.47    3.37
  -1   6  10   -1.49    2.86
   5  -7 -10    1.29    3.36
   4  -7 -10    3.62    5.62
  -4   7  10   -1.01    3.03
   0   7 -11    8.69    5.21
   0  -7  11    7.42    4.72
  -1   7 -11   23.47    7.06
   1  -7  11   19.55    5.85
  -2   7 -11    7.88    4.76
   2  -7  11    9.87    4.05
  -3   7 -11    4.12    4.52
   3  -7  11    2.87    2.60
  -4   7 -11    3.71    3.88
   2   6 -11    6.77    4.44
  -2  -6  11    1.68    3.14
   1   6 -11    3.73    3.83
  -1  -6  11   -0.11    2.68
   0   6 -11    4.34    3.94
   0  -6  11    3.06    3.25
  -1   6 -11    1.92    3.47
   1  -6  11   -0.33    2.73
  -2   6 -11    0.95    3.44
   2  -6  11    3.05    2.95
  -3   6 -11    1.31    3.41
   3  -6  11    0.57    2.06
  -4   6 -11   -0.80    3.09
   4  -6  11   -3.72    2.26
  -5   6 -11   -3.26    3.53
   5  -6  11   -1.27    2.72
   3   5 -11   15.84    5.58
   3   5 -11   11.84    4.90
  -3  -5  11    5.58    4.12
   2   5 -11    1.42    3.44
   2   5 -11    3.35    2.92
  -2  -5  11   -1.50    2.20
   1   5 -11   10.38    4.14
  -1  -5  11   21.24    6.25
   0   5 -11    5.33    3.92
   0  -5  11    3.92    2.89
  -1   5 -11    7.43    4.10
   1  -5  11    3.24    2.78
  -2   5 -11   10.41    4.75
   2  -5  11   10.23    3.73
   2  -5  11   15.96    5.62
  -3   5 -11    7.63    4.06
   3  -5  11    7.68    3.49
  -4   5 -11   12.17    5.14
   4  -5  11    5.18    3.32
  -5   5 -11    0.56    3.33
   5  -5  11   -1.50    2.51
   4   4 -11    1.74    2.82
  -4  -4  11    0.96    2.85
   3   4 -11    3.51    3.18
  -3  -4  11    2.18    2.52
   2   4 -11   -1.58    2.38
   2   4 -11    0.34    2.28
  -2  -4  11    1.25    2.69
   1   4 -11    1.92    2.79
   1   4 -11   -1.05    1.73
  -1  -4  11   -1.69    1.76
   0   4 -11    6.60    3.26
   0   4 -11    2.97    2.16
   0  -4  11    1.70    2.35
  -1   4 -11    4.05    3.06
   1  -4  11    3.07    2.36
   1  -4  11    3.35    2.53
  -2   4 -11    1.54    3.15
   2  -4  11    4.87    2.98
   2  -4  11    7.97    3.32
  -3   4 -11   -0.99    2.81
   3  -4  11    0.43    2.36
  -4   4 -11   10.22    4.94
   4  -4  11   20.49    5.44
  -5   4 -11   19.87    6.28
   5  -4  11   27.24    6.30
   5   3 -11    3.80    3.54
  -5  -3  11    4.20    3.64
   4   3 -11    2.30    3.09
  -4  -3  11    1.30    2.57
   3   3 -11    1.56    2.42
  -3  -3  11    0.31    2.29
   2   3 -11    1.42    2.09
  -2  -3  11    1.08    2.76
   1   3 -11   27.88    5.34
   1   3 -11   22.50    4.84
  -1  -3  11   19.46    4.68
   0   3 -11   51.25    7.28
   0   3 -11   51.11    7.08
   0  -3  11   43.35    6.97
   0  -3  11   40.23    5.96
  -1   3 -11  103.57   11.03
  -1   3 -11   80.98    9.19
   1  -3  11   74.48    9.18
   1  -3  11   82.39    9.61
  -2   3 -11   20.92    5.38
   2  -3  11    9.65    3.83
  -3   3 -11   -3.87    2.32
   3  -3  11    3.09    3.09
  -4   3 -11    6.60    4.16
   4  -3  11    8.20    4.14
  -5   3 -11    6.97    3.85
   5  -3  11    5.37    3.76
   6   2 -11   -0.59    2.96
  -6  -2  11    5.21    4.16
   5   2 -11    4.83    3.53
  -5  -2  11    7.21    3.84
   4   2 -11   48.32    7.98
  -4  -2  11   33.00    7.22
   3   2 -11    3.89    2.31
  -3  -2  11    5.80    3.31
   2   2 -11    1.50    1.74
  -2  -2  11    4.18    3.07
   1   2 -11   15.24    4.17
  -1  -2  11   10.11    3.11
  -1  -2  11    6.92    2.96
   0   2 -11   83.09    9.07
   0   2 -11   83.03    9.33
   0  -2  11   58.22    7.65
   0  -2  11   70.73    8.17
  -1   2 -11    0.73    1.79
  -1   2 -11    2.29    2.46
   1  -2  11    5.25    2.56
  -2   2 -11    0.16    2.70
  -2   2 -11    3.18    2.56
   2  -2  11    2.78    2.86
  -3   2 -11   15.34    4.36
  -3   2 -11    9.81    3.34
   3  -2  11   11.20    4.14
  -4   2 -11   -1.16    2.86
   4  -2  11   -0.77    2.52
  -5   2 -11    0.55    3.86
   5  -2  11    2.38    3.46
   6   1 -11    7.31    4.22
  -6  -1  11    2.40    2.83
   5   1 -11   30.36    6.21
  -5  -1  11   11.99    4.55
   4   1 -11    4.44    2.65
  -4  -1  11    7.13    3.36
   3   1 -11    4.13    2.34
  -3  -1  11    1.08    2.34
   2   1 -11    2.32    1.85
  -2  -1  11   -1.28    1.54
  -2  -1  11    2.92    2.08
   1   1 -11    3.51    2.39
  -1  -1  11    4.03    2.48
  -1  -1  11    5.48    2.60
   0   1 -11    0.95    1.95
   0   1 -11    1.82    2.60
   0  -1  11    1.21    1.96
   0  -1  11    0.98    1.52
  -1   1 -11   66.19    8.35
  -1   1 -11   50.35    7.52
   1  -1  11   54.83    7.95
  -2   1 -11   39.43    6.67
  -2   1 -11   31.10    6.01
   2  -1  11   41.18    7.13
  -3   1 -11   41.89    7.14
  -3   1 -11   42.29    7.65
   3  -1  11   23.40    5.92
  -4   1 -11    5.50    3.81
  -4   1 -11    0.97    3.38
   4  -1  11    5.93    4.01
  -5   1 -11   -2.02    3.15
   5  -1  11   -1.02    3.22
   7   0 -11   -2.26    2.85
  -7   0  11   -1.68    2.88
   6   0 -11    2.28    2.80
  -6   0  11    4.68    3.93
   5   0 -11    3.50    2.66
  -5   0  11    5.73    3.48
   4   0 -11   17.05    4.39
  -4   0  11   14.74    4.41
   3   0 -11   34.42    5.84
  -3   0  11   35.54    5.46
  -3   0  11   22.37    5.11
   2   0 -11   23.32    5.07
  -2   0  11   26.31    5.07
  -2   0  11   30.23    5.37
  -1   0  11    6.03    2.35
  -1   0  11    8.47    3.12
   0   0 -11    2.31    2.33
   0   0  11   -0.78    1.87
  -1   0 -11    4.85    2.78
  -1   0 -11    2.26    2.37
   1   0  11    3.45    2.69
  -2   0 -11   45.15    7.14
  -2   0 -11   33.81    6.28
   2   0  11   31.62    6.11
  -3   0 -11    4.56    3.23
  -3   0 -11   -3.41    1.82
   3   0  11    0.80    2.64
  -4   0 -11    5.73    3.54
  -4   0 -11    8.32    4.72
   4   0  11    4.65    3.69
   7  -1 -11   12.01    4.67
  -7   1  11    2.24    3.56
   6  -1 -11   16.50    5.01
  -6   1  11   20.37    5.88
   5  -1 -11    1.23    2.17
  -5   1  11   -0.03    2.27
   4  -1 -11    2.27    2.00
  -4   1  11    6.66    2.90
  -4   1  11   -0.42    1.87
   3  -1 -11   19.94    4.95
  -3   1  11   19.34    4.43
  -3   1  11   20.30    4.23
   2  -1 -11    0.39    1.70
  -2   1  11    1.28    2.17
  -2   1  11    2.10    2.01
   1  -1 -11    0.18    1.81
  -1   1  11    0.00    1.63
   0  -1 -11    0.32    1.79
   0   1  11    0.18    2.09
  -1  -1 -11    2.80    2.84
   1   1  11    2.72    2.71
  -2  -1 -11   -0.03    2.51
  -2  -1 -11    1.44    3.04
   2   1  11    1.56    2.67
  -3  -1 -11   25.29    5.97
  -3  -1 -11   24.07    6.02
   3   1  11   25.77    6.44
  -4  -1 -11    4.84    3.54
  -4  -1 -11    5.83    4.07
   4   1  11    6.31    4.41
   7  -2 -11    2.16    3.13
  -7   2  11   -1.42    2.47
   6  -2 -11    7.67    3.58
  -6   2  11    7.49    4.03
   5  -2 -11    0.27    2.11
  -5   2  11    0.45    2.06
  -5   2  11    1.99    3.00
   4  -2 -11   12.35    4.09
  -4   2  11    7.30    3.05
  -4   2  11   10.00    3.24
   3  -2 -11    1.78    2.15
  -3   2  11    1.17    1.98
  -3   2  11    0.14    1.86
   2  -2 -11   13.35    4.03
  -2   2  11   20.06    4.86
  -2   2  11   13.89    3.45
   1  -2 -11   32.50    6.17
  -1   2  11   22.06    5.04
   0  -2 -11    5.77    3.18
   0   2  11    8.70    3.15
  -1  -2 -11    6.75    3.74
   1   2  11    6.94    3.57
  -2  -2 -11    3.29    3.34
   2   2  11    4.70    3.49
  -3  -2 -11    0.44    2.73
   3   2  11   -0.57    3.27
   7  -3 -11   -2.25    2.20
  -7   3  11    2.26    3.49
   6  -3 -11    4.10    3.25
  -6   3  11   -0.41    2.25
  -6   3  11    6.84    3.60
   5  -3 -11    7.10    3.34
  -5   3  11    3.16    2.67
  -5   3  11    1.13    2.27
   4  -3 -11    2.74    2.43
  -4   3  11   -2.61    1.72
  -4   3  11    0.37    1.93
   3  -3 -11   -1.34    1.45
  -3   3  11   -1.98    1.75
  -3   3  11    4.52    2.31
   2  -3 -11    0.03    2.11
  -2   3  11    4.77    2.78
   1  -3 -11   -0.31    1.98
  -1   3  11    2.12    2.47
   0  -3 -11   -1.68    1.95
   0   3  11   -2.44    2.35
  -1  -3 -11   13.96    4.67
   1   3  11   10.05    4.25
  -2  -3 -11    8.97    4.47
   2   3  11    8.35    3.88
   7  -4 -11    1.64    2.98
  -7   4  11    0.72    3.11
  -7   4  11    6.83    3.96
   6  -4 -11    0.53    2.57
  -6   4  11   -0.49    2.31
  -6   4  11    0.03    2.61
   5  -4 -11    0.45    2.31
  -5   4  11   -1.84    2.17
  -5   4  11   -0.58    2.21
   4  -4 -11    7.21    3.59
  -4   4  11    4.41    3.46
   3  -4 -11   20.20    4.69
   3  -4 -11   22.25    5.55
  -3   4  11    9.02    3.57
   2  -4 -11   36.42    7.03
  -2   4  11   32.39    6.10
   1  -4 -11    1.97    2.97
  -1   4  11    8.68    4.15
   0  -4 -11    1.72    2.51
   0   4  11    3.23    3.15
  -1  -4 -11    4.54    3.91
   1   4  11    4.19    3.87
   7  -5 -11    2.99    3.45
   6  -5 -11    2.02    2.92
   6  -5 -11    3.89    3.28
  -6   5  11    7.42    4.05
   5  -5 -11    2.99    3.03
   5  -5 -11   -1.74    2.59
  -5   5  11    2.94    3.40
   4  -5 -11   10.07    4.28
   4  -5 -11   16.49    4.48
  -4   5  11    5.15    3.29
   3  -5 -11    6.24    3.54
  -3   5  11   12.05    4.28
   2  -5 -11   -2.95    2.13
  -2   5  11   -0.55    2.14
   1  -5 -11    0.35    2.53
  -1   5  11   -1.46    2.82
   0  -5 -11    2.50    3.68
   0   5  11    0.58    3.10
   5  -6 -11    2.67    3.11
   5  -6 -11    3.66    3.59
  -5   6  11    5.57    3.99
   4  -6 -11    2.51    3.54
  -4   6  11   -0.72    2.96
   3  -6 -11    2.28    3.42
  -3   6  11    2.38    3.99
   2  -6 -11   12.31    5.18
  -2   6  11    8.69    4.32
  -2   7 -12    2.92    4.02
   2  -7  12    1.65    3.16
   1   6 -12   12.58    5.55
  -1  -6  12   19.67    6.43
   0   6 -12   23.99    6.41
   0  -6  12   14.28    5.34
  -1   6 -12   -1.76    3.42
   1  -6  12   -0.12    2.70
  -2   6 -12    2.65    3.84
   2  -6  12   -0.10    2.36
  -3   6 -12   14.06    5.21
  -4   6 -12    9.70    5.54
   4  -6  12   16.18    5.33
   3   5 -12    0.61    2.99
  -3  -5  12    7.40    4.18
   2   5 -12    3.09    2.95
   2   5 -12   13.78    4.83
  -2  -5  12    7.14    4.32
   1   5 -12   29.63    6.50
  -1  -5  12   26.39    6.63
   0   5 -12    6.55    3.95
   0  -5  12    4.53    3.48
  -1   5 -12    9.51    4.30
   1  -5  12    3.55    2.78
  -2   5 -12    0.56    3.03
   2  -5  12   -1.38    2.02
  -3   5 -12    0.25    3.59
   3  -5  12    5.33    3.75
  -4   5 -12    0.76    3.75
   4  -5  12   -0.19    2.95
   4   4 -12   -1.07    2.90
  -4  -4  12   -1.88    2.66
   3   4 -12    0.91    2.67
  -3  -4  12    2.95    3.68
   2   4 -12    5.83    3.08
  -2  -4  12    2.28    2.87
   1   4 -12    2.72    2.75
   1   4 -12   -0.25    2.81
  -1  -4  12    5.63    3.72
   0   4 -12   -0.30    3.02
   0  -4  12    1.43    2.59
  -1   4 -12   23.35    5.65
   1  -4  12   17.38    5.26
  -2   4 -12   67.57   10.41
   2  -4  12   50.81    7.96
  -3   4 -12   -0.11    3.40
   3  -4  12   -3.61    2.08
  -4   4 -12    3.23    3.97
   4  -4  12    4.65    3.39
  -5   4 -12    8.01    5.18
   5  -4  12   16.69    5.89
   5   3 -12   -1.38    2.95
  -5  -3  12    2.74    3.22
   4   3 -12    0.52    2.52
  -4  -3  12    3.10    3.42
   3   3 -12    7.34    3.40
  -3  -3  12    5.84    3.93
   2   3 -12    0.66    2.36
  -2  -3  12    1.76    2.87
   1   3 -12   -1.34    1.45
  -1  -3  12    4.33    2.82
   0   3 -12   21.43    4.81
   0   3 -12   30.75    5.94
   0  -3  12   12.83    4.09
  -1   3 -12   21.58    5.69
  -1   3 -12   14.08    3.91
   1  -3  12   10.78    3.66
  -2   3 -12   15.51    5.30
   2  -3  12   14.62    4.43
  -3   3 -12    1.88    3.32
   3  -3  12    1.11    3.04
  -4   3 -12    2.86    3.70
   4  -3  12   -3.22    2.73
  -5   3 -12    7.56    4.87
   5  -3  12   -0.82    3.25
   5   2 -12    6.39    3.99
  -5  -2  12    4.54    3.43
   4   2 -12   26.83    5.79
  -4  -2  12   16.21    5.11
   3   2 -12    3.34    3.02
  -3  -2  12    4.70    3.25
   2   2 -12   12.30    3.99
  -2  -2  12    8.84    3.56
   1   2 -12   -0.21    1.62
  -1  -2  12    0.60    1.79
  -1  -2  12    1.89    2.10
   0   2 -12    4.58    2.66
   0  -2  12    7.46    3.01
   0  -2  12   10.83    3.65
  -1   2 -12   55.45    8.12
  -1   2 -12   60.23    8.42
   1  -2  12   54.87    7.97
  -2   2 -12   -1.54    2.35
  -2   2 -12    1.48    2.28
   2  -2  12    1.43    2.72
  -3   2 -12    9.54    4.21
   3  -2  12    1.81    3.13
  -4   2 -12    4.20    4.36
   4  -2  12    2.72    3.54
   6   1 -12    0.83    2.64
   5   1 -12   -0.94    2.10
  -5  -1  12    1.88    2.82
   4   1 -12   17.19    4.45
  -4  -1  12   15.19    4.93
   3   1 -12   -0.92    1.55
  -3  -1  12   -1.29    2.35
   2   1 -12    3.68    2.70
  -2  -1  12    2.55    2.38
  -2  -1  12    5.29    2.72
   1   1 -12    0.03    1.81
  -1  -1  12    0.96    1.72
  -1  -1  12    3.84    2.52
   0   1 -12   26.99    5.43
   0  -1  12   26.01    5.31
  -1   1 -12    1.33    2.23
   1  -1  12    2.50    2.79
  -2   1 -12   -1.01    2.68
  -2   1 -12   -1.23    1.95
   2  -1  12    2.21    2.90
  -3   1 -12   -1.80    3.14
  -3   1 -12    2.67    3.17
   3  -1  12    0.55    2.62
  -4   1 -12    0.31    3.71
   4  -1  12    2.30    3.26
   6   0 -12    7.58    3.88
  -6   0  12    4.65    3.69
   5   0 -12   19.78    4.91
  -5   0  12   23.18    5.86
   4   0 -12    1.03    2.29
  -4   0  12    5.43    3.35
   3   0 -12    2.13    2.68
  -3   0  12    0.82    2.09
  -3   0  12    1.05    2.01
   2   0 -12    0.71    2.06
  -2   0  12   -0.37    1.47
  -2   0  12    0.03    1.75
   1   0 -12   23.94    5.21
  -1   0  12   18.24    4.30
  -1   0  12    8.77    2.94
   0   0 -12    9.07    3.58
   0   0  12   10.60    3.76
  -1   0 -12   13.39    4.38
   1   0  12   18.94    5.09
  -2   0 -12   25.27    5.26
   2   0  12   26.36    5.90
  -3   0 -12    9.61    4.21
  -3   0 -12    9.72    4.45
   3   0  12    2.10    3.18
  -4   0 -12   -0.33    3.35
  -4   0 -12   -0.81    3.31
   4   0  12    1.64    3.74
   6  -1 -12    3.64    2.67
  -6   1  12   -0.38    3.18
   5  -1 -12    0.11    2.06
  -5   1  12   -0.80    2.20
   4  -1 -12   11.41    4.32
  -4   1  12   17.35    4.27
  -4   1  12   12.69    4.66
   3  -1 -12   21.34    5.17
  -3   1  12   19.27    4.46
  -3   1  12   17.69    4.59
   2  -1 -12    1.04    2.12
  -2   1  12    0.97    1.96
  -2   1  12    3.06    2.59
   1  -1 -12    1.46    2.33
  -1   1  12   -1.34    1.89
   0  -1 -12   17.00    4.58
   0   1  12   27.10    5.73
  -1  -1 -12   13.23    4.49
   1   1  12   11.39    4.62
  -2  -1 -12   31.31    6.86
   2   1  12   12.03    4.61
  -3  -1 -12    1.03    3.23
   3   1  12    1.55    3.36
   7  -2 -12   -2.50    2.30
  -7   2  12    1.73    3.43
   6  -2 -12   -0.25    2.32
  -6   2  12   -2.34    2.51
   5  -2 -12    7.91    4.00
  -5   2  12   15.04    4.91
  -5   2  12   11.52    4.03
   4  -2 -12   36.31    6.76
  -4   2  12   21.88    5.38
  -4   2  12   19.76    4.78
   3  -2 -12   16.76    4.32
  -3   2  12   14.77    4.24
  -3   2  12   27.36    5.70
   2  -2 -12    5.50    2.55
  -2   2  12    3.79    3.16
   1  -2 -12    6.20    3.53
  -1   2  12    2.49    3.06
   0  -2 -12    2.09    2.64
   0   2  12   10.94    3.94
  -1  -2 -12    5.49    4.20
   1   2  12   12.15    4.30
  -2  -2 -12   12.76    5.11
   2   2  12    3.86    4.01
   7  -3 -12    1.26    3.07
  -7   3  12   -0.86    2.83
   6  -3 -12   -2.39    2.01
  -6   3  12   -1.55    2.38
  -6   3  12    1.67    2.79
   5  -3 -12    4.98    3.31
  -5   3  12    3.64    2.87
  -5   3  12   13.88    4.46
   4  -3 -12    8.27    3.53
  -4   3  12    2.49    2.30
  -4   3  12   -0.76    1.92
   3  -3 -12    2.02    2.78
  -3   3  12    5.81    3.73
  -3   3  12    1.88    2.04
   2  -3 -12   19.88    6.13
  -2   3  12   15.99    4.99
   1  -3 -12   14.66    4.51
  -1   3  12   17.71    4.97
   0  -3 -12    5.59    3.43
   0   3  12    2.20    3.30
  -1  -3 -12    2.64    3.37
   1   3  12    6.43    4.20
   6  -4 -12    8.81    3.67
  -6   4  12    1.85    3.31
  -6   4  12    5.65    3.54
   5  -4 -12    2.49    2.84
  -5   4  12    0.02    2.15
  -5   4  12   -2.10    2.38
   4  -4 -12    2.12    2.68
  -4   4  12   -0.26    2.70
   3  -4 -12   22.87    6.20
  -3   4  12   16.69    4.84
   2  -4 -12    8.95    4.35
  -2   4  12    3.33    2.87
   1  -4 -12    1.40    3.26
  -1   4  12    1.30    2.95
   0  -4 -12   -1.81    3.12
   0   4  12    3.43    3.91
   6  -5 -12   -1.60    2.64
   6  -5 -12   -2.63    2.81
   5  -5 -12    5.92    3.85
   5  -5 -12   -0.99    2.82
  -5   5  12   -2.57    2.64
   4  -5 -12    3.63    3.11
  -4   5  12   -0.38    2.75
   3  -5 -12   -2.35    2.75
  -3   5  12   -1.23    2.70
   2  -5 -12    1.86    3.60
  -2   5  12   -0.07    2.89
   1  -5 -12    4.74    4.16
  -1   5  12   -0.45    3.13
   0   6 -13    2.08    4.32
   0  -6  13    2.99    3.59
  -1   6 -13   12.41    5.22
   1  -6  13    2.24    3.04
  -2   6 -13    5.87    4.50
   2  -6  13    4.67    3.47
  -2  -5  13    1.42    3.39
  -1  -5  13    0.88    2.82
   0   5 -13    6.07    4.39
   0  -5  13    1.59    2.95
  -1   5 -13    6.27    4.56
   1  -5  13    1.47    2.82
  -2   5 -13    4.46    4.06
  -3   5 -13    4.38    4.50
   3  -5  13    8.95    4.25
   3   4 -13    8.68    4.30
  -3  -4  13    5.19    4.47
   2   4 -13    6.27    3.39
  -2  -4  13    5.23    3.71
   1   4 -13   22.10    5.24
  -1  -4  13   16.98    5.14
   0   4 -13    4.75    3.67
   0  -4  13    2.64    2.51
  -1   4 -13    7.53    4.03
   1  -4  13    3.04    3.16
  -2   4 -13    2.52    3.96
   2  -4  13    0.67    2.83
  -3   4 -13   -0.17    3.71
   3  -4  13    0.10    3.28
  -4   4 -13   10.20    5.37
   4  -4  13   13.70    5.17
   4   3 -13    3.44    3.16
  -4  -3  13   -1.61    3.17
   3   3 -13   -0.80    2.32
  -3  -3  13    2.04    3.12
   2   3 -13    1.69    2.27
  -2  -3  13    1.59    2.66
   1   3 -13    0.10    1.93
  -1  -3  13    1.91    2.61
   0   3 -13   10.32    3.38
   0  -3  13    4.27    2.77
  -1   3 -13   11.19    4.60
   1  -3  13   10.25    3.70
  -2   3 -13    3.29    3.29
   2  -3  13    0.36    3.35
  -3   3 -13    3.77    4.36
   3  -3  13    4.04    4.14
  -4   3 -13   37.39    8.42
   4  -3  13   20.22    6.33
   5   2 -13    2.56    3.16
  -5  -2  13    1.17    3.43
   4   2 -13    4.67    3.63
  -4  -2  13    8.40    4.68
   3   2 -13    9.50    4.09
  -3  -2  13    4.01    3.38
   2   2 -13    8.63    3.71
  -2  -2  13    7.40    3.62
   1   2 -13   19.96    5.13
  -1  -2  13   14.80    4.52
   0   2 -13   92.41   11.03
   0  -2  13   97.43   11.30
  -1   2 -13   17.79    4.59
   1  -2  13   11.25    4.49
  -2   2 -13   -1.63    1.94
  -2   2 -13    3.15    3.40
   2  -2  13    3.35    3.41
  -3   2 -13    3.11    3.52
   3  -2  13   -2.07    2.85
  -4   2 -13   13.19    5.72
   4  -2  13    1.88    4.01
   5   1 -13   31.81    6.92
  -5  -1  13   21.51    6.31
   4   1 -13   24.57    5.82
  -4  -1  13   27.75    6.76
   3   1 -13    0.29    2.08
  -3  -1  13   -0.81    2.12
   2   1 -13    8.06    3.41
  -2  -1  13    1.20    2.31
   1   1 -13    4.61    3.02
  -1  -1  13    5.26    3.09
  -1  -1  13    6.85    3.09
   0   1 -13    6.05    2.74
   0  -1  13    8.20    3.66
  -1   1 -13    9.84    3.68
   1  -1  13    4.54    3.60
  -2   1 -13    1.32    2.89
   2  -1  13    1.97    3.19
  -3   1 -13    3.91    3.63
  -3   1 -13   -2.48    3.54
   3  -1  13    1.88    3.61
   6   0 -13    2.06    3.23
  -6   0  13    0.78    3.09
   5   0 -13    6.48    3.35
  -5   0  13   12.91    5.19
   4   0 -13    0.05    1.82
  -4   0  13    2.64    2.84
   3   0 -13    2.19    2.11
  -3   0  13   -0.67    1.99
  -3   0  13    1.95    3.67
   2   0 -13    1.26    2.17
  -2   0  13    0.38    2.29
  -2   0  13    1.06    2.22
   1   0 -13   -0.80    1.78
  -1   0  13   -0.59    2.38
   0   0 -13    9.32    3.77
   0   0  13    2.82    2.68
  -1   0 -13   10.41    4.37
   1   0  13    4.52    3.58
  -2   0 -13   12.59    4.07
   2   0  13   19.73    6.17
  -3   0 -13    0.24    3.66
   3   0  13    3.61    4.12
   6  -1 -13    2.16    2.80
  -6   1  13    3.15    3.89
   5  -1 -13    4.18    3.37
  -5   1  13    7.96    4.50
   4  -1 -13    1.96    2.04
  -4   1  13    5.76    3.48
  -4   1  13    4.26    2.93
   3  -1 -13   10.09    4.09
  -3   1  13    1.93    2.51
  -3   1  13    4.50    3.01
   2  -1 -13   -0.56    2.14
  -2   1  13   -0.61    2.59
   1  -1 -13    4.69    3.33
  -1   1  13    7.36    3.39
   0  -1 -13   -1.47    1.98
   0   1  13   -0.49    2.55
  -1  -1 -13    3.31    3.42
   1   1  13   -0.34    2.53
  -2  -1 -13    6.77    4.28
   2   1  13   -2.40    2.72
   6  -2 -13   -1.01    2.95
  -6   2  13    5.59    4.42
   5  -2 -13    2.06    2.94
  -5   2  13    0.87    2.42
  -5   2  13   -0.87    2.55
   4  -2 -13    1.26    2.21
  -4   2  13   -1.43    2.09
  -4   2  13    4.16    3.16
   3  -2 -13    3.15    2.86
  -3   2  13    2.56    2.62
  -3   2  13    4.02    2.91
   2  -2 -13    3.85    3.20
  -2   2  13   -1.36    2.38
   1  -2 -13   -2.26    1.75
  -1   2  13   -2.88    2.51
   0  -2 -13   14.89    5.79
   0   2  13    8.74    3.97
  -1  -2 -13   -1.27    2.64
   1   2  13    3.73    3.16
   6  -3 -13    2.72    3.15
  -6   3  13   -1.08    2.93
  -6   3  13    0.09    2.84
   5  -3 -13   10.27    4.06
  -5   3  13    7.87    3.81
  -5   3  13   10.06    4.19
   4  -3 -13   12.69    4.73
  -4   3  13    6.02    3.52
  -4   3  13    6.03    3.40
   3  -3 -13   16.41    5.30
  -3   3  13    6.34    3.66
   2  -3 -13    1.58    2.89
  -2   3  13   -1.47    2.30
   1  -3 -13    3.05    3.14
  -1   3  13   -0.43    3.29
   0  -3 -13    2.01    2.82
   0   3  13   -2.60    2.75
   5  -4 -13    1.95    3.22
  -5   4  13   -1.54    2.55
  -5   4  13   -0.52    2.54
   4  -4 -13    2.94    3.15
  -4   4  13    0.90    2.88
   3  -4 -13   -1.53    2.57
  -3   4  13   -0.70    2.78
   2  -4 -13   18.85    5.96
  -2   4  13   23.37    5.86
   1  -4 -13    0.63    3.35
  -1   4  13   -0.43    2.63
   0  -5  14    0.11    2.73
  -1   5 -14    3.63    3.91
   1  -5  14   -0.63    4.98
  -2   5 -14    5.43    4.97
   2   4 -14    1.82    2.67
  -2  -4  14    3.31    3.64
  -1  -4  14    9.57    4.24
   0  -4  14    0.40    2.42
  -2   4 -14   -0.40    3.77
   2  -4  14   -2.26    2.69
  -3   4 -14   -0.26    4.33
   3  -4  14    4.58    4.20
   3   3 -14   -3.76    2.22
  -3  -3  14   -2.00    2.70
   2   3 -14   -0.90    2.52
  -2  -3  14    0.05    2.58
   1   3 -14    5.56    3.34
  -1  -3  14    3.82    3.42
   0   3 -14    0.26    2.27
   1  -3  14   11.03    4.24
   2  -3  14    3.76    3.40
  -3   3 -14    4.92    4.65
   3  -3  14    3.22    3.36
   4   2 -14    3.98    3.51
  -4  -2  14    5.24    4.33
   3   2 -14    1.80    2.95
  -3  -2  14    0.84    2.73
   2   2 -14    2.80    3.00
  -2  -2  14   -0.49    2.21
   1   2 -14    2.95    2.71
  -1  -2  14   -4.03    1.79
   0   2 -14    6.89    3.38
   0  -2  14    2.97    3.13
  -1   2 -14   -1.15    2.42
   1  -2  14    0.61    2.77
   2  -2  14    7.55    4.26
   3  -2  14    5.48    4.33
  -5  -1  14    1.75    3.95
   4   1 -14   -2.82    2.11
  -4  -1  14    3.00    3.30
   3   1 -14    4.24    3.07
  -3  -1  14   -1.44    1.82
   2   1 -14   39.39    6.98
  -2  -1  14   15.58    4.65
   1   1 -14    8.31    3.94
  -1  -1  14   11.77    4.31
   0   1 -14   31.19    6.61
   0  -1  14   25.45    5.72
  -1   1 -14    7.43    3.53
   1  -1  14    6.09    3.66
  -2   1 -14    0.77    2.98
   2  -1  14   -0.19    3.08
   5   0 -14    6.55    3.87
  -5   0  14    2.84    3.80
   4   0 -14    3.98    3.20
  -4   0  14    2.92    3.43
   3   0 -14    1.68    2.39
  -3   0  14    3.70    3.16
   2   0 -14   10.27    4.11
  -2   0  14    7.48    3.42
  -2   0  14    3.51    4.37
   1   0 -14   10.69    4.37
  -1   0  14   12.83    4.33
   0   0 -14    8.96    4.29
   0   0  14    1.36    2.58
  -1   0 -14    2.82    3.73
   1   0  14   -0.31    3.20
  -2   0 -14   10.68    5.06
   2   0  14   12.01    5.25
   5  -1 -14   -0.17    2.18
  -5   1  14   -1.70    2.50
   4  -1 -14    1.33    2.46
  -4   1  14    1.83    3.08
   3  -1 -14    1.45    2.59
  -3   1  14    6.53    3.28
  -3   1  14    4.67    3.28
   2  -1 -14    0.91    2.58
  -2   1  14   -0.55    2.82
   1  -1 -14    5.93    3.40
  -1   1  14    7.16    3.64
   0  -1 -14   27.99    6.64
   0   1  14   33.15    7.03
  -1  -1 -14   19.73    5.80
   1   1  14   13.37    5.29
   5  -2 -14    2.49    3.35
  -5   2  14    4.42    3.22
   4  -2 -14   13.79    4.99
  -4   2  14    9.65    4.14
  -4   2  14    5.73    3.58
   3  -2 -14   10.20    4.11
  -3   2  14    7.96    4.03
   2  -2 -14   -2.04    2.16
  -2   2  14    5.48    3.94
   1  -2 -14    6.72    3.74
  -1   2  14    4.36    3.55
   0  -2 -14    9.55    4.41
   0   2  14    8.70    4.11
   5  -3 -14    4.01    3.80
  -5   3  14    8.03    3.92
  -5   3  14    5.31    3.50
   4  -3 -14   10.34    4.27
  -4   3  14   13.34    4.68
   3  -3 -14    0.59    3.06
  -3   3  14    2.59    3.32
   2  -3 -14   -0.28    2.27
  -2   3  14    2.56    3.00
   1  -3 -14    0.48    2.71
  -1   3  14   -2.01    3.02
   2   3 -15   36.65    7.58
  -2  -3  15   25.99    6.64
  -1  -3  15    0.06    2.66
   1  -3  15   -2.51    3.44
   3   2 -15   -0.74    2.50
  -3  -2  15    2.18    3.55
   2   2 -15   -0.71    2.35
  -2  -2  15    0.79    2.75
   1   2 -15    8.12    4.07
   0   2 -15   -1.57    2.33
   0  -2  15    4.98    3.40
  -1   2 -15    1.86    3.14
   1  -2  15    4.60    3.66
   3   1 -15    2.94    3.08
  -3  -1  15    0.63    2.67
   2   1 -15    4.07    3.29
  -2  -1  15    1.20    3.11
   1   1 -15    6.75    3.64
  -1  -1  15    2.91    2.96
   0   1 -15   29.79    6.48
   0  -1  15   12.53    4.72
  -1   1 -15    4.18    3.85
   1  -1  15    4.03    4.09
   4   0 -15    2.29    3.34
  -4   0  15    5.25    3.82
   3   0 -15    0.90    2.82
  -3   0  15    0.90    2.87
   2   0 -15    1.82    2.70
  -2   0  15   -0.65    2.74
   1   0 -15    3.20    3.48
  -1   0  15    3.48    3.80
   0   0 -15    1.48    2.91
   0   0  15    1.94    3.11
  -1   0 -15    4.28    3.70
   1   0  15    0.31    3.22
   4  -1 -15    0.24    3.08
  -4   1  15   -0.71    2.78
   3  -1 -15   -0.51    2.40
  -3   1  15    1.12    2.60
   2  -1 -15   -0.24    2.84
  -2   1  15    4.03    3.54
   1  -1 -15   15.40    5.28
  -1   1  15   -0.46    3.58
   0  -1 -15    2.69    3.15
   0   1  15    2.60    3.40
  -4   2  15    0.84    2.87
   3  -2 -15    5.83    3.82
  -3   2  15    1.68    3.08
   2  -2 -15    3.53    3.75
  -2   2  15    8.59    4.54
   1  -2 -15    6.44    4.29
  -1   2  15    6.44    4.51
   0   0   0    0.00    0.00
;
_shelx_hkl_checksum              25501
loop_
_space_group_symop_operation_xyz
'x, y, z'
'-x, -y, -z'
loop_
_atom_site_label
_atom_site_type_symbol
_atom_site_fract_x
_atom_site_fract_y
_atom_site_fract_z
_atom_site_U_iso_or_equiv
_atom_site_adp_type
_atom_site_occupancy
_atom_site_site_symmetry_order
_atom_site_calc_flag
_atom_site_refinement_flags_posn
_atom_site_refinement_flags_adp
_atom_site_refinement_flags_occupancy
_atom_site_disorder_assembly
_atom_site_disorder_group
S1 S 0.3717(2) -0.0625(2) 0.79646(13) 0.0357(5) Uani 1 1 d . . . . .
S2 S 0.4699(2) 0.2666(2) 0.61992(11) 0.0308(4) Uani 1 1 d . . . . .
Al1 Al 0.6479(2) 0.2065(2) 0.76583(12) 0.0211(4) Uani 1 1 d . . . . .
C4 C 1.0813(8) 0.3668(8) 0.7681(4) 0.0297(14) Uani 1 1 d . . . . .
H4A H 1.1199 0.4971 0.8086 0.036 Uiso 1 1 calc R U . . .
H4B H 1.1964 0.3744 0.7333 0.036 Uiso 1 1 calc R U . . .
C2 C 0.9122(9) -0.0073(8) 0.6411(4) 0.0372(15) Uani 1 1 d . . . . .
H2 H 1.0018 -0.0522 0.6152 0.045 Uiso 1 1 calc R U . . .
C3 C 0.8727(8) 0.1491(7) 0.5981(4) 0.0299(14) Uani 1 1 d . . . . .
H3A H 0.7322 0.0901 0.5531 0.036 Uiso 1 1 calc R U . . .
H3B H 0.9707 0.2092 0.5503 0.036 Uiso 1 1 calc R U . . .
C1 C 0.7996(8) -0.0874(8) 0.7283(4) 0.0379(15) Uani 1 1 d . . . . .
H1A H 0.6519 -0.1666 0.6957 0.045 Uiso 1 1 calc R U . . .
H1B H 0.8511 -0.1745 0.7602 0.045 Uiso 1 1 calc R U . . .
N2 N 0.8919(6) 0.3046(5) 0.6840(3) 0.0203(10) Uani 1 1 d . . . . .
C10 C 0.7407(8) 0.4205(7) 0.8883(4) 0.0288(13) Uani 1 1 d . . . . .
H10A H 0.7951 0.3848 0.9540 0.043 Uiso 1 1 calc R U . . .
H10B H 0.6243 0.4448 0.9003 0.043 Uiso 1 1 calc R U . . .
H10C H 0.8487 0.5384 0.8715 0.043 Uiso 1 1 calc R U . . .
C7 C 0.5147(8) -0.1643(8) 0.8786(5) 0.0359(15) Uani 1 1 d . . . . .
H7A H 0.4589 -0.1941 0.9454 0.043 Uiso 1 1 calc R U . . .
H7B H 0.4956 -0.2877 0.8373 0.043 Uiso 1 1 calc R U . . .
C8 C 0.8895(8) 0.4722(7) 0.6345(4) 0.0299(14) Uani 1 1 d . . . . .
H8A H 1.0025 0.5228 0.5939 0.036 Uiso 1 1 calc R U . . .
H8B H 0.9109 0.5779 0.6923 0.036 Uiso 1 1 calc R U . . .
C9 C 0.6835(8) 0.4076(8) 0.5576(4) 0.0318(14) Uani 1 1 d . . . . .
H9A H 0.6785 0.3282 0.4904 0.038 Uiso 1 1 calc R U . . .
H9B H 0.6708 0.5236 0.5373 0.038 Uiso 1 1 calc R U . . .
C6 C 0.7414(9) -0.0270(8) 0.9096(5) 0.0397(16) Uani 1 1 d . . . . .
H6A H 0.7650 0.0767 0.9693 0.048 Uiso 1 1 calc R U . . .
H6B H 0.8175 -0.0989 0.9362 0.048 Uiso 1 1 calc R U . . .
C5 C 1.0380(8) 0.2140(8) 0.8483(4) 0.0355(15) Uani 1 1 d . . . . .
H5A H 1.1317 0.1530 0.8461 0.043 Uiso 1 1 calc R U . . .
H5B H 1.0628 0.2797 0.9235 0.043 Uiso 1 1 calc R U . . .
N1 N 0.8208(6) 0.0627(6) 0.8153(3) 0.0262(11) Uani 1 1 d . . . . .
loop_
_atom_site_aniso_label
_atom_site_aniso_U_11
_atom_site_aniso_U_22
_atom_site_aniso_U_33
_atom_site_aniso_U_23
_atom_site_aniso_U_13
_atom_site_aniso_U_12
S1 0.0255(8) 0.0362(9) 0.0509(10) 0.0152(8) 0.0027(7) 0.0190(7)
S2 0.0240(8) 0.0465(10) 0.0296(9) 0.0149(7) 0.0013(7) 0.0225(8)
Al1 0.0212(9) 0.0271(9) 0.0224(9) 0.0058(7) 0.0014(7) 0.0180(8)
C4 0.021(3) 0.042(4) 0.025(3) 0.001(3) 0.001(3) 0.016(3)
C2 0.049(4) 0.046(4) 0.038(4) 0.015(3) 0.014(3) 0.038(3)
C3 0.033(3) 0.034(3) 0.026(3) 0.004(3) 0.004(3) 0.019(3)
C1 0.036(4) 0.033(4) 0.045(4) -0.005(3) -0.009(3) 0.023(3)
N2 0.021(2) 0.023(2) 0.018(2) 0.003(2) -0.0029(19) 0.013(2)
C10 0.027(3) 0.038(3) 0.032(3) 0.009(3) 0.003(3) 0.025(3)
C7 0.036(4) 0.040(4) 0.041(4) 0.017(3) 0.009(3) 0.024(3)
C8 0.027(3) 0.036(4) 0.036(3) 0.015(3) 0.005(3) 0.022(3)
C9 0.034(3) 0.040(4) 0.035(3) 0.017(3) 0.003(3) 0.028(3)
C6 0.041(4) 0.042(4) 0.048(4) 0.013(3) 0.004(3) 0.030(3)
C5 0.037(4) 0.051(4) 0.027(3) -0.008(3) -0.013(3) 0.036(3)
N1 0.027(3) 0.028(3) 0.032(3) 0.013(2) 0.009(2) 0.018(2)
loop_
_atom_type_symbol
_atom_type_description
_atom_type_scat_dispersion_real
_atom_type_scat_dispersion_imag
_atom_type_scat_source
C C 0.0033 0.0016 'International Tables Vol C Tables 4.2.6.8 and 6.1.1.4'
H H 0.0000 0.0000 'International Tables Vol C Tables 4.2.6.8 and 6.1.1.4'
N N 0.0061 0.0033 'International Tables Vol C Tables 4.2.6.8 and 6.1.1.4'
Al Al 0.0645 0.0514 'International Tables Vol C Tables 4.2.6.8 and 6.1.1.4'
S S 0.1246 0.1234 'International Tables Vol C Tables 4.2.6.8 and 6.1.1.4'
loop_
_geom_angle_atom_site_label_1
_geom_angle_atom_site_label_2
_geom_angle_atom_site_label_3
_geom_angle
_geom_angle_site_symmetry_1
_geom_angle_site_symmetry_3
C7 S1 Al1 98.15(19) . .
C9 S2 Al1 99.04(17) . .
C10 Al1 N2 102.2(2) . .
C10 Al1 N1 102.2(2) . .
N2 Al1 N1 74.85(17) . .
C10 Al1 S2 109.41(16) . .
N2 Al1 S2 85.21(12) . .
N1 Al1 S2 145.51(15) . .
C10 Al1 S1 109.84(17) . .
N2 Al1 S1 145.26(13) . .
N1 Al1 S1 85.40(14) . .
S2 Al1 S1 96.23(8) . .
N2 C4 C5 108.6(4) . .
N2 C4 H4A 110.0 . .
C5 C4 H4A 110.0 . .
N2 C4 H4B 110.0 . .
C5 C4 H4B 110.0 . .
H4A C4 H4B 108.3 . .
C3 C2 C1 114.2(5) . .
C3 C2 H2 122.9 . .
C1 C2 H2 122.9 . .
C2 C3 N2 114.0(4) . .
C2 C3 H3A 108.8 . .
N2 C3 H3A 108.8 . .
C2 C3 H3B 108.8 . .
N2 C3 H3B 108.8 . .
H3A C3 H3B 107.7 . .
N1 C1 C2 113.5(5) . .
N1 C1 H1A 108.9 . .
C2 C1 H1A 108.9 . .
N1 C1 H1B 108.9 . .
C2 C1 H1B 108.9 . .
H1A C1 H1B 107.7 . .
C3 N2 C4 110.7(4) . .
C3 N2 C8 110.2(4) . .
C4 N2 C8 111.2(4) . .
C3 N2 Al1 111.7(3) . .
C4 N2 Al1 105.9(3) . .
C8 N2 Al1 106.9(3) . .
Al1 C10 H10A 109.5 . .
Al1 C10 H10B 109.5 . .
H10A C10 H10B 109.5 . .
Al1 C10 H10C 109.5 . .
H10A C10 H10C 109.5 . .
H10B C10 H10C 109.5 . .
C6 C7 S1 112.1(4) . .
C6 C7 H7A 109.2 . .
S1 C7 H7A 109.2 . .
C6 C7 H7B 109.2 . .
S1 C7 H7B 109.2 . .
H7A C7 H7B 107.9 . .
N2 C8 C9 109.8(4) . .
N2 C8 H8A 109.7 . .
C9 C8 H8A 109.7 . .
N2 C8 H8B 109.7 . .
C9 C8 H8B 109.7 . .
H8A C8 H8B 108.2 . .
C8 C9 S2 111.4(4) . .
C8 C9 H9A 109.4 . .
S2 C9 H9A 109.4 . .
C8 C9 H9B 109.4 . .
S2 C9 H9B 109.4 . .
H9A C9 H9B 108.0 . .
N1 C6 C7 111.2(5) . .
N1 C6 H6A 109.4 . .
C7 C6 H6A 109.4 . .
N1 C6 H6B 109.4 . .
C7 C6 H6B 109.4 . .
H6A C6 H6B 108.0 . .
N1 C5 C4 109.0(4) . .
N1 C5 H5A 109.9 . .
C4 C5 H5A 109.9 . .
N1 C5 H5B 109.9 . .
C4 C5 H5B 109.9 . .
H5A C5 H5B 108.3 . .
C1 N1 C5 110.8(4) . .
C1 N1 C6 110.4(4) . .
C5 N1 C6 111.3(4) . .
C1 N1 Al1 111.9(3) . .
C5 N1 Al1 106.5(3) . .
C6 N1 Al1 105.9(3) . .
loop_
_geom_bond_atom_site_label_1
_geom_bond_atom_site_label_2
_geom_bond_distance
_geom_bond_site_symmetry_2
S1 C7 1.826(5) .
S1 Al1 2.303(2) .
S2 C9 1.813(5) .
S2 Al1 2.300(2) .
Al1 C10 1.970(5) .
Al1 N2 2.084(4) .
Al1 N1 2.085(4) .
C4 N2 1.487(6) .
C4 C5 1.575(7) .
C4 H4A 0.9900 .
C4 H4B 0.9900 .
C2 C3 1.484(7) .
C2 C1 1.484(7) .
C2 H2 0.9500 .
C3 N2 1.493(6) .
C3 H3A 0.9900 .
C3 H3B 0.9900 .
C1 N1 1.468(6) .
C1 H1A 0.9900 .
C1 H1B 0.9900 .
N2 C8 1.488(6) .
C10 H10A 0.9800 .
C10 H10B 0.9800 .
C10 H10C 0.9800 .
C7 C6 1.508(7) .
C7 H7A 0.9900 .
C7 H7B 0.9900 .
C8 C9 1.527(6) .
C8 H8A 0.9900 .
C8 H8B 0.9900 .
C9 H9A 0.9900 .
C9 H9B 0.9900 .
C6 N1 1.490(6) .
C6 H6A 0.9900 .
C6 H6B 0.9900 .
C5 N1 1.486(6) .
C5 H5A 0.9900 .
C5 H5B 0.9900 .
loop_
_geom_torsion_atom_site_label_1
_geom_torsion_atom_site_label_2
_geom_torsion_atom_site_label_3
_geom_torsion_atom_site_label_4
_geom_torsion
_geom_torsion_site_symmetry_1
_geom_torsion_site_symmetry_2
_geom_torsion_site_symmetry_3
_geom_torsion_site_symmetry_4
C1 C2 C3 N2 48.8(6) . . . .
C3 C2 C1 N1 -49.6(6) . . . .
C2 C3 N2 C4 45.8(6) . . . .
C2 C3 N2 C8 169.3(4) . . . .
C2 C3 N2 Al1 -72.0(5) . . . .
C5 C4 N2 C3 -79.9(5) . . . .
C5 C4 N2 C8 157.1(4) . . . .
C5 C4 N2 Al1 41.3(4) . . . .
Al1 S1 C7 C6 9.2(4) . . . .
C3 N2 C8 C9 62.9(5) . . . .
C4 N2 C8 C9 -174.0(4) . . . .
Al1 N2 C8 C9 -58.7(4) . . . .
N2 C8 C9 S2 47.0(5) . . . .
Al1 S2 C9 C8 -13.6(4) . . . .
S1 C7 C6 N1 -44.0(6) . . . .
N2 C4 C5 N1 -1.9(5) . . . .
C2 C1 N1 C5 -44.7(6) . . . .
C2 C1 N1 C6 -168.5(4) . . . .
C2 C1 N1 Al1 74.0(5) . . . .
C4 C5 N1 C1 83.5(5) . . . .
C4 C5 N1 C6 -153.3(4) . . . .
C4 C5 N1 Al1 -38.4(4) . . . .
C7 C6 N1 C1 -62.7(6) . . . .
C7 C6 N1 C5 173.8(4) . . . .
C7 C6 N1 Al1 58.5(5) . . . .
