#------------------------------------------------------------------------------
#$Date: 2019-12-06 11:37:00 +0200 (Fri, 06 Dec 2019) $
#$Revision: 244931 $
#$URL: file:///home/coder/svn-repositories/cod/cif/1/55/64/1556434.cif $
#------------------------------------------------------------------------------
#
# This file is available in the Crystallography Open Database (COD),
# http://www.crystallography.net/
#
# All data on this site have been placed in the public domain by the
# contributors.
#
data_1556434
loop_
_publ_author_name
'Yang, X.'
'Lunsford, A.'
'Darensbourg, M.Y.'
_publ_section_title
;
 Connecting Main-Group Metals (Al, Ga, In) and Tungsten(0) Carbonyls via
 the N2S2 Metallo-Ligand Strategy
;
_journal_name_full               Inorganics
_journal_page_first              115
_journal_paper_doi               10.3390/inorganics7090115
_journal_volume                  7
_journal_year                    2019
_chemical_formula_moiety         'C9 H18 Cl Ga N2 S2'
_chemical_formula_sum            'C9 H18 Cl Ga N2 S2'
_chemical_formula_weight         323.54
_space_group_crystal_system      triclinic
_space_group_IT_number           2
_space_group_name_Hall           '-P 1'
_space_group_name_H-M_alt        'P -1'
_atom_sites_solution_hydrogens   geom
_atom_sites_solution_primary     dual
_cell_angle_alpha                94.557(2)
_cell_angle_beta                 98.228(2)
_cell_angle_gamma                114.796(2)
_cell_formula_units_Z            2
_cell_length_a                   7.3341(5)
_cell_length_b                   7.6637(5)
_cell_length_c                   12.6658(9)
_cell_measurement_reflns_used    9382
_cell_measurement_temperature    100
_cell_measurement_theta_max      61.26
_cell_measurement_theta_min      3.57
_cell_volume                     631.86(8)
_computing_cell_refinement       'SAINT V8.32B (?, 2016)'
_computing_data_reduction        'SAINT V8.32B (?, 2016)'
_computing_molecular_graphics    'Olex2 (Dolomanov et al., 2009)'
_computing_publication_material  'Olex2 (Dolomanov et al., 2009)'
_computing_structure_refinement  'ShelXL (Sheldrick, 2015)'
_computing_structure_solution    'ShelXT (Sheldrick, 2015)'
_diffrn_ambient_temperature      100
_diffrn_detector                 'Bruker CMOS area detector'
_diffrn_detector_area_resol_mean 10.5
_diffrn_detector_type            'CMOS area detector'
_diffrn_measured_fraction_theta_full 0.949
_diffrn_measured_fraction_theta_max 0.949
_diffrn_measurement_device       'three-circle diffractometer'
_diffrn_measurement_device_type  'Bruker Micro-Source CMOS'
_diffrn_measurement_method       '\f and \w scans'
_diffrn_radiation_monochromator  'mirror optics'
_diffrn_radiation_probe          x-ray
_diffrn_radiation_type           CuK\a
_diffrn_radiation_wavelength     1.54178
_diffrn_reflns_av_R_equivalents  0.0270
_diffrn_reflns_av_unetI/netI     0.0232
_diffrn_reflns_Laue_measured_fraction_full 0.949
_diffrn_reflns_Laue_measured_fraction_max 0.949
_diffrn_reflns_limit_h_max       8
_diffrn_reflns_limit_h_min       -8
_diffrn_reflns_limit_k_max       8
_diffrn_reflns_limit_k_min       -8
_diffrn_reflns_limit_l_max       14
_diffrn_reflns_limit_l_min       -14
_diffrn_reflns_number            11060
_diffrn_reflns_point_group_measured_fraction_full 0.949
_diffrn_reflns_point_group_measured_fraction_max 0.949
_diffrn_reflns_theta_full        61.257
_diffrn_reflns_theta_max         61.257
_diffrn_reflns_theta_min         3.569
_diffrn_source                   'microfocus sealed X-ray tube'
_diffrn_source_target            Mo
_diffrn_source_type              'Incoatec I\ms'
_diffrn_standards_number         0
_exptl_absorpt_coefficient_mu    7.767
_exptl_absorpt_correction_T_max  0.1560
_exptl_absorpt_correction_T_min  0.0487
_exptl_absorpt_correction_type   multi-scan
_exptl_crystal_colour            yellow
_exptl_crystal_colour_primary    yellow
_exptl_crystal_density_diffrn    1.701
_exptl_crystal_description       needle
_exptl_crystal_F_000             332
_exptl_crystal_size_max          0.1
_exptl_crystal_size_mid          0.01
_exptl_crystal_size_min          0.01
_refine_diff_density_max         1.417
_refine_diff_density_min         -0.507
_refine_diff_density_rms         0.144
_refine_ls_extinction_coef       .
_refine_ls_extinction_method     none
_refine_ls_goodness_of_fit_ref   1.040
_refine_ls_hydrogen_treatment    constr
_refine_ls_matrix_type           full
_refine_ls_number_parameters     136
_refine_ls_number_reflns         1862
_refine_ls_number_restraints     0
_refine_ls_restrained_S_all      1.040
_refine_ls_R_factor_all          0.0500
_refine_ls_R_factor_gt           0.0498
_refine_ls_shift/su_max          0.000
_refine_ls_shift/su_mean         0.000
_refine_ls_structure_factor_coef Fsqd
_refine_ls_weighting_details
'w=1/[\s^2^(Fo^2^)+(0.0829P)^2^+2.5000P] where P=(Fo^2^+2Fc^2^)/3'
_refine_ls_weighting_scheme      calc
_refine_ls_wR_factor_gt          0.1389
_refine_ls_wR_factor_ref         0.1392
_reflns_Friedel_coverage         0.000
_reflns_Friedel_fraction_full    .
_reflns_Friedel_fraction_max     .
_reflns_number_gt                1851
_reflns_number_total             1862
_reflns_threshold_expression     'I > 2\s(I)'
_cod_data_source_file            GaClN2S2.cif
_cod_data_source_block           cu_062517
_cod_database_code               1556434
_shelx_space_group_comment
;
The symmetry employed for this shelxl refinement is uniquely defined
by the following loop, which should always be used as a source of
symmetry information in preference to the above space-group names.
They are only intended as comments.
;
_shelx_estimated_absorpt_t_max   0.926
_shelx_estimated_absorpt_t_min   0.511
_olex2_refinement_description
;
1. Fixed Uiso
 At 1.2 times of:
  All C(H,H) groups
2.a Secondary CH2 refined with riding coordinates:
 C1(H1A,H1B), C2(H2A,H2B), C3(H3A,H3B), C4(H4A,H4B), C5(H5A,H5B), C6(H6A,H6B),
 C7(H7A,H7B), C8(H8A,H8B), C9(H9A,H9B)
;
_shelx_res_file
;
TITL cu_062517_GaClN2S2_Py_ET2O_0m in P-1
    cu_062517.res
    created by SHELXL-2017/1 at 14:18:16 on 02-Aug-2017
CELL 1.54178 7.3341 7.6637 12.6658 94.557 98.228 114.796
ZERR 2 0.0005 0.0005 0.0009 0.002 0.002 0.002
LATT 1
SFAC C H Cl Ga N S
UNIT 18 36 2 2 4 4

L.S. 50
PLAN  -6 0 0
SIZE 0.01 0.01 0.1
TEMP -173.15
HTAB
CONF
fmap 2
acta
REM <olex2.extras>
REM <HklSrc "%.\\cu_062517.hkl">
REM </olex2.extras>

WGHT    0.082900    2.500000
FVAR       0.77565
GA1   4    0.375979    0.311768    0.243900    11.00000    0.02802    0.03345 =
         0.03416    0.00661    0.00483    0.01649
CL1   3    0.280321    0.063783    0.109664    11.00000    0.04876    0.04046 =
         0.03912    0.00206    0.00668    0.02429
S1    6    0.537434    0.244022    0.392863    11.00000    0.02939    0.04640 =
         0.04079    0.01337    0.00469    0.01867
S2    6    0.638198    0.579489    0.207129    11.00000    0.02875    0.04226 =
         0.05439    0.01766    0.00697    0.01694
N1    5    0.104440    0.192416    0.313552    11.00000    0.02626    0.03591 =
         0.03376    0.00621    0.00396    0.01501
N2    5    0.180770    0.437367    0.178273    11.00000    0.03194    0.03914 =
         0.04456    0.01163    0.00842    0.02057
C1    1    0.312146    0.096803    0.446781    11.00000    0.03010    0.04545 =
         0.04419    0.01585    0.00736    0.01944
AFIX  23
H1A   2    0.326053   -0.018310    0.469641    11.00000   -1.20000
H1B   2    0.305818    0.174260    0.511346    11.00000   -1.20000
AFIX   0
C2    1    0.115259    0.029605    0.365174    11.00000    0.03684    0.03540 =
         0.04356    0.01224    0.00970    0.01594
AFIX  23
H2A   2    0.106117   -0.072857    0.309039    11.00000   -1.20000
H2B   2   -0.002603   -0.027505    0.401573    11.00000   -1.20000
AFIX   0
C3    1   -0.072187    0.126852    0.224984    11.00000    0.02869    0.04167 =
         0.04242    0.00429    0.00024    0.01485
AFIX  23
H3A   2   -0.194664    0.114371    0.254079    11.00000   -1.20000
H3B   2   -0.099885   -0.002481    0.187255    11.00000   -1.20000
AFIX   0
C4    1   -0.028732    0.276766    0.143143    11.00000    0.03664    0.04591 =
         0.03942    0.00385   -0.00171    0.02085
AFIX  23
H4A   2   -0.042140    0.209983    0.070278    11.00000   -1.20000
H4B   2   -0.130519    0.330529    0.139146    11.00000   -1.20000
AFIX   0
C5    1    0.109906    0.344912    0.395950    11.00000    0.03704    0.04436 =
         0.03927    0.00875    0.01053    0.02256
AFIX  23
H5A   2    0.247429    0.408473    0.443064    11.00000   -1.20000
H5B   2    0.009138    0.282622    0.441681    11.00000   -1.20000
AFIX   0
C6    1    0.062729    0.498148    0.346518    11.00000    0.04329    0.04234 =
         0.04237    0.00306    0.00440    0.02458
AFIX  23
H6A   2    0.087616    0.603806    0.405025    11.00000   -1.20000
H6B   2   -0.084595    0.439327    0.313091    11.00000   -1.20000
AFIX   0
C7    1    0.185579    0.586353    0.262249    11.00000    0.03726    0.03933 =
         0.04419    0.00374    0.00294    0.02059
AFIX  23
H7A   2    0.130607    0.669957    0.227261    11.00000   -1.20000
H7B   2    0.329455    0.669871    0.298196    11.00000   -1.20000
AFIX   0
C8    1    0.264153    0.528555    0.086796    11.00000    0.04154    0.04742 =
         0.03942    0.01041    0.00562    0.02685
AFIX  23
H8A   2    0.183365    0.595357    0.056600    11.00000   -1.20000
H8B   2    0.251517    0.426454    0.029323    11.00000   -1.20000
AFIX   0
C9    1    0.485981    0.673372    0.121486    11.00000    0.03641    0.04250 =
         0.04584    0.01544    0.00915    0.02066
AFIX  23
H9A   2    0.494160    0.793391    0.161748    11.00000   -1.20000
H9B   2    0.545609    0.708074    0.056484    11.00000   -1.20000
AFIX   0
HKLF 4




REM  cu_062517_GaClN2S2_Py_ET2O_0m in P-1
REM R1 =  0.0498 for    1851 Fo > 4sig(Fo)  and  0.0500 for all    1862 data
REM    136 parameters refined using      0 restraints

END

WGHT      0.0826      1.7638

REM Instructions for potential hydrogen bonds
EQIV $1 -x+1, -y, -z+1
HTAB C1 S1_$1
EQIV $2 x-1, y-1, z
HTAB C3 S2_$2
EQIV $3 -x, -y, -z
HTAB C4 Cl1_$3
HTAB C5 S1
EQIV $4 -x+1, -y+1, -z+1
HTAB C5 S1_$4
EQIV $5 x-1, y, z
HTAB C6 S1_$5
HTAB C6 S2_$5
HTAB C7 S2
EQIV $6 -x+1, -y+1, -z
HTAB C9 Cl1_$6

REM Highest difference peak  1.417,  deepest hole -0.507,  1-sigma level  0.144
Q1    1   0.3605  0.2584  0.3173  11.00000  0.05    1.42
Q2    1   0.4173  0.3627  0.1759  11.00000  0.05    1.20
Q3    1   0.4486  0.4162  0.3082  11.00000  0.05    1.14
Q4    1   0.3209  0.1845  0.1883  11.00000  0.05    1.03
Q5    1   0.6368  0.5899  0.2846  11.00000  0.05    0.82
Q6    1   0.5313  0.2628  0.3204  11.00000  0.05    0.70
;
_shelx_res_checksum              16054
_shelx_hkl_file
;
  -1   0   0 1288.17 45.3984  14
  -3   0   0 532.362 20.7099   7
  -3   0   0 525.211 19.6054   5
   3   0   0 479.510 21.7579   7
  -4   0   0 635.844 22.3291   5
  -4   0   0 568.164 23.3780   7
   4   0   0 511.454 24.6438   7
  -5   0   0 0.97981 0.57078  18
  -5   0   0 1.07385 0.46485  29
  -5   0   0 1.59077 0.59168  12
  -5   0   0 1.69938 1.23745   7
  -5   0   0 1.08677 0.44221  20
  -5   0   0 2.50724 0.75895  31
   5   0   0 1.67105 1.72973   7
  -6   0   0 2.24297 0.66714  12
  -6   0   0 2.68241 0.67020  20
  -6   0   0 3.05687 0.78526  31
  -6   0   0 1.58599 0.63783  18
  -6   0   0 1.99874 0.60933  29
  -7   0   0 103.062 4.36779  29
  -7   0   0 95.2362 4.16522  12
  -7   0   0 103.388 4.43846  18
   7  -1   0 40.7877 1.76174  19
  -7   1   0 36.0351 2.08540  12
  -7   1   0 37.5871 2.12833  29
  -7   1   0 39.9642 2.18547  31
  -7   1   0 39.3010 2.11632  20
  -7   1   0 42.2213 2.49180  18
  -6   1   0 175.033 6.79691  18
  -6   1   0 167.710 6.67133  31
  -6   1   0 152.743 6.45865  20
  -6   1   0 160.132 6.56885  12
  -6   1   0 154.568 6.34403  11
  -6   1   0 159.344 6.47907  29
  -5   1   0 2744.97 101.617  20
  -5   1   0 3091.59 104.116   5
  -5   1   0 3056.24 101.917  31
   4  -1   0 1531.16 56.0513   7
  -4   1   0 1479.02 54.2164   7
  -4   1   0 1498.21 53.8012   5
  -3   1   0 185.472 8.14996   5
  -3   1   0 182.657 8.45031   7
  -2   1   0 2568.27 95.8633   5
  -2   1   0 2671.81 96.0764  14
  -1   1   0 5569.25 195.971  14
   0  -1   0 1144.42 47.1928  24
   0   1   0 1125.73 47.5892  24
   0   1   0 1184.00 40.4355  14
  -1  -1   0 878.335 29.9540   5
   1   1   0 806.475 30.0021  14
  -2  -1   0 720.989 28.2055   7
  -2  -1   0 745.886 26.7448   5
  -3  -1   0 139.295 8.44121   7
  -3  -1   0 143.585 6.97394   5
  -4  -1   0 22.0146 1.52984  20
  -4  -1   0 21.2969 3.26970   7
   4   1   0 22.5679 3.99809   7
  -5  -1   0 38.2181 2.25168  12
  -5  -1   0 36.7051 2.32765  29
  -5  -1   0 41.3203 2.31411  20
  -5  -1   0 39.4860 2.37056   3
  -5  -1   0 41.1798 2.71605  18
  -6  -1   0 405.124 15.1512  29
  -6  -1   0 395.689 15.1823  18
  -6  -1   0 434.249 15.1336  12
  -6  -1   0 416.179 14.7411   3
  -6  -1   0 390.972 14.9693  20
   7  -2   0 201.543 7.56772  19
  -7   2   0 215.737 8.06769  20
  -7   2   0 203.682 8.10315  12
  -7   2   0 211.300 7.88447  11
  -7   2   0 211.542 8.19797  31
  -7   2   0 220.743 8.09868  29
  -6   2   0 785.889 28.4306  18
  -6   2   0 812.627 28.5040  31
  -6   2   0 813.307 28.1426  11
  -6   2   0 792.665 28.2826  20
  -6   2   0 796.131 28.2359  29
  -6   2   0 805.028 28.3721  12
   5  -2   0 147.490 7.91289   5
  -5   2   0 136.862 5.96970  31
  -5   2   0 140.843 7.44013   5
  -5   2   0 138.281 5.76962  20
  -4   2   0 362.815 14.8429   5
   3  -2   0 1232.70 43.0235   7
  -3   2   0 1158.54 42.0226   5
  -3   2   0 1147.10 42.5995  14
   2  -2   0 635.915 24.0727   5
  -2   2   0 680.219 28.1705  24
  -2   2   0 674.023 23.8948   5
  -2   2   0 669.009 22.9034  26
  -2   2   0 663.566 24.9933  14
   1  -2   0 687.774 30.8495  24
  -1   2   0 797.849 30.7617  24
  -1   2   0 776.983 27.7743  14
   0  -2   0 78.6061 6.36494  24
   0  -2   0 88.3341 3.23540  26
   0   2   0 84.1950 7.00927  24
   0   2   0 95.5238 4.62430  14
  -1  -2   0 1601.84 57.7399   7
   1   2   0 1625.91 57.0592  14
  -2  -2   0 3228.40 114.105   7
  -3  -2   0 656.420 27.8989   7
  -4  -2   0 14.9120 1.48402  20
  -4  -2   0 13.5636 1.57729  29
  -4  -2   0 13.0985 2.88207   7
  -4  -2   0 17.1405 1.77872  18
  -4  -2   0 16.6808 1.49970   3
  -4  -2   0 16.6406 1.13277  25
  -4  -2   0 16.7159 1.05368  13
   4   2   0 16.6830 3.75504   7
  -5  -2   0 306.898 11.2893   3
  -5  -2   0 304.131 10.8077  13
  -5  -2   0 313.532 11.7855  20
  -5  -2   0 291.484 11.7295  18
  -5  -2   0 303.171 11.9207  29
  -6  -2   0 178.169 7.10037  29
  -6  -2   0 182.014 6.98438  18
  -6  -2   0 176.311 6.67455   3
   8  -3   0 101.658 3.96740  11
  -8   3   0 99.1647 4.11625  12
  -8   3   0 103.287 4.11840  29
  -8   3   0 101.180 3.99232  11
   7  -3   0 102.475 4.17881  23
   7  -3   0 103.857 4.16006   4
  -7   3   0 101.761 4.30155  20
  -7   3   0 99.7465 4.25542  11
  -7   3   0 101.516 4.46796  31
  -7   3   0 99.3608 4.34228  12
  -7   3   0 83.3694 4.04419   4
  -7   3   0 106.110 4.33656  29
   6  -3   0 217.845 7.95953   4
  -6   3   0 193.912 7.97044  12
  -6   3   0 201.784 7.97539  20
  -6   3   0 205.634 7.87769   4
  -6   3   0 196.084 8.10798  31
  -6   3   0 207.828 8.29120  18
  -6   3   0 202.697 7.95814  29
  -6   3   0 198.219 7.83296  11
   5  -3   0 531.095 20.8798   5
  -5   3   0 510.165 18.4551  20
  -5   3   0 507.624 20.1188   5
  -5   3   0 499.859 18.6106  31
   4  -3   0 430.362 17.1714   5
  -4   3   0 418.927 16.6563   5
  -4   3   0 424.366 14.9571  26
   3  -3   0 128.821 6.26861   5
  -3   3   0 125.007 7.14565  14
  -3   3   0 122.721 4.82487  26
  -3   3   0 129.580 5.94354   5
   2  -3   0 331.637 12.8711   5
  -2   3   0 321.770 14.0697  14
  -2   3   0 340.233 12.5410   5
  -2   3   0 308.131 11.5870  26
   1  -3   0 8.06339 0.70568  26
   1  -3   0 7.39417 1.25371   7
  -1   3   0 6.98654 1.62093  14
   0  -3   0 881.878 32.5717   7
   0  -3   0 876.368 30.6585  26
   0   3   0 906.214 33.1060  14
  -1  -3   0 1506.95 54.6280  10
  -1  -3   0 1638.11 57.8071   7
  -1  -3   0 1642.25 54.4221  26
   1   3   0 1558.77 55.3471  10
  -2  -3   0 128.166 4.78173  26
  -2  -3   0 119.016 7.82128   7
  -2  -3   0 123.470 5.07936  10
   2   3   0 124.957 5.73808  10
  -3  -3   0 156.378 10.2334   7
  -3  -3   0 175.355 6.25837  13
  -3  -3   0 159.454 7.24459  29
  -3  -3   0 177.868 6.72007  15
  -3  -3   0 154.494 6.60310   3
  -3  -3   0 167.268 7.08867  18
  -3  -3   0 154.743 7.07516  20
  -3  -3   0 166.451 6.23472  25
  -3  -3   0 172.108 6.30184  26
  -3  -3   0 185.454 6.86957  22
   3   3   0 157.609 6.71434  20
  -4  -3   0 176.141 6.53318  25
  -4  -3   0 178.801 7.35139  18
  -4  -3   0 176.327 6.90521  22
  -4  -3   0 184.855 6.49243  13
  -4  -3   0 167.401 7.47668  29
  -4  -3   0 177.824 7.49552  20
  -4  -3   0 170.529 6.87643   3
   4   3   0 168.726 7.01827  20
  -5  -3   0 2.88967 0.52733  25
  -5  -3   0 1.95674 0.65551  18
  -5  -3   0 1.81060 0.82536  29
  -5  -3   0 1.63549 0.41640  13
  -5  -3   0 2.46451 0.65680   3
   8  -4   0 62.8447 2.67162  23
  -8   4   0 61.5157 2.83193  12
  -8   4   0 62.9358 2.75227  29
  -8   4   0 59.2242 2.66559  11
   7  -4   0 46.1500 2.37623   4
   7  -4   0 48.1277 2.40890  23
  -7   4   0 46.5819 2.50454  29
  -7   4   0 50.7761 2.49628  11
  -7   4   0 47.3541 2.53831  20
  -7   4   0 46.7979 2.65039  31
  -7   4   0 49.4116 2.61693  12
  -7   4   0 52.5629 2.48091   4
   6  -4   0 3.23178 0.72267   4
   6  -4   0 1.97249 0.56862  27
  -6   4   0 2.91317 0.68658   4
  -6   4   0 1.71395 0.70881  31
  -6   4   0 1.74767 0.59354  11
  -6   4   0 2.15338 0.70291  12
  -6   4   0 1.60895 0.61630  20
  -6   4   0 1.53378 0.58264  27
  -6   4   0 1.74312 0.60894  29
   5  -4   0 11.0349 1.13983   4
   5  -4   0 11.5268 0.91942  30
   5  -4   0 12.8781 2.04074   5
  -5   4   0 9.10825 0.79951  30
  -5   4   0 12.2403 1.24847  20
  -5   4   0 10.9892 1.12494   4
  -5   4   0 13.5879 1.82365   5
  -5   4   0 13.0426 1.09268  26
  -4   4   0 375.693 13.4858  26
  -3   4   0 52.4574 2.46335  26
  -3   4   0 51.8277 4.46724  14
  -2   4   0 79.2947 5.58839  14
  -2   4   0 71.1260 3.78756  10
   1  -4   0 475.551 17.6548   7
   1  -4   0 421.706 15.6934  10
   1  -4   0 464.983 15.5529  26
  -1   4   0 411.292 18.3289  14
  -1   4   0 410.548 16.2792  10
   0  -4   0 37.2328 1.91864  26
   0  -4   0 40.4694 3.44920   7
   0  -4   0 35.2317 2.07482  10
   0   4   0 35.8249 2.63351  10
  -1  -4   0 521.776 18.2245  10
  -1  -4   0 491.902 17.9331  26
  -1  -4   0 519.542 21.5429   7
  -1  -4   0 490.310 18.1972  15
   1   4   0 504.362 19.0323  10
  -2  -4   0 643.335 21.7160  10
  -2  -4   0 568.281 21.8822  20
  -2  -4   0 603.137 21.5559  22
  -2  -4   0 605.974 21.3741  26
  -2  -4   0 621.395 21.9567  18
  -2  -4   0 593.074 25.5989   7
  -2  -4   0 621.629 21.0944  13
  -2  -4   0 561.425 21.4128   3
  -2  -4   0 621.436 21.8083   1
  -2  -4   0 605.084 21.9334  29
  -2  -4   0 623.742 21.7143  15
  -2  -4   0 605.363 21.1633  25
   2   4   0 643.523 22.6238  10
   2   4   0 576.808 21.4845  20
   2   4   0 592.440 21.4088  29
  -3  -4   0 43.5814 2.54138   1
  -3  -4   0 50.5971 3.12932  29
  -3  -4   0 46.3824 2.13561  25
  -3  -4   0 44.1516 2.07871  13
  -3  -4   0 45.1531 2.52183  22
  -3  -4   0 47.0992 2.79239  18
  -3  -4   0 54.8860 2.69649  15
  -3  -4   0 46.4537 2.46871   3
  -3  -4   0 48.9913 3.42213  20
   3   4   0 37.5548 2.46047  20
   3   4   0 41.3906 2.38382  29
  -4  -4   0 25.0365 2.34217  29
  -4  -4   0 22.3712 1.57531   3
  -4  -4   0 21.9824 1.27921  25
  -4  -4   0 26.4958 1.76784  15
  -4  -4   0 21.9035 1.24903  13
  -4  -4   0 23.0093 1.80019  18
  -4  -4   0 26.3224 1.63603  22
   8  -5   0 1.30680 0.44511  23
   8  -5   0 1.22481 0.43668  11
  -8   5   0 0.78726 0.36915  11
  -8   5   0 1.39105 0.52658  12
  -8   5   0 1.87587 0.49028  29
   7  -5   0 4.66706 0.69988  27
   7  -5   0 3.66972 0.65644  23
   7  -5   0 4.05094 0.68066   4
  -7   5   0 3.33973 0.82518  31
  -7   5   0 2.52145 0.59432  11
  -7   5   0 3.42322 0.76557  20
  -7   5   0 4.12991 0.82881  12
  -7   5   0 3.40301 0.68479  29
   6  -5   0 40.5488 1.99149   9
   6  -5   0 42.2093 2.02217  27
   6  -5   0 40.3844 2.18399   4
   6  -5   0 38.9185 2.17188  23
   6  -5   0 44.0034 1.98128  30
  -6   5   0 34.3642 1.97413  27
  -6   5   0 37.1778 2.17213   4
  -6   5   0 42.0802 2.43244  29
  -6   5   0 41.7703 2.44158  20
  -6   5   0 40.7654 2.35225  12
  -6   5   0 34.0429 1.79313  30
   5  -5   0 118.168 4.41000   9
   5  -5   0 116.968 4.37508  30
   5  -5   0 108.931 4.60037   4
   5  -5   0 121.774 4.46095  27
  -5   5   0 108.797 5.52920   6
  -5   5   0 105.576 5.26218  18
  -5   5   0 106.511 4.43629  27
  -5   5   0 105.645 4.95437  29
  -5   5   0 103.228 4.24388  30
  -5   5   0 103.149 4.62020   4
  -5   5   0 108.119 4.91924  12
  -5   5   0 106.645 4.92046  20
   4  -5   0 251.377 9.18863  30
   4  -5   0 260.824 8.96239  16
  -4   5   0 252.141 9.11620  30
  -4   5   0 247.329 9.86821  20
   3  -5   0 1346.31 45.0929  16
  -3   5   0 1286.03 45.9389  20
   2  -5   0 18.5214 1.03582  16
  -2   5   0 17.7930 1.91256  10
   1  -5   0 299.585 11.2626  28
   1  -5   0 316.056 13.8601   7
  -1   5   0 315.180 12.4102  10
  -1   5   0 303.441 11.4578  20
   0  -5   0 219.580 9.13982  15
   0  -5   0 242.613 9.19011  26
   0  -5   0 266.012 12.4264   7
   0  -5   0 235.050 8.98328  28
   0  -5   0 252.577 9.46927  10
   0   5   0 255.246 10.3153  10
   0   5   0 223.284 8.96934  20
  -1  -5   0 15.0938 2.81555   7
  -1  -5   0 11.9724 1.42670   1
  -1  -5   0 14.2976 1.25951  26
  -1  -5   0 14.2052 1.22918   8
  -1  -5   0 12.6995 1.38926  22
  -1  -5   0 13.5700 2.09123  29
  -1  -5   0 17.1221 1.58554  15
  -1  -5   0 13.5816 1.02626  25
  -1  -5   0 13.8520 1.06315  13
  -1  -5   0 15.6224 2.03731  18
  -1  -5   0 13.4367 1.40598   3
   1   5   0 15.2486 1.99300  10
   1   5   0 14.7644 1.20571  20
  -2  -5   0 7.37302 1.15650  22
  -2  -5   0 6.30445 0.82212  25
  -2  -5   0 8.61328 1.63995  18
  -2  -5   0 13.5614 2.27171  29
  -2  -5   0 9.20313 1.25932   3
  -2  -5   0 10.0935 1.23432   1
  -2  -5   0 7.30890 0.88371  13
  -2  -5   0 9.28472 1.34533  15
  -3  -5   0 4.45985 0.81428  15
  -3  -5   0 4.62364 0.63772  25
  -3  -5   0 5.08451 1.16245  18
  -3  -5   0 6.00458 0.68392  13
  -3  -5   0 4.80188 0.87455   1
  -3  -5   0 4.47074 0.85320   3
  -3  -5   0 6.12863 0.96247  22
   3   5   0 2.58548 1.00090   6
   3   5   0 3.99132 0.89995  29
   3   5   0 4.91141 1.03904  18
  -4  -5   0 18.3101 0.94425  13
   7  -6   0 40.9259 2.10150   4
   7  -6   0 40.4471 2.05186  23
   7  -6   0 40.0362 1.94496  30
   7  -6   0 37.5257 1.97164  27
  -7   6   0 42.7401 2.38134  29
  -7   6   0 44.0705 2.09719   4
  -7   6   0 43.8810 2.39922  20
  -7   6   0 42.8084 1.94921  27
   6  -6   0 577.111 20.7734   4
   6  -6   0 619.015 20.6296   9
   6  -6   0 597.972 20.6121  30
   6  -6   0 599.428 20.6244  27
  -6   6   0 560.997 21.2883  29
  -6   6   0 569.265 21.2865  20
  -6   6   0 585.937 20.8044   4
  -6   6   0 588.879 20.5782  27
   5  -6   0 326.414 11.6739  16
   5  -6   0 327.170 12.0344   9
   5  -6   0 335.860 11.9941  30
   5  -6   0 326.709 12.0216  27
  -5   6   0 342.791 12.8295  20
  -5   6   0 325.520 13.5223   6
  -5   6   0 325.704 12.8071  29
  -5   6   0 350.789 11.9860  27
   4  -6   0 27.4374 1.31689  16
   4  -6   0 26.1096 1.58623  27
   4  -6   0 24.2468 1.52514  21
   4  -6   0 26.6092 1.59695   9
   4  -6   0 25.4193 1.53565  30
  -4   6   0 25.8801 2.09618  29
  -4   6   0 24.4560 2.15987  18
  -4   6   0 23.6180 2.45397   6
  -4   6   0 25.0674 2.03541  20
  -4   6   0 23.8695 1.48223  27
   3  -6   0 44.8638 2.33756   9
   3  -6   0 45.3091 2.27738  30
   3  -6   0 47.9953 2.33698  21
   3  -6   0 47.0513 2.40122  28
  -3   6   0 47.8222 3.00517  18
  -3   6   0 45.6310 2.82912  20
  -3   6   0 48.8154 3.35465   6
  -3   6   0 46.5894 2.84164  29
   2  -6   0 535.971 19.5686   8
   2  -6   0 586.187 19.6620  28
   2  -6   0 471.161 20.2638  18
   2  -6   0 557.333 19.5296  21
  -2   6   0 589.292 20.7572   6
  -2   6   0 530.891 20.5753  10
  -2   6   0 563.262 20.0331  20
  -2   6   0 569.713 20.0371  29
  -2   6   0 582.845 20.3039  18
   1  -6   0 10.4332 1.09445  28
   1  -6   0 9.09851 0.96345  21
   1  -6   0 8.47315 1.38048  29
   1  -6   0 10.0840 1.08349   8
   1  -6   0 14.5279 1.49772  18
  -1   6   0 10.6765 1.34009  18
  -1   6   0 13.7747 1.50758   6
  -1   6   0 10.2175 1.62368  10
   0  -6   0 24.8016 1.54146   8
   0  -6   0 23.1707 1.54961  28
   0  -6   0 21.0713 1.69487   1
   0  -6   0 23.8119 2.06928  18
   0  -6   0 21.6485 1.84157  29
   0  -6   0 21.6271 1.76486  15
   0   6   0 25.4266 1.90092   6
   0   6   0 22.7317 1.95883  18
   0   6   0 24.0617 2.33198  10
   0   6   0 27.0653 1.51934  29
  -1  -6   0 27.1951 2.30406  18
  -1  -6   0 27.4191 1.84232   1
  -1  -6   0 21.5473 2.64417  29
  -1  -6   0 25.6797 1.86805  15
  -1  -6   0 28.2117 1.91614   3
  -1  -6   0 28.3847 1.78905  22
   1   6   0 26.6102 2.14505  18
   1   6   0 28.2565 1.98021  17
   1   6   0 28.4084 2.40264  10
   1   6   0 29.0054 2.12914   6
   1   6   0 31.1780 1.63152  29
  -2  -6   0 57.5497 3.21090  18
  -2  -6   0 56.4333 2.40629  13
  -2  -6   0 58.4002 2.72460  22
  -2  -6   0 59.0821 2.83078   3
  -2  -6   0 56.8878 2.76095  15
  -2  -6   0 56.6769 2.45614  25
  -2  -6   0 63.2487 2.84597   1
   2   6   0 59.6372 3.01518  18
   2   6   0 59.5475 2.58482  29
   2   6   0 61.2277 3.08339   6
   2   6   0 60.7377 2.97570  17
   7  -7   0 273.689 9.59335   9
   7  -7   0 290.594 9.69804  27
  -7   7   0 242.614 9.95375  29
   6  -7   0 118.725 4.61429  30
   6  -7   0 120.084 4.65113   9
   6  -7   0 121.441 4.68834  27
  -6   7   0 122.922 5.72980   6
  -6   7   0 112.747 5.15856  20
  -6   7   0 115.490 5.20105  29
   5  -7   0 239.317 8.24837  27
   5  -7   0 224.845 8.14979  30
   5  -7   0 213.206 8.07282  21
   5  -7   0 221.706 8.18167   9
  -5   7   0 214.779 9.46823   6
  -5   7   0 215.099 8.87431  29
  -5   7   0 210.470 8.80190  20
   4  -7   0 367.011 13.5246   9
   4  -7   0 359.608 13.4553  30
   4  -7   0 379.464 13.5035  21
  -4   7   0 386.000 14.9799   6
  -4   7   0 384.600 14.2663  18
  -4   7   0 391.392 14.2918  20
  -4   7   0 375.242 14.2172  29
   3  -7   0 412.866 14.5949  28
   3  -7   0 415.203 14.5529  21
  -3   7   0 406.779 15.0767  20
  -3   7   0 400.955 15.1488  18
  -3   7   0 402.344 15.0394  29
  -3   7   0 402.540 15.6814   6
   2  -7   0 16.4329 1.17830  21
   2  -7   0 17.1378 1.25032   8
   2  -7   0 15.6382 1.69968  18
   2  -7   0 16.8638 1.29826  28
  -2   7   0 17.9196 1.73243   6
  -2   7   0 18.1165 1.46045  29
  -2   7   0 15.8870 1.76820  10
  -2   7   0 17.1869 1.54899  18
   1  -7   0 59.3270 2.68944   8
   1  -7   0 57.8701 3.13224  18
   1  -7   0 60.6454 2.71128  28
  -1   7   0 56.8236 2.76788  29
  -1   7   0 57.2779 3.15917   6
  -1   7   0 56.2908 2.96509  18
   0  -7   0 11.9864 1.09325  28
   0  -7   0 15.0249 1.37676  18
   0  -7   0 10.7178 1.35638  29
   0  -7   0 13.6910 1.39224   1
   0   7   0 13.0508 1.31029   6
   0   7   0 12.1614 1.21650  18
   0   7   0 14.3422 1.10685  29
  -1  -7   0 112.812 4.96047  29
  -1  -7   0 122.567 5.09304  18
   1   7   0 126.989 4.79911  29
   1   7   0 125.844 4.94412  18
   1   7   0 132.842 5.16907   6
   6  -8   0 0.69878 0.44627  27
   6  -8   0 1.17567 0.39748   9
  -6   8   0 0.59851 0.46242  29
   5  -8   0 63.6589 2.74854  30
   5  -8   0 65.0650 2.78069   9
   5  -8   0 67.5203 2.75653  21
  -5   8   0 69.0580 3.18034  29
  -5   8   0 68.7832 3.52318   6
   4  -8   0 143.713 5.41090  21
   4  -8   0 135.704 5.40693  28
   4  -8   0 137.401 5.37902   9
  -4   8   0 151.605 6.32007   6
  -4   8   0 148.330 5.82989  29
   3  -8   0 99.1647 4.07934  28
   3  -8   0 100.779 4.03461  21
  -3   8   0 104.877 4.34911  29
  -3   8   0 104.211 4.39520  18
  -3   8   0 105.145 4.74872   6
   2  -8   0 21.2120 1.22218  21
   2  -8   0 21.9250 1.29668  28
  -2   8   0 19.2538 1.33109  29
  -2   8   0 20.2780 1.44636  18
  -2   8   0 20.7372 1.58324   6
   1  -8   0 70.5605 3.31129  18
  -1   8   0 75.6605 3.21782  18
  -1   8   0 74.4417 3.34186   6
  -1   8   0 73.9115 3.06634  29
  -1   8  -1 342.388 12.2651  29
  -1   8  -1 350.045 12.5900   6
  -1   8  -1 350.966 12.3895  18
   1  -8   1 331.600 12.5094  18
  -2   8  -1 39.2126 2.13703  20
  -2   8  -1 40.4051 2.06416  29
  -2   8  -1 41.5958 2.34275   6
   2  -8   1 39.0525 1.87431  21
   2  -8   1 41.0107 1.98974  28
   2  -8   1 39.8946 1.96176   8
  -3   8  -1 17.2895 1.35505  20
  -3   8  -1 17.7372 1.33304  29
  -3   8  -1 17.3140 1.57017   6
   3  -8   1 18.4793 1.15114  21
   3  -8   1 17.2243 1.21634  28
   3  -8   1 16.2070 1.16105   8
  -4   8  -1 0.61746 0.48570  29
  -4   8  -1 0.87363 0.62162  20
  -4   8  -1 0.70172 0.51917   6
   4  -8   1 1.42678 0.45368  21
   4  -8   1 0.80588 0.45183  28
  -5   8  -1 0.87971 0.51507   6
  -5   8  -1 0.81595 0.50701  29
   5  -8   1 0.30668 0.35738  21
   5  -8   1 0.29003 0.35003  30
   5  -8   1 0.55660 0.41999   9
  -6   8  -1 0.90027 0.47548  29
   6  -8   1 0.80479 0.38123   9
   1   7  -1 20.9228 1.54107   6
   1   7  -1 22.6126 1.29975  29
   1   7  -1 20.7376 1.39209  18
  -1  -7   1 21.9006 1.51146   1
  -1  -7   1 21.1651 1.52199  18
   0   7  -1 150.874 6.30013   6
   0   7  -1 151.307 5.92550  20
   0   7  -1 155.163 5.93029  29
   0   7  -1 153.092 6.04904  18
   0  -7   1 150.882 6.22125  18
   0  -7   1 155.763 6.04437   1
   0  -7   1 156.233 6.24773  29
   0  -7   1 141.098 5.78663  28
  -1   7  -1 3.76772 0.84135  18
  -1   7  -1 3.34705 0.78980   6
  -2   7  -1 0.33238 0.66450  10
  -2   7  -1 0.68332 0.49601  29
  -2   7  -1 -0.0464 0.41786   6
  -2   7  -1 1.34212 0.61703  20
  -2   7  -1 0.63606 0.57659  18
   2  -7   1 1.24018 0.49088   8
   2  -7   1 1.88773 0.73210  18
   2  -7   1 0.61903 0.48513  28
   2  -7   1 1.08100 0.45022  21
  -3   7  -1 12.6418 1.41371  20
  -3   7  -1 11.2608 1.53266   6
  -3   7  -1 11.8102 1.33831  29
   3  -7   1 9.43906 1.03975  21
   3  -7   1 7.95207 1.10231  28
  -4   7  -1 91.2392 4.38105  29
  -4   7  -1 90.6163 4.80894   6
  -4   7  -1 92.2149 4.46627  20
   4  -7   1 90.7869 3.86241   9
   4  -7   1 93.9545 3.89959  28
   4  -7   1 87.8940 3.79049  30
   4  -7   1 91.4910 3.81722  21
  -5   7  -1 182.838 7.90511   6
  -5   7  -1 179.965 7.44757  29
  -5   7  -1 171.211 7.46989  20
  -5   7  -1 186.320 6.63019  27
   5  -7   1 177.489 6.76824  27
   5  -7   1 179.070 6.72121  21
   5  -7   1 171.647 6.73958   9
   5  -7   1 180.090 6.71080  30
  -6   7  -1 9.77292 1.26453  20
  -6   7  -1 9.12521 1.21173  29
  -6   7  -1 7.44358 0.77986  27
   6  -7   1 6.28890 0.82480  30
   6  -7   1 6.34998 0.94652   9
   6  -7   1 8.33745 1.02740  27
  -7   7  -1 187.300 7.23797  29
   7  -7   1 187.225 6.94108  27
   7  -7   1 192.959 6.92036   9
  -3  -6   1 34.8000 1.73206  22
   2   6  -1 43.2102 2.61033   6
   2   6  -1 41.1786 2.07957  29
   2   6  -1 44.7846 2.17471  20
   2   6  -1 43.9554 2.52285  18
   2   6  -1 42.8620 2.34056  17
  -2  -6   1 41.4497 1.86740  25
  -2  -6   1 40.9677 2.62700  18
  -2  -6   1 42.4296 2.15848  22
  -2  -6   1 40.3964 2.24503  15
  -2  -6   1 40.1385 2.25171   1
  -2  -6   1 40.6755 2.17220   3
  -2  -6   1 35.6939 2.40320  29
   1   6  -1 11.6371 1.70391  10
   1   6  -1 13.2009 1.13516  29
   1   6  -1 10.7962 1.66344   6
   1   6  -1 11.7771 1.68887  18
   1   6  -1 14.2448 1.03131  20
  -1  -6   1 10.1133 1.31930   1
  -1  -6   1 7.84396 1.23209  29
  -1  -6   1 13.0007 1.31024  22
  -1  -6   1 9.31705 1.42415  15
  -1  -6   1 8.46327 1.61388  18
   0   6  -1 66.0275 3.03542  20
   0   6  -1 67.3747 3.94129  10
   0   6  -1 62.7739 3.34029  18
   0   6  -1 60.9753 3.38991   6
   0   6  -1 63.8814 2.99795  29
   0  -6   1 64.2868 2.99409  28
   0  -6   1 68.2555 3.52341  18
   0  -6   1 60.2067 3.11835   1
   0  -6   1 68.9408 3.35342  29
   0  -6   1 68.7503 3.06713   8
   0  -6   1 58.2522 3.23186  15
  -1   6  -1 90.8317 4.02591  20
  -1   6  -1 90.5883 4.79097  10
  -1   6  -1 87.2172 4.39018   6
  -1   6  -1 92.3352 4.01720  29
  -1   6  -1 91.0535 4.19070  18
   1  -6   1 90.6182 3.89580   8
   1  -6   1 81.5483 3.70790  21
   1  -6   1 90.7075 4.33326  18
   1  -6   1 86.9551 4.32080  29
   1  -6   1 91.6028 3.89846  28
  -2   6  -1 346.484 12.4479  29
  -2   6  -1 314.678 12.8848  10
  -2   6  -1 333.907 12.9591   6
  -2   6  -1 341.701 12.4913  20
  -2   6  -1 329.958 12.4999  18
   2  -6   1 291.608 12.5680  18
   2  -6   1 335.932 11.9896  21
   2  -6   1 333.541 12.0892   8
   2  -6   1 352.347 12.1383  28
  -3   6  -1 2074.66 71.6174  29
  -3   6  -1 2049.57 72.1796   6
  -3   6  -1 2097.71 71.6920  20
   3  -6   1 2123.19 70.5706  16
   3  -6   1 2126.06 71.0500  21
   3  -6   1 1930.16 70.7264  30
   3  -6   1 2004.09 70.9090   9
   3  -6   1 2130.17 71.1083  28
  -4   6  -1 366.391 14.9231   6
  -4   6  -1 360.541 14.2919  29
  -4   6  -1 365.730 14.3741  20
  -4   6  -1 404.643 13.3520  30
  -4   6  -1 366.956 13.4424  27
   4  -6   1 373.991 13.5552   9
   4  -6   1 389.427 13.5944  21
   4  -6   1 370.432 13.5390  27
   4  -6   1 389.104 13.5302  30
   4  -6   1 381.261 13.2405  16
  -5   6  -1 0.58969 0.37856  30
  -5   6  -1 1.86215 0.90198  12
  -5   6  -1 0.55532 0.63139   6
  -5   6  -1 1.02579 0.72212  29
  -5   6  -1 0.71059 0.70103  20
  -5   6  -1 0.36119 0.52296  27
   5  -6   1 0.13954 0.38599  30
   5  -6   1 1.18814 0.35704  16
   5  -6   1 0.39886 0.45130   9
   5  -6   1 1.09583 0.56053  27
   5  -6   1 0.58941 0.45120  21
  -6   6  -1 206.885 7.23625  30
  -6   6  -1 202.257 7.58148   4
  -6   6  -1 198.546 7.38167  27
  -6   6  -1 195.343 7.99002  29
  -6   6  -1 200.216 8.12720  20
   6  -6   1 191.280 7.43681  27
   6  -6   1 194.926 7.57350   4
   6  -6   1 195.214 7.38137  30
   6  -6   1 196.918 7.41074   9
  -7   6  -1 309.284 11.4539  12
  -7   6  -1 301.086 10.8734  27
  -7   6  -1 306.019 11.4238  20
  -7   6  -1 281.929 11.0398   4
  -7   6  -1 304.992 11.3622  29
   7  -6   1 321.732 10.9566  27
   7  -6   1 328.617 10.9427   9
   7  -6   1 299.913 11.1100   4
   7  -6   1 298.449 11.0842  23
   7  -6   1 296.894 10.8968  30
   4   5  -1 54.1617 2.51391  18
   4   5  -1 52.2412 2.75782   6
  -4  -5   1 48.5976 2.01930  13
  -4  -5   1 49.8262 2.26806  22
  -4  -5   1 48.8628 2.53835  29
  -4  -5   1 49.9825 2.58608  18
  -4  -5   1 47.8268 2.24025   3
   3   5  -1 183.559 7.43488  20
   3   5  -1 191.278 7.91272   6
   3   5  -1 192.167 7.46696  29
  -3  -5   1 204.051 7.93509  29
  -3  -5   1 201.920 7.16336  13
  -3  -5   1 199.840 7.90858  20
  -3  -5   1 206.408 7.59989   1
  -3  -5   1 203.623 7.52358   3
  -3  -5   1 198.102 7.60810  15
  -3  -5   1 196.057 7.19109  25
  -3  -5   1 196.530 7.83954  18
  -3  -5   1 188.366 7.46012  22
   2   5  -1 701.591 26.4206   6
   2   5  -1 742.244 26.0612  20
   2   5  -1 728.770 26.0338  29
  -2  -5   1 754.320 26.5257  29
  -2  -5   1 734.473 25.7493  13
  -2  -5   1 765.544 26.5877  18
  -2  -5   1 754.523 26.2425  22
  -2  -5   1 756.559 26.5092  20
  -2  -5   1 741.075 26.3526  15
  -2  -5   1 751.464 25.8560  25
  -2  -5   1 733.811 26.1938   1
  -2  -5   1 755.235 26.1196   3
   1   5  -1 468.301 16.5785  10
   1   5  -1 426.157 15.7663   6
   1   5  -1 414.039 15.2098  20
   1   5  -1 418.939 15.2150  29
  -1  -5   1 414.455 15.6822  29
  -1  -5   1 397.535 15.2483   3
  -1  -5   1 436.686 15.7734  18
  -1  -5   1 395.619 15.3184  22
  -1  -5   1 422.491 15.4915  15
  -1  -5   1 405.913 15.3347  26
  -1  -5   1 439.552 15.2672   8
  -1  -5   1 416.567 15.3854   1
  -1  -5   1 453.683 19.0751   7
   0   5  -1 31.8643 1.62928  20
   0   5  -1 30.2671 2.52829  10
   0  -5   1 26.0731 2.04399  15
   0  -5   1 26.7391 1.75984  28
   0  -5   1 29.3297 1.77024  26
  -1   5  -1 950.721 34.4892  10
  -1   5  -1 973.314 33.7337  20
  -2   5  -1 1639.95 57.3389  10
  -3   5  -1 26.6890 2.06165  20
   3  -5   1 30.5949 1.39504  16
  -4   5  -1 341.628 13.1718  20
  -4   5  -1 353.542 12.3225  30
   4  -5   1 348.595 12.1745  16
   4  -5   1 342.687 12.4270  30
  -5   5  -1 197.451 8.65147   6
  -5   5  -1 202.091 7.37525  30
  -5   5  -1 206.553 7.78976  26
  -5   5  -1 196.617 8.13664  12
  -5   5  -1 196.434 7.50528  27
  -5   5  -1 195.159 8.10394  29
  -5   5  -1 201.413 7.83094   4
  -5   5  -1 191.978 8.13066  20
   5  -5   1 199.619 7.51573   9
   5  -5   1 201.538 7.56746  27
   5  -5   1 203.465 7.50553  30
   5  -5   1 212.902 7.93117   4
  -6   5  -1 145.635 5.74564  27
  -6   5  -1 152.069 6.30946  20
  -6   5  -1 151.380 6.20639  29
  -6   5  -1 153.671 6.05469   4
  -6   5  -1 143.307 6.19859  11
  -6   5  -1 144.427 6.32572  31
  -6   5  -1 142.411 5.55233  30
  -6   5  -1 151.937 6.27015  12
   6  -5   1 152.077 6.06672   4
   6  -5   1 151.960 5.69868  30
   6  -5   1 144.869 5.76463  27
   6  -5   1 142.659 5.68989   9
  -7   5  -1 7.36220 1.06354  20
  -7   5  -1 8.40145 1.01036  29
  -7   5  -1 7.09637 0.80990  27
  -7   5  -1 6.84489 1.06864  31
  -7   5  -1 8.13195 0.94739  11
  -7   5  -1 8.25979 0.90476   4
  -7   5  -1 8.46597 1.10238  12
   7  -5   1 7.06254 0.86064  27
   7  -5   1 7.65171 0.90188  23
   7  -5   1 7.64524 0.90872   4
  -8   5  -1 217.521 7.89677  11
   8  -5   1 212.250 7.90505  23
   5   4  -1 5.39829 1.15702   6
  -5  -4   1 6.11200 0.54823  13
  -5  -4   1 6.41151 0.74511   3
  -5  -4   1 6.50511 0.95915  18
   4   4  -1 143.458 5.86942  29
   4   4  -1 135.644 5.94330  20
  -4  -4   1 151.558 6.46476  20
  -4  -4   1 150.653 5.62998  25
  -4  -4   1 153.648 5.93025   3
  -4  -4   1 152.928 5.93575  22
  -4  -4   1 157.450 6.41580  29
  -4  -4   1 156.679 6.03666  15
  -4  -4   1 150.174 6.26675  18
  -4  -4   1 151.749 5.55653  13
   3   4  -1 1012.13 35.4640  29
   3   4  -1 1022.73 35.5649  20
  -3  -4   1 1012.19 35.5589   3
  -3  -4   1 1000.02 36.1103  20
  -3  -4   1 990.353 35.4825   1
  -3  -4   1 1021.32 36.0164  18
  -3  -4   1 1017.12 35.2356  25
  -3  -4   1 1044.49 35.7716  15
  -3  -4   1 1013.65 36.0868  29
  -3  -4   1 1004.80 35.6471  22
  -3  -4   1 1072.06 35.1783  13
   2   4  -1 148.560 6.03762  20
   2   4  -1 153.872 5.98471  29
  -2  -4   1 153.747 6.45990  18
  -2  -4   1 153.638 5.99617  26
  -2  -4   1 138.351 6.51766  20
  -2  -4   1 152.122 5.74545  25
  -2  -4   1 142.181 6.47998  29
  -2  -4   1 145.956 6.08318   3
  -2  -4   1 153.063 6.23719  15
  -2  -4   1 168.752 9.49741   7
   1   4  -1 224.781 9.72764  10
  -1  -4   1 228.606 8.82059  26
  -1  -4   1 233.496 9.04662  10
  -1  -4   1 258.327 12.3465   7
   0   4  -1 1005.95 37.3303  10
   0  -4   1 1058.60 36.4932  26
   0  -4   1 1017.32 36.6522  10
   0  -4   1 1124.51 39.1991   7
  -1   4  -1 238.740 11.4430  14
  -1   4  -1 236.336 9.52872  10
  -2   4  -1 995.935 36.4295  14
  -2   4  -1 922.628 33.8829  10
  -3   4  -1 999.057 34.2714  26
  -3   4  -1 973.201 37.4266  14
  -4   4  -1 1288.17 43.5754  26
  -4   4  -1 1273.24 45.4878   5
   4  -4   1 1221.45 45.8332   5
  -5   4  -1 1087.34 36.8739  29
  -5   4  -1 950.400 36.8918  31
  -5   4  -1 1036.63 36.8529  20
  -5   4  -1 1079.25 36.7075   4
  -5   4  -1 1078.24 36.3876  26
  -5   4  -1 985.810 36.1648  30
  -5   4  -1 1072.22 36.9295  12
   5  -4   1 1020.05 36.2815  30
   5  -4   1 1138.72 40.2081   5
  -6   4  -1 198.426 8.04230  27
  -6   4  -1 213.520 8.57790  12
  -6   4  -1 225.352 8.81454  31
  -6   4  -1 232.972 8.55145   4
  -6   4  -1 225.826 8.44780  11
  -6   4  -1 213.278 8.54472  20
  -6   4  -1 222.490 8.51962  29
   6  -4   1 231.691 8.58352   4
   6  -4   1 199.034 8.09248  27
  -7   4  -1 24.9341 1.65463  11
  -7   4  -1 25.8956 1.86657  31
  -7   4  -1 25.7618 1.69586  29
  -7   4  -1 29.4364 1.71337   4
  -7   4  -1 26.6855 1.74659  20
  -7   4  -1 26.2972 1.79861  12
   7  -4   1 25.6999 1.64820   4
   7  -4   1 26.5824 1.66697  23
  -8   4  -1 441.725 15.3499  11
  -8   4  -1 439.756 15.5136  12
  -8   4  -1 440.870 15.3777  29
   8  -4   1 412.278 15.2842  23
   5   3  -1 155.500 6.25767  20
  -5  -3   1 157.792 6.23298   3
  -5  -3   1 161.538 5.93362  25
  -5  -3   1 169.963 5.89188  13
  -5  -3   1 162.126 6.58128  18
  -5  -3   1 155.098 6.65180  20
  -5  -3   1 159.299 6.64204  29
   4   3  -1 61.5468 3.20771  20
  -4  -3   1 61.3601 2.73376  25
  -4  -3   1 64.6965 3.18092   3
  -4  -3   1 66.3232 3.18144  22
  -4  -3   1 59.8023 3.61512  29
  -4  -3   1 63.0713 3.48775  18
  -4  -3   1 60.3707 3.58252  20
  -4  -3   1 60.4009 2.63523  13
   3   3  -1 179.250 7.12867  20
  -3  -3   1 171.268 7.62574  29
  -3  -3   1 180.104 6.61116  25
  -3  -3   1 192.440 7.13119  15
  -3  -3   1 182.311 6.70425  26
  -3  -3   1 165.268 7.08387   3
  -3  -3   1 182.809 7.55841  18
  -3  -3   1 161.034 7.39762  20
  -3  -3   1 168.280 10.2256   7
  -2  -3   1 1137.89 42.5763   7
  -2  -3   1 1095.03 38.5334  26
   1   3  -1 747.109 27.1175  10
  -1  -3   1 736.150 26.2430  26
  -1  -3   1 716.885 26.4384  10
  -1  -3   1 828.336 29.5085   7
   0   3  -1 380.459 15.7520  14
   0  -3   1 381.178 13.7753  26
   0  -3   1 411.459 15.6051   7
  -1   3  -1 0.92314 0.96056  14
   1  -3   1 0.84357 0.38778  26
  -2   3  -1 682.203 30.9397  24
  -2   3  -1 703.583 23.8688  26
  -2   3  -1 708.166 25.1220   5
  -2   3  -1 676.314 26.2338  14
   2  -3   1 659.278 25.0750   5
  -3   3  -1 2024.77 66.6495  26
  -3   3  -1 1929.59 69.7035  14
  -3   3  -1 1958.62 67.9897   5
   3  -3   1 1878.01 68.2785   5
  -4   3  -1 1567.31 59.4788  14
  -4   3  -1 1568.23 55.4135  26
  -4   3  -1 1605.94 57.3133   5
   4  -3   1 1725.20 58.0703   5
  -5   3  -1 119.161 4.54782  26
  -5   3  -1 122.882 5.21038  31
  -5   3  -1 116.427 4.95478   4
  -5   3  -1 113.761 4.97010  20
  -5   3  -1 119.321 6.37715   5
   5  -3   1 110.678 6.68922   5
  -6   3  -1 118.836 5.14064  29
  -6   3  -1 118.464 5.08126  11
  -6   3  -1 119.588 5.18054  20
  -6   3  -1 127.462 5.13599   4
  -6   3  -1 116.989 5.40162  31
  -6   3  -1 122.197 5.27707  12
   6  -3   1 129.331 5.18945   4
  -7   3  -1 265.973 10.4687  12
  -7   3  -1 286.785 10.3928  29
  -7   3  -1 270.171 10.5980  31
  -7   3  -1 280.651 10.2882   4
  -7   3  -1 279.733 10.4061  20
  -7   3  -1 278.058 10.3464  11
   7  -3   1 278.590 10.2897   4
   7  -3   1 289.717 10.3471  23
  -8   3  -1 26.5780 1.49704  12
  -8   3  -1 26.7964 1.40446  11
   8  -3   1 24.1433 1.37191  11
   6   2  -1 88.1071 3.84570  20
  -6  -2   1 91.4180 3.70436   3
  -6  -2   1 89.8957 3.98121  18
  -6  -2   1 86.1736 4.08483  20
  -6  -2   1 84.7349 4.09838  29
   5   2  -1 5.38456 0.98282  12
  -5  -2   1 7.46360 1.24742  20
  -5  -2   1 6.89177 1.12107   3
  -5  -2   1 3.81096 0.96002  29
  -5  -2   1 4.87911 0.71645  25
  -5  -2   1 6.13541 0.73245  13
  -5  -2   1 4.14899 1.00288  18
  -5  -2   1 5.26816 1.06566  12
   4   2  -1 92.9891 7.94087   7
  -4  -2   1 84.8232 4.01908  12
  -4  -2   1 83.0856 6.83925   7
  -4  -2   1 88.1239 4.29637  29
  -4  -2   1 89.5548 3.57086  25
  -4  -2   1 78.7810 3.96679   3
  -4  -2   1 85.6056 3.48174  13
  -4  -2   1 88.9334 4.48662  18
  -4  -2   1 84.8549 4.09427  20
  -3  -2   1 282.987 14.0969   7
  -2  -2   1 152.098 8.41315   7
  -2  -2   1 152.186 5.55771  26
  -1  -2   1 273.403 11.6933   7
  -1  -2   1 232.611 9.38728  26
  -1  -2   1 292.985 11.0797   5
   0   2  -1 1128.67 45.0923  24
   0   2  -1 1196.42 40.0191  14
   0  -2   1 1144.77 38.6006  26
   0  -2   1 1088.29 39.8007   5
   0  -2   1 1072.28 45.1525  24
  -1   2  -1 77.6467 4.46079  14
  -1   2  -1 84.2219 3.95285   5
  -1   2  -1 85.9818 6.53663  24
   1  -2   1 76.5188 3.92837   5
  -2   2  -1 3099.97 112.792  14
  -2   2  -1 3162.53 109.210  26
  -2   2  -1 3189.48 128.586  24
  -2   2  -1 3272.78 112.416   5
   2  -2   1 3238.36 111.921   5
  -3   2  -1 97.5215 4.91409   5
  -3   2  -1 93.2710 5.44440  14
   3  -2   1 89.9448 5.08913   5
  -4   2  -1 816.980 31.5379   5
   4  -2   1 894.344 32.2816   5
  -5   2  -1 1896.26 68.4925  31
  -5   2  -1 2023.29 70.2502   5
  -5   2  -1 1906.72 68.2279  20
   5  -2   1 2084.83 70.9056   5
  -6   2  -1 326.988 11.8506  20
  -6   2  -1 312.678 11.9498  12
  -6   2  -1 310.835 11.7544  29
  -6   2  -1 306.674 11.6869  11
  -6   2  -1 328.026 12.0683  31
  -7   2  -1 199.553 7.52229  11
  -7   2  -1 187.747 7.70301  31
  -7   2  -1 202.640 7.57295  20
  -7   2  -1 191.738 7.65509  12
  -7   2  -1 205.942 7.59843  29
  -7  -1   1 20.1430 1.52537  18
  -6  -1   1 95.8374 4.60220  18
  -6  -1   1 95.1424 4.46662  29
  -6  -1   1 97.7474 4.38959  20
  -6  -1   1 98.9899 4.24079   3
  -6  -1   1 94.3749 4.25714  12
   5   1  -1 25.0581 1.70084  31
   5   1  -1 19.7578 3.81727   7
  -5  -1   1 21.7151 1.64249  31
  -5  -1   1 22.1422 1.37783  25
  -5  -1   1 22.9744 1.66620  12
  -5  -1   1 22.8832 1.62942  20
  -5  -1   1 23.1278 1.82387   3
  -5  -1   1 23.5792 1.72695  29
  -5  -1   1 22.7056 1.94338  18
  -5  -1   1 17.8728 3.11599   7
   4   1  -1 57.3751 5.86712   7
  -4  -1   1 56.1384 5.09026   7
  -4  -1   1 57.0234 4.24118   5
  -4  -1   1 53.2055 2.74051  20
   3   1  -1 42.4403 4.59777   7
  -3  -1   1 42.0415 4.00966   7
  -3  -1   1 45.4083 3.44162   5
  -2  -1   1 169.490 7.48680   5
  -2  -1   1 157.652 8.32834   7
  -1  -1   1 11.2823 2.70778  24
   0   1  -1 3873.83 152.727  24
   0   1  -1 3613.42 132.473  14
   0  -1   1 3832.13 150.992  24
  -1   1  -1 10.2645 1.97623  24
  -1   1  -1 9.57780 1.49582  14
  -2   1  -1 223.308 8.94638   5
  -2   1  -1 220.219 9.24366  14
  -3   1  -1 750.148 28.1871   5
   3  -1   1 792.284 29.7275   7
  -4   1  -1 1727.85 61.4261   5
  -5   1  -1 235.960 10.2954   5
  -5   1  -1 228.216 8.34667  20
  -5   1  -1 186.047 8.39277  12
  -5   1  -1 225.659 8.56417  31
   5  -1   1 204.961 10.4837   5
  -6   1  -1 48.0842 2.61130  12
  -6   1  -1 52.2462 2.56535  20
  -6   1  -1 47.9726 2.68151  31
  -6   1  -1 47.6587 2.52481  29
  -7   1  -1 27.6615 1.66489  12
  -7   1  -1 27.8149 1.68143  29
  -7   1  -1 24.7666 1.64965  31
  -7   1  -1 28.1967 1.66400  20
   7   0  -1 116.669 4.85816  31
  -7   0   1 123.738 5.22931  18
  -7   0   1 114.402 4.90928  31
  -7   0   1 126.721 5.10264  29
  -7   0   1 120.418 4.97340  20
  -7   0   1 122.291 4.95459  12
  -6   0   1 33.6222 2.07600  29
  -6   0   1 32.1599 1.99920  20
  -6   0   1 35.2576 2.10379  31
  -6   0   1 34.8607 2.32919  18
  -6   0   1 33.4724 2.03482  12
  -6   0   1 33.9930 2.20628   3
   5   0  -1 46.6013 1.92080  19
   5   0  -1 39.1634 5.17127   7
  -5   0   1 44.7384 2.41299  12
  -5   0   1 41.7223 2.55808  18
  -5   0   1 42.3479 4.37608   7
  -5   0   1 40.9914 2.26557  20
  -5   0   1 43.7599 2.36369  29
  -5   0   1 42.2561 2.82757   3
  -5   0   1 45.0127 2.44886  31
   4   0  -1 98.3564 7.40729   7
  -4   0   1 101.660 5.82285   5
  -4   0   1 97.2173 6.47041   7
   3   0  -1 274.617 13.4667   7
  -3   0   1 269.230 12.5073   7
  -3   0   1 318.727 12.1050   5
  -2   0   1 966.917 34.7036   5
  -1   0   1 4081.48 156.154  24
   0   0  -1 -2.2613 0.53149  14
   0   0  -1 -2.3399 0.99251  24
   0   0  -1 -1.7996 0.88846  24
   0   0   1 -2.4628 0.61753  14
  -1   0  -1 5181.83 180.768  14
  -2   0  -1 713.758 24.8307  14
  -2   0  -1 627.274 24.7223   5
   2   0   1 726.197 25.4618  14
  -3   0  -1 97.6318 5.10400   5
  -3   0  -1 100.330 6.00688   7
   3   0   1 98.5121 6.97973   7
  -4   0  -1 30.6758 3.31468   7
  -4   0  -1 35.7428 2.94036   5
   4   0   1 24.6267 3.75258   7
  -5   0  -1 253.356 9.71375  31
  -5   0  -1 249.139 9.43203  20
  -5   0  -1 256.614 10.0936  18
  -5   0  -1 237.179 9.49282  12
  -5   0  -1 251.731 9.51517  29
  -6   0  -1 34.0190 2.05744  12
  -6   0  -1 40.9160 2.16053  20
  -6   0  -1 33.3381 2.09252  29
   7  -1  -1 78.5760 3.09085  19
  -7   1   1 77.0770 3.52140  12
  -7   1   1 80.1568 3.80313  18
  -7   1   1 80.7356 3.58037  29
  -7   1   1 75.8894 3.54740  31
  -7   1   1 78.8810 3.52217  20
   6  -1  -1 132.802 4.95078  19
  -6   1   1 129.005 5.56022  31
  -6   1   1 131.666 5.77604  18
  -6   1   1 129.371 5.42990  20
  -6   1   1 128.824 5.44453  29
  -6   1   1 130.059 5.25891  11
  -6   1   1 140.039 5.57252  12
   5  -1  -1 40.8429 4.61864   7
  -5   1   1 40.2153 1.96461  26
  -5   1   1 43.3833 3.88558   7
   4  -1  -1 797.361 32.7296   7
  -4   1   1 841.244 31.0069   5
  -4   1   1 858.250 31.5348   7
   3  -1  -1 441.711 18.1033   7
  -3   1   1 420.160 16.9541   7
  -3   1   1 423.115 16.6543   5
  -2   1   1 3854.71 138.951   5
  -2   1   1 3994.28 156.812  24
  -2   1   1 3842.40 138.125  14
   1  -1  -1 316.959 14.3943  24
  -1   1   1 318.746 14.2435  24
  -1   1   1 330.774 12.3253  14
   0   1   1 7399.12 259.961  14
   1   1   1 234.433 9.74434  14
  -2  -1  -1 272.603 12.5157   7
  -2  -1  -1 258.143 10.4953   5
  -3  -1  -1 3.44133 1.76443   7
  -4  -1  -1 277.468 9.79865  20
  -4  -1  -1 269.363 14.0526   7
   4   1   1 225.058 14.9591   7
  -5  -1  -1 84.0150 4.06393  29
  -5  -1  -1 83.5075 4.25775  18
  -5  -1  -1 89.3176 3.96048  20
  -6  -1  -1 87.3518 4.40669  29
   8  -2  -1 71.6285 2.95787  11
  -8   2   1 72.7531 3.38681  18
  -8   2   1 74.0449 3.13059  12
  -8   2   1 74.5533 3.16627  29
  -8   2   1 75.8440 2.99814  11
   7  -2  -1 294.216 10.5002  19
  -7   2   1 299.601 11.2611  18
  -7   2   1 300.954 10.9864  20
  -7   2   1 284.272 10.9822  12
  -7   2   1 298.619 11.0136  29
  -7   2   1 301.609 11.0903  31
  -7   2   1 292.553 10.7869  11
   6  -2  -1 1076.20 38.7792  23
  -6   2   1 1118.65 39.0689  12
  -6   2   1 1096.75 38.9502  29
  -6   2   1 1160.01 39.2048  31
  -6   2   1 1119.87 38.9989  20
  -6   2   1 1121.53 38.8621  11
  -6   2   1 1121.49 39.2728  18
   5  -2  -1 2529.15 92.0612   7
  -5   2   1 2610.17 88.0168  20
  -5   2   1 2537.50 90.0992   5
   4  -2  -1 85.4778 5.90607   7
  -4   2   1 75.7886 4.72705   5
   3  -2  -1 1518.24 52.7020   7
  -3   2   1 1439.84 51.9202   5
  -3   2   1 1401.20 51.9344  14
  -2   2   1 1493.25 62.5904  24
  -2   2   1 1356.63 50.8482   5
  -2   2   1 1484.24 51.2048  14
  -2   2   1 1401.14 49.6355  26
  -1   2   1 805.564 32.1046  24
  -1   2   1 801.348 29.4368  14
   0  -2  -1 33.1470 1.48031  26
   0   2   1 37.9227 2.93376  14
  -1  -2  -1 454.472 18.8200   7
   1   2   1 479.184 18.4332  14
  -2  -2  -1 786.845 31.7367   7
  -2  -2  -1 757.497 27.4219  10
   2   2   1 814.246 28.2181  10
  -3  -2  -1 292.008 15.6448   7
  -4  -2  -1 0.68227 0.36819  25
  -4  -2  -1 0.75897 0.61189  29
  -4  -2  -1 0.52196 1.17967   7
  -4  -2  -1 1.29777 0.38378  13
  -4  -2  -1 0.69371 0.58630  18
   4   2   1 0.69988 1.56251   7
  -5  -2  -1 186.459 7.69077  18
  -5  -2  -1 193.899 7.29119   3
   8  -3  -1 208.495 7.90672  11
  -8   3   1 221.509 8.11348  12
  -8   3   1 216.504 7.95956  11
  -8   3   1 219.828 8.18070  31
  -8   3   1 224.223 8.11790  29
   7  -3  -1 873.544 31.1254   4
   7  -3  -1 904.246 31.1973  23
  -7   3   1 884.361 31.3676  29
  -7   3   1 941.861 31.2108   4
  -7   3   1 915.176 31.2208  11
  -7   3   1 856.876 31.3211  20
  -7   3   1 879.782 31.4991  31
  -7   3   1 888.802 31.3959  12
  -7   3   1 910.525 31.6013  18
   6  -3  -1 958.152 33.8386   4
   6  -3  -1 1038.39 33.9502  23
  -6   3   1 974.825 33.8614   4
  -6   3   1 1014.25 33.9664  11
  -6   3   1 955.756 34.0455  29
  -6   3   1 925.400 34.1529  31
  -6   3   1 946.538 34.0450  20
  -6   3   1 959.039 34.0803  12
  -6   3   1 960.320 34.3199  18
   5  -3  -1 65.0974 4.73219   5
  -5   3   1 58.6554 4.17587   5
  -5   3   1 62.1933 3.02194  20
   4  -3  -1 27.8473 2.95647   7
   4  -3  -1 23.2948 2.52731   5
  -4   3   1 24.8867 2.34950   5
  -4   3   1 26.3503 1.40646  26
   3  -3  -1 608.959 22.7060   5
   3  -3  -1 551.772 23.0944   7
  -3   3   1 636.434 24.5007  14
  -3   3   1 587.907 22.2577   5
  -3   3   1 641.699 21.2018  26
   2  -3  -1 100.488 5.26344   7
  -2   3   1 105.145 6.12043  14
   1  -3  -1 4.09128 0.54593  26
  -1   3   1 4.40325 1.41444  14
   0  -3  -1 826.962 30.7558   7
   0  -3  -1 823.541 28.4718  26
   0   3   1 821.058 31.1722  14
  -1  -3  -1 2459.01 83.6198  10
  -1  -3  -1 2543.16 83.2995  26
  -1  -3  -1 2345.74 86.6016   7
   1   3   1 2400.87 84.2781  10
  -2  -3  -1 1174.98 40.3773  10
  -2  -3  -1 1090.40 44.7895   7
   2   3   1 1216.76 41.2877  10
  -3  -3  -1 7.20540 1.20456  15
  -3  -3  -1 5.13817 0.64125  13
  -3  -3  -1 5.32762 0.71658  25
  -3  -3  -1 8.08386 1.26606  18
  -3  -3  -1 4.62330 0.85441  22
  -3  -3  -1 6.39520 1.05560   3
  -3  -3  -1 6.76689 2.36022   7
  -4  -3  -1 178.519 7.02535   3
  -4  -3  -1 187.784 6.64593  13
  -4  -3  -1 182.906 7.01923  22
  -4  -3  -1 175.572 7.41545  18
  -4  -3  -1 184.059 6.72100  25
  -5  -3  -1 231.489 8.75173  18
  -5  -3  -1 222.669 8.16150  13
  -5  -3  -1 232.394 8.20112  25
  -5  -3  -1 235.479 8.47435   3
   8  -4  -1 64.2657 2.77132  11
   8  -4  -1 66.5826 2.81132  23
   8  -4  -1 67.1889 2.82131   4
  -8   4   1 69.3294 2.79370   4
  -8   4   1 57.4205 2.97874  31
  -8   4   1 68.9533 2.94704  12
  -8   4   1 68.5771 2.83522  11
  -8   4   1 65.4620 2.90910  29
   7  -4  -1 6.50093 0.76059  23
   7  -4  -1 6.47363 0.76379   4
  -7   4   1 5.03019 0.90429  31
  -7   4   1 3.69565 0.74705  20
  -7   4   1 5.51068 0.99535  18
  -7   4   1 4.65927 0.72457  11
  -7   4   1 4.47719 0.87805  12
  -7   4   1 5.22654 0.72740   4
  -7   4   1 3.76089 0.72510  29
   6  -4  -1 13.3658 1.04837  27
   6  -4  -1 15.6362 1.20507  23
   6  -4  -1 14.1238 1.14563   4
  -6   4   1 14.0497 1.35156  31
  -6   4   1 10.4196 1.08734  11
  -6   4   1 12.2503 1.29717  12
  -6   4   1 14.1463 1.28740  20
  -6   4   1 15.7291 1.32917  29
  -6   4   1 13.8171 1.46503  18
  -6   4   1 12.4922 1.13125   4
  -6   4   1 12.8656 1.05300  27
   5  -4  -1 278.218 9.78779   4
   5  -4  -1 261.576 9.40788  30
  -5   4   1 232.187 9.29918  30
  -5   4   1 262.479 9.61083  26
  -5   4   1 274.353 9.94344  20
  -5   4   1 257.256 9.80904   4
  -4   4   1 2408.24 82.5160  26
   3  -4  -1 1579.69 55.3305   7
  -3   4   1 1512.87 57.2237  14
   2  -4  -1 7.84358 1.51237   7
   2  -4  -1 4.54920 0.80866  10
  -2   4   1 5.99362 1.84947  14
   1  -4  -1 1785.96 61.8591   7
   1  -4  -1 1819.95 59.5672  26
   1  -4  -1 1690.31 59.7020  10
  -1   4   1 1721.95 63.2734  14
  -1   4   1 1645.35 60.3199  10
   0  -4  -1 1971.07 71.1831   7
   0  -4  -1 1972.00 68.5132  10
   0  -4  -1 2058.21 68.3129  26
   0   4   1 1955.41 69.2827  10
  -1  -4  -1 418.826 18.5506   7
  -1  -4  -1 395.258 14.8566  15
  -1  -4  -1 419.669 14.9980  10
  -1  -4  -1 408.603 14.7113  26
   1   4   1 412.678 15.8429  10
  -2  -4  -1 2.06097 0.68830  22
  -2  -4  -1 2.33093 0.53709  25
  -2  -4  -1 2.26350 0.69739   3
  -2  -4  -1 2.93247 0.82956  18
  -2  -4  -1 1.31879 1.23261  29
  -2  -4  -1 2.31793 0.51830  13
  -2  -4  -1 1.23614 0.66763  15
  -2  -4  -1 2.17736 0.70640   1
  -2  -4  -1 2.54576 0.70300  10
  -2  -4  -1 2.60913 1.65622   7
  -2  -4  -1 2.17297 0.54848  26
   2   4   1 2.72970 1.10201  10
  -3  -4  -1 88.4632 4.28214  18
  -3  -4  -1 86.1266 3.89486   3
  -3  -4  -1 92.9463 3.59651  25
  -3  -4  -1 89.6231 3.90795  22
  -3  -4  -1 90.9512 3.54350  13
  -3  -4  -1 94.7507 4.05203  15
  -3  -4  -1 83.5850 3.95601   1
  -4  -4  -1 23.5210 1.50507  22
  -4  -4  -1 22.6925 1.73112  18
  -4  -4  -1 22.9620 1.50304   3
  -4  -4  -1 21.7681 1.17948  25
  -4  -4  -1 21.3974 1.15691  13
   8  -5  -1 5.31526 0.62821  23
   8  -5  -1 4.54883 0.61293  11
  -8   5   1 4.41555 0.75779  12
  -8   5   1 4.98689 0.74492  29
  -8   5   1 5.19549 0.62359  11
   7  -5  -1 15.1189 1.09618   4
   7  -5  -1 13.5114 0.99712  27
   7  -5  -1 15.3064 1.09697  23
  -7   5   1 12.0663 1.19173  29
  -7   5   1 13.6984 1.26273  20
  -7   5   1 13.6282 1.36192  18
  -7   5   1 11.8680 1.05516   4
  -7   5   1 11.0119 1.19345  12
   6  -5  -1 799.204 27.9547   4
   6  -5  -1 808.633 27.9467  23
   6  -5  -1 788.580 27.7718  27
   6  -5  -1 816.468 27.7297  30
  -6   5   1 784.192 28.5778  18
  -6   5   1 815.282 28.3262  29
  -6   5   1 801.367 28.0415   4
  -6   5   1 751.265 27.6918  27
  -6   5   1 815.533 28.2938  20
   5  -5  -1 1232.13 41.1928  30
   5  -5  -1 1222.93 41.4068   4
   5  -5  -1 1228.72 41.2705  27
   5  -5  -1 1204.98 41.2362   9
  -5   5   1 1234.78 41.8944  29
  -5   5   1 1193.41 41.7377  20
  -5   5   1 1158.88 42.1345  18
  -5   5   1 1157.11 41.0250  30
  -5   5   1 1170.60 41.2036  27
  -5   5   1 1158.02 41.4269   4
  -5   5   1 1172.35 42.5822   6
   4  -5  -1 1171.36 39.3595  16
   4  -5  -1 1197.74 39.6224  30
  -4   5   1 1138.72 39.4746  30
  -4   5   1 1086.01 40.1438  20
   3  -5  -1 11.7316 0.82727  16
  -3   5   1 14.4624 1.22492  20
   2  -5  -1 962.300 34.3124   7
  -2   5   1 862.234 32.6899  10
   1  -5  -1 78.5446 3.51658  26
   1  -5  -1 80.0397 3.42784  28
   1  -5  -1 81.5270 3.76826  10
   1  -5  -1 83.0641 5.52698   7
  -1   5   1 72.5839 4.02531  17
  -1   5   1 81.8800 4.42437  10
   0  -5  -1 12.3286 1.08922   8
   0  -5  -1 10.0066 0.96294  25
   0  -5  -1 13.2285 1.30058  10
   0  -5  -1 13.4988 1.14197  26
   0  -5  -1 14.3802 1.17137  28
   0  -5  -1 10.1930 1.22726  15
   0  -5  -1 11.2210 1.77868  18
   0   5   1 11.7882 1.78158  18
   0   5   1 13.8462 1.79311  10
   0   5   1 13.7290 1.44213  17
  -1  -5  -1 38.3784 1.82248  25
  -1  -5  -1 37.8866 2.14036  22
  -1  -5  -1 38.5045 2.34208  10
  -1  -5  -1 38.8447 2.73859  18
  -1  -5  -1 38.5470 2.23283   3
  -1  -5  -1 41.9012 2.72592  29
  -1  -5  -1 34.5963 2.04967  28
  -1  -5  -1 43.5237 4.70909   7
  -1  -5  -1 38.0036 2.23120  15
  -1  -5  -1 37.7069 1.79007  13
  -1  -5  -1 33.2796 2.11795   1
   1   5   1 31.7509 2.38781  18
   1   5   1 40.7221 3.02644  10
   1   5   1 37.8652 2.09040  29
  -2  -5  -1 385.115 13.6123  25
  -2  -5  -1 381.165 14.0215   1
  -2  -5  -1 372.293 13.9108  22
  -2  -5  -1 387.603 13.9772   3
  -2  -5  -1 389.564 14.0636  15
  -2  -5  -1 397.219 13.5764  13
  -2  -5  -1 395.174 14.4251  18
   2   5   1 377.294 14.1157  18
   2   5   1 392.949 15.1201  10
   2   5   1 377.883 14.3646   6
  -3  -5  -1 209.558 8.13955  18
  -3  -5  -1 201.060 7.47470  25
  -3  -5  -1 210.082 7.75158  22
  -3  -5  -1 213.375 7.86890  15
  -3  -5  -1 212.847 7.79146   3
  -3  -5  -1 196.279 7.42377  13
   3   5   1 210.946 8.16192   6
   3   5   1 207.342 7.94709  18
   7  -6  -1 252.430 9.02821  23
   7  -6  -1 251.828 9.07275   4
   7  -6  -1 235.702 8.89780  27
  -7   6   1 244.778 9.37918  29
  -7   6   1 251.432 9.32468  20
  -7   6   1 236.015 9.00388   4
   6  -6  -1 193.096 7.37656  30
   6  -6  -1 198.455 7.42947   9
   6  -6  -1 201.415 7.59354   4
   6  -6  -1 175.452 7.37805  27
  -6   6   1 202.125 7.35995  27
  -6   6   1 200.346 8.01205  29
  -6   6   1 205.363 7.97417  20
  -6   6   1 207.770 7.54326   4
  -6   6   1 200.708 8.26681  18
  -6   6   1 202.702 8.75761   6
   5  -6  -1 183.080 6.63875  27
   5  -6  -1 187.419 6.65622   9
   5  -6  -1 179.628 6.57063  30
  -5   6   1 175.842 6.55862  27
  -5   6   1 168.126 7.14587  20
  -5   6   1 171.862 7.27657  29
  -5   6   1 157.750 7.43078  18
  -5   6   1 165.792 8.01261   6
   4  -6  -1 7.31387 0.85739  21
   4  -6  -1 7.21338 0.85842  30
   4  -6  -1 7.97833 0.97990   9
   4  -6  -1 8.32864 1.01078  27
  -4   6   1 10.7424 1.35303  29
  -4   6   1 6.25738 1.38051   6
  -4   6   1 7.08700 1.12849  20
  -4   6   1 5.64002 1.29047  18
   3  -6  -1 341.364 12.0536  28
   3  -6  -1 324.197 11.9636  30
   3  -6  -1 347.449 12.0285  21
   3  -6  -1 341.332 12.0629   9
  -3   6   1 323.994 13.3739   6
  -3   6   1 317.087 12.5945  29
  -3   6   1 337.196 13.1192  18
   2  -6  -1 120.431 4.79967  28
   2  -6  -1 116.026 5.67271  18
   2  -6  -1 114.658 4.72942  21
   2  -6  -1 115.048 4.76576   8
  -2   6   1 111.404 5.71734  10
  -2   6   1 124.262 5.50832  18
  -2   6   1 126.171 5.79272   6
  -2   6   1 124.985 5.06526  29
   1  -6  -1 1.55496 0.88760   3
   1  -6  -1 1.01335 0.44255   8
   1  -6  -1 0.83703 0.45856  28
   1  -6  -1 0.30962 1.06613   7
   1  -6  -1 1.11170 0.45033  21
   1  -6  -1 0.62846 0.66875  29
  -1   6   1 1.47056 0.50688   6
  -1   6   1 0.68703 0.82768  10
  -1   6   1 3.17182 0.90903   3
   0  -6  -1 20.0015 1.63210   1
   0  -6  -1 21.6824 1.49046  28
   0  -6  -1 20.6620 1.98367  18
   0  -6  -1 19.6619 1.61560  15
   0  -6  -1 19.8592 1.79767   3
   0   6   1 21.7599 1.68645   3
   0   6   1 24.0003 1.95254  17
   0   6   1 22.6622 2.32786  10
   0   6   1 25.0560 1.74984   6
   0   6   1 20.3289 1.84023  18
  -1  -6  -1 381.818 14.0235  13
  -1  -6  -1 398.719 14.3768  22
  -1  -6  -1 398.042 14.1131  25
  -1  -6  -1 413.643 14.5082   1
  -1  -6  -1 399.316 14.4989   3
  -1  -6  -1 397.127 14.8919  18
  -1  -6  -1 381.259 14.4385  15
   1   6   1 406.605 14.6788  18
   1   6   1 418.391 14.8425  17
   1   6   1 411.850 14.8665   6
  -2  -6  -1 409.074 14.3465  22
  -2  -6  -1 413.790 14.3822   1
  -2  -6  -1 393.272 14.3901  15
  -2  -6  -1 404.386 14.7260  18
  -2  -6  -1 418.425 14.4510   3
  -2  -6  -1 380.733 14.0621  25
  -2  -6  -1 390.630 14.0206  13
   2   6   1 407.924 14.6856  17
   2   6   1 396.562 14.6268   6
   2   6   1 412.654 14.5456  18
   7  -7  -1 4.45740 0.64702   9
   7  -7  -1 3.45470 0.72155  27
  -7   7   1 5.82435 0.91667  29
   6  -7  -1 149.316 5.41353   9
   6  -7  -1 158.052 5.50596  27
   6  -7  -1 142.172 5.40554  30
  -6   7   1 141.028 6.03786  18
  -6   7   1 140.368 5.99432  29
  -6   7   1 131.839 6.49513   6
  -6   7   1 133.128 5.82528  20
   5  -7  -1 202.747 7.55571  30
   5  -7  -1 199.361 7.50703  21
   5  -7  -1 191.860 7.52050   9
   5  -7  -1 204.842 7.60793  27
  -5   7   1 202.938 8.23670  29
  -5   7   1 218.175 8.47445  18
  -5   7   1 206.626 9.02096   6
   4  -7  -1 45.3150 2.18092   9
   4  -7  -1 41.5994 2.12042  30
   4  -7  -1 47.3043 2.19085  21
  -4   7   1 45.1063 2.91660  18
  -4   7   1 44.8307 2.67660  29
  -4   7   1 45.3067 3.23352   6
   3  -7  -1 283.300 10.3156  28
   3  -7  -1 258.880 10.2147   9
   3  -7  -1 285.462 10.2740  21
  -3   7   1 289.616 10.7761  29
  -3   7   1 287.569 11.0640  18
  -3   7   1 289.782 11.5065   6
   2  -7  -1 85.1157 4.31477  18
   2  -7  -1 86.7522 3.64959  28
   2  -7  -1 86.9257 3.61326   8
   2  -7  -1 86.1482 3.58647  21
  -2   7   1 88.7058 4.37332   6
  -2   7   1 87.4798 4.15006  18
  -2   7   1 88.8356 3.88958  29
  -2   7   1 78.2250 4.39430  10
   1  -7  -1 1.82514 0.75137  18
   1  -7  -1 2.15585 0.56897  28
   1  -7  -1 2.31286 0.54964  21
  -1   7   1 1.91232 0.59156   6
  -1   7   1 1.94014 0.70711  18
   0  -7  -1 92.0217 4.13077  18
   0  -7  -1 88.5560 3.89125   3
   0  -7  -1 84.5275 3.65395  28
   0  -7  -1 95.8690 3.86897   1
   0   7   1 92.6035 3.86737   3
   0   7   1 90.2092 3.98244  18
   0   7   1 91.8282 4.15752   6
  -1  -7  -1 47.7980 2.42192  18
  -1  -7  -1 51.0005 2.29879   3
  -1  -7  -1 50.8601 2.24932   1
   1   7   1 43.9943 2.35022   6
   1   7   1 44.5569 2.26486  18
   1   7   1 45.7994 2.20066   3
   6  -8  -1 1.31981 0.49141  27
   6  -8  -1 0.71371 0.35771   9
   5  -8  -1 21.9287 1.26509  30
   5  -8  -1 24.0899 1.34964   9
   5  -8  -1 22.5195 1.23885  21
  -5   8   1 23.0401 1.60310  29
  -5   8   1 23.9957 1.91244   6
  -5   8   1 24.2134 1.62187  18
   4  -8  -1 20.1280 1.28420   9
   4  -8  -1 20.3448 1.21723  21
  -4   8   1 20.5713 1.51493  29
  -4   8   1 20.9976 1.54828  18
  -4   8   1 21.8065 1.82868   6
   3  -8  -1 37.0062 1.78348  21
   3  -8  -1 34.0490 1.79136  28
  -3   8   1 36.6525 2.32119   6
  -3   8   1 37.5127 2.01647  29
  -3   8   1 38.8633 2.13864  18
   2  -8  -1 26.3537 1.41823  21
   2  -8  -1 30.4593 1.55439  28
  -2   8   1 29.3061 1.88907   6
  -2   8   1 30.4375 1.77628  18
   1  -8  -1 35.3187 1.95134  18
  -1   8   1 34.1764 1.82356  18
  -1   8   1 31.6710 1.87480   6
  -1   8  -2 48.8883 2.22711  29
  -1   8  -2 47.2927 2.44529   6
   1  -8   2 48.7429 2.19164   8
  -2   8  -2 65.4986 2.88492  29
  -2   8  -2 63.6800 3.13714   6
  -2   8  -2 64.3341 2.92656  20
   2  -8   2 63.1257 2.77644   8
   2  -8   2 62.0954 2.78176  28
  -3   8  -2 12.9377 1.17386  20
  -3   8  -2 12.0225 1.10812  29
  -3   8  -2 13.4101 1.34663   6
   3  -8   2 12.3716 1.06060   8
   3  -8   2 13.6429 0.99401  21
   3  -8   2 12.8324 1.07651  28
  -4   8  -2 43.5970 2.39056  20
  -4   8  -2 42.5488 2.51173   6
  -4   8  -2 43.0679 2.26025  29
   4  -8   2 40.9500 2.06062  28
   4  -8   2 43.7516 2.02628  21
  -5   8  -2 158.699 6.50011   6
  -5   8  -2 165.332 6.26338  29
   5  -8   2 157.525 5.92208   9
   5  -8   2 159.534 5.92757  21
   5  -8   2 156.250 5.90910  30
   6  -8   2 4.27057 0.61995   9
   1   7  -2 1.49103 0.53321  18
   1   7  -2 1.99963 0.48777  29
   1   7  -2 0.74069 0.48511   6
  -1  -7   2 1.51007 0.60580   1
   0   7  -2 83.3547 3.71568  20
   0   7  -2 81.5329 3.67635  29
   0   7  -2 81.0845 4.01457   6
   0   7  -2 80.1037 3.75289  18
   0  -7   2 89.2482 3.95776  18
   0  -7   2 90.7327 4.03066  29
   0  -7   2 95.6862 3.71359   8
   0  -7   2 97.2602 3.88650   1
  -1   7  -2 35.3425 2.05894  20
  -1   7  -2 36.4004 2.05527  29
  -1   7  -2 36.3280 2.35712   6
   1  -7   2 38.3598 2.06578  28
   1  -7   2 38.2634 2.09088   8
  -2   7  -2 15.0879 1.32099  20
  -2   7  -2 10.6678 1.37459   6
  -2   7  -2 10.4836 1.48159  10
  -2   7  -2 11.9583 1.19220  29
   2  -7   2 12.8318 1.21661  28
   2  -7   2 11.2742 1.01766  21
   2  -7   2 12.8236 1.19563   8
  -3   7  -2 357.965 13.9102   6
  -3   7  -2 361.204 13.4341  29
  -3   7  -2 369.729 13.6029  20
   3  -7   2 366.825 13.0460  21
   3  -7   2 361.448 13.1656  28
   3  -7   2 353.666 13.1070   8
  -4   7  -2 228.484 9.29807   6
  -4   7  -2 225.713 8.98366  20
  -4   7  -2 225.492 8.81094  29
   4  -7   2 216.255 8.21057  30
   4  -7   2 220.429 8.35022  28
   4  -7   2 213.573 8.24749   9
   4  -7   2 228.672 8.32165  21
   4  -7   2 223.540 7.98701  16
  -5   7  -2 53.1086 2.34350  27
  -5   7  -2 54.7892 3.17248   6
  -5   7  -2 53.6238 3.07491  20
  -5   7  -2 54.2700 2.92489  29
   5  -7   2 45.5243 2.38594  27
   5  -7   2 51.0129 2.17098  16
   5  -7   2 48.8587 2.45967   9
   5  -7   2 53.2722 2.45344  21
   5  -7   2 53.8799 2.46204  30
  -6   7  -2 182.447 7.53474  12
  -6   7  -2 187.086 7.37452  29
  -6   7  -2 180.814 7.48147  20
  -6   7  -2 193.544 6.84234  27
   6  -7   2 193.569 6.94736  27
   6  -7   2 183.669 6.92792   9
   6  -7   2 184.702 6.68304  16
   6  -7   2 189.217 6.93838  30
   7  -7   2 248.438 8.72042  27
   7  -7   2 235.254 8.70198   9
   3   6  -2 5.39780 1.05813  18
   3   6  -2 4.17261 0.77925   6
  -3  -6   2 5.81112 0.57174  13
  -3  -6   2 5.23019 0.95132  18
  -3  -6   2 5.65450 0.86764   1
  -3  -6   2 7.27425 0.84906  22
   2   6  -2 2.52186 0.68258  29
   2   6  -2 4.31457 1.19871  18
   2   6  -2 1.94420 0.92597   6
  -2  -6   2 2.53281 0.66336  22
  -2  -6   2 0.13923 0.84638  18
  -2  -6   2 2.50056 0.70685   1
  -2  -6   2 1.70336 0.70934  15
   1   6  -2 91.6296 3.96953  29
   1   6  -2 94.5710 4.30817  18
   1   6  -2 93.4962 3.94166  20
   1   6  -2 94.2766 4.78690  10
   1   6  -2 96.0919 4.53004   6
  -1  -6   2 98.7986 4.21975   1
  -1  -6   2 90.9198 4.37504  18
  -1  -6   2 94.2831 4.32106  15
  -1  -6   2 91.6684 4.13119  22
  -1  -6   2 90.8900 3.90549   8
  -1  -6   2 89.1914 4.19009  29
   0   6  -2 50.3778 2.96821   6
   0   6  -2 57.4188 3.48767  10
   0   6  -2 50.3187 2.59296  20
   0   6  -2 48.3895 2.84380  18
   0   6  -2 51.6214 2.58329  29
   0  -6   2 53.1386 2.98131  18
   0  -6   2 50.0688 2.58783  28
   0  -6   2 60.5596 2.88261   1
   0  -6   2 53.9941 2.66706   8
   0  -6   2 54.1594 2.84409  29
   0  -6   2 45.5508 2.95327  15
  -1   6  -2 264.820 9.96978  20
  -1   6  -2 258.729 10.6951  10
  -1   6  -2 251.638 10.3435   6
  -1   6  -2 258.378 9.90387  29
   1  -6   2 263.334 9.84915   8
   1  -6   2 277.612 9.87214  28
   1  -6   2 268.417 10.7694  29
  -2   6  -2 471.399 16.9724  20
  -2   6  -2 462.272 16.8455  29
  -2   6  -2 454.128 17.3083   6
  -2   6  -2 446.426 17.3912  10
   2  -6   2 470.162 16.6884  28
   2  -6   2 483.632 16.7231   8
   2  -6   2 462.121 16.1714  16
   2  -6   2 462.370 16.5169  21
  -3   6  -2 51.5085 2.92580  29
  -3   6  -2 55.2690 3.12424  20
  -3   6  -2 52.0867 3.27764   6
  -3   6  -2 51.1402 2.27058  30
   3  -6   2 55.6655 2.69317  28
   3  -6   2 54.1519 2.23114  16
   3  -6   2 52.6598 2.54364  21
   3  -6   2 47.3279 2.42901  30
   3  -6   2 47.3316 2.50509   9
  -4   6  -2 46.2295 2.25111  27
  -4   6  -2 46.9051 3.15164   6
  -4   6  -2 46.7253 2.78449  29
  -4   6  -2 46.6665 2.91071  20
  -4   6  -2 46.6718 2.00954  21
  -4   6  -2 45.9422 2.98840  12
   4  -6   2 44.7376 2.20558  30
   4  -6   2 46.1147 2.38262  28
   4  -6   2 41.0041 2.23597  27
   4  -6   2 42.6247 2.24074   9
   4  -6   2 45.8375 1.98996  16
   4  -6   2 45.2316 2.27039  21
  -5   6  -2 2.35094 0.80570   6
  -5   6  -2 2.43099 0.80661  29
  -5   6  -2 2.60489 0.91547  20
  -5   6  -2 3.96726 0.55812  30
  -5   6  -2 4.00070 0.80066  27
  -5   6  -2 2.94120 0.97464  12
   5  -6   2 3.83651 0.53846  16
   5  -6   2 4.82704 0.72586  30
   5  -6   2 4.49568 0.84279  27
   5  -6   2 2.95570 0.64347  21
   5  -6   2 5.14314 0.81262   9
  -6   6  -2 2.08465 0.76100  20
  -6   6  -2 0.75438 0.31088  30
  -6   6  -2 1.21394 0.47469   4
  -6   6  -2 1.41143 0.84717  12
   6  -6   2 0.68920 0.42138   9
   6  -6   2 0.73098 0.53923   4
   6  -6   2 1.37504 0.55475  27
   6  -6   2 0.47518 0.38745  30
  -7   6  -2 0.59464 0.27229  30
  -7   6  -2 1.24803 0.43688  27
  -7   6  -2 0.75291 0.38921   4
   7  -6   2 0.72059 0.42098   4
   7  -6   2 0.93410 0.40114  30
   7  -6   2 1.22118 0.48632  23
   4   5  -2 14.6329 1.80103   6
   4   5  -2 17.8022 1.42647  18
   4   5  -2 13.2645 1.36058  29
  -4  -5   2 15.9604 1.52687  18
  -4  -5   2 14.8393 0.89135  13
  -4  -5   2 14.8435 1.12266   3
  -4  -5   2 14.1953 1.10065  22
  -4  -5   2 19.5796 1.71305  29
   3   5  -2 84.5118 3.77839  29
   3   5  -2 87.5312 4.19395   6
   3   5  -2 82.2739 3.76055  20
  -3  -5   2 82.0884 3.85039  15
  -3  -5   2 82.5581 4.00900  18
  -3  -5   2 87.4268 3.78621   1
  -3  -5   2 81.3183 3.34434  13
  -3  -5   2 83.5354 3.77284  22
  -3  -5   2 88.9239 4.25985  29
  -3  -5   2 90.3403 4.28212  20
  -3  -5   2 81.5927 3.41656  25
  -3  -5   2 85.5325 3.68859   3
   2   5  -2 7.35650 1.35182  20
   2   5  -2 5.57378 1.07595  29
  -2  -5   2 6.50991 0.85862  25
  -2  -5   2 6.73056 1.48829  20
  -2  -5   2 6.09335 1.02057  22
  -2  -5   2 4.96684 0.95578   3
  -2  -5   2 6.63597 1.18584  15
  -2  -5   2 5.95307 1.15991  18
  -2  -5   2 5.59492 0.73178  13
  -2  -5   2 5.99013 1.39199  29
   1   5  -2 31.5583 2.71695   6
   1   5  -2 37.6296 2.15665  20
   1   5  -2 36.1187 2.23730  29
   1   5  -2 38.3392 2.75371  10
  -1  -5   2 35.7130 2.04733   8
  -1  -5   2 34.7676 2.44022  15
  -1  -5   2 36.2755 2.54989  29
  -1  -5   2 36.5284 2.49041  18
  -1  -5   2 34.8294 2.02396  26
  -1  -5   2 36.9107 2.34687   1
  -1  -5   2 34.8256 2.48716  20
  -1  -5   2 35.8453 2.28671  22
   0   5  -2 67.0135 3.79501  10
   0   5  -2 68.7021 2.93348  20
   0  -5   2 63.2594 2.99941  28
   0  -5   2 56.0125 3.24000  15
  -1   5  -2 82.3148 4.34666  10
  -1   5  -2 84.5528 3.76705  20
  -2   5  -2 246.753 10.1423  10
  -2   5  -2 265.323 9.89438  20
   2  -5   2 252.519 9.06086  16
  -3   5  -2 185.605 7.83855  20
   3  -5   2 203.433 7.52565  28
   3  -5   2 186.760 6.91642  16
  -4   5  -2 25.8894 2.05053  20
  -4   5  -2 31.1301 2.32616  12
  -4   5  -2 27.5902 1.45346  30
   4  -5   2 26.6887 1.58815  30
   4  -5   2 27.8080 1.38124  16
  -5   5  -2 6.98524 0.72030  30
  -5   5  -2 6.49225 1.13644  29
  -5   5  -2 6.56293 1.33716   6
  -5   5  -2 7.76196 0.93252  27
  -5   5  -2 9.71330 1.36857  12
  -5   5  -2 10.1144 1.27808  20
  -5   5  -2 6.84475 0.89632   4
  -5   5  -2 8.77120 1.24325  31
   5  -5   2 7.37085 0.71862  16
   5  -5   2 9.75061 1.05636   9
   5  -5   2 7.33304 0.88188  30
   5  -5   2 10.7502 1.12351  27
  -6   5  -2 28.0229 1.82482   4
  -6   5  -2 26.1408 1.57222  27
  -6   5  -2 26.5419 1.77434  11
  -6   5  -2 29.3736 2.13374  31
  -6   5  -2 26.5418 1.85448  29
  -6   5  -2 30.4060 2.12853  12
  -6   5  -2 28.0689 1.98808  20
  -6   5  -2 24.5605 1.41974  30
   6  -5   2 30.5823 1.74170  27
   6  -5   2 25.8404 1.87281   4
   6  -5   2 26.9012 1.58349  30
   6  -5   2 29.0193 1.64380   9
  -7   5  -2 170.942 6.54443  29
  -7   5  -2 162.943 6.74737  12
  -7   5  -2 164.379 6.51527  11
  -7   5  -2 172.734 6.66749  20
  -7   5  -2 167.350 6.26792  27
  -7   5  -2 165.978 6.52394   4
  -7   5  -2 168.789 6.91264  31
   7  -5   2 161.473 6.54118  23
   7  -5   2 164.946 6.56371   4
   7  -5   2 155.158 6.25058  27
   5   4  -2 1.90596 0.73282  29
  -5  -4   2 1.47329 0.50883  22
  -5  -4   2 2.04130 0.64228  18
  -5  -4   2 2.77016 0.93832  29
  -5  -4   2 1.54411 0.34784  13
   4   4  -2 58.0615 2.89836  29
   4   4  -2 55.6951 3.01681  20
  -4  -4   2 60.7327 3.03013  15
  -4  -4   2 63.1784 2.60816  13
  -4  -4   2 67.1727 3.68343  20
  -4  -4   2 60.3722 2.65144  25
  -4  -4   2 61.8719 3.01403  22
  -4  -4   2 63.9570 2.97868   3
  -4  -4   2 59.9743 3.19377  18
  -4  -4   2 65.4182 3.49285  29
   3   4  -2 360.529 13.4348  20
   3   4  -2 356.629 13.3315  29
  -3  -4   2 377.936 13.0286  13
  -3  -4   2 376.736 13.9099  18
  -3  -4   2 380.369 13.6750  15
  -3  -4   2 341.703 16.9225   7
  -3  -4   2 360.915 13.5378  22
  -3  -4   2 376.663 13.1482  25
  -3  -4   2 367.810 13.9572  29
  -3  -4   2 366.901 13.4760   1
  -3  -4   2 370.554 13.4855   3
  -3  -4   2 368.986 14.0437  20
   2   4  -2 640.294 22.0049  20
   2   4  -2 639.387 21.9011  29
  -2  -4   2 627.034 22.4916  29
  -2  -4   2 621.097 22.4072  18
  -2  -4   2 571.047 22.4101  20
  -2  -4   2 609.162 21.8735  26
  -2  -4   2 713.184 26.4593   7
  -2  -4   2 533.578 22.6130  12
  -2  -4   2 620.597 21.7025  25
   1   4  -2 3.15696 0.95198  10
  -1  -4   2 0.53807 0.81544  20
  -1  -4   2 2.57782 1.34010   7
  -1  -4   2 2.33609 0.52657  26
   0   4  -2 481.477 18.2895  10
   0  -4   2 505.345 17.4973  26
  -1   4  -2 359.389 15.3841  14
  -1   4  -2 364.517 13.7053  10
  -2   4  -2 448.806 17.3377  10
  -2   4  -2 496.641 19.6018  14
  -3   4  -2 11.2205 1.74107   5
  -3   4  -2 13.0834 1.07782  26
   3  -4   2 12.6084 2.00991   5
  -4   4  -2 371.856 15.3542   5
  -4   4  -2 386.927 13.3245  26
  -4   4  -2 362.629 13.7882  20
   4  -4   2 360.106 15.7362   5
  -5   4  -2 19.4326 1.40425  27
  -5   4  -2 24.5786 1.82572  12
  -5   4  -2 20.2934 1.43109  26
  -5   4  -2 21.4917 1.60218   4
  -5   4  -2 22.1331 1.25441  30
  -5   4  -2 18.5239 1.58586  29
  -5   4  -2 20.9175 1.75147  31
  -5   4  -2 20.9577 1.62738  20
   5  -4   2 18.8781 1.49184  27
  -6   4  -2 117.304 5.26155  31
  -6   4  -2 116.363 4.92131   4
  -6   4  -2 115.965 4.92286  29
  -6   4  -2 110.171 4.57104  27
  -6   4  -2 117.965 4.90774  11
  -6   4  -2 115.425 4.97027  20
  -6   4  -2 107.656 4.99160  12
   6  -4   2 107.499 4.66678  27
  -7   4  -2 26.7142 1.62196  29
  -7   4  -2 27.6363 1.90283  31
  -7   4  -2 24.0159 1.61037  11
  -7   4  -2 23.9680 1.72802  12
  -7   4  -2 24.1893 1.63562   4
  -7   4  -2 26.0653 1.66396  20
   7  -4   2 21.0224 1.58297   4
  -8   4  -2 69.9568 2.81141  11
   8  -4   2 58.8039 2.72506  23
   5   3  -2 257.286 9.83240  20
   5   3  -2 256.739 9.93946  12
  -5  -3   2 254.293 10.4023  12
  -5  -3   2 267.503 10.2658  29
  -5  -3   2 259.047 10.2446  20
  -5  -3   2 264.979 10.1524  18
  -5  -3   2 271.542 9.83901   3
  -5  -3   2 268.868 9.50322  25
  -5  -3   2 275.405 9.43399  13
   4   3  -2 624.843 23.1235  12
   4   3  -2 650.513 23.1250  20
  -4  -3   2 622.496 23.5096  12
  -4  -3   2 644.038 22.5964  25
  -4  -3   2 614.760 23.5424  20
  -4  -3   2 669.751 23.0432  22
  -4  -3   2 648.049 23.7275  29
  -4  -3   2 643.904 22.4787  13
  -4  -3   2 670.718 23.5871  18
  -4  -3   2 664.735 23.0706   3
   3   3  -2 659.416 24.4510  12
   3   3  -2 676.989 24.4963  20
   3   3  -2 729.558 29.7489   7
  -3  -3   2 677.171 24.1109  26
  -3  -3   2 725.412 24.5508  15
  -3  -3   2 719.995 28.3939   7
  -3  -3   2 687.612 23.9985  25
  -3  -3   2 622.270 24.7745  12
  -2  -3   2 4.16707 0.59645  26
  -2  -3   2 5.95317 1.82237   7
   1   3  -2 48.9851 2.95988  10
  -1  -3   2 54.1705 2.39704  26
  -1  -3   2 56.6314 4.24236   7
   0   3  -2 6.19593 1.31964  14
   0  -3   2 6.61471 0.66012  26
   0  -3   2 4.59239 1.57439   5
   0  -3   2 5.93350 1.46323   7
  -1   3  -2 605.606 22.2143  14
  -1   3  -2 562.932 20.3219  26
   1  -3   2 562.542 22.6295   5
  -2   3  -2 200.914 9.44328  14
  -2   3  -2 187.519 8.59303   5
  -2   3  -2 203.594 13.6245  24
  -2   3  -2 190.666 7.27381  26
   2  -3   2 206.000 8.87392   5
  -3   3  -2 1431.80 50.3585  14
  -3   3  -2 1328.07 47.0806  26
  -3   3  -2 1361.70 48.8195   5
   3  -3   2 1367.77 49.0855   5
  -4   3  -2 1048.48 37.3541  26
  -4   3  -2 1063.49 39.3346   5
   4  -3   2 1146.24 39.9658   5
  -5   3  -2 624.122 22.2961  12
  -5   3  -2 618.235 22.3790  31
  -5   3  -2 613.382 22.0895  20
  -5   3  -2 651.571 22.2064   4
  -5   3  -2 576.373 21.4661  26
   5  -3   2 627.468 24.4206   5
  -6   3  -2 79.1418 3.58516  11
  -6   3  -2 76.2008 3.88745  31
  -6   3  -2 78.2864 3.74966  12
  -6   3  -2 76.4665 3.57769   4
  -6   3  -2 78.6378 3.63661  20
  -6   3  -2 73.9650 3.53211  29
  -7   3  -2 124.245 5.04350   4
  -7   3  -2 123.189 5.32152  31
  -7   3  -2 122.518 4.99613  29
  -7   3  -2 126.025 5.06109  11
  -7   3  -2 122.159 5.16856  12
  -7   3  -2 121.576 5.04254  20
   7  -3   2 124.310 5.04323   4
   6   2  -2 169.945 6.89056  12
   6   2  -2 176.474 6.88796  20
  -6  -2   2 181.880 7.08450  18
  -6  -2   2 174.872 6.36935  13
  -6  -2   2 179.213 7.19490  20
  -6  -2   2 185.114 6.79594   3
  -6  -2   2 174.354 7.21140  29
  -6  -2   2 163.009 7.07012  12
  -6  -2   2 178.725 6.43239  25
   5   2  -2 80.5963 3.71156  12
  -5  -2   2 75.6040 3.27254  25
  -5  -2   2 78.9166 4.10060  18
  -5  -2   2 78.3852 3.72958   3
  -5  -2   2 77.1592 4.06803  29
  -5  -2   2 76.4704 3.93656  20
  -5  -2   2 75.3606 3.81566  12
  -5  -2   2 78.3777 3.21344  13
   4   2  -2 12.1630 2.88394   7
  -4  -2   2 11.1680 0.96345  26
  -4  -2   2 10.8136 0.99280  25
  -4  -2   2 11.0264 1.35485   3
  -4  -2   2 10.7958 1.60008  18
  -4  -2   2 12.0092 2.46146   7
  -4  -2   2 10.9462 1.27524  12
  -4  -2   2 11.5237 0.98470  13
  -4  -2   2 11.2274 1.38484  29
   3   2  -2 158.416 9.79822   7
  -3  -2   2 150.239 8.86158   7
  -3  -2   2 145.724 5.70802  26
  -2  -2   2 1310.23 44.8743   5
  -2  -2   2 1201.25 42.1672  26
  -2  -2   2 1169.99 45.3614   7
  -1  -2   2 1885.34 67.2039  26
  -1  -2   2 1915.53 75.5605  24
  -1  -2   2 2029.54 69.1729   5
  -1  -2   2 2036.50 69.5766   7
   0   2  -2 976.125 39.7163  24
   0   2  -2 953.453 34.0251  14
   0  -2   2 1027.53 32.8556  26
   0  -2   2 907.187 41.2249  24
   0  -2   2 908.376 34.7088   5
  -1   2  -2 -1.9505 0.90346  24
  -1   2  -2 -2.0569 0.55318  14
   1  -2   2 -1.6841 0.63453   5
  -2   2  -2 4907.94 167.825  26
  -2   2  -2 4952.74 172.873   5
  -2   2  -2 5061.60 190.124  24
  -2   2  -2 4837.47 175.060  14
   2  -2   2 4815.98 173.992   5
  -3   2  -2 6065.50 205.766  14
  -3   2  -2 5743.34 205.771   5
   3  -2   2 5796.73 208.239   5
  -4   2  -2 206.088 9.27262   5
   4  -2   2 208.424 9.79929   5
  -5   2  -2 197.641 8.17807  12
  -5   2  -2 185.289 8.08760  31
  -5   2  -2 213.990 7.98841   4
  -5   2  -2 207.208 7.93003  20
  -5   2  -2 198.328 9.46829   5
   5  -2   2 218.580 10.1545   5
  -6   2  -2 56.6283 2.83529  29
  -6   2  -2 61.0801 2.90011  20
  -6   2  -2 54.1638 3.04117  31
  -6   2  -2 58.4807 2.87240  11
  -6   2  -2 61.7936 3.09321  12
  -7   2  -2 4.08831 0.81144  31
  -7   2  -2 4.93811 0.71900  20
  -7   2  -2 4.47133 0.73911  11
  -7   2  -2 4.67255 0.81022  12
  -7  -1   2 110.666 4.40967   3
  -7  -1   2 112.799 4.66602  18
  -7  -1   2 113.264 4.80077  29
   6   1  -2 285.238 10.3578  31
  -6  -1   2 281.094 10.5301  20
  -6  -1   2 278.631 10.4278  12
  -6  -1   2 263.109 10.3779  31
  -6  -1   2 269.828 10.7482  18
  -6  -1   2 265.161 10.5603  29
  -6  -1   2 276.692 10.3636   3
   5   1  -2 34.3471 1.94994  31
   5   1  -2 29.1966 4.49238   7
  -5  -1   2 31.3873 1.70799  25
  -5  -1   2 30.7931 2.16076   3
  -5  -1   2 28.3644 3.80140   7
  -5  -1   2 29.2145 2.00197  29
  -5  -1   2 29.3866 1.95297  12
  -5  -1   2 28.6670 2.22026  18
  -5  -1   2 29.6149 1.61772  13
  -5  -1   2 30.8791 1.99026  31
  -5  -1   2 29.1676 1.90439  20
   4   1  -2 75.4502 6.55668   7
  -4  -1   2 70.7966 3.33372  20
  -4  -1   2 75.2827 3.08099  26
  -4  -1   2 70.9448 5.01966   5
  -4  -1   2 71.1495 5.66668   7
   3   1  -2 3107.55 110.636   7
  -3  -1   2 2997.82 109.242   7
  -3  -1   2 3133.53 108.561   5
  -3  -1   2 3147.03 105.626  26
  -2  -1   2 7446.62 264.918  26
  -2  -1   2 7702.79 275.301   7
  -2  -1   2 8352.52 275.133   5
  -2  -1   2 7532.23 297.786  24
  -1  -1   2 1275.73 53.0452  24
  -1  -1   2 1388.34 47.0815  26
  -1  -1   2 1388.70 53.0242  24
  -1  -1   2 1442.00 49.6423   5
   0   1  -2 225.138 9.27389  14
   0   1  -2 252.778 12.9372  24
   0  -1   2 255.485 13.4676  24
   0  -1   2 250.718 12.4657  24
   0  -1   2 232.193 10.3326   5
  -1   1  -2 1126.80 36.8691   5
  -1   1  -2 1010.00 37.3256  14
   1  -1   2 1001.56 36.8990   5
  -2   1  -2 551.586 19.3554   5
  -2   1  -2 531.775 19.9917  14
   2  -1   2 498.294 19.4906   5
  -3   1  -2 281.316 11.6637   5
  -3   1  -2 293.056 12.1283  14
   3  -1   2 286.973 11.9752   5
  -4   1  -2 509.487 19.8023   5
   4  -1   2 513.228 20.2082   5
  -5   1  -2 1080.19 35.7608  20
  -5   1  -2 975.267 35.8650  12
  -5   1  -2 1015.45 36.0237  31
  -6   1  -2 81.4088 3.79482  12
  -6   1  -2 86.8613 3.75396  20
  -6   1  -2 81.2418 3.89100  31
   7   0  -2 469.828 16.7808  31
  -7   0   2 469.808 16.7201   3
  -7   0   2 445.294 16.8300  31
  -7   0   2 465.309 16.9551  29
  -7   0   2 465.518 16.8205  12
  -7   0   2 486.898 17.1759  18
  -7   0   2 479.822 16.8854  20
   6   0  -2 207.376 7.21416  19
  -6   0   2 204.226 7.90994   3
  -6   0   2 198.453 7.82100  29
  -6   0   2 185.547 7.79872  31
  -6   0   2 206.944 8.24740  18
  -6   0   2 194.967 7.74514  12
  -6   0   2 189.238 7.71816  20
   5   0  -2 24.2418 1.20506  19
   5   0  -2 19.3226 3.53149   7
  -5   0   2 20.9546 1.97492   3
  -5   0   2 22.1209 1.43833  26
  -5   0   2 21.5438 1.48768  20
  -5   0   2 20.9888 1.80147  18
  -5   0   2 21.2138 1.57064  12
  -5   0   2 20.3886 3.00604   7
  -5   0   2 21.4741 1.54151  29
  -5   0   2 24.6359 1.69962  31
   4   0  -2 680.763 28.5005   7
  -4   0   2 667.136 26.9913   7
  -4   0   2 673.125 23.6151  26
  -4   0   2 693.069 26.2583   5
   3   0  -2 2501.80 90.4388   7
  -3   0   2 2549.69 90.3243   5
  -3   0   2 2564.64 86.8148  26
  -3   0   2 2530.49 89.4418   7
  -2   0   2 1495.37 51.1361  26
  -2   0   2 1570.58 54.6181   5
  -2   0   2 1410.57 56.6855  24
  -1   0   2 485.788 16.7536   5
  -1   0   2 425.840 19.6552  24
   0   0  -2 5689.17 196.845  24
   0   0  -2 5166.63 185.523  14
   0   0   2 5088.00 187.124  14
  -1   0  -2 11.8106 1.05573   5
  -1   0  -2 12.9362 1.37447  14
   1   0   2 12.1444 1.64012  14
   1   0   2 10.2810 1.05373   5
  -2   0  -2 661.339 24.5694  14
  -2   0  -2 677.001 24.2560   5
   2   0   2 672.033 25.3343  14
  -3   0  -2 26.3130 2.28820   5
   7  -1  -2 0.96219 0.57526  31
   7  -1  -2 2.77908 0.49401  19
  -7   1   2 1.58235 0.52605  29
  -7   1   2 1.56224 0.57701  31
  -7   1   2 2.22811 0.57302  12
  -7   1   2 3.14252 0.64042  11
  -7   1   2 1.42392 0.53643  20
   6  -1  -2 34.0536 1.62337  19
   6  -1  -2 29.6587 4.39406   7
  -6   1   2 36.7597 2.50359   3
  -6   1   2 34.5249 2.04303  12
  -6   1   2 34.3107 2.03462  29
  -6   1   2 33.4070 1.97715  20
  -6   1   2 35.3614 1.89442  11
  -6   1   2 33.8860 2.11112  31
  -6   1   2 34.6771 2.34494  18
   5  -1  -2 478.061 21.8748   7
  -5   1   2 476.801 17.0971  20
  -5   1   2 464.578 20.0492   7
  -5   1   2 466.974 19.4017   5
  -5   1   2 480.256 17.3190  31
  -5   1   2 487.888 16.9335  26
   4  -1  -2 14.6714 2.54534   7
  -4   1   2 14.0868 0.94175  26
  -4   1   2 12.9544 1.99528   7
  -4   1   2 13.1724 1.89665   5
   3  -1  -2 1569.41 56.0377   7
  -3   1   2 1583.72 52.7817  26
  -3   1   2 1491.51 54.2717   5
  -3   1   2 1503.19 54.8346   7
  -2   1   2 1745.30 59.0685  26
  -2   1   2 1677.97 60.3516  14
  -2   1   2 1685.39 71.9908  24
  -2   1   2 1746.52 61.7243   5
   1  -1  -2 5294.59 204.552  24
  -1   1   2 5411.59 204.343  24
  -1   1   2 5183.79 187.930  14
   0   1   2 4581.59 163.399  14
  -1  -1  -2 1267.29 44.5094  14
   1   1   2 1252.17 45.2457  14
  -2  -1  -2 150.040 8.86006   7
   2   1   2 167.173 8.02285  14
  -3  -1  -2 515.155 22.7174   7
   4   1   2 145.259 12.0684   7
   8  -2  -2 165.466 6.29586  11
  -8   2   2 165.792 6.30418  11
  -8   2   2 178.509 6.72693  18
  -8   2   2 179.316 6.54084  29
  -8   2   2 168.606 6.47056  12
   7  -2  -2 242.050 8.62339  11
   7  -2  -2 230.192 8.30779  19
  -7   2   2 229.993 9.10599  18
  -7   2   2 226.364 8.72731  20
  -7   2   2 230.754 8.60052  11
  -7   2   2 231.942 8.78008  12
  -7   2   2 232.830 8.79278  29
  -7   2   2 224.738 8.84531  31
   6  -2  -2 311.022 11.5443  23
   6  -2  -2 301.808 15.5882   7
  -6   2   2 317.503 11.8949  31
  -6   2   2 329.883 11.7996  12
  -6   2   2 323.734 11.7511  29
  -6   2   2 313.807 11.6914  20
  -6   2   2 309.302 12.0415  18
  -6   2   2 314.983 11.6013  11
   5  -2  -2 13.2220 2.48432   7
  -5   2   2 13.8724 1.18547  20
  -5   2   2 14.5359 2.10901   5
   4  -2  -2 3.82067 1.45661   7
  -4   2   2 5.24082 1.25822   5
   3  -2  -2 8.23125 1.75678   7
  -3   2   2 10.0327 1.42285   5
  -3   2   2 9.78308 2.81160  24
  -2   2   2 1026.07 37.7281  14
  -2   2   2 1037.11 36.2387   5
  -2   2   2 1038.03 41.9547  24
  -2   2   2 1023.74 35.4008  26
   1  -2  -2 1764.41 61.1263  26
  -1   2   2 1813.41 63.5005  14
   0  -2  -2 19.1422 2.02718   7
   0   2   2 19.5383 2.30968  14
  -1  -2  -2 1585.39 61.3439   7
   1   2   2 1838.36 61.6539  14
  -2  -2  -2 555.038 20.4061  10
  -2  -2  -2 583.642 25.1777   7
   2   2   2 597.040 21.0720  10
  -3  -2  -2 71.8446 6.84842   7
  -3  -2  -2 86.0668 3.53379  15
  -4  -2  -2 462.943 17.3268   3
  -4  -2  -2 510.810 17.0112  13
   8  -3  -2 13.9222 0.97486  23
   8  -3  -2 16.2242 1.02504  11
  -8   3   2 16.3825 1.18080  31
  -8   3   2 17.0175 1.14645  12
  -8   3   2 17.1554 1.06703  11
  -8   3   2 16.4584 1.29177  18
  -8   3   2 16.1886 1.14655  29
   7  -3  -2 2.06201 0.53507   4
   7  -3  -2 2.96812 0.62530  23
  -7   3   2 2.71140 0.61024  20
  -7   3   2 2.72230 0.60294  29
  -7   3   2 3.78096 0.60848   4
  -7   3   2 4.76418 0.84841  31
  -7   3   2 3.69381 0.63957  11
   6  -3  -2 0.63358 0.44409   4
   6  -3  -2 0.90481 0.52171  23
  -6   3   2 1.73050 0.58436  29
  -6   3   2 0.62960 0.38428   4
  -6   3   2 1.90190 0.64074  12
  -6   3   2 2.42801 0.72989  31
  -6   3   2 1.49938 0.56324  20
  -6   3   2 1.89943 0.70366  18
  -6   3   2 1.02565 0.54301  11
  -5   3   2 2.68517 0.65666  20
  -5   3   2 1.92551 0.96351   5
   4  -3  -2 75.7178 5.39831   7
  -4   3   2 82.8070 3.24007  26
  -4   3   2 73.1392 4.56147   5
   3  -3  -2 1.69033 1.05052   7
  -3   3   2 1.57963 1.08948  14
  -3   3   2 1.35977 0.43296  26
   2  -3  -2 5.08264 1.17813   7
  -2   3   2 6.36549 1.58289  14
   1  -3  -2 2856.98 94.8609  26
   1  -3  -2 2707.83 96.6850   7
  -1   3   2 2760.77 97.9488  14
   0  -3  -2 1392.77 47.8929  10
   0  -3  -2 1309.59 47.5556  26
   0  -3  -2 1418.03 50.2853   7
   0   3   2 1405.52 48.5416  10
   0   3   2 1406.03 50.9882  14
  -1  -3  -2 539.146 22.3776   7
  -1  -3  -2 512.752 18.5865  26
  -1  -3  -2 550.685 19.0494  10
   1   3   2 532.334 19.7440  10
  -2  -3  -2 48.0244 2.45508  10
  -2  -3  -2 45.6808 2.43330  15
  -2  -3  -2 43.6165 4.97120   7
   2   3   2 48.6635 3.02917  10
  -3  -3  -2 24.4860 1.74474  15
  -3  -3  -2 29.0940 1.72751   3
  -3  -3  -2 26.3017 1.97000  18
  -3  -3  -2 25.1804 1.34022  13
  -3  -3  -2 24.3415 1.38179  25
  -3  -3  -2 22.1701 1.73555   1
  -3  -3  -2 21.8112 1.60628  22
  -4  -3  -2 1.30068 0.62816  18
  -4  -3  -2 2.73994 0.50341  25
  -4  -3  -2 2.44028 0.62061  22
  -4  -3  -2 2.53753 0.43860  13
  -5  -3  -2 35.5322 1.79638   3
   8  -4  -2 173.763 6.99448   4
   8  -4  -2 187.697 6.97766  11
   8  -4  -2 175.881 6.98183  23
  -8   4   2 195.020 7.16898  29
  -8   4   2 190.969 7.13247  12
  -8   4   2 195.055 7.05596  11
  -8   4   2 215.184 7.48438  18
  -8   4   2 190.792 7.03619   4
   7  -4  -2 58.0289 2.39826  19
   7  -4  -2 58.6532 2.70797  23
   7  -4  -2 56.3531 2.70517   4
  -7   4   2 64.6544 3.20664  18
  -7   4   2 56.0294 2.67844  11
  -7   4   2 57.6301 2.83092  12
  -7   4   2 58.3687 2.83635  20
  -7   4   2 52.4244 2.62450   4
  -7   4   2 59.8678 2.95666  31
  -7   4   2 62.3769 2.88574  29
   6  -4  -2 415.765 15.1486   4
   6  -4  -2 436.803 15.1845  23
  -6   4   2 443.870 15.4066  29
  -6   4   2 411.164 15.1976   4
  -6   4   2 435.808 15.7673  18
  -6   4   2 394.257 15.1865  11
  -6   4   2 418.329 15.2974  20
  -6   4   2 411.676 14.9350  27
   5  -4  -2 383.566 13.7122   4
   5  -4  -2 373.982 13.4667  30
  -5   4   2 373.328 13.6472  26
  -5   4   2 378.738 13.9050  20
  -5   4   2 399.122 13.8062   4
  -5   4   2 369.049 13.3323  30
   4  -4  -2 40.8930 3.46397   7
   3  -4  -2 983.890 35.7711   7
  -3   4   2 940.348 37.3400  14
   2  -4  -2 463.885 18.3249   7
  -2   4   2 451.215 19.8757  14
   1  -4  -2 17.6555 2.20106   7
   1  -4  -2 16.6811 1.26529  10
   1  -4  -2 14.8513 1.12948  26
  -1   4   2 15.2320 2.58124  14
  -1   4   2 15.6105 1.70139  10
   0  -4  -2 70.9516 3.07706  26
   0  -4  -2 73.6971 3.36281  10
   0  -4  -2 69.9960 5.17840   7
   0   4   2 69.7264 3.96808  10
  -1  -4  -2 6.53113 0.96397  15
  -1  -4  -2 5.93715 0.63935  25
  -1  -4  -2 5.46045 0.77984  28
  -1  -4  -2 5.56008 0.92190  10
  -1  -4  -2 6.77741 0.77280  26
   1   4   2 6.06512 1.37283  10
  -2  -4  -2 3.58842 0.79392  15
  -2  -4  -2 2.87427 0.71014   3
  -2  -4  -2 2.90426 0.90325  18
  -2  -4  -2 2.63078 1.64565   7
  -2  -4  -2 3.67159 0.79897  10
  -2  -4  -2 2.76802 0.77224   1
  -2  -4  -2 2.88667 0.49909  25
  -2  -4  -2 3.22002 0.53086  13
  -2  -4  -2 2.87407 0.66424  22
   2   4   2 4.18096 1.17848  10
  -3  -4  -2 12.9808 0.93323  25
  -3  -4  -2 13.6925 1.27577   3
  -3  -4  -2 13.8751 0.92552  13
  -3  -4  -2 12.4222 1.36448   1
  -3  -4  -2 14.9572 1.48531  15
  -3  -4  -2 14.7070 1.29983  22
  -3  -4  -2 12.7603 1.45830  18
  -4  -4  -2 2.02539 0.82134  18
  -4  -4  -2 3.25820 0.46874  25
  -4  -4  -2 2.08303 0.56793  22
  -4  -4  -2 2.26923 0.39434  13
  -4  -4  -2 1.93886 0.62189   3
   8  -5  -2 177.513 6.40095  23
   8  -5  -2 164.332 6.26431  11
  -8   5   2 168.758 6.49180  29
  -8   5   2 186.550 6.77112  18
  -8   5   2 159.362 6.32085  11
   7  -5  -2 75.6145 3.30590  23
   7  -5  -2 75.9081 3.32391   4
   7  -5  -2 68.6699 3.15270  27
  -7   5   2 78.0900 3.33663   4
  -7   5   2 81.0467 3.85241  18
  -7   5   2 80.4458 3.53103  29
  -7   5   2 77.0182 3.47742  20
   6  -5  -2 16.7905 1.21792   4
   6  -5  -2 16.3025 1.18013  27
   6  -5  -2 16.8789 1.16340  30
   6  -5  -2 16.7153 1.20858  23
  -6   5   2 15.4523 1.35625  29
  -6   5   2 12.8504 1.15402   4
  -6   5   2 13.4233 1.57326  18
  -6   5   2 13.7199 1.30860  20
   5  -5  -2 336.286 12.0015  27
   5  -5  -2 356.939 11.9803  30
   5  -5  -2 330.806 12.1361   4
   5  -5  -2 334.763 11.9995   9
  -5   5   2 337.505 11.9849  27
  -5   5   2 312.388 12.3338  20
  -5   5   2 315.528 12.9435  18
  -5   5   2 344.135 13.3014   6
  -5   5   2 337.319 12.5072  29
  -5   5   2 335.018 12.2443   4
   4  -5  -2 389.807 13.8450  30
   3  -5  -2 76.5825 3.30526  30
   3  -5  -2 80.8016 5.25122   7
   2  -5  -2 349.983 14.2410   7
   2  -5  -2 333.491 11.5138  28
   2  -5  -2 306.749 11.8118  10
  -2   5   2 299.410 12.5316  17
  -2   5   2 301.813 12.4874  10
   1  -5  -2 641.212 21.9599  28
   1  -5  -2 618.060 22.2946  10
   1  -5  -2 621.302 25.0299   7
   1  -5  -2 631.214 22.1477  26
  -1   5   2 620.702 23.1420  10
  -1   5   2 615.131 22.7773  17
   0  -5  -2 38.7990 2.32328  22
   0  -5  -2 44.9686 2.11313  13
   0  -5  -2 47.6750 2.55322  10
   0  -5  -2 42.9699 2.49997   3
   0  -5  -2 46.2687 2.38006  26
   0  -5  -2 47.2885 2.61463   1
   0  -5  -2 42.6959 2.19073  21
   0  -5  -2 37.7087 2.28609  15
   0  -5  -2 48.7360 4.61125   7
   0  -5  -2 45.3947 2.99826  18
   0  -5  -2 44.7277 2.25105  28
   0  -5  -2 44.9064 2.06082  25
   0   5   2 48.0883 3.22861  10
   0   5   2 46.7182 2.81860  18
   0   5   2 44.6379 2.72535  17
  -1  -5  -2 86.5539 7.00828   7
  -1  -5  -2 76.8568 3.71417   1
  -1  -5  -2 86.8596 4.32062  18
  -1  -5  -2 89.4399 4.02523  10
  -1  -5  -2 83.3013 3.32439  13
  -1  -5  -2 85.9550 3.72885  22
  -1  -5  -2 82.3792 3.36723  25
  -1  -5  -2 79.1066 3.57062  28
  -1  -5  -2 83.0180 3.75024  15
  -1  -5  -2 81.5346 3.76364   3
   1   5   2 84.4561 4.14860   6
   1   5   2 81.9538 4.07105  18
   1   5   2 84.3402 4.07363  17
   1   5   2 87.0103 4.78169  10
  -2  -5  -2 113.803 4.70724  15
  -2  -5  -2 109.182 4.21429  13
  -2  -5  -2 112.530 4.56889  22
  -2  -5  -2 109.688 5.04537  18
  -2  -5  -2 112.597 4.28205  25
  -2  -5  -2 113.654 4.63938   3
  -2  -5  -2 109.461 4.62319   1
  -2  -5  -2 107.674 4.85328  10
   2   5   2 110.481 5.58912  10
   2   5   2 112.386 4.88210  18
  -3  -5  -2 5.89738 0.97646   3
  -3  -5  -2 5.15831 0.60649  13
  -3  -5  -2 6.45237 1.01403  15
  -3  -5  -2 5.60804 0.89705  22
  -3  -5  -2 4.40574 0.78716   1
  -3  -5  -2 5.51038 0.64110  25
   3   5   2 6.53912 1.11687  18
   3   5   2 7.14684 1.06055  17
   7  -6  -2 207.112 7.28786   4
   7  -6  -2 205.086 7.22703  23
   7  -6  -2 192.984 7.09978  27
  -7   6   2 182.773 7.77290  18
  -7   6   2 186.582 7.25150   4
  -7   6   2 186.526 7.45901  29
  -7   6   2 189.265 7.42844  20
   6  -6  -2 996.986 34.7432   9
   6  -6  -2 1027.83 34.8478  27
   6  -6  -2 1031.93 34.7416  30
   6  -6  -2 1062.61 34.9887   4
  -6   6   2 980.551 34.8812   4
  -6   6   2 970.479 35.2451  29
  -6   6   2 964.956 35.7494  18
   5  -6  -2 278.688 10.6196  27
   5  -6  -2 289.459 10.5885   9
   5  -6  -2 286.810 10.5262  30
  -5   6   2 294.375 11.1233  29
  -5   6   2 292.192 11.7521  18
  -5   6   2 306.632 12.1031   6
   4  -6  -2 15.0576 1.11345  30
   4  -6  -2 15.4663 1.12584  21
   4  -6  -2 12.8200 1.17282  27
   4  -6  -2 16.8257 1.20647   9
  -4   6   2 14.0701 1.84817  18
  -4   6   2 16.9599 2.02211   6
   3  -6  -2 85.1733 3.53499  28
   3  -6  -2 78.6629 3.47623   9
   3  -6  -2 85.9314 3.51047  21
   3  -6  -2 76.0585 3.43026  30
  -3   6   2 88.8648 4.56010  18
  -3   6   2 85.1336 4.60735   6
   2  -6  -2 176.085 6.85495   8
   2  -6  -2 181.988 6.84949  21
   2  -6  -2 158.291 7.37429   3
   2  -6  -2 194.693 9.85161   7
   2  -6  -2 188.821 7.87172  18
   2  -6  -2 189.715 6.91801  28
  -2   6   2 174.140 8.00793  10
  -2   6   2 188.440 7.69379  18
  -2   6   2 183.658 7.87647   6
  -2   6   2 179.165 7.39361   3
   1  -6  -2 147.097 6.79133   3
   1  -6  -2 164.057 7.19459  18
   1  -6  -2 166.740 6.49340  21
   1  -6  -2 165.991 6.50253  28
   1  -6  -2 180.242 9.93417   7
  -1   6   2 174.164 7.37117  17
  -1   6   2 171.886 7.79691  10
  -1   6   2 180.644 7.32384   6
  -1   6   2 174.504 6.92729   3
  -1   6   2 175.646 7.13279  18
   0  -6  -2 30.6830 1.91799   1
   0  -6  -2 29.9971 2.10965   3
   0  -6  -2 30.5210 1.74448  28
   0  -6  -2 30.4379 2.28685  18
   0  -6  -2 29.2080 1.91762  15
   0  -6  -2 24.6949 1.58223  25
   0   6   2 30.1658 2.09186  18
   0   6   2 30.7156 2.27038  17
   0   6   2 32.4227 2.70938  10
   0   6   2 31.6889 2.02738   3
   0   6   2 33.3466 2.03294   6
  -1  -6  -2 22.8249 1.63833  15
  -1  -6  -2 23.4216 1.81671   3
  -1  -6  -2 21.3529 1.51565  22
  -1  -6  -2 21.4176 1.20722  13
  -1  -6  -2 20.5350 1.23369  25
  -1  -6  -2 20.0006 2.02825  18
  -1  -6  -2 24.3573 1.60439   1
   1   6   2 22.1658 1.88259  17
   1   6   2 20.0543 1.73509  18
   1   6   2 22.0771 1.63609   3
   1   6   2 22.3858 1.49372   6
  -2  -6  -2 227.793 8.21788  22
  -2  -6  -2 215.928 7.99917  25
  -2  -6  -2 222.442 8.30981   3
  -2  -6  -2 235.489 8.29241   1
  -2  -6  -2 221.374 8.60074  18
  -2  -6  -2 216.086 7.93255  13
   2   6   2 225.958 8.41840  18
   2   6   2 229.980 8.28728   3
   7  -7  -2 151.855 5.42363  27
   7  -7  -2 148.445 5.33286   9
  -7   7   2 140.946 5.68627  29
  -7   7   2 137.223 5.83331  18
   6  -7  -2 144.047 5.45886   9
   6  -7  -2 152.074 5.58267  27
   6  -7  -2 141.392 5.44594  30
  -6   7   2 147.000 6.63668   6
  -6   7   2 138.353 5.86424  29
  -6   7   2 149.982 6.31064  18
   5  -7  -2 13.2369 0.98016  21
   5  -7  -2 14.7433 1.05043  30
   5  -7  -2 17.8167 1.29236  27
   5  -7  -2 16.0086 1.13675   9
  -5   7   2 13.4755 1.64090  18
  -5   7   2 12.1869 1.72419   6
  -5   7   2 13.6775 1.39519  29
   4  -7  -2 1.11928 0.42171  21
   4  -7  -2 1.16881 0.49296   9
   4  -7  -2 1.68629 0.48446  30
  -4   7   2 1.62242 0.87638  18
  -4   7   2 1.88839 0.67692  29
  -4   7   2 1.11204 0.69054   6
   3  -7  -2 110.592 4.39551  28
   3  -7  -2 103.183 4.37315   9
   3  -7  -2 113.643 4.38478  21
   3  -7  -2 104.432 4.41385  30
  -3   7   2 114.794 5.43626   6
  -3   7   2 111.719 5.15043  18
   2  -7  -2 298.651 10.7592  28
   2  -7  -2 288.458 10.7009  21
   2  -7  -2 286.086 11.4835  18
  -2   7   2 296.346 11.5485   6
  -2   7   2 310.416 11.4352  18
   1  -7  -2 1.74054 0.50238  28
   1  -7  -2 1.62337 0.76249  18
   1  -7  -2 1.41426 0.46868  21
   1  -7  -2 2.99933 0.88880   3
  -1   7   2 1.93020 0.71420   3
  -1   7   2 1.61166 0.56415   6
  -1   7   2 1.44093 0.64218  18
   0  -7  -2 184.979 7.37495   3
   0  -7  -2 182.147 7.14828  28
   0  -7  -2 190.932 7.61064  18
   0  -7  -2 200.871 7.28475   1
   0   7   2 202.482 7.52784  18
   0   7   2 192.701 7.57279   6
   0   7   2 204.246 7.37856   3
   0   7   2 197.767 7.68098  17
  -1  -7  -2 405.196 13.6527   1
  -1  -7  -2 349.390 13.6957   3
  -1  -7  -2 390.995 13.7901  18
   1   7   2 386.056 13.7961  18
   6  -8  -2 1.50894 0.43844   9
   5  -8  -2 183.632 6.95299  30
   5  -8  -2 186.758 6.89704  21
   5  -8  -2 193.782 6.96616   9
  -5   8   2 194.489 7.79274   6
  -5   8   2 192.622 7.48388  18
   4  -8  -2 607.994 23.1581  30
   4  -8  -2 668.792 23.2113   9
   4  -8  -2 678.959 23.2299  21
  -4   8   2 697.347 23.7834  18
  -4   8   2 691.296 24.1027   6
   3  -8  -2 140.044 5.26328  21
   3  -8  -2 132.966 5.25677  28
  -3   8   2 144.707 5.96573   6
  -3   8   2 144.172 5.72374  18
   2  -8  -2 0.47083 0.32730  21
  -2   8   2 1.19652 0.48939  18
  -2   8   2 0.79386 0.42098   6
  -1   8  -3 69.1092 3.11193   6
  -1   8  -3 68.8091 2.87002  29
   1  -8   3 64.5603 2.81697   8
  -2   8  -3 6.90185 0.87110  20
  -2   8  -3 6.28522 0.94222   6
  -2   8  -3 6.61618 0.80711  29
   2  -8   3 5.82448 0.84478   8
   2  -8   3 6.09286 0.76754  28
  -3   8  -3 52.3777 2.49723  29
  -3   8  -3 51.1366 2.73505   6
  -3   8  -3 51.8188 2.56104  20
   3  -8   3 49.2383 2.36952   8
   3  -8   3 50.9253 2.39540  28
   3  -8   3 52.9128 2.33208  21
  -4   8  -3 0.35087 0.44172   6
  -4   8  -3 0.48529 0.55317  20
  -4   8  -3 0.79002 0.46912  29
   4  -8   3 -0.4445 0.39526  28
   4  -8   3 -0.0067 0.39874  21
  -5   8  -3 330.289 11.9097  29
   5  -8   3 328.702 11.6849  21
   5  -8   3 327.753 11.6710   9
   1   7  -3 21.9451 1.30689  29
   1   7  -3 20.2088 1.51855   6
  -1  -7   3 20.4100 1.51149  29
  -1  -7   3 22.8575 1.51396   1
   0   7  -3 528.131 18.6930  29
   0   7  -3 527.747 19.0528   6
   0   7  -3 521.331 18.7255  20
   0  -7   3 531.748 19.0327  29
   0  -7   3 528.189 18.8166   1
   0  -7   3 529.863 18.6313   8
  -1   7  -3 506.321 18.6657   6
  -1   7  -3 505.335 18.3259  20
  -1   7  -3 512.057 18.2892  29
  -1   7  -3 488.161 19.0312  10
   1  -7   3 534.414 18.2289  28
   1  -7   3 531.645 18.2789   8
  -2   7  -3 99.5264 4.38686  20
  -2   7  -3 98.9540 4.87479  10
  -2   7  -3 97.6232 4.31073  29
  -2   7  -3 100.204 4.67076   6
   2  -7   3 99.7935 4.11832  21
   2  -7   3 105.358 4.30173   8
   2  -7   3 102.355 4.28867  28
  -3   7  -3 58.0057 2.97000  29
  -3   7  -3 58.4049 3.34933   6
  -3   7  -3 60.2298 3.16982  20
   3  -7   3 62.7335 2.92453   8
   3  -7   3 64.0154 2.94925  28
   3  -7   3 65.1271 2.54259  16
   3  -7   3 61.4559 2.82077  21
  -4   7  -3 290.865 10.9022  20
  -4   7  -3 279.797 11.0278  12
  -4   7  -3 277.939 11.0532   6
  -4   7  -3 281.310 10.6681  29
   4  -7   3 277.312 10.2935   9
   4  -7   3 274.879 10.2189  30
   4  -7   3 277.103 10.3822  28
   4  -7   3 288.008 9.99502  16
   4  -7   3 285.338 10.3698  21
  -5   7  -3 121.915 4.61635  27
  -5   7  -3 113.542 5.39028  12
  -5   7  -3 124.095 5.34359  20
  -5   7  -3 123.026 5.11547  29
  -5   7  -3 122.262 4.52979  30
   5  -7   3 120.416 4.70675  30
   5  -7   3 117.515 4.75833   9
   5  -7   3 120.043 4.78011  21
   5  -7   3 116.983 4.47467  16
   5  -7   3 120.495 4.75635  27
  -6   7  -3 132.044 4.87253  27
  -6   7  -3 127.820 5.63075  12
  -6   7  -3 132.676 5.45439  20
  -6   7  -3 134.600 4.79675  30
  -6   7  -3 132.958 5.25536  29
   6  -7   3 128.369 4.96929  30
   6  -7   3 126.572 4.74577  16
   6  -7   3 128.362 4.98806  21
   6  -7   3 125.660 4.98235  27
   6  -7   3 131.536 5.02999   9
   3   6  -3 26.5773 1.75771   6
   3   6  -3 26.1696 1.45410  29
  -3  -6   3 28.6493 1.52404  22
  -3  -6   3 27.9061 1.59918   1
  -3  -6   3 26.7076 1.65681  29
   2   6  -3 26.8331 2.25756   6
   2   6  -3 28.7230 2.12252  18
   2   6  -3 28.9661 1.67223  20
   2   6  -3 26.4847 1.72499  29
  -2  -6   3 32.9582 1.96264  22
  -2  -6   3 32.8324 2.05545  15
  -2  -6   3 30.1859 1.92753   1
  -2  -6   3 30.3282 1.91093  29
  -2  -6   3 31.3055 2.06913  18
   1   6  -3 210.215 8.52899   6
   1   6  -3 206.720 8.03613  29
   1   6  -3 217.048 8.90018  10
   1   6  -3 202.428 8.02248  20
  -1  -6   3 234.912 8.42353  29
  -1  -6   3 212.765 8.33933  22
  -1  -6   3 205.039 8.02607   8
  -1  -6   3 222.497 8.44967  15
  -1  -6   3 213.841 8.26324   1
   0   6  -3 646.043 23.2134  29
   0   6  -3 669.948 23.3019  20
   0   6  -3 683.336 24.2494  10
   0   6  -3 657.765 23.6289   6
   0  -6   3 654.858 23.4176   1
   0  -6   3 649.649 23.5868  29
   0  -6   3 614.501 23.1604  28
   0  -6   3 694.728 23.3426   8
  -1   6  -3 120.915 5.10468  29
  -1   6  -3 120.545 5.17349  20
  -1   6  -3 122.280 5.80322  10
  -1   6  -3 124.429 5.56953   6
  -1   6  -3 120.927 5.26444  12
   1  -6   3 130.243 5.49966  29
   1  -6   3 128.957 5.20656   8
   1  -6   3 122.923 5.05773  28
  -2   6  -3 708.346 25.7316  29
  -2   6  -3 721.665 26.4196  10
  -2   6  -3 733.569 26.0679  12
  -2   6  -3 724.430 25.8675  20
  -2   6  -3 702.829 26.1959   6
   2  -6   3 715.153 25.5626  21
   2  -6   3 757.584 25.7620  28
   2  -6   3 759.639 25.7563   8
   2  -6   3 735.611 25.2105  16
  -3   6  -3 461.398 15.9717  21
  -3   6  -3 473.289 16.9571  20
  -3   6  -3 456.232 16.7024  29
  -3   6  -3 447.308 17.1280   6
  -3   6  -3 442.370 17.0851  12
   3  -6   3 445.237 16.3172  21
   3  -6   3 446.942 16.4059   8
   3  -6   3 467.916 15.9682  16
   3  -6   3 465.074 16.4770  28
  -4   6  -3 12.1316 1.66685  12
  -4   6  -3 13.2408 1.15842  27
  -4   6  -3 12.1626 1.36475  29
  -4   6  -3 14.6402 1.54508  20
  -4   6  -3 13.1250 0.89331  21
  -4   6  -3 13.9824 0.95066  30
   4  -6   3 13.6926 1.20905  21
   4  -6   3 12.1066 1.19968  27
   4  -6   3 12.8243 1.12905  30
   4  -6   3 12.3976 1.18000   9
   4  -6   3 13.0346 0.93715  16
   4  -6   3 12.9785 1.28777  28
  -5   6  -3 437.291 16.7441  12
  -5   6  -3 428.268 16.1915  29
  -5   6  -3 438.351 15.4324  21
  -5   6  -3 441.013 16.4488  20
  -5   6  -3 443.191 15.6084  27
  -5   6  -3 456.707 15.5073  30
   5  -6   3 455.024 15.7755  21
   5  -6   3 444.647 15.4133  16
   5  -6   3 437.395 15.7339  27
   5  -6   3 417.367 15.6795   9
   5  -6   3 444.990 15.7161  30
  -6   6  -3 132.038 5.21682   4
  -6   6  -3 131.078 5.03098  27
  -6   6  -3 128.805 5.35516  29
  -6   6  -3 134.718 4.89778  30
  -6   6  -3 131.261 5.59018  20
  -6   6  -3 123.136 5.83507  12
  -6   6  -3 121.847 5.73970  31
   6  -6   3 129.256 5.09168   9
   6  -6   3 136.977 5.37171   4
   6  -6   3 125.943 5.09893  27
   6  -6   3 125.120 5.03194  30
  -7   6  -3 384.166 13.4609   4
  -7   6  -3 350.329 13.1072  30
  -7   6  -3 379.852 13.8887  12
  -7   6  -3 375.576 13.4811  29
  -7   6  -3 398.478 13.2736  27
  -7   6  -3 362.903 13.9665  31
   7  -6   3 367.931 13.5122  23
   7  -6   3 390.783 13.3438   9
   7  -6   3 383.801 13.3724  27
   7  -6   3 370.235 13.5169   4
   7  -6   3 369.982 13.3136  30
   4   5  -3 1.30604 0.94841   6
   4   5  -3 1.04990 0.82070  29
  -4  -5   3 1.59790 0.85626  29
  -4  -5   3 0.54777 0.33838  13
  -4  -5   3 0.88502 0.48708   3
  -4  -5   3 0.54429 0.70500  18
   3   5  -3 148.196 5.96564  20
   3   5  -3 149.309 6.34430   6
   3   5  -3 150.799 5.95069  29
  -3  -5   3 147.115 6.01795  22
  -3  -5   3 154.948 6.34771  20
  -3  -5   3 149.571 6.16438  15
  -3  -5   3 155.510 5.92075   3
  -3  -5   3 153.492 6.31295  29
  -3  -5   3 141.665 5.95291   1
  -3  -5   3 152.941 6.22457  18
  -3  -5   3 144.940 5.56307  13
   2   5  -3 252.636 9.97858   6
   2   5  -3 263.022 9.62982  12
   2   5  -3 263.290 9.65110  20
   2   5  -3 256.864 9.59573  29
  -2  -5   3 252.246 9.74490   1
  -2  -5   3 265.238 9.86683  22
  -2  -5   3 254.634 9.93827  18
  -2  -5   3 264.468 9.96113  15
  -2  -5   3 244.992 9.93914  29
  -2  -5   3 249.828 9.97544  20
   1   5  -3 14.7395 1.76228  10
   1   5  -3 15.2677 2.25868   6
   1   5  -3 16.9797 1.64536  29
  -1  -5   3 12.2778 1.65505   1
  -1  -5   3 12.1046 1.49471  22
  -1  -5   3 13.1331 1.28017   8
   0   5  -3 833.781 28.6643  20
   0   5  -3 860.110 29.6076  10
   0  -5   3 774.397 28.9069  15
   0  -5   3 810.298 28.6737  28
  -1   5  -3 1029.02 37.6011  10
  -1   5  -3 1093.58 37.0232  20
   1  -5   3 1060.52 36.9563  28
  -2   5  -3 1084.08 38.5616  20
  -2   5  -3 1094.84 38.9417  10
   2  -5   3 1120.58 38.3272  28
   2  -5   3 1109.05 37.8596  16
  -3   5  -3 307.882 12.4439  20
   3  -5   3 341.409 12.1055  28
   3  -5   3 340.617 11.9509  30
   3  -5   3 325.593 11.5947  16
  -4   5  -3 41.0538 2.13819  27
  -4   5  -3 37.0866 2.80405  31
  -4   5  -3 44.3228 2.01389  30
  -4   5  -3 43.3590 2.88393  12
  -4   5  -3 41.6599 1.95173  21
  -4   5  -3 41.2583 2.61595  20
  -4   5  -3 43.0299 2.50598  29
  -4   5  -3 42.5400 2.39165  26
   4  -5   3 41.6453 1.89355  16
   4  -5   3 42.6733 2.16985  30
   4  -5   3 43.5008 2.22104  21
   4  -5   3 45.1568 2.32597  27
  -5   5  -3 127.188 4.98950  21
  -5   5  -3 132.523 5.22629  27
  -5   5  -3 132.601 5.53077   4
  -5   5  -3 130.634 5.64643  29
  -5   5  -3 141.444 6.19318  31
  -5   5  -3 131.104 5.75637  20
  -5   5  -3 132.970 6.03922  12
  -5   5  -3 131.965 5.08990  30
   5  -5   3 131.011 5.24877  30
   5  -5   3 132.376 5.29805   9
   5  -5   3 135.231 5.40166  27
   5  -5   3 126.033 5.23750  21
   5  -5   3 134.371 4.95072  16
  -6   5  -3 357.271 13.3739  29
  -6   5  -3 378.209 13.5915  20
  -6   5  -3 366.596 14.0065  31
  -6   5  -3 355.572 12.9060  30
  -6   5  -3 358.562 13.0660  27
  -6   5  -3 348.276 13.4309  11
  -6   5  -3 365.706 13.8463  12
  -6   5  -3 366.454 13.4258   4
   6  -5   3 361.927 13.5646   4
   6  -5   3 368.784 13.1497   9
   6  -5   3 374.699 13.2632  27
   6  -5   3 361.988 13.1015  30
  -7   5  -3 112.932 4.93015  31
  -7   5  -3 104.034 4.44493   4
  -7   5  -3 101.319 4.44848  11
  -7   5  -3 104.598 4.18645  27
  -7   5  -3 104.893 4.42576  20
  -7   5  -3 102.855 4.61328  12
   7  -5   3 108.136 4.26632  27
   7  -5   3 98.5337 4.47321   4
   5   4  -3 172.468 6.85160   6
   5   4  -3 172.754 6.64374  29
  -5  -4   3 184.119 6.92754  18
  -5  -4   3 184.220 6.68037   3
  -5  -4   3 186.581 6.97987  29
  -5  -4   3 178.913 6.68884  22
  -5  -4   3 185.740 6.45172  13
   4   4  -3 325.117 12.5214  12
   4   4  -3 352.908 12.5217  29
   4   4  -3 353.728 12.6582  20
  -4  -4   3 338.564 12.9065  29
  -4  -4   3 338.861 12.6828  15
  -4  -4   3 349.209 12.8966  18
  -4  -4   3 334.891 12.1758  13
  -4  -4   3 361.017 12.5950   3
  -4  -4   3 353.959 13.0076  20
  -4  -4   3 337.509 12.2634  25
  -4  -4   3 344.628 13.0252  12
  -4  -4   3 340.681 12.6201  22
   3   4  -3 423.419 15.2278  29
   3   4  -3 444.891 15.3967  20
   3   4  -3 421.326 20.1564   7
   3   4  -3 407.602 15.3631  12
  -3  -4   3 408.924 18.7752   7
  -3  -4   3 418.977 15.7278  18
  -3  -4   3 425.187 15.0574  25
  -3  -4   3 416.333 15.8010  29
  -3  -4   3 419.814 15.9739  12
  -3  -4   3 438.973 15.6271  15
  -3  -4   3 406.980 15.3535   3
  -3  -4   3 417.511 15.3725   1
  -3  -4   3 437.901 15.9424  20
  -3  -4   3 405.309 15.4487  22
  -3  -4   3 446.224 14.9539  13
   2   4  -3 0.25189 0.72896  20
  -2  -4   3 0.29909 0.60186  22
  -2  -4   3 1.12619 1.20069   7
  -2  -4   3 0.57303 0.81481  29
  -2  -4   3 1.51114 1.24142  12
  -2  -4   3 0.58670 0.94570  20
  -2  -4   3 2.77594 0.86733  18
  -2  -4   3 1.00618 0.47350  25
  -2  -4   3 1.00806 0.44628  26
  -2  -4   3 0.77931 0.74882  15
   1   4  -3 151.311 6.45371  10
   1   4  -3 133.849 5.68977  20
  -1  -4   3 150.689 6.04455  15
  -1  -4   3 148.507 5.70817  26
  -1  -4   3 136.110 6.06848  20
   0   4  -3 18.6792 1.72122  10
  -1   4  -3 994.413 36.8294  14
  -1   4  -3 980.080 34.9108  10
  -2   4  -3 227.071 10.6298  14
  -2   4  -3 217.724 8.79159  10
  -2   4  -3 210.504 8.41217  26
   2  -4   3 224.055 11.2370   5
  -3   4  -3 22.0320 1.47942  26
   3  -4   3 24.8055 2.96813   5
  -4   4  -3 351.828 12.7331  26
  -4   4  -3 353.557 15.1259   5
  -4   4  -3 340.842 12.6737  19
  -4   4  -3 354.711 13.1796  20
   4  -4   3 356.940 15.4363   5
   4  -4   3 352.400 12.3575  16
  -5   4  -3 1041.57 37.1367  29
  -5   4  -3 1034.49 36.8177  27
  -5   4  -3 1098.73 37.3658   4
  -5   4  -3 1074.01 36.6623  30
  -5   4  -3 1056.11 37.6609  31
  -5   4  -3 1091.82 37.2864  11
  -5   4  -3 1071.70 37.2665  20
  -5   4  -3 1058.40 37.5149  12
  -5   4  -3 1027.42 36.7398  26
   5  -4   3 1066.54 36.9105   9
   5  -4   3 1059.90 36.7944  30
  -6   4  -3 33.6460 2.37635  31
  -6   4  -3 34.1694 1.90522  27
  -6   4  -3 36.3053 2.17848  11
  -6   4  -3 34.5536 2.15542   4
  -6   4  -3 36.9703 2.13755  20
  -6   4  -3 35.8448 2.24047  12
  -6   4  -3 31.2554 1.71237  30
   6  -4   3 32.7677 2.04762  27
   6  -4   3 31.9487 1.88320  30
  -7   4  -3 702.943 25.1221  20
  -7   4  -3 715.036 25.3066   4
  -7   4  -3 699.252 25.4948  31
  -7   4  -3 730.603 25.2806  11
  -7   4  -3 732.380 25.3490  12
   7  -4   3 703.169 25.3346   4
   5   3  -3 26.5133 2.02674  12
   5   3  -3 32.3978 1.86774  20
  -5  -3   3 28.5859 2.12321  29
  -5  -3   3 30.5915 2.30400  20
  -5  -3   3 28.2750 1.49284  13
  -5  -3   3 31.8403 2.57750  12
  -5  -3   3 30.2160 1.58887  25
  -5  -3   3 30.1225 1.93844   3
  -5  -3   3 28.5588 2.03217  18
   4   3  -3 82.7513 4.07469  12
   4   3  -3 87.1870 4.01704  20
  -4  -3   3 86.0555 3.53420  13
  -4  -3   3 84.7960 3.59827  25
  -4  -3   3 88.1583 4.06562  22
  -4  -3   3 83.3135 4.46481  12
  -4  -3   3 85.6064 4.01995   3
  -4  -3   3 90.5549 4.42718  18
  -4  -3   3 84.8535 4.47406  29
  -4  -3   3 83.0146 4.35956  20
   3   3  -3 1.19504 1.52373   7
   3   3  -3 2.11304 0.72590  20
  -3  -3   3 2.20570 0.55263  26
  -3  -3   3 3.71311 0.68725  25
  -3  -3   3 1.18385 0.93287  15
  -3  -3   3 2.35211 1.43636   7
  -3  -3   3 4.60656 1.19291  12
  -3  -3   3 1.93585 0.86339  29
  -3  -3   3 1.58165 0.77269  20
  -2  -3   3 24.4431 1.50232  26
  -2  -3   3 29.7689 3.28714   7
   1   3  -3 17.7353 1.59689  10
  -1  -3   3 19.4452 2.48992   7
  -1  -3   3 20.4113 1.19484  26
  -1  -3   3 19.1923 2.53480   5
   0  -3   3 151.302 7.82246   5
   0  -3   3 160.143 5.86104  26
  -1   3  -3 196.825 7.42961  26
  -1   3  -3 197.585 9.06937  14
   1  -3   3 194.570 9.86778   5
  -2   3  -3 4518.30 157.657  14
  -2   3  -3 4468.31 153.539  26
   2  -3   3 4498.56 155.482   5
  -3   3  -3 2160.19 74.1712  26
  -3   3  -3 2165.05 76.2708   5
  -3   3  -3 2156.88 77.4499  14
   3  -3   3 2191.62 76.5953   5
  -4   3  -3 925.076 34.5772   5
  -4   3  -3 899.762 32.2040  26
   4  -3   3 977.531 35.1710   5
  -5   3  -3 15.5796 1.29201  27
  -5   3  -3 16.6613 1.57037  11
  -5   3  -3 13.4481 1.01459  26
  -5   3  -3 15.6850 1.55530  31
  -5   3  -3 14.2255 1.45343  12
  -5   3  -3 13.8573 1.27010  20
  -6   3  -3 300.859 11.4763   4
  -6   3  -3 303.263 11.3324  20
  -6   3  -3 300.829 11.4994  12
  -6   3  -3 315.419 11.4258  11
  -6   3  -3 295.803 11.7222  31
  -7   3  -3 123.898 4.87566  11
  -7   3  -3 114.172 4.86940   4
  -7   3  -3 121.715 5.10674  31
  -7   3  -3 126.422 4.94149  12
   7  -3   3 101.424 4.78833   4
   6   2  -3 37.6007 2.12157  20
   6   2  -3 36.3564 2.18233  12
  -6  -2   3 38.6678 2.42225  20
  -6  -2   3 39.3465 2.30691  18
  -6  -2   3 36.1627 2.41952  12
  -6  -2   3 36.6909 2.38603  29
  -6  -2   3 38.7449 2.11084   3
  -6  -2   3 35.6101 1.75072  25
  -6  -2   3 36.0175 1.67069  13
   5   2  -3 109.103 4.70684  12
   5   2  -3 109.657 4.81025  31
  -5  -2   3 109.240 4.21656  13
  -5  -2   3 105.046 4.30291  25
  -5  -2   3 106.520 5.11977  18
  -5  -2   3 106.443 4.78710   3
  -5  -2   3 104.613 4.87493  12
  -5  -2   3 104.728 4.96960  20
  -5  -2   3 101.681 4.87748  31
  -5  -2   3 110.015 5.14733  29
   4   2  -3 7.67749 2.32589   7
   4   2  -3 9.85925 1.15735  31
  -4  -2   3 8.18491 1.36102   3
  -4  -2   3 7.32792 0.86559  26
  -4  -2   3 7.91020 1.12600  20
  -4  -2   3 7.56346 1.43042  18
  -4  -2   3 5.98205 1.16537  22
  -4  -2   3 8.14091 1.15410  31
  -4  -2   3 8.76558 1.30615  29
  -4  -2   3 8.34417 2.06002   7
  -4  -2   3 7.47329 0.90471  25
  -4  -2   3 6.47582 0.79434  13
  -4  -2   3 8.60654 1.15818  12
   3   2  -3 374.483 17.6538   7
  -3  -2   3 377.836 16.7742   7
  -3  -2   3 360.572 13.3086  26
  -2  -2   3 1008.84 36.9881   7
  -2  -2   3 989.417 36.6532   5
  -2  -2   3 955.174 34.0336  26
  -1  -2   3 386.640 21.5459  24
  -1  -2   3 404.990 14.1296  26
  -1  -2   3 410.721 16.4993   5
   0   2  -3 94.1234 4.73853  14
   0   2  -3 99.6345 8.84809  24
   0  -2   3 94.2588 5.68446   5
   0  -2   3 98.3460 8.47868  24
  -1   2  -3 2672.89 104.407  24
  -1   2  -3 2895.71 96.9561  14
  -1   2  -3 2849.21 94.2076  26
   1  -2   3 2612.24 96.1211   5
  -2   2  -3 2376.85 84.0982  14
  -2   2  -3 2436.48 83.3696   5
  -2   2  -3 2369.35 81.6993  26
   2  -2   3 2395.28 83.5926   5
  -3   2  -3 126.725 6.43872   5
  -3   2  -3 141.972 7.37341  14
   3  -2   3 137.793 6.71351   5
  -4   2  -3 33.5489 2.77087   5
   4  -2   3 34.9965 3.02009   5
  -5   2  -3 21.4745 1.65614  12
  -5   2  -3 21.1682 1.73414  31
  -5   2  -3 22.8232 1.66909   4
  -6   2  -3 11.7682 1.22262  12
  -6   2  -3 11.5812 1.14353  11
  -6   2  -3 14.1616 1.38676  31
  -7   2  -3 6.98271 0.88088  12
  -7   2  -3 6.99085 0.91313  31
   7   1  -3 29.8993 1.68221  12
  -7  -1   3 27.5752 1.79676  12
  -7  -1   3 26.0953 1.81854  29
  -7  -1   3 26.0162 1.54234   3
  -7  -1   3 27.8499 1.76121  18
   6   1  -3 49.9941 2.62062  31
  -6  -1   3 49.1303 2.26114  25
  -6  -1   3 49.2578 2.67492  31
  -6  -1   3 44.9879 2.60716  12
  -6  -1   3 46.9764 2.17159  13
  -6  -1   3 49.5882 2.80402  29
  -6  -1   3 52.2854 2.76859  20
  -6  -1   3 45.6415 2.65277   3
  -6  -1   3 46.3001 2.88950  18
   5   1  -3 75.1878 6.96049   7
   5   1  -3 82.2434 3.69182  31
  -5  -1   3 80.8265 3.83164  31
  -5  -1   3 83.1017 4.17423  18
  -5  -1   3 77.2261 3.73777  20
  -5  -1   3 87.2993 3.51753  25
  -5  -1   3 79.1294 3.93468   3
  -5  -1   3 80.2324 3.81103  12
  -5  -1   3 76.1618 6.24895   7
  -5  -1   3 84.0601 3.88850  29
  -5  -1   3 80.6326 3.39032  13
   4   1  -3 75.6730 6.29505   7
   4   1  -3 74.4520 2.90312  19
  -4  -1   3 68.6929 3.30535  20
  -4  -1   3 68.9026 5.17101   5
  -4  -1   3 74.8277 5.71491   7
  -4  -1   3 70.9970 3.13686  26
   3   1  -3 823.817 32.0724   7
  -3  -1   3 811.711 30.7926   5
  -3  -1   3 786.703 31.0439   7
  -3  -1   3 812.634 28.0927  26
   2   1  -3 524.305 21.2008   7
  -2  -1   3 529.159 20.5917   7
  -2  -1   3 511.467 18.3115  26
  -2  -1   3 533.916 20.4161   5
  -2  -1   3 516.707 26.7298  24
  -1  -1   3 1136.25 40.6770  26
  -1  -1   3 1254.07 48.6750  24
  -1  -1   3 1162.78 42.6817   5
   0   1  -3 72.3806 6.29872  24
   0   1  -3 70.8372 6.67022  24
   0   1  -3 60.4237 3.49264  14
   0  -1   3 79.5783 4.81692   5
   0  -1   3 69.1805 6.23072  24
  -1   1  -3 888.825 31.1505   5
  -1   1  -3 918.889 31.7030  14
  -1   1  -3 875.674 34.8466  24
   1  -1   3 810.792 31.1228   5
  -2   1  -3 1197.72 41.0599   5
  -2   1  -3 1217.60 42.0315  14
   2  -1   3 1071.56 41.0721   5
  -3   1  -3 198.292 9.16267  14
  -3   1  -3 193.313 8.38718   5
   3  -1   3 193.913 8.71435   5
  -4   1  -3 266.184 10.8331   5
   4  -1   3 237.641 11.0294   5
  -5   1  -3 49.9804 2.94170  31
   7   0  -3 4.52036 0.64566  19
   7   0  -3 4.92745 0.86126  31
  -7   0   3 4.50650 0.81989  12
  -7   0   3 4.24843 0.92352  18
  -7   0   3 6.88761 0.97606  20
  -7   0   3 5.64813 0.98641   3
  -7   0   3 5.09627 0.88004  31
  -7   0   3 5.50828 0.93740  29
   6   0  -3 370.605 12.6081  19
   6   0  -3 351.770 13.0721  31
  -6   0   3 345.160 13.1028  20
  -6   0   3 355.446 13.2009  29
  -6   0   3 357.211 13.3193   3
  -6   0   3 363.654 13.6100  18
  -6   0   3 366.669 13.2073  12
  -6   0   3 339.441 13.2128  31
   5   0  -3 1.70580 0.43775  19
   5   0  -3 2.63775 1.57860   7
  -5   0   3 1.79933 0.83817   3
  -5   0   3 0.80516 0.41896  29
  -5   0   3 2.23762 1.23793   7
  -5   0   3 1.91757 0.55347  26
  -5   0   3 0.88746 0.59413  18
   4   0  -3 734.094 30.1281   7
  -4   0   3 742.015 28.9255   7
  -4   0   3 709.742 28.0325   5
  -4   0   3 728.517 25.4737  26
   3   0  -3 3358.10 119.637   7
  -3   0   3 3357.66 118.779   5
  -3   0   3 3383.69 119.440   7
  -3   0   3 3296.34 114.702  26
  -2   0   3 2086.96 85.8748  24
  -2   0   3 2310.98 77.0228   5
  -2   0   3 2210.91 75.5793  26
   1   0  -3 1100.81 39.5956  14
   1   0  -3 1180.39 45.1479  24
  -1   0   3 1114.79 44.5181  24
  -1   0   3 1177.05 40.2274   5
  -1   0   3 1092.04 40.0864  14
   0   0  -3 529.036 19.0359  14
   0   0  -3 565.898 21.9339  24
   0   0   3 454.733 19.6703   5
   0   0   3 524.699 19.5291  14
  -1   0  -3 76.3795 3.99086  14
  -1   0  -3 63.6744 3.32702   5
   1   0   3 79.9378 4.57254  14
   1   0   3 66.8469 3.47025   5
  -2   0  -3 38.4485 2.50325   5
  -2   0  -3 41.8027 2.94728  14
   2   0   3 40.8929 2.63692   5
   2   0   3 45.4157 3.58531  14
   7  -1  -3 304.626 11.7520  31
   7  -1  -3 337.682 11.6431  11
   7  -1  -3 318.044 11.3669  19
  -7   1   3 323.895 12.2225  18
  -7   1   3 312.161 11.8146  12
  -7   1   3 321.430 11.9624   3
  -7   1   3 315.767 11.9144  31
  -7   1   3 335.665 11.6384  11
  -7   1   3 329.577 11.8504  20
  -7   1   3 319.031 11.8674  29
   6  -1  -3 6.29836 0.64028  19
   5  -1  -3 758.892 26.3758  19
   5  -1  -3 765.099 31.8900   7
  -5   1   3 757.324 26.8489  20
  -5   1   3 790.851 30.3980   7
  -5   1   3 764.335 27.0076  31
  -5   1   3 774.369 26.7950  26
  -5   1   3 729.015 29.3019   5
   4  -1  -3 1136.19 43.7042   7
  -4   1   3 1144.10 42.2989   7
  -4   1   3 1120.47 41.6083   5
  -4   1   3 1150.57 39.3663  26
   3  -1  -3 185.488 9.65624   7
  -3   1   3 189.491 8.52394   5
  -3   1   3 177.803 8.70257   7
  -3   1   3 180.221 6.80216  26
  -2   1   3 535.617 19.7210   5
  -2   1   3 517.132 19.9890  14
  -2   1   3 540.967 25.1041  24
   1  -1  -3 27.8253 3.87910  24
   1  -1  -3 28.1502 1.33283  26
  -1   1   3 27.2327 3.65822  24
  -1   1   3 27.9356 2.42820  14
   0   1   3 54.8666 3.76909  14
  -1  -1  -3 747.560 27.7614  14
   1   1   3 747.125 28.7199  14
  -2  -1  -3 158.758 9.74266   7
  -2  -1  -3 195.092 8.63590  14
   2   1   3 196.131 9.59981  14
   8  -2  -3 114.271 4.51082  11
  -8   2   3 118.215 4.92824  18
  -8   2   3 119.233 4.52416  11
  -8   2   3 122.175 4.68443  12
  -8   2   3 119.379 4.70034  29
   7  -2  -3 91.0863 3.73891  11
   7  -2  -3 87.1775 3.47070  19
  -7   2   3 87.9089 3.73949  11
  -7   2   3 87.4074 4.22729   3
  -7   2   3 90.0987 3.98250  31
  -7   2   3 88.6096 4.22465  18
  -7   2   3 89.7918 3.89199  12
  -7   2   3 90.3504 3.88968  29
  -7   2   3 90.1176 3.84959  20
   6  -2  -3 148.036 5.92161  23
   6  -2  -3 148.023 5.59112  19
   6  -2  -3 146.815 9.61030   7
  -6   2   3 157.633 6.15244  12
  -6   2   3 147.745 6.41841  18
  -6   2   3 152.464 6.17767  31
  -6   2   3 152.386 6.07274  29
  -6   2   3 149.669 5.93145  11
  -6   2   3 148.452 6.30976   3
  -6   2   3 150.905 6.03648  20
   5  -2  -3 92.0207 6.77411   7
  -5   2   3 90.3029 5.50655   5
  -5   2   3 91.7824 3.97131  20
   4  -2  -3 4.55951 1.59991   7
  -4   2   3 6.64515 1.39765   5
   3  -2  -3 418.693 17.6092   7
  -3   2   3 418.988 16.1776   5
   2  -2  -3 232.566 7.95864  26
   2  -2  -3 207.094 9.67749   7
  -2   2   3 215.166 10.0730  14
   1  -2  -3 8345.50 320.133   7
   1  -2  -3 9999.99 315.190  26
  -1   2   3 9234.84 324.837  14
   0  -2  -3 799.528 31.1445   7
   0  -2  -3 846.079 28.9621  26
   0   2   3 878.515 32.0891  14
  -1  -2  -3 43.6887 2.31432  10
   1   2   3 46.8370 4.06960  14
  -2  -2  -3 1514.03 60.8642   7
  -2  -2  -3 1727.65 55.9882  10
  -3  -2  -3 899.611 29.7929  25
  -3  -2  -3 826.795 30.0531  15
   8  -3  -3 201.824 7.61240  23
   8  -3  -3 199.526 7.56193  11
  -8   3   3 209.582 7.90396  31
  -8   3   3 213.916 7.62787  11
  -8   3   3 208.935 7.97117  18
  -8   3   3 212.359 7.74486  29
  -8   3   3 210.256 7.71365  12
   7  -3  -3 206.239 7.84213  11
   7  -3  -3 211.527 7.57160  19
   7  -3  -3 196.181 7.86161   4
   7  -3  -3 200.416 7.87435  23
  -7   3   3 212.945 8.00062  20
  -7   3   3 206.064 7.80306   4
  -7   3   3 216.764 8.02919  29
  -7   3   3 202.429 7.87628  11
  -7   3   3 217.404 8.04915  12
  -7   3   3 224.614 8.16215  31
  -7   3   3 213.060 8.40833  18
   6  -3  -3 876.572 30.1091  23
   6  -3  -3 848.361 29.6839  19
   6  -3  -3 831.733 30.0645   4
   6  -3  -3 790.961 33.8119   7
  -6   3   3 875.773 30.1381   4
  -6   3   3 891.942 30.3117  29
  -6   3   3 871.283 30.1230  11
  -6   3   3 885.128 30.2865  20
  -6   3   3 876.267 30.4178  31
  -6   3   3 851.236 30.3807   3
  -6   3   3 872.300 30.4405  12
  -6   3   3 866.004 30.7073  18
   5  -3  -3 375.724 16.6233   7
   5  -3  -3 366.060 12.9267   4
  -5   3   3 365.370 12.9437   4
  -5   3   3 333.609 12.9393  20
  -5   3   3 340.029 12.8072  26
   4  -3  -3 77.0106 5.68557   7
  -4   3   3 101.184 3.65771  26
   3  -3  -3 1436.46 51.4626   7
  -3   3   3 1404.80 52.2018  14
   2  -3  -3 2898.36 102.404   7
   2  -3  -3 3108.67 100.245  26
  -2   3   3 2796.10 103.318  14
   1  -3  -3 650.948 26.2352   7
   1  -3  -3 741.164 24.3700  26
  -1   3   3 701.633 27.7620  14
   0  -3  -3 933.478 36.1751   7
   0  -3  -3 966.257 33.7302  10
   0  -3  -3 987.125 33.4391  26
   0   3   3 944.013 34.3061  10
   0   3   3 1011.75 37.2764  14
  -1  -3  -3 1255.66 41.9978  10
  -1  -3  -3 1212.72 45.8405   7
  -1  -3  -3 1107.58 41.4413  26
   1   3   3 1252.30 42.7666  10
  -2  -3  -3 77.1220 7.04895   7
  -2  -3  -3 87.5143 3.76335  15
  -2  -3  -3 87.5687 3.91298  10
  -2  -3  -3 90.8383 3.41048  25
   2   3   3 89.3152 4.63789  10
  -3  -3  -3 100.775 3.75393  13
  -3  -3  -3 96.8174 4.17276  15
  -3  -3  -3 97.9753 4.10178  22
  -3  -3  -3 91.5416 4.10988   1
  -3  -3  -3 98.7100 3.76866  25
  -3  -3  -3 96.7887 4.07716   3
  -4  -3  -3 181.839 6.96410   3
  -4  -3  -3 187.815 6.70879  25
   8  -4  -3 236.004 8.64389  11
   8  -4  -3 236.280 8.76396   4
   8  -4  -3 242.665 8.75871  23
  -8   4   3 240.324 8.80089  29
  -8   4   3 254.598 9.11855  18
  -8   4   3 243.717 8.73207  11
  -8   4   3 227.577 8.64094   4
   7  -4  -3 625.810 22.1672  19
   7  -4  -3 651.312 22.4675  11
   7  -4  -3 637.802 22.5827   4
   7  -4  -3 643.262 22.5775  23
  -7   4   3 625.182 22.5542  11
  -7   4   3 639.521 22.7078  29
  -7   4   3 634.390 22.6859  20
  -7   4   3 653.706 22.5516   4
  -7   4   3 663.107 23.1460  18
   6  -4  -3 350.896 12.9238   4
   6  -4  -3 347.741 12.8865  23
  -6   4   3 353.570 12.8864  11
  -6   4   3 352.279 13.0651  29
  -6   4   3 373.067 12.9328   4
  -6   4   3 355.354 13.0452  20
  -6   4   3 353.164 13.5158  18
   5  -4  -3 125.541 4.98045   4
   5  -4  -3 114.939 7.23883   7
  -5   4   3 125.098 5.55632  18
  -5   4   3 125.545 5.01969   4
   4  -4  -3 1327.23 48.6313   7
   3  -4  -3 31.4298 3.04641   7
   2  -4  -3 657.118 25.3751   7
   1  -4  -3 1322.47 44.3231  26
   1  -4  -3 1245.98 44.4740  10
   1  -4  -3 1293.24 46.9462   7
  -1   4   3 1270.29 45.1921  10
   0  -4  -3 653.755 26.0449   7
   0  -4  -3 658.681 22.9637  10
   0  -4  -3 624.235 22.6558  26
   0   4   3 627.855 23.1859  17
   0   4   3 662.906 23.7732  10
  -1  -4  -3 374.048 13.4086  28
  -1  -4  -3 386.026 13.6050  15
  -1  -4  -3 347.745 13.3829  26
  -1  -4  -3 353.871 17.4804   7
  -1  -4  -3 385.551 13.8353  10
  -1  -4  -3 378.956 13.1968  25
   1   4   3 394.588 14.7851  10
  -2  -4  -3 28.2498 1.42269  25
  -2  -4  -3 27.5843 1.87422  15
  -2  -4  -3 27.3132 1.85309  10
  -2  -4  -3 24.0719 3.72115   7
  -2  -4  -3 26.6011 1.80437   1
  -2  -4  -3 28.2425 1.78807   3
  -2  -4  -3 28.5858 1.40012  13
  -2  -4  -3 26.1516 1.68757  22
  -2  -4  -3 26.8914 2.14793  18
   2   4   3 28.6269 2.51772  10
  -3  -4  -3 103.998 4.19173  15
  -3  -4  -3 90.1425 4.35829  18
  -3  -4  -3 98.2903 4.04217   3
  -3  -4  -3 97.8195 3.69084  13
  -3  -4  -3 98.5460 3.75047  25
  -3  -4  -3 96.0475 4.03907  22
   3   4   3 91.2388 4.23163  18
  -4  -4  -3 153.265 5.56549  25
  -4  -4  -3 160.608 5.52820  13
  -4  -4  -3 147.180 5.75501   3
  -4  -4  -3 155.744 5.75584  22
   7  -5  -3 76.8312 3.14528  23
   7  -5  -3 76.2284 3.16447   4
  -7   5   3 70.5777 3.67578  18
  -7   5   3 67.4522 3.22651  29
  -7   5   3 67.2808 3.13657   4
   6  -5  -3 503.045 17.9568   4
   6  -5  -3 515.846 17.9403  23
   6  -5  -3 490.822 17.7790  27
  -6   5   3 497.489 18.7589  18
  -6   5   3 507.602 18.1190  29
  -6   5   3 506.728 17.9514   4
   5  -5  -3 518.776 18.8525   9
   5  -5  -3 541.080 19.0622   4
   5  -5  -3 558.864 18.8553  30
   5  -5  -3 547.322 18.9448  27
  -5   5   3 519.961 19.8711  18
  -5   5   3 555.415 20.0766   6
  -5   5   3 535.654 19.2284  29
  -5   5   3 513.245 18.9943   4
   4  -5  -3 11.0839 0.91225  30
   4  -5  -3 6.63532 0.91888  27
   4  -5  -3 9.18978 1.84917   7
   3  -5  -3 116.329 6.73688   7
   3  -5  -3 115.750 4.40006  30
  -3   5   3 99.6530 5.51662  17
   2  -5  -3 533.268 21.3730   7
   2  -5  -3 515.696 18.2960  28
   2  -5  -3 507.419 18.2797  30
   1  -5  -3 208.165 7.60782  25
   1  -5  -3 217.238 10.8612   7
   1  -5  -3 208.762 7.86281  21
   1  -5  -3 200.342 8.01842  26
   1  -5  -3 219.751 7.82390  28
   1  -5  -3 209.952 8.17875  10
  -1   5   3 203.872 8.62480  17
  -1   5   3 205.610 8.95524  10
   0  -5  -3 322.343 12.3304  21
   0  -5  -3 313.430 12.1142  25
   0  -5  -3 354.720 13.0665  18
   0  -5  -3 329.316 12.4253  22
   0  -5  -3 323.708 12.4937  15
   0  -5  -3 351.984 12.4139  28
   0  -5  -3 356.308 12.6764   3
   0  -5  -3 330.402 12.4974   1
   0  -5  -3 345.820 12.6272  26
   0  -5  -3 338.931 12.0952  13
   0  -5  -3 353.991 12.8360  10
   0  -5  -3 349.873 16.4611   7
   0   5   3 351.964 13.1617  17
   0   5   3 349.169 12.7175   3
   0   5   3 361.450 12.9742  18
   0   5   3 357.524 13.8103  10
  -1  -5  -3 178.832 6.44666  13
  -1  -5  -3 175.437 6.88057  15
  -1  -5  -3 175.815 7.14114  10
  -1  -5  -3 174.545 6.73567  28
  -1  -5  -3 178.553 6.92446   3
  -1  -5  -3 177.036 6.81829  22
  -1  -5  -3 169.573 6.81967   1
  -1  -5  -3 182.047 7.37580  18
  -1  -5  -3 170.579 6.49671  25
   1   5   3 179.855 7.33514  17
   1   5   3 180.186 8.03428  10
   1   5   3 173.571 7.14229  18
  -2  -5  -3 112.242 4.59258  15
  -2  -5  -3 110.115 4.58564   3
  -2  -5  -3 108.812 4.56319   1
  -2  -5  -3 106.199 4.20057  25
  -2  -5  -3 113.023 4.16534  13
  -2  -5  -3 113.131 4.51054  22
  -2  -5  -3 113.191 4.99877  18
   2   5   3 107.640 4.75639  18
   2   5   3 110.406 4.90451  17
  -3  -5  -3 150.350 6.10534  18
  -3  -5  -3 161.250 5.87872   1
  -3  -5  -3 156.655 5.78201  22
  -3  -5  -3 156.116 5.54488  13
  -3  -5  -3 154.330 5.85925   3
  -3  -5  -3 151.793 5.58686  25
   3   5   3 149.596 5.95048  18
   7  -6  -3 119.327 4.83824  27
   7  -6  -3 131.913 5.08052   4
   7  -6  -3 133.185 5.02582  23
  -7   6   3 130.301 4.97180   4
  -7   6   3 128.595 5.63098  18
  -7   6   3 122.332 5.08456  29
   6  -6  -3 83.1123 3.51381  27
   6  -6  -3 92.9045 3.70212   4
   6  -6  -3 85.2588 3.40145  30
   6  -6  -3 85.6285 3.41736   9
  -6   6   3 81.5514 3.56654   4
  -6   6   3 79.9534 4.33461  18
  -6   6   3 77.3792 3.69462  29
   5  -6  -3 19.8161 1.23720  30
   5  -6  -3 19.9130 1.26665   9
   5  -6  -3 18.5811 1.34778  27
  -5   6   3 17.2980 1.94785  18
  -5   6   3 19.1904 1.94340   6
   4  -6  -3 154.827 5.59848  30
   4  -6  -3 154.195 5.70310  27
   4  -6  -3 146.093 5.57598   9
   4  -6  -3 146.207 5.53597  21
  -4   6   3 134.179 6.62048   6
  -4   6   3 131.817 6.60362  18
   3  -6  -3 16.6061 2.45755   7
   3  -6  -3 14.9888 1.94647   3
   3  -6  -3 15.2343 1.14205  30
   3  -6  -3 14.3271 1.12774  28
   3  -6  -3 16.6128 1.13950  21
   3  -6  -3 17.7585 1.23050   9
  -3   6   3 11.3356 1.64364  18
  -3   6   3 16.8783 1.76555   3
  -3   6   3 14.8259 2.10758  17
   2  -6  -3 336.169 11.8487  28
   2  -6  -3 303.704 11.8140   9
   2  -6  -3 324.406 12.4750   3
   2  -6  -3 335.777 15.1805   7
   2  -6  -3 332.904 11.8587  21
   2  -6  -3 342.816 12.7483  18
  -2   6   3 325.787 12.3932   3
  -2   6   3 325.279 12.6606   6
  -2   6   3 328.991 12.9749  17
  -2   6   3 324.365 12.5993  18
   1  -6  -3 5.44865 1.02864  10
   1  -6  -3 6.12983 0.80712  21
   1  -6  -3 5.90237 0.80367  28
   1  -6  -3 6.34508 1.23384  18
   1  -6  -3 6.29785 1.19160   3
  -1   6   3 4.98881 1.15488  17
  -1   6   3 6.81428 1.21067   3
  -1   6   3 6.48695 1.11955  18
  -1   6   3 6.53004 1.43211  10
   0  -6  -3 82.1082 3.96910   3
   0  -6  -3 93.6187 4.19915  10
   0  -6  -3 78.8548 3.72612  22
   0  -6  -3 88.0968 3.80631   1
   0  -6  -3 86.4546 4.20576  18
   0  -6  -3 86.1646 3.50000  25
   0  -6  -3 91.5788 3.71141  28
   0  -6  -3 82.3369 3.78503  15
   0   6   3 96.9053 4.17133  18
   0   6   3 92.5759 4.04457   3
   0   6   3 87.8238 4.85484  10
   0   6   3 97.9023 4.52501  17
  -1  -6  -3 274.087 10.0382   3
  -1  -6  -3 250.875 9.76336  28
  -1  -6  -3 271.164 9.93112  15
  -1  -6  -3 280.648 10.2971  18
  -1  -6  -3 282.706 9.88356  22
  -1  -6  -3 263.079 9.60317  25
  -1  -6  -3 279.278 9.93509   1
   1   6   3 262.090 10.1199  18
   1   6   3 270.820 10.0256   3
   1   6   3 268.176 10.3544  17
  -2  -6  -3 171.972 6.12689   1
  -2  -6  -3 160.024 6.26700  18
  -2  -6  -3 166.915 6.14259   3
  -2  -6  -3 165.124 5.99720  22
   2   6   3 146.799 6.11163  18
   2   6   3 162.678 6.12642   3
   7  -7  -3 5.22052 0.72016  27
  -7   7   3 4.43129 0.82488  18
   6  -7  -3 4.04926 0.72025  27
   6  -7  -3 3.48891 0.54314  30
   6  -7  -3 3.39148 0.56047   9
  -6   7   3 3.63635 0.93234  18
   5  -7  -3 19.3424 1.26289   9
   5  -7  -3 22.0985 1.39639  27
   5  -7  -3 20.8658 1.23232  30
  -5   7   3 15.5094 1.76353   6
  -5   7   3 16.9950 1.80370  18
   4  -7  -3 35.2053 1.74539   9
   4  -7  -3 34.7214 1.71569  30
   4  -7  -3 31.5887 1.63072  21
  -4   7   3 27.3269 2.27411  18
  -4   7   3 27.4572 2.32026   6
   3  -7  -3 126.083 4.81051  21
   3  -7  -3 114.608 4.77377  30
   3  -7  -3 127.719 4.79779  28
   3  -7  -3 126.477 4.82955   9
  -3   7   3 121.939 5.54592  18
  -3   7   3 125.742 5.64051   3
  -3   7   3 116.833 5.63513   6
   2  -7  -3 10.9899 1.50488   3
   2  -7  -3 8.80928 0.90790  28
   2  -7  -3 8.69398 0.85818  21
   2  -7  -3 9.75055 1.35704  18
  -2   7   3 13.2125 1.43836   3
  -2   7   3 10.1742 1.29378  18
  -2   7   3 9.81937 1.58914  17
  -2   7   3 11.1677 1.29982   6
   1  -7  -3 377.394 13.5617  28
   1  -7  -3 382.474 14.1060  18
   1  -7  -3 381.837 13.9464   3
   1  -7  -3 370.851 13.5444  21
  -1   7   3 378.923 13.9844  18
  -1   7   3 398.137 13.8605   3
  -1   7   3 385.967 14.2429  17
   0  -7  -3 71.5633 3.03659   1
   0  -7  -3 66.1347 2.87268  28
   0  -7  -3 70.3575 3.11236   3
   0  -7  -3 71.8632 3.27541  18
   0   7   3 67.1152 3.03060   3
   0   7   3 64.4233 3.07188  18
   5  -8  -3 112.625 4.08382   9
   5  -8  -3 103.303 4.00236  21
  -5   8   3 103.172 4.69810   6
  -5   8   3 107.853 4.60826  18
   4  -8  -3 2.20158 0.52165   9
   4  -8  -3 1.86903 0.41299  21
  -4   8   3 2.46615 0.67530  18
  -4   8   3 1.98242 0.58481   6
   3  -8  -3 83.5378 3.43720  21
  -3   8   3 89.1229 4.02393   6
  -3   8   3 94.1441 3.94334  18
   2  -8  -3 1.81188 0.37506  21
  -2   8   3 1.35939 0.49802  18
  -1   8  -4 46.2775 2.33576   6
  -1   8  -4 47.3247 2.14402  29
   1  -8   4 48.1277 2.14241   8
  -2   8  -4 142.744 5.53244  29
   2  -8   4 141.799 5.50779  28
   2  -8   4 148.520 5.55792   8
  -3   8  -4 4.84510 0.75545  29
  -3   8  -4 4.58174 0.79074  20
   3  -8   4 6.22189 0.81637   8
   3  -8   4 6.19340 0.86166  28
   3  -8   4 5.69539 0.69806  21
  -4   8  -4 322.350 11.7642  29
   4  -8   4 323.139 11.7152  28
   4  -8   4 330.540 11.6054  21
  -5   8  -4 297.648 10.6125  29
   5  -8   4 291.044 10.4503  21
   5  -8   4 292.900 10.4439   9
   1   7  -4 48.0554 2.25254  29
   1   7  -4 46.6590 2.46482   6
  -1  -7   4 51.8989 2.46660   1
  -1  -7   4 53.3687 2.50984  29
   0   7  -4 256.227 9.42592  20
   0   7  -4 254.092 9.68853   6
   0   7  -4 252.945 9.34497  29
   0  -7   4 257.501 9.67520  29
   0  -7   4 251.268 9.49182   1
   0  -7   4 250.284 9.33782   8
  -1   7  -4 0.51814 0.46345  29
  -1   7  -4 0.56119 0.50617   6
  -1   7  -4 0.89333 0.52780  20
   1  -7   4 0.87426 0.51996   8
   1  -7   4 0.32719 0.51735  28
  -2   7  -4 33.2227 1.88340  29
  -2   7  -4 32.2695 1.95170  20
  -2   7  -4 30.0488 2.23870  10
  -2   7  -4 33.0606 2.06928  12
   2  -7   4 30.2642 1.73063  21
   2  -7   4 33.2086 1.94610   8
   2  -7   4 33.2605 1.93258  28
  -3   7  -4 17.5766 1.65692  12
  -3   7  -4 16.6291 1.35526  29
  -3   7  -4 18.8853 1.49196  20
   3  -7   4 15.2376 1.47246  28
   3  -7   4 14.3747 1.28392  21
   3  -7   4 16.6850 1.42802   8
   3  -7   4 14.6198 1.03534  16
  -4   7  -4 5.71369 1.02152  20
  -4   7  -4 5.64768 0.90254  29
  -4   7  -4 5.25527 1.14045  12
   4  -7   4 5.08755 0.88234  28
   4  -7   4 4.17182 0.80194   9
   4  -7   4 5.00983 0.63064  16
   4  -7   4 4.41267 0.76870  21
  -5   7  -4 147.024 5.88220  20
  -5   7  -4 140.357 6.11521  12
  -5   7  -4 143.714 5.68818  29
  -5   7  -4 145.080 5.20427  30
   5  -7   4 136.751 5.41201   9
   5  -7   4 141.582 5.46506  21
   5  -7   4 136.110 5.15414  16
   5  -7   4 135.318 5.37740  30
  -6   7  -4 67.8312 3.41523  12
  -6   7  -4 68.7861 2.67882  30
  -6   7  -4 69.8835 2.77301  27
   6  -7   4 67.6675 2.85082  30
   6  -7   4 69.7335 2.88849  27
   6  -7   4 68.2943 2.89077  21
   6  -7   4 71.0044 2.90752   9
   3   6  -4 8.65197 1.06461   6
  -3  -6   4 10.5620 1.10194  29
  -3  -6   4 10.8404 0.95003  22
   2   6  -4 -0.1242 0.47042  20
  -2  -6   4 0.60691 0.74103  15
  -2  -6   4 0.74276 0.50760  29
  -2  -6   4 0.82370 0.65411   1
  -2  -6   4 1.22155 0.68365  22
   1   6  -4 1.02534 0.79828  10
   1   6  -4 4.23538 0.76467  12
  -1  -6   4 1.94272 0.98444  15
  -1  -6   4 2.94691 0.86960   1
  -1  -6   4 1.06264 0.56008   8
   0   6  -4 330.029 13.2901   6
   0   6  -4 359.743 13.1221  20
   0   6  -4 355.420 13.1430  12
   0   6  -4 371.817 13.9706  10
   0   6  -4 355.933 13.0393  29
   0  -6   4 364.333 13.3180   1
   0  -6   4 366.005 13.1719   8
   0  -6   4 373.566 13.4189  29
  -1   6  -4 390.288 14.0569  29
  -1   6  -4 397.975 14.1600  20
  -1   6  -4 381.253 14.7937  10
  -1   6  -4 388.597 14.2004  12
   1  -6   4 387.444 14.0944  28
   1  -6   4 374.313 14.3266  29
   1  -6   4 383.075 14.1094   8
  -2   6  -4 1.16690 0.58254  20
  -2   6  -4 0.64433 0.63487  12
  -2   6  -4 0.72894 0.65744  10
  -2   6  -4 1.78951 0.59300  29
   2  -6   4 0.94318 0.55405   8
   2  -6   4 1.00353 0.60704  28
   2  -6   4 0.90210 0.41520  16
   2  -6   4 0.79385 0.51517  21
  -3   6  -4 74.8713 3.64495  29
  -3   6  -4 79.8984 3.88760  20
  -3   6  -4 86.2131 3.26783  21
  -3   6  -4 85.5305 4.23513  12
   3  -6   4 76.5708 3.65068   8
   3  -6   4 78.0139 3.54808  21
   3  -6   4 79.8451 3.69431  28
   3  -6   4 78.7298 3.20533  16
  -4   6  -4 38.0256 2.34213  29
  -4   6  -4 40.2111 2.83839  12
  -4   6  -4 44.4403 1.94608  30
  -4   6  -4 41.1554 1.88722  21
  -4   6  -4 41.4098 2.56583  20
   4  -6   4 39.3540 2.10207  30
   4  -6   4 40.6001 2.22094  21
   4  -6   4 43.0468 1.90614  16
   4  -6   4 42.4670 2.35767  28
   4  -6   4 40.1851 2.14631   9
  -5   6  -4 21.5817 2.05267  12
  -5   6  -4 23.0349 1.39100  27
  -5   6  -4 20.9401 1.18070  21
  -5   6  -4 21.3145 2.11164  31
  -5   6  -4 23.3762 1.81364  20
  -5   6  -4 21.4978 1.67826  29
  -5   6  -4 21.9806 1.22679  30
   5  -6   4 22.0543 1.45643   9
   5  -6   4 22.5062 1.23511  16
   5  -6   4 21.5926 1.49976  21
   5  -6   4 22.7846 1.43632  30
  -6   6  -4 52.9703 2.35061  30
  -6   6  -4 63.2445 3.38312  31
  -6   6  -4 52.3222 2.82515  20
  -6   6  -4 57.6690 2.49681  27
  -6   6  -4 56.0011 3.21856  12
  -6   6  -4 54.4953 2.66826   4
   6  -6   4 52.6547 2.32181  16
   6  -6   4 66.3324 2.72262  27
   6  -6   4 52.8133 2.56021  30
   6  -6   4 56.6687 2.85210   4
   6  -6   4 60.6990 2.64435   9
  -7   6  -4 133.140 5.56300  11
  -7   6  -4 149.682 5.36322  27
  -7   6  -4 145.907 5.82800  12
   7  -6   4 150.974 5.42141  27
   7  -6   4 123.083 5.48773  23
   7  -6   4 159.168 5.43065   9
   4   5  -4 73.8170 3.14679  29
   4   5  -4 76.0294 3.49848   6
   4   5  -4 75.6462 3.16342  18
  -4  -5   4 69.2642 3.24108  29
  -4  -5   4 70.1351 3.24361  18
   3   5  -4 4.10497 1.14800  20
  -3  -5   4 5.71309 1.01052  18
  -3  -5   4 3.27105 0.57565  13
  -3  -5   4 3.82375 0.84495  22
  -3  -5   4 3.84683 1.16756  20
  -3  -5   4 2.96168 1.03833  29
  -3  -5   4 4.84442 0.68743  25
  -3  -5   4 3.60350 0.90664   1
  -3  -5   4 1.83048 1.01696  15
   2   5  -4 221.114 8.35442  20
   2   5  -4 215.221 8.76162   6
   2   5  -4 219.834 8.30217  29
   2   5  -4 217.227 8.24622  12
  -2  -5   4 221.686 8.53026   1
  -2  -5   4 221.043 8.54951  22
  -2  -5   4 214.056 8.58696  29
  -2  -5   4 216.171 8.62829  20
  -2  -5   4 215.475 8.62750  15
   1   5  -4 446.697 15.7281  29
   1   5  -4 460.099 16.6014  10
   1   5  -4 438.699 16.1741   6
   1   5  -4 435.937 15.7317  20
   1   5  -4 441.273 15.7441  12
  -1  -5   4 440.443 16.1740  15
  -1  -5   4 409.425 15.7468   8
  -1  -5   4 441.863 16.0378   1
  -1  -5   4 449.970 16.0707  29
  -1  -5   4 414.849 15.9784  22
   0   5  -4 49.0467 2.33124  29
   0   5  -4 43.5963 2.82156  10
   0   5  -4 46.0935 2.31160  20
   0   5  -4 47.4337 2.32853  12
   0  -5   4 37.0289 2.60016  15
   0  -5   4 43.7639 2.42000   8
   0  -5   4 48.6116 2.39467  29
   0  -5   4 38.0397 2.32709  28
  -1   5  -4 30.6167 1.81729  20
  -1   5  -4 31.9996 2.29308  10
   1  -5   4 26.9338 1.83586  28
  -2   5  -4 42.1981 2.66840  10
  -2   5  -4 39.7819 2.25898  20
   2  -5   4 38.9643 2.24227  28
   2  -5   4 38.0996 1.79645  16
  -3   5  -4 17.4084 1.78616  12
  -3   5  -4 18.8164 1.13906  30
  -3   5  -4 16.4954 1.53433  20
  -3   5  -4 16.4871 1.93406  31
   3  -5   4 21.4325 1.56705  28
   3  -5   4 19.7070 1.10762  16
   3  -5   4 19.4572 1.32610  30
  -4   5  -4 36.0169 2.40138  20
  -4   5  -4 38.5991 2.95411  31
  -4   5  -4 40.0988 1.87900  30
  -4   5  -4 39.0269 4.11958   2
  -4   5  -4 36.5587 1.96023  27
  -4   5  -4 37.4125 2.70688  12
  -4   5  -4 39.7878 2.31494  26
  -4   5  -4 38.0194 1.82255  21
   4  -5   4 42.1266 2.18864   9
   4  -5   4 34.9547 2.17631  28
   4  -5   4 35.7137 1.75769  16
   4  -5   4 36.5384 2.07668  21
   4  -5   4 44.0060 2.27672  27
   4  -5   4 39.9633 2.06511  30
  -5   5  -4 46.7633 3.22260  31
  -5   5  -4 47.7352 2.43716  19
  -5   5  -4 46.4882 2.65932  11
  -5   5  -4 51.1846 2.73584  20
  -5   5  -4 47.8668 2.16421  30
  -5   5  -4 46.4688 2.32091  27
  -5   5  -4 48.7118 2.60554   4
  -5   5  -4 52.7156 3.09079  12
  -5   5  -4 47.7538 2.10586  21
   5  -5   4 44.4916 2.44312   9
   5  -5   4 44.6819 2.37634  21
   5  -5   4 41.4008 2.46480  27
   5  -5   4 44.7952 2.34444  30
   5  -5   4 46.7417 2.06587  16
  -6   5  -4 47.1305 2.51399  20
  -6   5  -4 46.8047 2.07109  30
  -6   5  -4 45.6325 2.96289  31
  -6   5  -4 46.0900 2.45945   4
  -6   5  -4 42.4007 2.49585  11
  -6   5  -4 44.3710 2.21065  27
  -6   5  -4 45.1012 2.72366  12
   6  -5   4 44.7372 2.33673   9
   6  -5   4 44.7319 2.44675  27
   6  -5   4 44.7242 2.26268  30
  -7   5  -4 165.523 6.92802  31
  -7   5  -4 166.529 6.55106  11
  -7   5  -4 172.765 6.62826  12
  -7   5  -4 171.131 6.51677   4
  -7   5  -4 165.619 6.18695  27
   7  -5   4 168.887 6.61802   4
   7  -5   4 148.137 6.24462  27
   5   4  -4 111.567 4.26595  29
   5   4  -4 115.230 4.46713   6
  -5  -4   4 105.580 4.42861  18
  -5  -4   4 107.892 4.01911  13
  -5  -4   4 102.601 4.19417   3
  -5  -4   4 110.214 4.53209  29
   4   4  -4 121.040 5.19177  12
   4   4  -4 132.295 5.16285  29
   4   4  -4 127.803 5.27364  20
  -4  -4   4 127.314 4.92315  25
  -4  -4   4 133.346 5.68656  20
  -4  -4   4 127.211 5.54559  29
  -4  -4   4 127.874 5.31914  22
  -4  -4   4 122.885 4.81056  13
  -4  -4   4 126.250 5.43237  15
  -4  -4   4 122.396 5.14485   3
  -4  -4   4 124.099 5.38934  18
  -4  -4   4 134.824 5.76296  12
   3   4  -4 310.736 10.9295  29
   3   4  -4 310.241 11.0854  20
   3   4  -4 291.145 11.0053  12
  -3  -4   4 281.962 11.1252  22
  -3  -4   4 288.879 11.0778   1
  -3  -4   4 297.682 10.7244  25
  -3  -4   4 303.960 11.3451  15
  -3  -4   4 292.815 11.5488  12
  -3  -4   4 297.984 11.4476  20
  -3  -4   4 275.510 11.2189  18
  -3  -4   4 299.835 10.6339  13
  -3  -4   4 286.833 11.3272  29
   2   4  -4 6.08414 1.13204  12
   2   4  -4 5.11274 0.94836  29
   2   4  -4 5.53442 1.09846  20
  -2  -4   4 4.87959 1.06898  15
  -2  -4   4 6.82228 1.10809  22
  -2  -4   4 2.57139 1.07049  20
  -2  -4   4 4.66787 1.32340  12
  -2  -4   4 2.29662 1.02137  29
  -2  -4   4 6.67873 1.22002   1
  -2  -4   4 4.50311 0.73220  26
   1   4  -4 42.1908 2.33384  20
   1   4  -4 48.2240 2.79786  10
  -1  -4   4 39.6145 2.73495  15
  -1  -4   4 41.1371 2.57919  20
   0   4  -4 791.521 28.3036  10
  -1   4  -4 53.2680 3.03385  10
   1  -4   4 54.4487 4.58717   5
  -2   4  -4 1420.05 48.9442  26
  -2   4  -4 1387.09 49.1899  10
   2  -4   4 1418.72 52.6644   5
  -3   4  -4 97.7081 4.37772  26
   3  -4   4 110.450 7.08610   5
  -4   4  -4 8.74344 0.78792  30
  -4   4  -4 9.92299 1.01813  19
  -4   4  -4 8.39657 1.14324  20
  -4   4  -4 12.9455 1.70118  31
  -4   4  -4 10.5440 1.15685   4
  -4   4  -4 7.81922 1.07779  26
   4  -4   4 8.98613 1.07103  30
   4  -4   4 9.17524 2.09239   5
   4  -4   4 8.08696 0.78719  16
  -5   4  -4 356.732 13.5346  12
  -5   4  -4 337.742 13.7735  31
  -5   4  -4 360.583 12.7395  30
  -5   4  -4 354.412 12.9220  27
  -5   4  -4 359.023 13.0053  19
  -5   4  -4 366.804 13.2953  20
  -5   4  -4 374.991 13.4954   4
  -5   4  -4 366.262 13.4523  11
   5  -4   4 346.641 12.8877  30
   5  -4   4 345.429 12.5444  16
   5  -4   4 349.995 13.0591   9
  -6   4  -4 673.372 24.1993  12
  -6   4  -4 666.291 24.2481   4
  -6   4  -4 673.037 23.7439  27
  -6   4  -4 641.902 23.5194  30
  -6   4  -4 669.516 24.5380  31
  -6   4  -4 688.433 24.2191  11
   6  -4   4 662.766 23.7984   9
   6  -4   4 724.474 24.0163  27
   6  -4   4 679.268 23.7458  30
  -7   4  -4 23.8736 1.56831  12
  -7   4  -4 21.9694 1.57865   4
  -7   4  -4 20.2138 1.65656  31
  -7   4  -4 21.2384 1.56581  11
   5   3  -4 352.444 12.9785  12
   5   3  -4 362.082 12.8681  20
  -5  -3   4 349.676 13.1686  18
  -5  -3   4 353.927 12.5897  25
  -5  -3   4 363.576 13.3195  20
  -5  -3   4 360.828 13.4018  12
  -5  -3   4 353.244 13.2490  29
  -5  -3   4 337.322 12.4629  13
  -5  -3   4 353.542 12.8792   3
  -5  -3   4 351.650 12.8921  22
   4   3  -4 410.218 15.1261  20
   4   3  -4 402.604 15.2043  12
  -4  -3   4 412.930 15.5772  18
  -4  -3   4 421.902 15.1799   3
  -4  -3   4 426.542 15.2560  22
  -4  -3   4 409.280 15.5977  20
  -4  -3   4 416.471 14.7692  25
  -4  -3   4 418.419 14.6818  13
  -4  -3   4 417.142 15.7009  29
  -4  -3   4 402.146 15.6902  12
   3   3  -4 370.373 15.7997   2
   3   3  -4 344.775 13.7670  31
   3   3  -4 363.814 13.5326  20
   3   3  -4 372.821 13.6596  12
   3   3  -4 399.096 17.8160   7
  -3  -3   4 355.350 13.3815  26
  -3  -3   4 370.895 13.2038  25
  -3  -3   4 382.265 16.6641   7
  -3  -3   4 386.605 14.1596  29
  -3  -3   4 360.938 13.9627  20
  -3  -3   4 367.810 14.1190  12
  -3  -3   4 382.515 13.6862  15
  -3  -3   4 331.501 14.0735  31
  -3  -3   4 359.112 13.6274  22
  -3  -3   4 367.510 13.6985   3
  -3  -3   4 361.163 13.9683  18
  -2  -3   4 2.31367 0.52696  26
  -2  -3   4 2.23476 1.29060   5
   1   3  -4 379.907 14.1315  10
  -1  -3   4 391.485 13.6291  26
  -1  -3   4 370.893 16.4148   5
   0   3  -4 473.860 17.4452  10
   0  -3   4 484.749 19.4992   5
  -1   3  -4 3446.86 111.375  26
  -1   3  -4 2989.24 111.577  10
  -1   3  -4 3319.62 113.471  14
   1  -3   4 3259.11 114.644   5
  -2   3  -4 147.946 6.40035  10
  -2   3  -4 161.765 6.06679  26
  -2   3  -4 163.265 8.26572  14
   2  -3   4 151.965 8.30497   5
  -3   3  -4 1077.12 36.5917  26
  -3   3  -4 1018.80 38.9414   5
   3  -3   4 1083.24 39.3154   5
  -4   3  -4 198.834 7.50122  19
  -4   3  -4 194.996 7.27072  26
  -4   3  -4 190.277 9.53578   5
   4  -3   4 211.573 9.98371   5
   4  -3   4 194.565 7.17423  16
  -5   3  -4 92.1644 4.31459  12
  -5   3  -4 87.4610 3.75518  30
  -5   3  -4 92.3311 3.68567  26
  -5   3  -4 91.4188 4.39224   4
  -5   3  -4 93.9831 4.27787  11
  -5   3  -4 89.7945 3.99054  27
  -5   3  -4 94.4764 4.49912  31
   5  -3   4 90.7227 3.93211  30
  -6   3  -4 69.5392 3.39524  12
  -6   3  -4 70.0714 3.36072  11
  -6   3  -4 69.1366 3.49941   4
  -6   3  -4 65.3532 3.58285  31
  -7   3  -4 303.701 11.4543   4
  -7   3  -4 303.878 11.5715  31
  -7   3  -4 304.401 11.3359  12
  -7   3  -4 344.639 11.4628  11
   7  -3   4 297.775 11.4426   4
   6   2  -4 210.193 7.95623  12
   6   2  -4 201.328 8.06089  31
   6   2  -4 193.184 9.16105   2
   6   2  -4 213.280 7.90109  20
  -6  -2   4 209.902 7.54442  25
  -6  -2   4 212.507 7.84404   3
  -6  -2   4 205.625 8.25218  12
  -6  -2   4 215.015 8.23526  20
  -6  -2   4 210.713 7.44968  13
  -6  -2   4 215.677 8.28296  29
  -6  -2   4 193.369 8.27806  31
  -6  -2   4 207.157 8.12806  18
   5   2  -4 179.609 7.18311  12
   5   2  -4 182.978 7.20267  20
   5   2  -4 183.434 7.36097  31
  -5  -2   4 173.576 7.55050  18
  -5  -2   4 177.890 7.49226  20
  -5  -2   4 176.572 6.66507  13
  -5  -2   4 173.905 6.74760  25
  -5  -2   4 185.779 7.67561  29
  -5  -2   4 169.742 7.45540  31
  -5  -2   4 179.817 7.51042  12
  -5  -2   4 180.090 7.22168   3
   4   2  -4 932.556 32.5134  31
   4   2  -4 950.275 37.0963   7
   4   2  -4 935.021 32.3605  12
  -4  -2   4 868.287 32.1041  26
  -4  -2   4 954.839 32.4422   3
  -4  -2   4 869.007 32.7959  18
  -4  -2   4 921.726 32.6803  20
  -4  -2   4 929.343 32.3939  22
  -4  -2   4 850.121 32.5714  31
  -4  -2   4 879.915 32.5572  12
  -4  -2   4 938.931 32.0176  25
  -4  -2   4 950.819 36.0082   7
  -4  -2   4 964.953 31.8802  13
  -4  -2   4 924.585 32.7557  29
   3   2  -4 447.738 19.0376   7
  -3  -2   4 404.631 14.9557  26
  -3  -2   4 404.392 18.1154   5
  -3  -2   4 452.916 18.2023   7
  -3  -2   4 378.215 15.6101  20
   2   2  -4 375.613 16.3914   7
  -2  -2   4 385.711 15.7981   7
  -2  -2   4 347.145 16.0746   5
  -2  -2   4 377.953 13.3324  26
  -1  -2   4 1350.71 52.7073   5
  -1  -2   4 1548.53 49.8701  26
   0   2  -4 116.092 4.34004  26
   0   2  -4 112.004 5.44517  14
   0  -2   4 108.234 6.45888   5
  -1   2  -4 992.935 32.5317  26
  -1   2  -4 962.312 34.3333  14
  -1   2  -4 898.455 40.1277  24
   1  -2   4 902.505 34.9665   5
  -2   2  -4 3937.40 131.861  26
  -2   2  -4 3951.56 135.094  14
  -2   2  -4 3712.20 133.819   5
   2  -2   4 3886.65 134.083   5
  -3   2  -4 2163.49 77.7202  14
  -3   2  -4 2150.03 76.7835   5
   3  -2   4 2245.22 77.2106   5
  -4   2  -4 31.3767 2.89442   5
  -4   2  -4 34.0437 1.77349  19
   4  -2   4 34.3368 3.16911   5
  -5   2  -4 12.4879 1.27289  11
  -5   2  -4 15.2011 1.48350  31
  -5   2  -4 12.9526 1.36979   4
  -6   2  -4 115.184 5.10634  31
  -6   2  -4 117.403 4.87900  11
   7   1  -4 1.91663 0.71151  12
  -7  -1   4 0.83729 0.53725  29
  -7  -1   4 1.25395 0.64494  12
  -7  -1   4 2.22478 0.57904   3
  -7  -1   4 1.12170 0.55182  18
   6   1  -4 258.381 9.86492  31
   6   1  -4 248.978 9.69716  12
  -6  -1   4 251.991 9.77845   3
  -6  -1   4 260.359 10.0433  29
  -6  -1   4 248.581 9.88109  12
  -6  -1   4 256.026 10.1701  18
  -6  -1   4 257.578 9.27919  13
  -6  -1   4 266.252 10.0191  20
  -6  -1   4 262.398 10.0017  31
  -6  -1   4 263.676 9.38087  25
   5   1  -4 14.1751 1.38036  31
   5   1  -4 13.5900 2.82392   7
   5   1  -4 14.7267 0.99968  19
  -5  -1   4 13.9313 1.40863  29
  -5  -1   4 13.9412 1.16480  13
  -5  -1   4 13.5895 1.36041  12
  -5  -1   4 14.3949 1.43431  31
  -5  -1   4 14.2592 1.58598   3
  -5  -1   4 13.1360 1.52714  18
  -5  -1   4 14.4141 2.52604   7
  -5  -1   4 14.7317 1.35589  20
  -5  -1   4 12.3599 1.21861  25
   4   1  -4 61.3543 5.72467   7
   4   1  -4 68.0104 2.70630  19
   4   1  -4 69.1881 3.14714  31
  -4  -1   4 65.8612 3.01495  26
  -4  -1   4 63.3354 5.19209   5
  -4  -1   4 67.3371 3.26856  31
  -4  -1   4 60.9504 3.07422  20
  -4  -1   4 66.7129 5.31110   7
   3   1  -4 1273.58 46.8223   7
  -3  -1   4 1237.39 45.9262   7
  -3  -1   4 1267.39 43.0350  26
  -3  -1   4 1201.87 45.9689   5
   2   1  -4 5674.20 193.028   7
  -2  -1   4 5406.43 187.024  26
  -2  -1   4 5567.82 191.661   7
  -2  -1   4 5310.29 204.458  24
  -2  -1   4 5371.66 193.884   5
  -1  -1   4 15.5589 2.24240   5
  -1  -1   4 14.9917 0.98303  26
   0   1  -4 1633.78 62.9781  24
   0   1  -4 1521.53 56.0388  14
   0   1  -4 1699.48 54.8198  26
   0  -1   4 1536.45 57.4737   5
  -1   1  -4 1955.76 66.2490  14
   1  -1   4 1808.01 66.1526   5
  -2   1  -4 2947.83 99.1538   5
  -2   1  -4 2854.08 100.071  14
   2  -1   4 2783.27 99.3607   5
  -3   1  -4 382.341 15.9157  14
  -3   1  -4 385.464 15.1363   5
   3  -1   4 369.320 15.1707   5
   3  -1   4 392.479 17.3249  14
   4  -1   4 1.70991 0.94845   5
   7   0  -4 234.767 8.65980  19
   7   0  -4 239.241 9.12257  31
  -7   0   4 246.536 9.13956  12
  -7   0   4 234.974 9.19406  31
  -7   0   4 246.286 9.39976  18
  -7   0   4 247.590 9.09632   3
  -7   0   4 244.241 9.16118  20
  -7   0   4 241.345 9.20537  29
   6   0  -4 3.59457 0.57703  19
   6   0  -4 4.27606 0.78766  11
   6   0  -4 4.13432 0.83371  31
  -6   0   4 3.85608 0.94022  18
  -6   0   4 6.67184 0.96859  29
  -6   0   4 4.34966 0.71190  11
  -6   0   4 4.02869 0.81957  20
  -6   0   4 5.32624 1.13436   3
  -6   0   4 5.58042 0.91650  12
  -6   0   4 3.15545 0.77425  31
   5   0  -4 1086.51 38.7434  31
   5   0  -4 1122.20 43.9846   7
   5   0  -4 1158.95 38.2663  19
  -5   0   4 1091.36 38.7860  29
  -5   0   4 1065.17 38.9268   3
  -5   0   4 1150.70 38.8661  12
  -5   0   4 1141.32 38.7451  26
  -5   0   4 1131.26 38.7800  20
  -5   0   4 1075.73 38.3630  13
  -5   0   4 1113.79 38.9492  31
  -5   0   4 1114.76 38.5236  25
  -5   0   4 1054.93 39.0895  18
  -5   0   4 1138.83 42.6700   7
  -4   0   4 1232.26 45.4896   7
  -4   0   4 1224.25 42.2675  26
  -4   0   4 1203.52 45.3026   5
   3   0  -4 1703.38 62.3270   7
  -3   0   4 1749.39 61.4629   5
  -3   0   4 1734.16 58.9824  26
  -3   0   4 1678.61 61.3815   7
   2   0  -4 312.311 13.6742   7
  -2   0   4 316.289 11.3454  26
  -2   0   4 314.828 18.5309  24
  -2   0   4 306.221 12.9247   7
  -2   0   4 342.538 13.2697   5
   1   0  -4 6.62954 0.67995  26
  -1   0   4 7.85777 1.46590   5
   0   0  -4 74.7156 4.03112  14
   0   0  -4 68.1694 2.83610  26
   0   0   4 65.2689 4.49852   5
   0   0   4 72.4539 4.56501  14
  -1   0  -4 1165.93 40.8894  14
   1   0   4 1086.09 40.3700   5
   1   0   4 1169.10 41.9068  14
  -2   0  -4 84.6710 5.09151  14
   2   0   4 87.3382 6.05857  14
   7  -1  -4 1.66892 0.52423  11
   7  -1  -4 1.46263 0.42887  19
   7  -1  -4 1.67110 0.61919  31
  -7   1   4 1.21448 0.51722  12
  -7   1   4 1.50879 0.46930  11
  -7   1   4 1.15500 0.60331  18
  -7   1   4 1.09442 0.45803  20
  -7   1   4 1.34102 0.57997  31
  -7   1   4 0.58834 0.73627   3
  -7   1   4 0.91450 0.45956  29
   6  -1  -4 44.5536 2.01531  19
   6  -1  -4 41.4694 2.39226  31
   6  -1  -4 46.4133 4.96961   7
   6  -1  -4 48.1392 2.31667  11
  -6   1   4 48.0908 2.47564  12
  -6   1   4 43.9487 2.76196   3
  -6   1   4 41.7924 2.61383  18
  -6   1   4 45.6983 2.37128  20
  -6   1   4 45.0784 2.52429  31
  -6   1   4 43.5892 2.36437  29
  -6   1   4 47.0862 2.31429  11
   5  -1  -4 19.6682 1.09944  19
   5  -1  -4 18.9316 3.19974   7
  -5   1   4 19.2658 1.41225  25
  -5   1   4 19.1432 1.47877  31
  -5   1   4 19.6940 1.42402  26
  -5   1   4 20.0399 1.38241  20
  -5   1   4 17.6492 2.51956   5
   3  -1  -4 151.399 8.47186   7
  -3   1   4 158.891 6.01116  26
  -3   1   4 159.576 7.76159   5
  -2   1   4 1.66136 0.79935  14
   1  -1  -4 721.506 25.6650  26
  -1   1   4 759.326 28.1875  14
   0  -1  -4 181.136 6.98115  26
   0   1   4 210.593 9.50727  14
  -1  -1  -4 13.9870 1.93250  14
   1   1   4 14.6690 2.43529  14
  -2  -1  -4 1604.01 54.4853  10
  -2  -1  -4 1577.99 56.6957  14
   2   1   4 1551.11 57.9751  14
   8  -2  -4 44.5952 2.02463  11
  -8   2   4 46.5060 2.02855  11
  -8   2   4 42.5461 2.41969   3
  -8   2   4 45.4394 2.37744  18
  -8   2   4 46.6335 2.15707  29
   7  -2  -4 2.60039 0.67673  31
   7  -2  -4 2.62077 0.50472  19
   7  -2  -4 3.10671 0.62103  11
  -7   2   4 2.16441 0.68529  31
  -7   2   4 1.95194 0.50771  11
  -7   2   4 1.93011 0.54365  20
  -7   2   4 1.76252 0.67822  18
  -7   2   4 2.19420 0.62358  12
  -7   2   4 1.80291 0.54269  29
  -7   2   4 3.26091 1.03011   3
   6  -2  -4 55.6037 2.57813  11
   6  -2  -4 53.6829 5.20783   7
   6  -2  -4 50.3320 2.52462  23
   6  -2  -4 51.6179 2.23987  19
  -6   2   4 52.6249 2.58884  20
  -6   2   4 49.5408 2.54020  29
  -6   2   4 49.3522 2.94870   3
  -6   2   4 52.3353 2.72986  31
  -6   2   4 51.3486 2.61590  12
  -6   2   4 49.0203 2.90668  18
  -6   2   4 53.3573 2.53098  11
   5  -2  -4 14.6341 1.12244   4
   5  -2  -4 14.7185 0.91650  19
   5  -2  -4 17.7029 2.90707   7
  -5   2   4 16.1059 1.08897   4
  -5   2   4 15.2188 1.23775  31
  -5   2   4 15.9302 2.18706   5
   4  -2  -4 166.769 9.38215   7
  -4   2   4 166.148 8.12274   5
   3  -2  -4 754.024 29.1872   7
   2  -2  -4 2207.84 74.1720  26
   2  -2  -4 2139.27 76.3581   7
  -2   2   4 2157.99 77.1249  14
   1  -2  -4 824.729 27.4725  26
   1  -2  -4 735.131 29.0891   7
  -1   2   4 814.235 30.5560  14
   0  -2  -4 402.662 17.1897   7
   0  -2  -4 441.503 14.9496  26
   0   2   4 431.553 18.2360  14
  -1  -2  -4 81.6250 3.46119  10
  -1  -2  -4 69.7052 5.32538   7
   1   2   4 78.0318 5.77750  14
  -2  -2  -4 30.7805 1.91185  10
  -3  -2  -4 9.45808 1.14081  22
  -3  -2  -4 6.85393 1.12082  15
   8  -3  -4 5.71360 0.63483  23
   8  -3  -4 5.29702 0.61022  11
  -8   3   4 6.11288 0.63275  11
  -8   3   4 5.93322 0.88029  18
  -8   3   4 5.92602 0.70642  29
   7  -3  -4 24.6454 1.48100  23
   7  -3  -4 23.6559 1.22543  19
   7  -3  -4 24.0143 1.49801   4
   7  -3  -4 25.4139 1.46378  11
  -7   3   4 25.2307 1.68702  31
  -7   3   4 24.1682 1.54377  29
  -7   3   4 22.6144 1.41363   4
  -7   3   4 29.3319 2.05147   3
  -7   3   4 23.1480 1.50533  20
  -7   3   4 24.5287 1.48718  11
  -7   3   4 22.0955 1.76645  18
   6  -3  -4 12.8040 1.11523   4
   6  -3  -4 12.2486 2.50425   7
   6  -3  -4 12.2223 0.87102  19
   6  -3  -4 13.4210 1.14672  11
   6  -3  -4 12.2266 1.08784  23
  -6   3   4 13.9461 1.48768  18
  -6   3   4 13.3531 1.02850   4
  -6   3   4 13.8142 1.11428  11
  -6   3   4 13.7011 1.54202   3
   5  -3  -4 75.0111 3.21714   4
   5  -3  -4 69.2813 5.62975   7
  -5   3   4 68.9986 3.11447   4
   4  -3  -4 377.197 16.6316   7
   3  -3  -4 107.451 6.16419   7
  -3   3   4 102.579 6.82460  14
   2  -3  -4 20.4450 2.33744   7
   2  -3  -4 20.4636 1.30131  26
  -2   3   4 20.1954 2.82635  14
   1  -3  -4 1049.14 39.5835   7
   1  -3  -4 1150.89 37.3398  26
   1  -3  -4 1071.91 37.4229  10
  -1   3   4 1044.42 41.0390  14
   0  -3  -4 15.1781 2.27734   7
   0  -3  -4 14.8135 1.08818  26
   0  -3  -4 16.4678 1.25048  10
   0   3   4 17.3518 2.80570  14
  -1  -3  -4 328.705 11.6564  10
  -1  -3  -4 315.172 11.2041  26
  -1  -3  -4 282.317 14.8024   7
  -1  -3  -4 318.526 11.4266  15
   1   3   4 314.420 12.3391  10
  -2  -3  -4 53.1257 2.64667  15
  -2  -3  -4 54.4689 2.60039   3
  -2  -3  -4 54.5259 2.83242  10
  -2  -3  -4 56.6424 2.30963  25
  -2  -3  -4 49.2997 5.55150   7
  -2  -3  -4 47.7889 2.43673  28
  -2  -3  -4 53.8005 2.61770  22
  -2  -3  -4 55.7790 2.27923  13
   2   3   4 56.3476 3.54097  10
  -3  -3  -4 197.088 7.03982  25
  -3  -3  -4 182.465 7.39388   1
  -3  -3  -4 192.952 7.34269  22
  -3  -3  -4 192.303 7.38522  15
  -3  -3  -4 201.368 6.99014  13
   8  -4  -4 67.6807 2.83358  11
   8  -4  -4 69.2179 2.92964  23
  -8   4   4 77.2704 3.25413  18
  -8   4   4 67.2083 2.86226  11
  -8   4   4 65.9739 2.90304  29
   7  -4  -4 54.4844 2.60152   4
   7  -4  -4 52.6254 2.46311  11
   7  -4  -4 58.1616 2.60044  23
  -7   4   4 52.6406 2.53510  11
  -7   4   4 53.2703 2.58822  29
  -7   4   4 55.9331 2.99932  18
  -7   4   4 56.8512 2.58513   4
   6  -4  -4 299.067 11.1722  23
   6  -4  -4 292.614 11.1760   4
  -6   4   4 318.376 11.1982   4
  -6   4   4 332.002 11.4345  29
  -6   4   4 280.577 11.5185   3
  -6   4   4 301.742 11.7428  18
   5  -4  -4 24.7310 1.59010  27
   5  -4  -4 27.2835 1.70662   4
   5  -4  -4 32.3902 3.35609   7
   5  -4  -4 29.6017 1.71780  23
  -5   4   4 28.8920 2.15327   3
  -5   4   4 31.2715 1.70557   4
  -5   4   4 31.5124 2.16997  18
   4  -4  -4 820.127 31.1548   7
  -4   4   4 803.208 29.4589  17
   3  -4  -4 1220.42 44.9819   7
   2  -4  -4 149.834 8.08714   7
   2  -4  -4 162.360 6.12554  26
   1  -4  -4 14.6980 1.20288  10
   1  -4  -4 11.2525 1.97046   7
   1  -4  -4 13.3548 1.10741  26
  -1   4   4 13.4749 1.60708  10
  -1   4   4 10.5339 1.43266  17
   0  -4  -4 90.0431 4.15342  10
   0  -4  -4 102.984 3.65205  25
   0  -4  -4 97.6327 3.84154  28
   0  -4  -4 85.5086 3.93183  26
   0  -4  -4 96.2583 3.99067  15
   0  -4  -4 95.9653 6.51081   7
   0   4   4 96.9716 4.92699  10
   0   4   4 82.7075 4.32004  17
  -1  -4  -4 30.2159 1.68737  28
  -1  -4  -4 25.8960 1.69548  26
  -1  -4  -4 30.4593 1.88067   1
  -1  -4  -4 30.8913 1.46941  13
  -1  -4  -4 27.7073 3.77095   7
  -1  -4  -4 29.5489 1.87328  15
  -1  -4  -4 31.9613 1.87111   3
  -1  -4  -4 31.3010 1.82092  22
  -1  -4  -4 30.6966 1.52013  25
  -1  -4  -4 29.2735 1.95609  10
   1   4   4 29.9622 2.15170  17
   1   4   4 31.8416 2.59887  10
  -2  -4  -4 42.5139 2.36867   1
  -2  -4  -4 43.9317 2.29081  22
  -2  -4  -4 42.9505 2.39174  15
  -2  -4  -4 46.9750 1.96160  13
  -2  -4  -4 45.0575 2.01024  25
  -2  -4  -4 42.8480 2.48715  10
  -2  -4  -4 44.1611 2.33270   3
   2   4   4 44.0364 3.23346  10
   2   4   4 46.2760 2.65641  17
  -3  -4  -4 13.3886 1.18690  22
  -3  -4  -4 14.0137 0.86691  13
  -3  -4  -4 16.7362 1.27981   3
  -3  -4  -4 13.1542 1.30671   1
  -3  -4  -4 14.3859 1.25258  15
  -3  -4  -4 14.6270 0.91275  25
   3   4   4 11.5545 1.36494  17
   8  -5  -4 637.261 21.6892  23
  -8   5   4 604.437 22.0127  18
   7  -5  -4 203.584 7.95318   4
   7  -5  -4 204.730 7.92336  23
  -7   5   4 219.684 8.21138  29
  -7   5   4 211.167 8.52125  18
  -7   5   4 220.777 7.92319   4
   6  -5  -4 9.24520 0.91180  23
   6  -5  -4 9.81705 0.96192  27
   6  -5  -4 8.57354 0.91948   4
  -6   5   4 8.28754 0.90614   4
  -6   5   4 9.43832 1.33459  18
   5  -5  -4 143.358 5.64034  27
   5  -5  -4 149.766 5.54639  30
   5  -5  -4 141.830 5.52092   9
   5  -5  -4 151.376 8.36697   7
   5  -5  -4 134.732 5.73926   4
  -5   5   4 134.348 6.81098  17
  -5   5   4 144.181 5.73768   4
  -5   5   4 147.392 6.38233   3
  -5   5   4 152.701 6.51695  18
  -5   5   4 151.406 6.40991   6
   4  -5  -4 393.589 13.6714   9
   4  -5  -4 389.227 13.6569  30
   4  -5  -4 396.763 16.7797   7
   4  -5  -4 349.654 13.6940  27
  -4   5   4 364.551 15.0988  17
  -4   5   4 376.001 14.5424   3
  -4   5   4 413.878 14.6707  18
   3  -5  -4 6.89501 1.71839   7
   3  -5  -4 7.15701 1.35761   3
   3  -5  -4 9.50873 0.85843  21
   3  -5  -4 6.52765 0.76634  30
  -3   5   4 4.59691 1.14087   3
  -3   5   4 4.21090 1.25938  17
  -3   5   4 7.32984 1.20976  18
   2  -5  -4 13.3223 1.44532  18
   2  -5  -4 13.3326 1.55902   3
   2  -5  -4 12.0449 2.12615   7
   2  -5  -4 12.0908 1.04549  28
   2  -5  -4 11.3893 1.03842  30
   2  -5  -4 12.3867 1.03521  21
  -2   5   4 14.2840 1.41239  18
  -2   5   4 10.5721 1.34563   3
  -2   5   4 10.3598 1.59055  17
   1  -5  -4 69.0216 3.44093   3
   1  -5  -4 70.0828 3.35691  26
   1  -5  -4 73.1209 3.51071  10
   1  -5  -4 65.2546 2.93420  25
   1  -5  -4 76.2524 3.17251  28
   1  -5  -4 74.7939 3.66442  18
   1  -5  -4 72.1671 5.51931   7
   1  -5  -4 71.1621 3.12243  21
  -1   5   4 72.2697 4.20165  10
  -1   5   4 77.9828 3.66608  18
  -1   5   4 74.6628 3.58727   3
  -1   5   4 74.2403 3.97255  17
   0  -5  -4 87.3166 3.87225  22
   0  -5  -4 90.1087 3.93184  15
   0  -5  -4 86.4552 6.71474   7
   0  -5  -4 87.1668 3.87224   1
   0  -5  -4 86.2543 4.04780   3
   0  -5  -4 90.8219 3.77894  28
   0  -5  -4 96.0588 4.26182  10
   0  -5  -4 87.9697 4.34317  18
   0  -5  -4 86.2584 3.59259  25
   0  -5  -4 87.6689 3.79399  21
   0   5   4 95.5216 4.53452  17
   0   5   4 94.1217 4.16087   3
   0   5   4 97.1019 5.09562  10
   0   5   4 95.6167 4.21020  18
  -1  -5  -4 118.537 4.92119   3
  -1  -5  -4 118.775 4.86220  15
  -1  -5  -4 122.618 4.81982  22
  -1  -5  -4 117.373 5.22187  18
  -1  -5  -4 117.117 4.49742  25
  -1  -5  -4 113.758 5.09967  10
  -1  -5  -4 114.136 4.82377   1
  -1  -5  -4 116.220 4.41945  13
  -1  -5  -4 118.938 4.73204  28
   1   5   4 121.696 5.09265  18
   1   5   4 114.024 4.95197   3
   1   5   4 117.270 5.33966  17
   1   5   4 118.848 5.94547  10
  -2  -5  -4 5.14059 0.61449  13
  -2  -5  -4 5.10499 0.66726  25
  -2  -5  -4 5.74684 0.98211  15
  -2  -5  -4 7.72296 1.21784   1
   2   5   4 5.66430 1.17055  17
   2   5   4 5.46138 1.02441   3
  -3  -5  -4 242.473 8.75744   3
  -3  -5  -4 248.971 8.75857   1
  -3  -5  -4 240.589 8.66427  22
   3   5   4 236.781 8.79105   3
   7  -6  -4 113.378 4.50616  23
   7  -6  -4 107.337 4.32109  27
   7  -6  -4 113.586 4.53970   4
  -7   6   4 116.160 5.08313  18
   6  -6  -4 67.8557 3.15450   4
   6  -6  -4 66.5560 2.86930   9
   6  -6  -4 65.4699 2.97739  27
   6  -6  -4 69.2578 2.88670  30
  -6   6   4 78.7658 3.90960  18
   5  -6  -4 184.020 6.87403  27
   5  -6  -4 188.994 6.78541   9
   5  -6  -4 185.301 6.76389  30
  -5   6   4 190.529 7.86267  18
  -5   6   4 175.322 7.68207   6
  -5   6   4 160.247 7.49041   3
   4  -6  -4 13.9579 1.26166  27
   4  -6  -4 14.5998 1.10444  30
   4  -6  -4 14.0710 1.15867   9
   4  -6  -4 15.6589 1.08819  21
  -4   6   4 14.6981 2.02582  17
  -4   6   4 14.9469 1.75647   3
  -4   6   4 17.2559 1.80477  18
   3  -6  -4 1.74979 1.12254   3
   3  -6  -4 2.10563 0.53664  30
   3  -6  -4 1.75774 0.73761  27
   3  -6  -4 3.09329 0.59865  21
   3  -6  -4 2.81257 1.47168   7
   3  -6  -4 2.03774 0.59291   9
  -3   6   4 1.80581 1.05461  17
  -3   6   4 2.64849 0.97485   3
  -3   6   4 2.23779 0.86164  18
   2  -6  -4 587.794 20.1645  18
   2  -6  -4 563.496 19.3256  28
   2  -6  -4 544.665 19.8421   3
   2  -6  -4 526.478 19.3030   9
   2  -6  -4 567.096 19.3287  21
   2  -6  -4 503.879 19.2850  30
  -2   6   4 556.224 19.9592   3
  -2   6   4 528.431 20.0395  18
  -2   6   4 556.578 20.5974  17
   1  -6  -4 813.502 29.5037  25
   1  -6  -4 851.519 30.2191  10
   1  -6  -4 880.222 29.7263  28
   1  -6  -4 847.255 30.0480   3
   1  -6  -4 912.500 30.4496  18
   1  -6  -4 833.854 29.6705  21
  -1   6   4 849.520 30.2512  18
  -1   6   4 822.224 31.0315  10
  -1   6   4 873.152 30.1707   3
  -1   6   4 823.714 29.5963  25
  -1   6   4 886.312 30.6840  17
   0  -6  -4 15.7101 0.99693  25
   0  -6  -4 12.8467 1.07631  21
   0  -6  -4 18.7550 1.51012   3
   0  -6  -4 13.8870 1.43873  18
   0  -6  -4 16.5938 1.32628  15
   0  -6  -4 15.1142 1.12575  28
   0  -6  -4 14.9135 1.20868  22
   0  -6  -4 15.9528 1.39168   1
   0   6   4 12.9883 1.37942   3
   0   6   4 14.0401 1.32635  18
   0   6   4 12.4175 1.61940  17
  -1  -6  -4 8.21288 0.74237  25
  -1  -6  -4 10.5276 1.25240   3
  -1  -6  -4 8.40589 0.88056  28
  -1  -6  -4 8.39502 0.98794  22
  -1  -6  -4 11.5157 1.14413  15
  -1  -6  -4 12.9620 1.24925   1
   1   6   4 9.82346 0.99176  18
   1   6   4 8.51421 1.27590  17
   1   6   4 10.3015 1.13642   3
   6  -7  -4 325.257 11.5528  30
   6  -7  -4 335.412 11.6225  27
   6  -7  -4 328.666 11.5414   9
  -6   7   4 312.889 12.3576  18
   5  -7  -4 134.711 5.14683  30
   5  -7  -4 133.764 5.14164   9
   5  -7  -4 131.683 5.23233  27
  -5   7   4 136.071 5.99267  18
  -5   7   4 136.337 5.94946   6
   4  -7  -4 28.5238 1.46341  21
   4  -7  -4 27.4739 1.53765   9
   4  -7  -4 29.8898 1.53286  30
   4  -7  -4 28.8955 1.68067  27
  -4   7   4 24.1737 2.01023   3
  -4   7   4 22.6939 1.96799  18
   3  -7  -4 262.359 9.51751   9
   3  -7  -4 259.093 9.53492  30
   3  -7  -4 261.425 9.48938  28
   3  -7  -4 261.381 9.49114  21
  -3   7   4 278.198 10.1460   3
  -3   7   4 262.052 10.5461  17
  -3   7   4 256.737 10.2599  18
   2  -7  -4 294.087 10.5805  28
   2  -7  -4 291.392 11.0534   3
   2  -7  -4 298.425 10.5928  21
  -2   7   4 293.597 11.4535  17
  -2   7   4 301.401 11.0469   3
  -2   7   4 290.752 11.1927  18
   1  -7  -4 10.2634 0.82534  21
   1  -7  -4 9.99487 1.17886  18
   1  -7  -4 10.1768 1.26330   3
   1  -7  -4 11.1572 0.87701  28
  -1   7   4 10.8918 1.16899  18
  -1   7   4 10.8958 1.39300  17
  -1   7   4 12.0045 1.18683   3
   0  -7  -4 110.762 4.59825  18
   0  -7  -4 115.363 4.56769   3
   0  -7  -4 115.182 4.39470   1
   0   7   4 111.784 4.56563  18
   0   7   4 115.252 4.50252   3
   5  -8  -4 88.3943 3.34148   9
  -5   8   4 84.5580 3.84385  18
   4  -8  -4 202.542 7.05626   9
   4  -8  -4 188.905 6.99672  21
  -4   8   4 193.134 7.50753  18
   3  -8  -4 3.95420 0.51718  21
  -3   8   4 5.15123 0.79973  18
   1  -8   5 25.7023 1.50346   8
  -2   8  -5 80.2686 3.30906  29
   2  -8   5 81.1559 3.34416   8
  -3   8  -5 33.1478 1.84280  12
  -3   8  -5 34.4667 1.70133  29
   3  -8   5 32.6076 1.61559  21
   3  -8   5 26.8343 1.73066  28
   3  -8   5 33.0648 1.72986   8
  -4   8  -5 126.465 5.09220  12
   4  -8   5 126.664 4.81424  21
   1   7  -5 73.1324 3.16840  29
  -1  -7   5 84.0703 3.44528  29
  -1  -7   5 78.0155 3.35452   1
   0   7  -5 367.152 13.0155  20
   0   7  -5 361.212 12.9436  29
   0   7  -5 370.572 13.0417  12
   0  -7   5 352.682 12.9257   8
   0  -7   5 351.665 13.0594   1
  -1   7  -5 260.533 9.62904  29
  -1   7  -5 263.380 9.72432  20
  -1   7  -5 260.623 9.80104  12
   1  -7   5 263.135 9.74292   8
  -2   7  -5 4.33491 0.77931  20
  -2   7  -5 3.75191 0.67772  29
  -2   7  -5 3.96187 0.84746  12
   2  -7   5 5.38924 0.82087  28
   2  -7   5 4.23848 0.77669   8
  -3   7  -5 293.558 11.0800  29
  -3   7  -5 305.366 11.2423  20
  -3   7  -5 297.893 11.4546  12
   3  -7   5 301.560 10.9773  21
   3  -7   5 308.203 11.1825  28
   3  -7   5 294.270 10.6348  16
   3  -7   5 305.713 11.1343   8
  -4   7  -5 403.360 14.9420  12
  -4   7  -5 426.664 14.7284  20
   4  -7   5 405.525 14.0299  16
   4  -7   5 376.999 14.3443   9
   4  -7   5 394.504 14.4528  28
   4  -7   5 399.236 14.3400  21
  -5   7  -5 227.419 7.79397  30
  -5   7  -5 222.365 8.30659  20
  -5   7  -5 219.880 8.59131  12
   5  -7   5 211.912 7.94225  30
   5  -7   5 217.131 7.96559   9
   5  -7   5 219.193 8.03852  21
   5  -7   5 208.990 7.75151  16
  -6   7  -5 43.1982 2.31002  12
  -6   7  -5 43.6468 1.81997  27
   6  -7   5 40.9431 1.90566  27
   6  -7   5 41.6367 1.93263  21
   6  -7   5 42.7170 1.94529   9
   2   6  -5 345.842 12.3914  12
   2   6  -5 327.377 12.2769  29
   2   6  -5 335.585 12.3503  20
   2   6  -5 349.748 12.6442   6
  -2  -6   5 356.919 12.5427   1
  -2  -6   5 341.250 12.5325  22
  -2  -6   5 350.777 12.5736  29
  -2  -6   5 350.281 12.6805  15
   1   6  -5 715.992 25.3606  29
   1   6  -5 729.025 25.4355  20
   1   6  -5 719.341 25.4563  12
  -1  -6   5 731.712 25.8222  15
  -1  -6   5 742.332 25.6788   1
  -1  -6   5 715.685 25.6492  29
   0   6  -5 433.769 15.9315  29
   0   6  -5 446.147 16.0078  20
   0   6  -5 461.304 16.7994  10
   0   6  -5 448.204 16.0865  12
   0  -6   5 429.554 16.0404   8
   0  -6   5 454.234 16.2805  29
   0  -6   5 441.313 16.2244   1
  -1   6  -5 6.15459 0.94738  20
  -1   6  -5 5.42894 0.86030  29
  -1   6  -5 6.84363 1.22522  10
  -1   6  -5 6.70710 1.01401  12
   1  -6   5 6.91794 0.99916   8
   1  -6   5 6.02226 0.93446  28
  -2   6  -5 129.230 5.50812  12
  -2   6  -5 130.126 5.77122  10
  -2   6  -5 125.544 4.76693  21
  -2   6  -5 118.485 5.22975  29
  -2   6  -5 126.847 5.27088  20
   2  -6   5 120.393 5.07586  21
   2  -6   5 129.066 5.30971  28
   2  -6   5 130.848 5.35564   8
   2  -6   5 127.454 4.75252  16
  -3   6  -5 21.7243 3.34172   2
  -3   6  -5 19.8018 1.79657  10
  -3   6  -5 21.4610 1.88550  12
  -3   6  -5 21.1967 1.64095  20
  -3   6  -5 21.4162 2.17850  31
  -3   6  -5 21.8800 1.20376  21
   3  -6   5 20.8452 1.24903  16
   3  -6   5 19.9245 1.66126   8
   3  -6   5 21.7941 1.66774  28
   3  -6   5 21.9969 1.55845  21
  -4   6  -5 194.429 8.48895  31
  -4   6  -5 203.783 7.15768  30
  -4   6  -5 197.394 10.1985   2
  -4   6  -5 191.445 7.10904  21
  -4   6  -5 197.449 7.85936  20
  -4   6  -5 189.330 8.18501  12
   4  -6   5 190.045 7.40280   9
   4  -6   5 193.684 7.35335  30
   4  -6   5 190.235 7.52188  28
   4  -6   5 194.932 7.10287  16
   4  -6   5 201.228 7.49878  21
  -5   6  -5 23.7317 1.96398  12
  -5   6  -5 21.6753 1.19641  30
  -5   6  -5 22.2187 1.63890  20
  -5   6  -5 21.8148 2.13695  31
  -5   6  -5 21.6526 1.32780  27
  -5   6  -5 21.9365 1.14290  21
   5  -6   5 22.6180 1.48490  21
   5  -6   5 22.6948 1.41871  30
   5  -6   5 21.5743 1.20632  16
   5  -6   5 19.8864 1.49580  27
   5  -6   5 19.7785 1.42684   9
  -6   6  -5 126.868 4.61195  30
  -6   6  -5 125.192 4.91443   4
  -6   6  -5 114.501 5.49046  31
  -6   6  -5 121.568 5.36928  12
  -6   6  -5 124.631 4.69900  27
   6  -6   5 120.594 4.82550  27
   6  -6   5 126.545 4.80586  30
   6  -6   5 118.672 4.78369   9
   6  -6   5 130.493 5.13993   4
   6  -6   5 123.394 4.56119  16
   4   5  -5 -0.7951 0.78840   6
  -4  -5   5 0.23059 0.53842  29
  -4  -5   5 -0.1873 0.41394  22
  -4  -5   5 0.23576 0.28356  13
   3   5  -5 58.5111 2.61705  12
   3   5  -5 62.7618 3.36226   6
   3   5  -5 58.2714 2.87222  29
   3   5  -5 54.2152 2.80081  20
  -3  -5   5 52.3477 2.85071  29
  -3  -5   5 51.3841 2.99034  15
  -3  -5   5 53.9197 2.80969   1
  -3  -5   5 53.5711 2.88263  22
   2   5  -5 69.8590 3.11513  12
   2   5  -5 70.1851 3.31578  20
   2   5  -5 67.1478 3.31588  29
   2   5  -5 66.2143 3.93945   6
  -2  -5   5 67.0162 3.38460  29
  -2  -5   5 68.9617 3.45712   1
  -2  -5   5 66.8012 3.43919  22
  -2  -5   5 67.2074 3.56924  15
   1   5  -5 116.152 5.07006  20
   1   5  -5 124.823 5.11518  12
   1   5  -5 124.765 5.16376  29
   1   5  -5 129.253 5.81764  10
  -1  -5   5 118.217 5.45189  22
  -1  -5   5 136.661 5.32000  29
  -1  -5   5 128.153 5.53082   1
  -1  -5   5 127.122 5.53448  15
   0   5  -5 90.9574 3.93182  20
   0   5  -5 97.3652 4.04008  12
   0   5  -5 92.6781 4.59337  10
   0   5  -5 93.4452 3.86088  29
   0  -5   5 90.6110 4.08184   8
   0  -5   5 87.1959 4.30648   1
   0  -5   5 83.6668 4.36193  15
   0  -5   5 99.2565 4.07148  29
  -1   5  -5 98.5518 4.75977  10
  -1   5  -5 93.8114 4.44827  31
  -1   5  -5 99.1729 4.23627  20
  -1   5  -5 97.7667 4.32522  12
   1  -5   5 100.445 4.37228   8
   1  -5   5 102.812 4.28389  28
  -2   5  -5 374.494 14.3707  10
  -2   5  -5 358.243 14.4100  31
  -2   5  -5 375.271 14.1638  12
  -2   5  -5 358.640 13.8595  20
   2  -5   5 382.377 13.8531  28
   2  -5   5 381.169 13.3168  16
   2  -5   5 387.443 13.9599   8
   2  -5   5 416.245 18.7263   5
  -3   5  -5 224.436 8.96754  10
  -3   5  -5 210.268 8.95177  12
  -3   5  -5 227.883 8.00497  21
  -3   5  -5 209.942 8.58093  20
  -3   5  -5 219.638 8.01331  30
  -3   5  -5 207.945 9.31829  31
   3  -5   5 219.852 8.26897  21
   3  -5   5 221.256 8.51499   8
   3  -5   5 228.697 7.93275  16
   3  -5   5 224.288 8.46228  28
   3  -5   5 220.210 8.18795  30
  -4   5  -5 223.161 8.27150  27
  -4   5  -5 225.011 8.11431  30
  -4   5  -5 215.155 9.63152  31
  -4   5  -5 219.157 8.47005  19
  -4   5  -5 213.780 8.05184  21
  -4   5  -5 222.107 8.79152  20
  -4   5  -5 215.288 9.16365  12
   4  -5   5 228.229 8.43972   9
   4  -5   5 231.957 8.33545  30
   4  -5   5 227.978 8.01303  16
   4  -5   5 220.239 8.49230  28
   4  -5   5 220.628 8.35652  21
  -5   5  -5 905.138 33.3986  27
  -5   5  -5 939.270 33.2609  21
  -5   5  -5 953.343 33.9395   4
  -5   5  -5 983.620 34.3983  12
  -5   5  -5 956.974 34.8984  31
  -5   5  -5 966.484 33.3283  30
  -5   5  -5 943.536 33.7322  19
  -5   5  -5 936.305 34.0544  11
   5  -5   5 980.744 33.6357   9
   5  -5   5 985.224 33.5513  30
   5  -5   5 1005.65 33.6124  21
   5  -5   5 1010.33 33.2392  16
   5  -5   5 979.264 33.7302  27
  -6   5  -5 792.085 27.8612  12
  -6   5  -5 772.720 27.2371  27
  -6   5  -5 797.330 27.1364  30
  -6   5  -5 759.060 27.6203   4
  -6   5  -5 743.651 27.7439  11
  -6   5  -5 761.645 28.2647  31
   6  -5   5 810.798 27.4957  27
   6  -5   5 804.277 27.3529  30
   6  -5   5 810.828 27.3791   9
  -7   5  -5 94.5848 3.89552  12
  -7   5  -5 92.4608 3.93217  11
  -7   5  -5 92.2456 3.60389  27
   7  -5   5 87.3577 3.68087  27
   5   4  -5 44.5565 2.26858   6
  -5  -4   5 36.6228 1.69721  13
   4   4  -5 26.3110 1.79958  12
  -4  -4   5 22.7121 1.30383  13
  -4  -4   5 22.6619 1.83308  22
  -4  -4   5 21.8131 2.00738  29
  -4  -4   5 22.1887 1.38295  25
  -4  -4   5 26.0284 2.22537  20
  -4  -4   5 21.0099 1.90167  15
   3   4  -5 61.1598 2.94681  29
   3   4  -5 63.3558 3.11918  20
   3   4  -5 60.7700 3.04765  12
  -3  -4   5 57.4075 2.68176  25
  -3  -4   5 54.7999 3.21151  22
  -3  -4   5 57.1644 3.37527  15
  -3  -4   5 57.9641 3.45065  12
  -3  -4   5 58.5056 3.35724  20
  -3  -4   5 57.4674 3.15610   1
  -3  -4   5 57.1590 3.25666  29
  -3  -4   5 59.9945 2.64756  13
   2   4  -5 18.3688 1.55311  12
   2   4  -5 17.5149 1.38517  31
   2   4  -5 21.0291 1.82708  20
   2   4  -5 18.4571 1.72071  29
   2   4  -5 21.4361 2.42133   2
  -2  -4   5 14.7654 1.85468   1
  -2  -4   5 15.4740 1.90335  15
  -2  -4   5 18.4725 1.82606  29
  -2  -4   5 14.0444 1.73396  22
  -2  -4   5 15.6063 1.83049  20
   1   4  -5 226.863 8.94230  10
   1   4  -5 206.717 8.36724  31
   1   4  -5 218.320 8.31729  20
  -1  -4   5 234.295 8.75165  15
  -1  -4   5 215.352 8.57945  20
   0   4  -5 752.935 27.5955  10
   0  -4   5 788.909 30.2175   5
  -1   4  -5 1793.14 64.4480  10
   1  -4   5 1920.75 67.3456   5
  -2   4  -5 552.232 20.7089  10
  -2   4  -5 576.863 20.3676  26
   2  -4   5 578.964 24.3919   5
  -3   4  -5 167.555 6.70964  28
  -3   4  -5 191.680 8.17292  31
  -3   4  -5 186.460 7.24406  26
  -3   4  -5 176.606 7.61639  10
  -3   4  -5 186.214 7.22385  19
   3  -4   5 199.245 6.68876  16
   3  -4   5 195.366 7.20349  28
   3  -4   5 164.421 10.2221   5
  -4   4  -5 310.616 11.6912  21
  -4   4  -5 323.258 12.1262  26
  -4   4  -5 324.589 15.0471   2
  -4   4  -5 327.288 12.4403   4
  -4   4  -5 331.414 13.2120  31
  -4   4  -5 341.415 12.9330  11
  -4   4  -5 324.647 11.7752  30
  -4   4  -5 318.416 11.9227  27
  -4   4  -5 336.629 12.2134  19
  -4   4  -5 327.297 12.6726  12
  -4   4  -5 303.686 11.6501  28
   4  -4   5 345.026 12.0110  21
   4  -4   5 340.925 12.1070  28
   4  -4   5 340.766 11.9965  30
   4  -4   5 338.900 11.6175  16
  -5   4  -5 116.370 5.62718   4
  -5   4  -5 124.898 5.66840  12
  -5   4  -5 114.896 4.90108  21
  -5   4  -5 131.632 5.38004  19
  -5   4  -5 128.585 5.21346  27
  -5   4  -5 136.680 6.15804  31
  -5   4  -5 130.097 5.81493  11
  -5   4  -5 120.289 5.00150  30
   5  -4   5 141.798 4.90846  16
   5  -4   5 143.358 5.29555  30
   5  -4   5 140.651 5.27471  21
  -6   4  -5 12.8248 1.36056   4
  -6   4  -5 13.5224 1.44137  11
  -6   4  -5 12.3350 1.49518  31
  -6   4  -5 11.7778 0.95858  30
  -6   4  -5 13.7676 1.15316  27
  -6   4  -5 14.7032 1.34517  12
   6  -4   5 11.5235 1.37443  27
   6  -4   5 12.1463 1.17774  30
   6  -4   5 13.6033 1.30509   9
  -7   4  -5 82.2494 3.56572  11
  -7   4  -5 87.7732 3.47706  12
  -7   4  -5 75.4337 3.53695   4
  -7   4  -5 82.2957 3.67898  31
   7  -4   5 67.1655 3.49076   4
   5   3  -5 51.8335 2.46923  29
   5   3  -5 53.2159 3.73733   2
   5   3  -5 49.7662 2.82429  31
   5   3  -5 54.7645 2.62755  20
   5   3  -5 53.5091 2.83439  12
  -5  -3   5 50.2655 2.25973  13
  -5  -3   5 49.2795 2.62811   3
  -5  -3   5 52.3195 2.75103  18
  -5  -3   5 50.3984 2.73012  22
  -5  -3   5 46.1782 3.12919  31
  -5  -3   5 51.1999 2.33129  25
  -5  -3   5 55.5960 3.22734  12
  -5  -3   5 53.7662 2.87492  29
  -5  -3   5 52.8535 3.02996  20
   4   3  -5 104.342 6.26227   2
   4   3  -5 106.557 4.58020  20
   4   3  -5 106.181 4.79666  12
   4   3  -5 104.827 4.85203  31
  -4  -3   5 114.613 5.30516  15
  -4  -3   5 108.542 5.23342  12
  -4  -3   5 101.066 5.29344  31
  -4  -3   5 112.188 5.04775  29
  -4  -3   5 105.846 4.34122  25
  -4  -3   5 108.293 4.27450  13
  -4  -3   5 102.926 4.69098   3
  -4  -3   5 103.618 4.85170  22
  -4  -3   5 110.472 5.06117  20
   3   3  -5 0.98856 0.83866  12
   3   3  -5 1.43645 0.64355  20
   3   3  -5 0.28245 0.78497  31
  -3  -3   5 1.60285 0.81432  20
  -3  -3   5 1.99034 0.60646  13
  -3  -3   5 2.22970 1.20485  12
  -3  -3   5 0.41726 0.85856  15
  -3  -3   5 1.21721 1.06605  31
  -3  -3   5 0.79617 0.71982  22
  -3  -3   5 1.02701 0.54632  25
  -3  -3   5 1.59910 0.52223  26
   2   3  -5 6.89321 0.97945  20
  -2  -3   5 7.79051 1.35055  20
  -2  -3   5 6.94724 2.04922   5
  -2  -3   5 8.73918 0.86010  26
   1   3  -5 392.443 14.3887  10
  -1  -3   5 381.912 17.2181   5
   0   3  -5 79.7906 3.82656  10
   0  -3   5 79.3928 5.42948   5
  -1   3  -5 31.0140 2.92042  14
  -1   3  -5 33.8436 2.12660  10
   1  -3   5 33.7053 3.71413   5
  -2   3  -5 480.355 19.5532  14
  -2   3  -5 469.583 17.4974  10
  -2   3  -5 487.923 17.1436  26
   2  -3   5 477.732 20.4348   5
  -3   3  -5 37.4520 1.97234  26
  -4   3  -5 206.711 7.85552  19
  -4   3  -5 199.969 7.60553  26
  -4   3  -5 186.600 10.5719   5
  -4   3  -5 194.932 8.55925  31
  -4   3  -5 203.207 7.63950  30
  -4   3  -5 218.719 8.45563   4
   4  -3   5 226.074 10.7066   5
  -5   3  -5 4.20974 0.99559  11
  -5   3  -5 4.87609 0.94527  12
  -5   3  -5 4.27575 0.67413  30
  -5   3  -5 5.08035 1.06448  31
  -5   3  -5 5.71712 1.00063  27
  -5   3  -5 4.56548 1.06343   4
  -5   3  -5 5.96455 0.83787  19
  -6   3  -5 338.212 13.1764   4
  -6   3  -5 340.572 12.6868  27
  -6   3  -5 340.807 12.9116  11
  -6   3  -5 371.597 13.2879  31
  -7   3  -5 183.159 6.93907  11
   6   2  -5 1.48625 0.80505  31
   6   2  -5 1.03503 1.02262   2
   6   2  -5 2.10227 0.67822  20
  -6  -2   5 0.56226 0.55475   3
  -6  -2   5 1.50500 0.70933  20
  -6  -2   5 1.38474 0.58737  18
  -6  -2   5 1.38457 0.40987  13
  -6  -2   5 2.11314 0.94119  12
  -6  -2   5 1.32523 0.65071  29
  -6  -2   5 1.56322 0.44178  25
  -6  -2   5 2.13368 0.99247  31
   5   2  -5 4.41800 0.93114  20
   5   2  -5 5.71658 1.25035  31
  -5  -2   5 3.47647 0.95335  20
  -5  -2   5 3.85512 0.94459   3
  -5  -2   5 2.51660 0.82233  18
  -5  -2   5 3.22507 0.69319  25
  -5  -2   5 3.73226 1.00434  29
  -5  -2   5 3.45533 0.62207  13
  -5  -2   5 4.20082 1.24873  31
   4   2  -5 4.54039 0.94437  12
   4   2  -5 4.13662 1.90233   7
   4   2  -5 5.87541 1.22423  31
  -4  -2   5 4.10575 1.06881   3
  -4  -2   5 5.26470 0.84745  13
  -4  -2   5 5.28389 1.74257   7
  -4  -2   5 4.64154 1.16384  31
  -4  -2   5 3.24862 0.98746  18
  -4  -2   5 3.26983 0.92535  22
  -4  -2   5 4.97125 0.80849  26
  -4  -2   5 4.09572 1.05346  12
  -4  -2   5 5.92166 0.92014  25
   3   2  -5 237.625 9.03273  19
  -3  -2   5 271.060 12.0783   7
  -3  -2   5 244.638 9.52535  15
  -3  -2   5 252.419 9.67695  20
  -3  -2   5 227.625 12.5181   5
  -3  -2   5 250.311 9.26348  26
  -2  -2   5 12.8335 0.99540  26
  -2  -2   5 10.5664 2.40179   5
  -1  -2   5 1688.64 61.6772   5
   0   2  -5 598.177 20.1323  26
   0   2  -5 563.167 21.7267  14
   0  -2   5 565.863 22.8583   5
  -1   2  -5 590.992 20.6427  26
  -1   2  -5 595.869 22.7105  14
   1  -2   5 570.589 23.5250   5
  -2   2  -5 95.4306 4.51615  10
  -2   2  -5 111.136 4.11580  26
  -2   2  -5 102.887 5.99419  14
   2  -2   5 108.684 6.33660   5
  -3   2  -5 52.0007 3.90844   5
   3  -2   5 50.7907 3.94323   5
  -4   2  -5 55.8230 2.64102  30
  -4   2  -5 60.0257 2.70701  19
  -4   2  -5 57.2099 4.27778   5
  -4   2  -5 60.7786 3.37650   4
  -4   2  -5 56.3538 3.18031  31
   4  -2   5 58.9939 4.36322   5
  -5   2  -5 3.16095 0.87588  11
  -5   2  -5 2.01456 0.93363  27
  -5   2  -5 1.00977 0.70190   4
  -5   2  -5 0.89559 0.64834  31
  -6   2  -5 190.348 7.36786  11
  -7  -1   5 21.2506 1.51428  18
  -7  -1   5 20.6669 1.36072   3
   6   1  -5 251.004 9.28419  19
   6   1  -5 252.962 9.66720  12
   6   1  -5 251.638 9.86740  31
  -6  -1   5 252.048 10.0389  18
  -6  -1   5 256.272 9.23062  13
  -6  -1   5 244.071 9.86694  12
  -6  -1   5 261.119 9.77771   3
  -6  -1   5 262.925 9.99344  29
  -6  -1   5 262.518 9.34703  25
  -6  -1   5 258.688 9.92360  20
  -6  -1   5 262.638 10.0506  31
   5   1  -5 547.739 19.9369  31
   5   1  -5 572.859 19.3454  19
  -5  -1   5 520.983 20.1079  18
  -5  -1   5 561.222 19.4963  25
  -5  -1   5 540.124 19.9710  29
  -5  -1   5 559.595 23.2387   7
  -5  -1   5 554.715 19.3661  13
  -5  -1   5 533.074 20.0775  31
  -5  -1   5 550.912 19.9204  20
  -5  -1   5 550.638 19.9286   3
  -5  -1   5 562.306 20.0041  12
   4   1  -5 157.263 9.17376   7
   4   1  -5 138.636 5.98487  31
   4   1  -5 150.961 5.53647  19
  -4  -1   5 143.632 5.74914  25
  -4  -1   5 142.983 8.92353   5
  -4  -1   5 154.482 8.45810   7
  -4  -1   5 138.573 6.09076  31
  -4  -1   5 141.632 5.93038  20
  -4  -1   5 144.966 5.87542  26
   3   1  -5 14.9234 2.44962   7
  -3  -1   5 10.2926 2.19714   5
  -3  -1   5 13.9733 2.15752   7
  -3  -1   5 10.8097 1.00631  26
   2   1  -5 477.884 19.0255   7
  -2  -1   5 470.832 16.4765  26
  -2  -1   5 458.113 19.8911   5
  -2  -1   5 453.455 18.1936   7
  -1  -1   5 565.326 22.8276   5
   0   1  -5 58.5471 3.66414  14
   0   1  -5 64.0269 2.56914  26
   0  -1   5 56.1387 4.33541  14
   0  -1   5 58.7873 4.49240   5
  -1   1  -5 8.57507 0.83218  26
   1  -1   5 11.5749 2.11392   5
  -2   1  -5 43.3141 3.53456  14
  -2   1  -5 44.0561 2.40176  10
   2  -1   5 46.7209 4.46450  14
   2  -1   5 47.8582 3.51156   5
  -3   1  -5 64.6412 4.46341   5
   3  -1   5 67.7966 4.43036   5
  -4   1  -5 53.2934 3.04186   4
   7   0  -5 171.855 6.37564  19
   7   0  -5 174.758 6.66708  12
   7   0  -5 173.836 6.84782  31
  -7   0   5 175.300 6.77527   3
  -7   0   5 168.983 6.95240  18
  -7   0   5 180.612 6.83563  12
  -7   0   5 175.046 6.90423  20
  -7   0   5 167.481 6.88771  31
  -7   0   5 173.513 6.84850  29
   6   0  -5 377.140 13.9346  11
   6   0  -5 375.624 14.1851  31
   6   0  -5 388.849 13.6737  19
  -6   0   5 410.703 14.4160   3
  -6   0   5 372.422 14.2882  31
  -6   0   5 390.221 14.2163  12
  -6   0   5 366.716 13.8823  11
  -6   0   5 385.261 13.7309  13
  -6   0   5 388.283 13.8453  25
  -6   0   5 386.395 14.1342  20
  -6   0   5 391.269 14.1794  29
  -6   0   5 395.377 14.5327  18
   5   0  -5 4.02056 1.81374   7
   5   0  -5 2.79511 0.73285  31
   5   0  -5 4.59094 0.79942  11
   5   0  -5 3.95931 0.56225  19
  -5   0   5 4.50418 0.70515  11
  -5   0   5 3.15855 0.77655  25
  -5   0   5 2.47869 0.65420  20
  -5   0   5 3.85727 1.05598   3
  -5   0   5 2.39314 0.63153  26
  -5   0   5 5.28256 2.08807   7
  -5   0   5 2.40430 0.67326  12
  -5   0   5 2.52657 0.69081  13
  -5   0   5 2.60728 0.81845  18
   4   0  -5 660.559 27.2797   7
   4   0  -5 619.968 22.7058  19
  -4   0   5 653.439 23.1568  26
  -4   0   5 670.423 26.3224   7
  -4   0   5 670.940 26.5853   5
   3   0  -5 45.5386 4.16738   7
  -3   0   5 42.8203 3.63090   7
  -3   0   5 46.1530 2.21078  26
  -3   0   5 45.1442 3.88154   5
   2   0  -5 245.165 11.4282   7
  -2   0   5 263.602 11.5590   5
   1   0  -5 1.40719 0.46710  26
   1   0  -5 2.02583 0.94974  14
  -1   0   5 2.50039 1.13925   5
  -1   0   5 1.95138 1.09437  14
   0   0  -5 320.558 12.7389  14
   0   0   5 293.820 13.0018   5
   0   0   5 304.922 13.6997  14
  -1   0  -5 1038.17 37.9380  14
   1   0   5 1027.51 39.3572  14
  -2   0  -5 2844.79 102.849  14
  -2   0  -5 2880.74 100.531  10
   2   0   5 3068.02 105.113  14
   7  -1  -5 119.008 4.74259  11
   7  -1  -5 125.275 4.54260  19
   7  -1  -5 114.060 4.89489  31
  -7   1   5 120.631 4.91000  12
  -7   1   5 126.419 4.75064  11
  -7   1   5 117.015 4.85429  29
  -7   1   5 110.503 5.09591  18
  -7   1   5 119.991 4.83044  20
  -7   1   5 112.944 4.95305  31
  -7   1   5 119.678 5.08850   3
   6  -1  -5 136.252 5.34000  11
   6  -1  -5 127.868 5.45304  31
   6  -1  -5 132.506 5.04992  19
  -6   1   5 142.271 5.62078  31
  -6   1   5 135.954 5.82525   3
  -6   1   5 133.203 5.42106  20
  -6   1   5 124.584 5.69597  18
  -6   1   5 127.530 5.38927  29
  -6   1   5 135.340 5.34565  11
  -6   1   5 133.832 5.48244  12
   5  -1  -5 587.070 24.4274   7
   5  -1  -5 560.196 19.6737  19
  -5   1   5 593.344 20.0420  25
  -5   1   5 552.336 20.2423  31
  -5   1   5 571.221 20.5140  18
  -5   1   5 526.885 20.2830   3
   4  -1  -5 1074.28 40.9912   7
  -4   1   5 1067.43 39.8893   5
   3  -1  -5 1381.87 50.5466   7
  -3   1   5 1354.68 49.2999   5
   2  -1  -5 228.513 10.4368   7
   1  -1  -5 411.919 16.5027   7
   1  -1  -5 418.926 15.2341  26
  -1   1   5 455.110 18.1518  14
   0  -1  -5 1425.66 47.9421  26
   0   1   5 1369.34 51.1537  14
  -1  -1  -5 1675.29 56.4022  10
  -1  -1  -5 1616.21 58.6407  14
   1   1   5 1603.45 60.0145  14
  -2  -1  -5 153.218 6.14561  10
   8  -2  -5 148.219 5.68064  11
  -8   2   5 151.876 5.99965  18
  -8   2   5 155.113 5.67147  11
   7  -2  -5 5.08990 0.75545  31
   7  -2  -5 5.57845 0.57245  19
   7  -2  -5 5.40100 0.72167  11
  -7   2   5 5.16034 1.00998  18
  -7   2   5 4.62152 0.81820  31
  -7   2   5 4.89380 0.77627  29
  -7   2   5 4.59053 0.63486  11
  -7   2   5 6.24905 1.27991   3
   6  -2  -5 145.884 9.62329   7
   6  -2  -5 164.517 6.44981  31
   6  -2  -5 155.327 6.37939  23
   6  -2  -5 155.931 5.98970  19
   6  -2  -5 170.478 6.35006  11
  -6   2   5 172.817 6.89308  18
  -6   2   5 180.130 6.62885  31
  -6   2   5 153.943 6.30901  11
   5  -2  -5 485.571 16.8448  19
   5  -2  -5 509.290 21.5653   7
   5  -2  -5 498.633 17.2905   4
  -5   2   5 440.745 17.7829   3
  -5   2   5 479.574 17.1622   4
   4  -2  -5 1374.29 51.2495   7
   3  -2  -5 123.764 7.10836   7
   2  -2  -5 677.351 22.1357  26
   2  -2  -5 619.468 24.0203   7
  -2   2   5 593.402 25.0791  14
   1  -2  -5 2378.34 85.6793   7
   1  -2  -5 2544.19 83.8261  26
  -1   2   5 2418.67 87.4588  14
   0  -2  -5 10.2760 1.02401  10
   0  -2  -5 9.76284 0.83645  26
   0  -2  -5 9.81898 1.64176   7
   0   2   5 11.6010 2.30355  14
  -1  -2  -5 1249.43 43.3879  10
  -2  -2  -5 284.234 10.3010  10
  -2  -2  -5 258.610 9.87573  15
  -2  -2  -5 267.088 9.81237  28
  -3  -2  -5 586.168 20.6473  15
   8  -3  -5 5.31290 0.58656  11
   8  -3  -5 3.90426 0.56769  23
   7  -3  -5 29.9467 1.43360  19
   7  -3  -5 30.3235 1.74858   4
   7  -3  -5 31.0321 1.65369  11
   7  -3  -5 30.5781 1.72410  23
  -7   3   5 25.6580 1.59759  11
  -7   3   5 32.7782 2.06065  18
   6  -3  -5 335.581 12.1705   4
   6  -3  -5 333.430 12.0212  11
   6  -3  -5 339.100 16.3332   7
   6  -3  -5 317.852 11.6924  19
   6  -3  -5 334.127 12.1516  23
  -6   3   5 325.294 12.5746  18
  -6   3   5 337.520 12.0853   4
  -6   3   5 333.510 12.1005  11
  -6   3   5 324.762 12.4516   3
   5  -3  -5 48.4895 2.48246  23
   5  -3  -5 48.9002 2.52432   4
   5  -3  -5 54.0081 4.74071   7
  -5   3   5 55.4774 2.50578   4
  -5   3   5 48.9361 2.88735   3
  -5   3   5 53.6947 2.94343  18
   4  -3  -5 1109.30 41.2152   7
  -4   3   5 1069.94 38.7224  17
   3  -3  -5 1495.80 54.1676   7
   2  -3  -5 751.145 25.0111  26
   2  -3  -5 715.996 27.3617   7
  -2   3   5 669.326 28.7966  14
   1  -3  -5 455.764 15.4984  26
   1  -3  -5 413.255 17.6746   7
   1  -3  -5 427.668 15.5757  10
   0  -3  -5 214.347 11.1135   7
   0  -3  -5 231.642 8.39516  26
   0  -3  -5 228.877 8.67627  10
  -1  -3  -5 260.800 14.0270   7
  -1  -3  -5 290.194 10.8078  10
  -1  -3  -5 286.712 10.3647  28
  -1  -3  -5 284.446 10.3987  26
  -1  -3  -5 299.871 10.1746  25
  -1  -3  -5 291.205 10.5055  15
   1   3   5 294.040 11.5944  10
   1   3   5 279.313 10.8679  17
  -2  -3  -5 111.955 3.93494  25
  -2  -3  -5 96.3086 4.24352   1
  -2  -3  -5 95.3069 4.08232  28
  -2  -3  -5 101.116 3.82780  13
  -2  -3  -5 100.562 4.22319  22
  -2  -3  -5 100.117 4.19524  15
  -2  -3  -5 102.026 4.57498  10
   2   3   5 95.3534 4.54595  17
  -3  -3  -5 315.797 12.0538   1
  -3  -3  -5 338.088 11.7281  13
  -3  -3  -5 328.651 12.0150  22
  -3  -3  -5 340.459 11.7747  25
  -3  -3  -5 348.011 12.1253  15
   8  -4  -5 260.595 9.60136  11
   8  -4  -5 279.680 9.74710  23
  -8   4   5 281.503 9.67821  11
  -8   4   5 254.243 9.88958  18
   7  -4  -5 181.427 6.81505   4
   7  -4  -5 166.271 6.56282  11
   7  -4  -5 177.251 6.76383  23
  -7   4   5 183.761 6.67732  11
  -7   4   5 173.118 7.06420   3
  -7   4   5 172.861 7.10565  18
   6  -4  -5 1.78380 0.56036   4
   6  -4  -5 2.63318 0.67763  23
  -6   4   5 3.68796 0.65838   4
  -6   4   5 2.63208 0.86973   3
  -6   4   5 3.13637 0.82538  18
   5  -4  -5 181.773 7.13331   4
   5  -4  -5 185.347 9.74991   7
   5  -4  -5 173.801 6.87461  27
   5  -4  -5 186.271 7.12253  23
  -5   4   5 174.072 7.48346   3
  -5   4   5 186.133 7.02969   4
  -5   4   5 193.564 7.58883  18
   4  -4  -5 534.540 19.4573   4
   4  -4  -5 557.287 22.4041   7
   4  -4  -5 552.937 19.1498  30
  -4   4   5 538.451 20.4313  17
   3  -4  -5 11.1765 0.99685  30
   3  -4  -5 11.4829 1.97841   7
  -3   4   5 10.9198 1.57008  17
   2  -4  -5 192.593 7.45994  26
   2  -4  -5 193.225 9.76387   7
  -2   4   5 193.580 8.09694  17
   1  -4  -5 32.1697 1.88220  26
   1  -4  -5 32.5846 1.69631  28
   1  -4  -5 29.5420 1.76797  30
   1  -4  -5 29.0935 1.79689  15
   1  -4  -5 32.0870 1.96122  10
   1  -4  -5 29.6181 3.22361   7
  -1   4   5 32.3360 2.50301  10
  -1   4   5 36.6743 2.37215  17
  -1   4   5 34.7978 1.84823  25
   0  -4  -5 402.016 14.3885  21
   0  -4  -5 437.185 14.2084  25
   0  -4  -5 371.091 17.8793   7
   0  -4  -5 427.857 14.6379   3
   0  -4  -5 373.221 14.5303  26
   0  -4  -5 409.830 14.3950  28
   0  -4  -5 416.636 14.8926  10
   0  -4  -5 417.066 14.6456  22
   0  -4  -5 412.600 14.5054  15
   0   4   5 378.455 14.6196   3
   0   4   5 392.040 15.0393  17
   0   4   5 404.966 15.7710  10
  -1  -4  -5 259.863 9.48678  28
  -1  -4  -5 260.310 9.59045  15
  -1  -4  -5 286.615 9.33040  25
  -1  -4  -5 240.678 9.57920   1
  -1  -4  -5 260.897 9.98882  10
  -1  -4  -5 250.548 9.50343  21
  -1  -4  -5 234.970 13.4452   7
  -1  -4  -5 270.770 9.21780  13
  -1  -4  -5 260.323 9.54230  22
  -1  -4  -5 256.378 9.60750   3
   1   4   5 256.066 10.8481  10
   1   4   5 261.353 10.1457  17
  -2  -4  -5 5.50142 0.67558  25
  -2  -4  -5 2.98702 0.77670   3
  -2  -4  -5 5.33087 0.77145  28
  -2  -4  -5 4.06627 0.84387  10
  -2  -4  -5 3.11362 0.71624   1
  -2  -4  -5 5.48744 0.61669  13
  -2  -4  -5 5.14904 0.80635  15
  -2  -4  -5 4.60188 0.71245  22
   2   4   5 4.59133 1.28061  10
   2   4   5 4.77281 1.01838  17
  -3  -4  -5 402.075 13.8772   1
  -3  -4  -5 383.685 13.5896  25
  -3  -4  -5 389.999 13.8023  22
  -3  -4  -5 383.987 13.8845  15
   7  -5  -5 15.9750 1.15626  23
   7  -5  -5 16.2111 1.19146   4
  -7   5   5 13.9646 1.54064   3
  -7   5   5 16.1527 1.45174  18
   6  -5  -5 25.9291 1.56760  27
   6  -5  -5 25.7613 1.62649  23
   6  -5  -5 27.9191 1.70941   4
  -6   5   5 31.1864 2.23192   3
  -6   5   5 25.5378 1.97262  18
   5  -5  -5 8.56380 0.88362   9
   5  -5  -5 7.29889 0.94305   4
   5  -5  -5 7.82438 0.81122  30
  -5   5   5 7.15082 1.20711  18
   4  -5  -5 2.43306 0.61691  27
   4  -5  -5 1.07749 1.09603   7
   4  -5  -5 0.68068 0.42206   9
   4  -5  -5 0.84550 0.41286  30
  -4   5   5 1.73416 0.90937   3
  -4   5   5 1.03121 0.90209  17
  -4   5   5 1.35425 0.68906  18
   3  -5  -5 15.3836 1.25043   9
   3  -5  -5 15.2299 1.38574  27
   3  -5  -5 19.4306 2.66057   7
   3  -5  -5 16.3837 1.16634  21
   3  -5  -5 20.0440 1.85622   3
   3  -5  -5 15.0894 1.20303  30
  -3   5   5 20.5882 1.73654   3
  -3   5   5 19.9866 2.11481  17
  -3   5   5 16.0590 1.58923  18
   2  -5  -5 395.233 13.8578   9
   2  -5  -5 409.134 14.4439  18
   2  -5  -5 409.874 14.0408  27
   2  -5  -5 397.625 13.7848  28
   2  -5  -5 363.867 16.7736   7
   2  -5  -5 399.845 14.2484   3
   2  -5  -5 379.085 13.8556  30
   2  -5  -5 377.967 13.6344  25
   2  -5  -5 418.883 13.8274  21
  -2   5   5 381.312 14.9541  17
  -2   5   5 362.803 14.3715  18
  -2   5   5 374.200 14.3380   3
  -2   5   5 355.321 13.8271  25
   1  -5  -5 520.711 22.9783   7
   1  -5  -5 568.498 19.5037  21
   1  -5  -5 556.529 19.9694  10
   1  -5  -5 577.596 19.4932  28
   1  -5  -5 590.522 20.0449  18
   1  -5  -5 563.809 19.2912  25
   1  -5  -5 540.374 19.5579  30
   1  -5  -5 591.146 19.8496   3
   1  -5  -5 558.327 19.5531   9
  -1   5   5 514.773 19.9484  18
  -1   5   5 540.380 20.4050  17
  -1   5   5 538.652 19.8920   3
  -1   5   5 537.221 19.4528  25
  -1   5   5 544.803 20.8892  10
   0  -5  -5 438.997 14.8696   3
   0  -5  -5 404.586 14.6727  15
   0  -5  -5 403.351 15.1023  10
   0  -5  -5 400.707 14.6216  21
   0  -5  -5 426.068 14.3913  25
   0  -5  -5 395.483 14.7134   1
   0  -5  -5 410.539 14.5906  28
   0  -5  -5 418.306 14.6286  22
   0   5   5 406.013 15.4478  17
   0   5   5 395.504 14.9301   3
   0   5   5 398.248 16.0514  10
  -1  -5  -5 17.6212 1.30476  22
  -1  -5  -5 17.9706 1.47807   1
  -1  -5  -5 17.3893 1.08312  25
  -1  -5  -5 18.8861 1.28416  28
  -1  -5  -5 18.1640 1.43802  15
  -1  -5  -5 17.3238 1.56026   3
   1   5   5 19.6541 1.75302  17
   1   5   5 20.6302 1.55866   3
  -2  -5  -5 273.636 9.55590  22
  -2  -5  -5 274.687 9.62691   1
  -2  -5  -5 262.273 9.33795  25
  -2  -5  -5 267.095 9.63729  15
  -2  -5  -5 288.884 9.69593   3
   2   5   5 244.407 9.64336   3
   2   5   5 242.348 9.97061  17
   7  -6  -5 34.6651 1.66597  27
   7  -6  -5 33.4111 1.80373   4
  -7   6   5 34.2424 2.15236  18
   6  -6  -5 14.2429 0.98612  30
   6  -6  -5 15.6771 1.07407   9
   6  -6  -5 16.4479 1.24803   4
  -6   6   5 12.9510 1.49255  18
   5  -6  -5 102.221 4.08689   9
   5  -6  -5 100.987 4.18127  27
   5  -6  -5 103.150 4.10719  30
  -5   6   5 93.9891 5.36469  17
  -5   6   5 107.113 4.90593  18
  -5   6   5 104.710 4.94012   3
   4  -6  -5 140.285 5.47297  30
   4  -6  -5 139.103 5.40817  21
   4  -6  -5 147.632 5.51045   9
   4  -6  -5 147.018 5.64986  27
  -4   6   5 143.771 6.88275  17
  -4   6   5 134.369 6.22774   3
  -4   6   5 141.996 6.21556  18
   3  -6  -5 331.125 12.3889   3
   3  -6  -5 341.504 11.6261  21
   3  -6  -5 338.188 11.6828   9
   3  -6  -5 327.464 11.8000  27
   3  -6  -5 322.796 11.6754  30
  -3   6   5 297.405 12.2517   3
  -3   6   5 309.523 12.9274  17
  -3   6   5 317.367 12.4013  18
   2  -6  -5 319.036 11.4632  30
   2  -6  -5 311.349 11.3119  28
   2  -6  -5 347.605 12.0743  18
   2  -6  -5 319.826 11.3960   9
   2  -6  -5 327.996 11.3508  21
   2  -6  -5 326.310 11.8213   3
  -2   6   5 297.854 12.4316  17
  -2   6   5 295.518 11.8939   3
  -2   6   5 286.919 11.9423  18
   1  -6  -5 4.44074 0.61070  25
   1  -6  -5 3.05832 0.77257  10
   1  -6  -5 4.92171 1.04702   3
   1  -6  -5 3.72979 0.60424  28
   1  -6  -5 2.97572 0.80405  18
   1  -6  -5 3.40953 0.59657  21
  -1   6   5 3.91938 0.97385  17
  -1   6   5 4.84407 0.89946  18
  -1   6   5 2.75470 1.06703  10
  -1   6   5 3.83480 0.68806  25
  -1   6   5 3.73699 0.91802   3
   0  -6  -5 42.4290 1.85613  25
   0  -6  -5 41.9275 2.01435  22
   0  -6  -5 41.9952 2.14136   1
   0  -6  -5 41.8382 2.03178  21
   0  -6  -5 38.3702 2.10385  15
   0  -6  -5 40.6316 2.24369   3
   0  -6  -5 43.0382 2.01691  28
   0   6   5 43.8834 2.33817   3
   0   6   5 42.7984 2.62541  17
   0   6   5 43.3572 1.99966  25
  -1  -6  -5 10.1095 0.75593  25
  -1  -6  -5 12.4257 1.18270   3
  -1  -6  -5 11.6167 1.04630   1
  -1  -6  -5 11.8142 0.93531  22
   1   6   5 8.06432 0.98936   3
   6  -7  -5 1.41836 0.50251  27
   6  -7  -5 1.44055 0.39754   9
  -6   7   5 1.35430 0.65550  18
   5  -7  -5 68.7642 2.84484   9
   5  -7  -5 69.6334 2.96000  27
   5  -7  -5 71.0895 2.87215  30
  -5   7   5 67.7224 3.42527   3
  -5   7   5 67.9591 3.47869  18
   4  -7  -5 25.4315 1.31798  21
   4  -7  -5 25.7080 1.57248  27
   4  -7  -5 26.1311 1.42396   9
   4  -7  -5 25.9440 1.40030  30
  -4   7   5 22.0989 2.17386  17
  -4   7   5 24.7272 1.92841   3
  -4   7   5 22.6598 1.79394  18
   3  -7  -5 72.8471 3.05129  21
   3  -7  -5 72.9906 3.12024   9
   3  -7  -5 67.6124 3.11811  30
  -3   7   5 81.1509 3.62569   3
  -3   7   5 77.1709 3.64890  18
  -3   7   5 79.0507 4.03025  17
   2  -7  -5 161.747 6.00234  21
   2  -7  -5 155.353 5.98360  28
   2  -7  -5 154.478 6.42406   3
  -2   7   5 169.857 6.42734   3
  -2   7   5 165.992 6.83576  17
  -2   7   5 163.812 6.49072  18
   1  -7  -5 93.3810 3.82220  21
   1  -7  -5 106.980 4.16382   3
  -1   7   5 100.516 4.14935   3
  -1   7   5 96.8984 4.18012  18
   2  -8   6 14.3316 1.05348   8
  -3   8  -6 179.738 6.59978  12
   3  -8   6 167.980 6.38316  21
   3  -8   6 166.972 6.40486   8
  -1  -7   6 57.0884 2.61957   1
   0   7  -6 1.48746 0.44168  29
   0   7  -6 1.98420 0.56596  12
   0   7  -6 2.25318 0.54638  20
   0  -7   6 1.49638 0.46407   8
   0  -7   6 2.23840 0.73195   1
  -1   7  -6 55.3429 2.59509  20
  -1   7  -6 56.9474 2.70830  12
   1  -7   6 56.8286 2.65489   8
   1  -7   6 48.7874 2.53856  28
  -2   7  -6 31.5289 1.83597  20
  -2   7  -6 28.9930 1.91450  12
   2  -7   6 31.3382 1.90044   8
   2  -7   6 31.5113 1.90184  28
  -3   7  -6 2.86360 0.67911  20
  -3   7  -6 2.29181 0.71639  12
   3  -7   6 2.34774 0.44625  16
   3  -7   6 2.13554 0.61236   8
   3  -7   6 2.50109 0.69297  28
   3  -7   6 3.23692 0.63248  21
  -4   7  -6 18.5179 1.59802  12
  -4   7  -6 19.4402 1.43446  20
  -4   7  -6 18.3134 1.01006  21
   4  -7   6 19.4728 1.31306  21
   4  -7   6 20.5911 1.45760  28
   4  -7   6 20.8715 1.09661  16
  -5   7  -6 19.3395 1.48028  12
  -5   7  -6 19.9796 1.01153  30
  -5   7  -6 17.7171 1.47538  31
   5  -7   6 21.5496 1.19690   9
   5  -7   6 19.9789 1.16332  30
   5  -7   6 20.4316 1.21876  21
   2   6  -6 2.18414 0.52245  29
   2   6  -6 2.62950 0.60932  20
   2   6  -6 4.03061 0.69337  12
  -2  -6   6 4.42334 0.80412   1
  -2  -6   6 2.20839 0.73461  22
  -2  -6   6 3.00438 0.86827  15
   1   6  -6 132.379 5.37866  12
   1   6  -6 134.552 5.27250  29
   1   6  -6 133.095 5.33920  20
  -1  -6   6 137.391 5.60999   1
  -1  -6   6 136.942 5.48968  29
  -1  -6   6 135.035 5.79060  15
   0   6  -6 38.0888 2.06583  12
   0   6  -6 37.0218 2.02367  20
   0   6  -6 34.9943 2.39762  10
   0  -6   6 33.7620 2.37590   1
   0  -6   6 31.6251 2.05221   8
  -1   6  -6 29.5877 2.22252  10
  -1   6  -6 31.4897 1.87521  20
  -1   6  -6 30.8692 1.97331  12
   1  -6   6 31.0971 1.96295  28
   1  -6   6 32.9543 2.01263   8
  -2   6  -6 70.9557 4.83885   2
  -2   6  -6 68.5771 3.64879  10
  -2   6  -6 68.6074 2.80625  21
  -2   6  -6 69.1953 3.61530  31
  -2   6  -6 69.8120 3.24969  20
  -2   6  -6 72.7382 3.44371  12
   2  -6   6 63.6478 3.28065  28
   2  -6   6 60.8147 3.05836  21
   2  -6   6 68.6630 3.36921   8
  -3   6  -6 12.6475 1.43065  12
  -3   6  -6 14.3762 2.43808   2
  -3   6  -6 12.9472 1.27357  20
  -3   6  -6 12.9367 1.63348  31
  -3   6  -6 12.7603 0.90157  21
  -3   6  -6 12.3922 1.43856  10
   3  -6   6 13.0305 0.98013  16
   3  -6   6 9.90316 1.13027  21
   3  -6   6 10.6415 1.34823  28
   3  -6   6 13.6439 1.41742   8
  -4   6  -6 77.9293 3.06842  30
  -4   6  -6 78.3605 5.53942   2
  -4   6  -6 77.8732 3.04767  21
  -4   6  -6 75.4115 3.90817  12
  -4   6  -6 77.4884 4.24366  31
   4  -6   6 77.9907 3.29973  30
   4  -6   6 75.4867 3.35881  21
   4  -6   6 72.5786 3.03407  16
   4  -6   6 71.9475 3.30464   9
   4  -6   6 72.5922 3.48305  28
  -5   6  -6 205.030 8.63615  31
  -5   6  -6 200.948 7.46624  30
  -5   6  -6 207.648 7.57123  27
  -5   6  -6 202.895 8.26560  12
  -5   6  -6 208.250 7.44471  21
   5  -6   6 205.477 7.44381  16
   5  -6   6 203.955 7.71425   9
   5  -6   6 218.299 7.79913  27
   5  -6   6 212.274 7.70282  30
   5  -6   6 206.374 7.75280  21
  -6   6  -6 139.380 5.80522  12
  -6   6  -6 149.538 5.37563  27
  -6   6  -6 143.396 5.28819  30
  -6   6  -6 135.065 5.21638  21
  -6   6  -6 148.597 6.12341  31
  -6   6  -6 133.534 5.51756   4
  -6   6  -6 136.738 5.60579  11
   6  -6   6 149.576 5.47069  30
   6  -6   6 156.441 5.53663  21
   6  -6   6 152.136 5.47116   9
   6  -6   6 140.983 5.71266   4
   6  -6   6 155.648 5.52767  27
   3   5  -6 175.553 6.77848  12
   3   5  -6 175.713 6.79574  20
   3   5  -6 177.793 6.79962  29
  -3  -5   6 180.201 6.89780  29
  -3  -5   6 183.582 7.13823  15
  -3  -5   6 186.227 7.07493  22
  -3  -5   6 177.793 6.88878   1
   2   5  -6 152.103 5.86012  20
   2   5  -6 147.133 5.83827  29
   2   5  -6 155.464 5.86171  12
  -2  -5   6 148.007 6.12382   1
  -2  -5   6 142.065 6.24576  15
  -2  -5   6 146.850 6.16640  22
  -2  -5   6 137.483 5.84804  29
   1   5  -6 331.333 12.8810  31
   1   5  -6 349.048 12.6914  20
   1   5  -6 354.300 13.3379  10
   1   5  -6 378.595 15.2846   2
   1   5  -6 347.952 12.7456  12
  -1  -5   6 341.021 13.1098  15
  -1  -5   6 339.059 13.0078   1
   0   5  -6 135.528 5.58868  20
   0   5  -6 137.948 5.72163  12
   0   5  -6 135.430 5.78768  31
   0   5  -6 142.148 6.21307  10
   0   5  -6 160.845 8.18577   2
   0  -5   6 141.303 5.76322   8
   0  -5   6 132.807 5.95053   1
   0  -5   6 138.146 6.05200  15
  -1   5  -6 3.25198 0.89641  10
  -1   5  -6 3.61006 0.89354  31
  -1   5  -6 2.57853 0.68346  20
  -1   5  -6 3.46708 0.78448  12
   1  -5   6 2.46578 0.76375   8
   1  -5   6 2.95888 0.83652  28
   1  -5   6 2.37937 0.99100   1
  -2   5  -6 88.6685 4.44585  10
  -2   5  -6 94.8598 4.60078  31
  -2   5  -6 97.8590 6.15992   2
  -2   5  -6 92.8926 3.64290  21
  -2   5  -6 85.5387 4.20828  12
   2  -5   6 88.5684 3.55001  16
   2  -5   6 93.1739 4.10879  28
   2  -5   6 93.5504 4.21578   8
   2  -5   6 86.5386 3.86585  21
  -3   5  -6 308.043 14.1043   2
  -3   5  -6 279.066 11.4463  12
  -3   5  -6 293.396 10.9489  19
  -3   5  -6 298.545 11.5700  10
  -3   5  -6 290.709 11.9780  31
  -3   5  -6 308.880 10.5972  21
  -3   5  -6 288.742 10.5685  30
   3  -5   6 300.985 10.4937  16
   3  -5   6 294.160 10.8573  21
   3  -5   6 295.916 11.1506   8
   3  -5   6 287.884 10.7321  30
   3  -5   6 290.573 10.8925   9
   3  -5   6 301.327 11.0456  28
  -4   5  -6 546.973 20.6106  11
  -4   5  -6 562.477 21.4905  31
  -4   5  -6 540.103 19.8019  21
  -4   5  -6 570.620 20.3141  19
  -4   5  -6 540.273 23.4437   2
  -4   5  -6 552.384 19.9987  27
  -4   5  -6 569.354 20.9328  12
  -4   5  -6 575.409 19.8663  30
   4  -5   6 609.545 20.3240  28
   4  -5   6 569.879 20.1184  21
   4  -5   6 581.853 20.1990   9
   4  -5   6 589.512 20.0644  30
   4  -5   6 582.029 19.7530  16
  -5   5  -6 22.2444 1.26689  21
  -5   5  -6 23.1408 1.70868   4
  -5   5  -6 24.7959 1.36841  30
  -5   5  -6 25.4250 1.90895  11
  -5   5  -6 26.4026 2.33778  31
  -5   5  -6 24.6358 1.47965  27
  -5   5  -6 26.7934 1.72684  19
  -5   5  -6 24.7279 1.95729  12
   5  -5   6 27.7305 1.63634  21
   5  -5   6 31.6770 1.78495   9
   5  -5   6 27.4464 1.62445  30
  -6   5  -6 92.1650 4.14815  11
  -6   5  -6 92.6042 3.58646  30
  -6   5  -6 94.3110 4.07233  12
  -6   5  -6 99.8478 4.04943   4
  -6   5  -6 91.5864 4.43154  31
  -6   5  -6 94.5495 3.70261  27
   6  -5   6 84.6249 3.84838  27
   6  -5   6 88.4860 3.78573   9
   6  -5   6 87.7446 3.76095  30
   4   4  -6 66.4199 2.95401  29
   4   4  -6 53.3285 4.14001   2
   4   4  -6 63.9427 2.90898  12
   4   4  -6 64.9586 3.07176  20
  -4  -4   6 60.4433 3.03854  22
  -4  -4   6 58.8982 3.05855  29
  -4  -4   6 61.4600 3.13240  20
  -4  -4   6 58.2105 2.54994  13
  -4  -4   6 57.4741 3.09357  15
  -4  -4   6 59.7964 2.61390  25
   3   4  -6 151.711 7.55160   2
   3   4  -6 152.685 6.01242  20
   3   4  -6 153.052 6.04466  31
   3   4  -6 145.939 5.96395  29
   3   4  -6 147.329 5.97030  12
  -3  -4   6 142.019 5.65335  13
  -3  -4   6 144.665 6.20382  29
  -3  -4   6 151.032 6.29855  20
  -3  -4   6 155.956 6.29614  15
  -3  -4   6 149.462 5.81560  25
  -3  -4   6 146.649 6.15388   1
  -3  -4   6 147.335 6.19881  22
   2   4  -6 71.4557 4.65600   2
   2   4  -6 64.2240 3.28767  20
   2   4  -6 66.4363 3.18073  31
   2   4  -6 64.1908 3.14875  12
  -2  -4   6 65.6918 3.44621  22
  -2  -4   6 69.0886 3.61971  15
  -2  -4   6 67.5762 3.44595  20
  -2  -4   6 64.7544 3.51216   1
   1   4  -6 1136.99 38.2212  10
   1   4  -6 1056.33 37.6234  12
   1   4  -6 1060.47 37.5180  20
   1   4  -6 1070.73 37.7845  31
  -1  -4   6 1087.91 37.9545  15
   0   4  -6 52.1030 2.67799  31
   0   4  -6 50.1524 2.92145  10
   0  -4   6 52.0842 4.57425   5
   0  -4   6 51.1016 2.98977  15
  -1   4  -6 808.192 28.8494  10
  -1   4  -6 797.103 28.0262  19
   1  -4   6 816.678 31.5511   5
  -2   4  -6 617.710 22.5682  19
  -2   4  -6 624.513 23.3784  31
  -2   4  -6 641.182 22.7601  26
  -2   4  -6 667.477 22.3371  28
  -2   4  -6 661.615 23.2739  10
   2  -4   6 621.373 22.1687  16
   2  -4   6 642.016 22.7185  28
   2  -4   6 650.825 26.9838   5
  -3   4  -6 22.5594 1.91198  12
  -3   4  -6 24.5187 1.75526  26
  -3   4  -6 25.1570 1.99561  10
  -3   4  -6 24.7460 2.26245  31
  -3   4  -6 23.0800 1.33786  28
  -3   4  -6 21.2613 1.64614  19
  -3   4  -6 23.5899 1.35772  30
  -3   4  -6 22.8280 1.75272   4
  -3   4  -6 24.7842 1.39782  21
   3  -4   6 27.4518 2.11251   8
   3  -4   6 25.4033 1.80932  28
   3  -4   6 24.6837 1.32953  16
   3  -4   6 26.2904 1.81090  21
  -4   4  -6 1317.01 45.9467  11
  -4   4  -6 1293.54 45.0923  27
  -4   4  -6 1281.93 45.7393  12
  -4   4  -6 1249.36 44.7877  28
  -4   4  -6 1311.72 46.4558  31
  -4   4  -6 1297.65 44.8888  30
  -4   4  -6 1267.02 45.4006  19
  -4   4  -6 1305.66 48.6535   2
  -4   4  -6 1342.66 45.6675   4
  -4   4  -6 1298.75 44.8310  21
   4  -4   6 1311.63 44.7323  16
   4  -4   6 1336.89 45.2673  28
   4  -4   6 1347.49 45.1356  21
  -5   4  -6 321.775 11.7193  30
  -5   4  -6 344.550 12.4503  12
  -5   4  -6 315.008 12.7975  31
  -5   4  -6 329.404 12.6654  11
  -5   4  -6 320.963 11.6340  21
  -5   4  -6 325.403 12.1303  19
  -5   4  -6 328.873 11.9457  27
  -5   4  -6 345.813 12.5611   4
   5  -4   6 319.543 11.9191  21
   5  -4   6 325.383 11.9650  30
   5  -4   6 327.094 11.5897  16
  -6   4  -6 232.266 8.33646  27
  -6   4  -6 226.461 8.85518   4
  -6   4  -6 227.286 8.19560  30
  -6   4  -6 218.013 8.82585  11
  -6   4  -6 239.786 9.03518  31
   6  -4   6 216.908 8.36174  30
   6  -4   6 214.431 8.40460   9
   5   3  -6 2.88470 1.03828  12
   5   3  -6 0.46739 0.68189   2
   5   3  -6 0.45486 0.48189  31
  -5  -3   6 0.35652 0.57876   3
  -5  -3   6 0.02222 0.57847  22
  -5  -3   6 -0.0519 0.67433  29
  -5  -3   6 1.32880 1.00129  12
  -5  -3   6 0.19605 0.75133  31
  -5  -3   6 0.68093 0.43300  25
  -5  -3   6 0.71785 0.38898  13
  -5  -3   6 -0.2437 0.87195  20
   4   3  -6 276.337 10.0834  20
   4   3  -6 265.401 10.2518  12
   4   3  -6 273.423 10.3996  31
   4   3  -6 260.665 11.8854   2
  -4  -3   6 262.424 9.85357  25
  -4  -3   6 273.300 10.6988  12
  -4  -3   6 261.067 10.4440  29
  -4  -3   6 260.181 10.3003  22
  -4  -3   6 271.755 9.78558  13
  -4  -3   6 282.099 10.5600  20
  -4  -3   6 262.552 10.8518  31
  -4  -3   6 288.243 10.4611  15
   3   3  -6 151.559 6.54889  12
   3   3  -6 168.758 8.34456   2
   3   3  -6 155.707 6.34430  20
   3   3  -6 162.304 6.71359  31
  -3  -3   6 153.336 6.67635  22
  -3  -3   6 164.699 6.79057  15
  -3  -3   6 164.967 6.18616  13
  -3  -3   6 161.397 7.02350  12
  -3  -3   6 157.045 6.77908  20
  -3  -3   6 168.881 7.34280  31
  -3  -3   6 162.860 6.26980  25
   2   3  -6 19.8403 1.13518  19
   2   3  -6 19.9938 1.52297  31
  -2  -3   6 19.1534 1.85763  15
  -2  -3   6 15.8920 2.95084   5
  -2  -3   6 15.5662 1.79157  31
   1   3  -6 1148.27 39.6203  10
  -1  -3   6 1112.51 43.0952   5
   0   3  -6 2425.38 85.2117  10
   0  -3   6 2519.71 88.0169   5
  -1   3  -6 1622.17 54.0339  26
  -1   3  -6 1559.61 54.5652  10
  -1   3  -6 1498.31 56.4579  14
   1  -3   6 1594.55 57.8446   5
  -2   3  -6 11.9798 1.15764  26
  -3   3  -6 846.572 31.0438  26
  -3   3  -6 911.192 30.8673  30
  -3   3  -6 875.491 30.7728  28
  -3   3  -6 860.295 31.2444  19
  -3   3  -6 911.590 31.5473  10
  -3   3  -6 847.418 31.9362  31
   3  -3   6 923.917 35.3018   5
   3  -3   6 942.795 31.1554  28
  -4   3  -6 223.672 8.52356   9
  -4   3  -6 237.990 9.45310   4
  -4   3  -6 227.732 8.64655  26
  -4   3  -6 245.748 9.66132  31
  -4   3  -6 233.190 8.55402  30
  -4   3  -6 221.258 8.38799  21
  -4   3  -6 231.018 8.83414  19
  -4   3  -6 234.502 8.75634  27
  -5   3  -6 94.0854 4.38685  11
  -5   3  -6 87.8243 4.35153  31
  -5   3  -6 85.6098 3.67007  30
  -5   3  -6 90.7455 4.45047   4
  -5   3  -6 85.4772 3.89321  27
  -5   3  -6 89.3079 3.86527  19
  -6   3  -6 80.6148 3.80992  31
  -6   3  -6 81.6878 3.67027  11
  -6   3  -6 75.7154 3.45654  27
  -6   3  -6 73.7069 3.82187   4
   6   2  -6 120.284 6.16989   2
   6   2  -6 123.734 5.09163  31
   6   2  -6 132.431 5.12970  12
  -6  -2   6 125.523 5.47109  31
  -6  -2   6 125.882 5.32242  12
  -6  -2   6 125.667 4.72296  25
  -6  -2   6 119.320 5.14593  18
  -6  -2   6 120.901 4.93960   3
  -6  -2   6 124.210 4.65497  13
  -6  -2   6 131.500 5.15947  29
   5   2  -6 532.286 22.2757   2
   5   2  -6 573.493 20.5360  12
   5   2  -6 581.402 20.4302  20
   5   2  -6 563.647 20.7950  31
  -5  -2   6 567.336 20.0367  13
  -5  -2   6 581.089 20.4580   3
  -5  -2   6 555.796 20.1064  25
  -5  -2   6 573.897 21.2171  31
  -5  -2   6 587.107 21.0126  12
  -5  -2   6 599.666 20.8994  20
  -5  -2   6 577.019 21.0041  29
   4   2  -6 836.047 31.0085  19
   4   2  -6 914.308 31.5747  12
   4   2  -6 869.015 33.5506   2
   4   2  -6 875.958 31.8380  31
   4   2  -6 874.178 31.4004  20
  -4  -2   6 960.782 32.0906  12
  -4  -2   6 929.432 30.9586  13
  -4  -2   6 882.461 31.4994   3
  -4  -2   6 866.642 32.1086  31
  -4  -2   6 911.250 31.8869  20
  -4  -2   6 885.963 31.5009  22
  -4  -2   6 901.282 31.1058  25
   3   2  -6 35.4392 2.43215  31
   3   2  -6 37.0053 1.90560  19
  -3  -2   6 32.8337 1.95632  25
  -3  -2   6 32.8695 2.41857  15
  -3  -2   6 35.9350 2.66874  31
  -2  -2   6 1368.24 52.3506   5
   1   2  -6 876.316 29.7151  10
  -1  -2   6 810.477 33.0307   5
   0   2  -6 194.850 6.97543  26
   0   2  -6 179.769 7.38322  10
   0  -2   6 187.834 9.47397   5
  -1   2  -6 0.96680 0.67902  10
  -1   2  -6 1.54874 1.00263  14
  -2   2  -6 15.8017 1.17078  26
  -2   2  -6 12.3971 1.31067  10
   2  -2   6 15.3306 2.66380   5
  -3   2  -6 267.496 11.1895  26
  -3   2  -6 337.076 11.8478  10
   3  -2   6 332.391 14.4803   5
  -4   2  -6 66.0936 2.97537  19
  -4   2  -6 63.7661 2.89613   9
  -4   2  -6 63.7599 2.78917  21
  -4   2  -6 68.7263 3.76154   4
  -4   2  -6 62.6711 2.88510  30
  -4   2  -6 66.1824 3.44825  11
  -4   2  -6 62.5720 3.12508  27
  -5   2  -6 3.92074 0.97598  11
  -5   2  -6 4.08766 1.07916  27
  -5   2  -6 2.55816 0.86314   4
   6   1  -6 335.840 12.1760  12
   6   1  -6 315.834 11.7893  19
   6   1  -6 323.814 12.0848  20
   6   1  -6 326.584 12.4172  31
  -6  -1   6 331.677 12.4229  18
  -6  -1   6 333.023 12.1852   3
  -6  -1   6 331.676 11.7939  25
  -6  -1   6 341.922 12.5167  12
  -6  -1   6 344.352 11.7186  13
  -6  -1   6 324.680 12.5482  31
  -6  -1   6 337.790 12.3964  20
  -6  -1   6 296.515 12.6452  29
   5   1  -6 275.421 10.3937  12
   5   1  -6 279.554 10.0256  19
   5   1  -6 273.230 10.6675  31
  -5  -1   6 274.020 10.8136  31
  -5  -1   6 274.401 10.1112  25
  -5  -1   6 251.072 10.3556  11
  -5  -1   6 277.095 9.98502  13
  -5  -1   6 265.604 10.5079   3
  -5  -1   6 295.656 10.7220  12
   4   1  -6 46.1153 2.12111  19
   4   1  -6 44.0258 2.57995  31
   4   1  -6 39.3836 4.29956   7
   4   1  -6 40.0886 2.36368  12
  -4  -1   6 43.7741 2.28580  25
  -4  -1   6 44.9488 4.10322   7
  -4  -1   6 36.9495 2.78343   3
  -4  -1   6 46.9072 2.75087  31
  -4  -1   6 46.9196 2.60068  12
  -4  -1   6 40.4826 2.27885  26
   3   1  -6 6.18073 1.90329   7
  -3  -1   6 5.48605 1.51933   7
  -3  -1   6 4.62450 1.94260   5
  -3  -1   6 4.89852 0.78679  26
  -2  -1   6 201.628 11.1279   5
  -1  -1   6 230.357 11.5014   5
   0   1  -6 103.229 5.61548  14
   0   1  -6 113.298 4.22299  26
   0  -1   6 119.497 6.61131   5
   0  -1   6 96.5273 6.36869  14
  -1   1  -6 646.482 24.7221  14
  -1   1  -6 666.597 23.0721  10
   1  -1   6 624.705 26.2021  14
   1  -1   6 649.684 25.7143   5
  -2   1  -6 2038.33 68.2649  10
   2  -1   6 1911.08 71.1608   5
  -3   1  -6 697.791 24.6935  28
  -3   1  -6 713.956 25.1518  10
  -4   1  -6 65.1716 3.51653   4
  -4   1  -6 57.1166 3.11831  27
  -4   1  -6 60.0288 2.80354  30
   7   0  -6 1.13575 0.51516  11
   7   0  -6 1.97793 0.68486  12
  -7   0   6 0.92483 0.53825  18
  -7   0   6 2.65686 0.84566  31
  -7   0   6 1.22713 0.61132  12
  -7   0   6 1.00858 0.46900  11
  -7   0   6 1.16247 0.40805  25
  -7   0   6 1.38408 0.69755   3
   6   0  -6 99.0369 4.22636  12
   6   0  -6 96.8913 4.17427  11
   6   0  -6 97.1836 3.89362  19
   6   0  -6 97.2692 4.39994  31
  -6   0   6 97.4087 4.54375   3
  -6   0   6 91.2275 4.08173  11
  -6   0   6 97.7608 4.51616  18
  -6   0   6 98.1025 4.34683  12
  -6   0   6 95.5605 4.00751  25
  -6   0   6 91.4503 3.89225  13
  -6   0   6 98.4940 4.49629  31
   5   0  -6 140.100 5.87236  31
   5   0  -6 144.807 5.68301  11
   5   0  -6 147.833 9.09853   7
   5   0  -6 140.161 5.35829  19
  -5   0   6 146.000 5.98179  31
  -5   0   6 140.588 5.60680  25
  -5   0   6 142.195 5.82859  12
  -5   0   6 128.713 5.91745   3
  -5   0   6 146.010 6.30683  18
  -5   0   6 130.101 5.43753  13
  -5   0   6 132.846 5.58370  11
   4   0  -6 38.2454 1.88913  19
   4   0  -6 49.0507 2.41584  31
   4   0  -6 39.0071 4.18368   7
  -4   0   6 38.7904 2.22362  26
  -4   0   6 46.4273 2.28286  25
  -4   0   6 35.5982 4.05578   5
   3   0  -6 161.403 8.77397   7
  -3   0   6 162.513 9.00192   5
  -2   0   6 738.829 28.8679   5
   1   0  -6 179.684 8.65857  14
   1   0  -6 170.952 6.94646  26
  -1   0   6 176.811 9.61408  14
  -1   0   6 197.877 9.28695   5
   0   0  -6 1777.13 62.5790  14
   0   0  -6 1735.94 60.0997  26
   0   0   6 1749.25 64.3818  14
  -1   0  -6 2769.91 93.1148  10
  -1   0  -6 2699.06 95.4077  14
   1   0   6 2658.80 97.4081  14
  -2   0  -6 138.724 5.74227  10
  -3   0  -6 177.464 6.80142  28
  -3   0  -6 188.557 7.33213  10
   7  -1  -6 84.2314 3.34245  19
   7  -1  -6 80.1851 3.71296  31
   7  -1  -6 80.3776 3.55103  11
  -7   1   6 86.3373 3.54784  11
  -7   1   6 81.3875 3.82819   3
  -7   1   6 79.3157 3.81102  18
  -7   1   6 89.0945 3.85837  31
   6  -1  -6 107.270 4.42706  19
   6  -1  -6 108.501 4.86345  31
   6  -1  -6 109.370 4.71849  11
  -6   1   6 121.987 4.61028  13
  -6   1   6 109.458 5.01896  18
  -6   1   6 125.861 5.07012  31
  -6   1   6 117.628 5.17523   3
  -6   1   6 111.024 4.68453  11
  -6   1   6 119.835 4.74303  25
   5  -1  -6 118.282 5.22672  23
   5  -1  -6 116.657 8.12076   7
   5  -1  -6 139.658 5.22690  11
   5  -1  -6 126.056 5.26041  31
   5  -1  -6 126.490 4.86005  19
  -5   1   6 121.125 5.11694  11
  -5   1   6 125.387 5.06899  13
  -5   1   6 137.927 5.52091   3
  -5   1   6 134.815 5.42337  31
  -5   1   6 121.649 5.15037  25
  -5   1   6 134.294 5.60795  18
   4  -1  -6 793.640 30.7244   7
   4  -1  -6 748.252 26.4308  19
  -4   1   6 751.554 29.7379   5
   3  -1  -6 211.851 10.5888   7
   2  -1  -6 50.7000 3.80859   7
   1  -1  -6 289.438 10.5932  26
  -1   1   6 284.343 13.6355  14
   0  -1  -6 14.1678 1.23181  10
   0  -1  -6 11.2770 0.93932  26
   0   1   6 9.18797 2.14592  14
  -1  -1  -6 620.485 22.1667  10
  -2  -1  -6 582.534 20.6314  28
  -2  -1  -6 607.162 21.1415  10
  -2  -1  -6 580.249 20.7390  15
  -3  -1  -6 126.677 5.38954  10
   7  -2  -6 36.1493 2.23637  31
   7  -2  -6 41.8106 1.82642  19
   7  -2  -6 36.5827 2.19407  23
   7  -2  -6 41.9598 2.04623  11
  -7   2   6 37.3431 2.27589  18
  -7   2   6 40.2075 1.99858  11
  -7   2   6 39.9937 2.29637  31
   6  -2  -6 3.81119 0.77378  23
   6  -2  -6 4.57014 0.58826  19
   6  -2  -6 4.28583 0.73903  11
  -6   2   6 3.00667 0.81897  18
  -6   2   6 4.15495 0.68409  11
  -6   2   6 5.38516 1.12119   3
   5  -2  -6 14.4132 1.26494   4
   5  -2  -6 17.0358 1.29619  23
   5  -2  -6 18.7049 1.29225  11
   5  -2  -6 17.3408 1.00741  19
   5  -2  -6 16.1992 2.69277   7
  -5   2   6 15.2905 1.26707  13
  -5   2   6 19.1918 1.23896  11
  -5   2   6 14.7593 1.50149  18
  -5   2   6 15.5841 1.33286  25
  -5   2   6 15.3223 1.62289   3
   4  -2  -6 398.457 17.6552   7
   3  -2  -6 927.246 35.1597   7
   2  -2  -6 26.2537 1.61982  26
   2  -2  -6 26.1580 2.52744   7
  -2   2   6 21.3690 3.07586  14
   1  -2  -6 528.912 18.4656  26
   1  -2  -6 528.497 20.4945   7
   1  -2  -6 563.316 18.6183  10
  -1   2   6 460.546 21.8978  14
   0  -2  -6 599.422 21.8046  26
   0  -2  -6 644.439 22.2008  10
  -1  -2  -6 121.308 5.10043  10
  -1  -2  -6 116.135 4.78503  15
  -1  -2  -6 121.173 4.71248  28
  -2  -2  -6 12.7945 1.20051  15
  -2  -2  -6 11.6832 1.11917  22
  -2  -2  -6 11.7723 1.20807  10
  -2  -2  -6 11.8958 1.00758  28
  -2  -2  -6 10.0129 0.94819  21
  -3  -2  -6 371.427 13.3229   1
  -3  -2  -6 371.339 13.3513  15
   7  -3  -6 5.37441 0.71876  11
   7  -3  -6 4.35384 0.68885  23
   7  -3  -6 4.81015 0.73987   4
   7  -3  -6 3.82260 0.53052  19
  -7   3   6 3.02031 0.74059  18
  -7   3   6 4.86323 0.67716  11
   6  -3  -6 463.838 16.1940   4
   6  -3  -6 456.559 16.1636  23
   6  -3  -6 429.669 15.9263  11
  -6   3   6 441.799 16.4091  18
  -6   3   6 436.741 16.3597   3
  -6   3   6 451.575 16.0293  11
   5  -3  -6 811.298 28.9805   4
   5  -3  -6 826.774 28.9785  23
   5  -3  -6 870.717 32.7780   7
  -5   3   6 823.905 29.3190  18
  -5   3   6 791.106 29.2591   3
   4  -3  -6 420.123 17.7044   7
   4  -3  -6 416.250 14.7872   4
  -4   3   6 373.100 14.6404  25
  -4   3   6 413.170 15.5558  17
   3  -3  -6 243.998 11.3872   7
  -3   3   6 246.157 9.77508  17
   2  -3  -6 11.0305 1.04411  26
   2  -3  -6 11.8383 1.88529   7
   1  -3  -6 4.62824 0.76592  26
   1  -3  -6 5.41606 0.83148  10
   1  -3  -6 4.75539 1.36235   7
   0  -3  -6 21.4223 1.50174  15
   0  -3  -6 20.3548 1.44168  26
   0  -3  -6 22.2484 1.64563  10
   0  -3  -6 19.2212 2.67213   7
   0  -3  -6 23.0050 1.32893  28
   0  -3  -6 22.3203 1.48949  30
   0   3   6 19.9315 1.77173  17
  -1  -3  -6 241.794 9.04827   1
  -1  -3  -6 240.055 8.93314  21
  -1  -3  -6 240.200 8.90597  28
  -1  -3  -6 239.613 8.97588  22
  -1  -3  -6 240.214 9.02189  26
  -1  -3  -6 256.723 8.72373  25
  -1  -3  -6 245.671 9.40294  10
  -1  -3  -6 235.886 9.00651  15
  -2  -3  -6 18.5160 1.13985  25
  -2  -3  -6 17.3808 1.29334  28
  -2  -3  -6 20.3013 1.38811  22
  -2  -3  -6 16.6668 1.54945  10
  -2  -3  -6 22.8886 1.52746  15
  -2  -3  -6 21.8780 1.50230   1
   2   3   6 18.2238 2.20228  10
  -3  -3  -6 111.742 4.52020   1
  -3  -3  -6 114.455 4.46344  22
  -3  -3  -6 113.930 4.55251  15
   7  -4  -6 215.068 7.96514  23
   7  -4  -6 215.272 8.00627   4
  -7   4   6 215.123 8.23468   3
  -7   4   6 195.720 8.10126  18
   6  -4  -6 27.4758 1.79467   4
   6  -4  -6 29.7610 1.81540  23
  -6   4   6 31.4856 2.05300  18
  -6   4   6 31.3035 2.15103   3
   5  -4  -6 2.62024 0.71778  23
   5  -4  -6 3.90263 1.55145   7
   5  -4  -6 3.19085 0.69198  27
  -5   4   6 3.90215 0.88527  18
  -5   4   6 3.02002 0.92260   3
   4  -4  -6 366.326 13.5334  27
   4  -4  -6 385.944 16.7161   7
   4  -4  -6 379.151 13.4973   9
   4  -4  -6 361.202 13.8380   4
   4  -4  -6 398.489 13.5003  30
  -4   4   6 372.362 14.0462   3
  -4   4   6 367.834 14.5978  17
  -4   4   6 385.778 14.1057  18
   3  -4  -6 78.1686 3.15882  30
   3  -4  -6 69.9832 2.96911  25
   3  -4  -6 71.5630 5.15833   7
  -3   4   6 71.9422 3.31212  25
  -3   4   6 74.3619 4.00023  17
   2  -4  -6 48.0201 2.33960  30
   2  -4  -6 49.7968 4.22515   7
   2  -4  -6 50.9801 2.17250  25
  -2   4   6 50.4673 3.06054  17
  -2   4   6 49.6871 2.39939  25
   1  -4  -6 44.9837 2.29837  30
   1  -4  -6 47.8348 2.01604  25
   1  -4  -6 47.0570 2.45798  26
   1  -4  -6 47.8929 2.16478  28
   1  -4  -6 48.5953 2.19526  21
   1  -4  -6 41.3052 2.28018  15
   1  -4  -6 45.7801 2.54575  10
   1  -4  -6 43.6446 4.14807   7
   1  -4  -6 45.0996 2.41388   3
  -1   4   6 45.6281 2.79233  17
  -1   4   6 42.7875 3.06990  10
  -1   4   6 45.1541 2.16888  25
  -1   4   6 45.5303 2.49810   3
   0  -4  -6 3.87360 0.72197  22
   0  -4  -6 3.93027 0.68632  21
   0  -4  -6 6.03262 1.02711   3
   0  -4  -6 3.77967 0.55735  25
   0  -4  -6 4.99582 1.69929   7
   0  -4  -6 4.47822 0.93368  10
   0  -4  -6 4.63476 0.79333   9
   0  -4  -6 4.97277 0.72283  28
   0  -4  -6 2.39255 0.61310  30
   0  -4  -6 5.35158 0.93012   1
   0  -4  -6 4.36423 0.77895  15
   0   4   6 4.81356 1.26837  10
   0   4   6 6.67440 1.03769   3
   0   4   6 4.72004 1.03811  17
  -1  -4  -6 732.213 25.8246  22
  -1  -4  -6 731.388 25.9145   3
  -1  -4  -6 719.478 25.7913  21
  -1  -4  -6 751.382 25.9327  15
  -1  -4  -6 746.451 25.5665  25
  -1  -4  -6 732.907 26.3026  10
  -1  -4  -6 730.300 25.9206   1
  -1  -4  -6 736.881 25.7985  28
   1   4   6 749.540 26.0056   3
   1   4   6 721.314 27.2611  10
   1   4   6 777.970 26.4798  17
  -2  -4  -6 317.805 10.7096  25
  -2  -4  -6 302.195 10.9340  22
  -2  -4  -6 291.263 10.9073  28
  -2  -4  -6 312.402 11.0421  15
  -2  -4  -6 292.430 10.9680   1
  -3  -4  -6 54.9460 2.38871   1
  -3  -4  -6 55.3889 2.14664  25
  -3  -4  -6 54.6564 2.34572  22
   7  -5  -6 13.1322 1.08726   4
   7  -5  -6 12.9915 1.05560  23
  -7   5   6 12.6418 1.43517   3
  -7   5   6 14.5630 1.25506  18
   6  -5  -6 87.2808 3.67659  27
   6  -5  -6 86.2290 3.86416  23
   6  -5  -6 87.2414 3.91253   4
  -6   5   6 92.6586 4.28195   3
  -6   5   6 90.6740 4.16192  18
   5  -5  -6 20.1854 1.56298   4
   5  -5  -6 20.4329 1.34027   9
   5  -5  -6 24.3233 1.35362  30
   5  -5  -6 22.7209 1.51672  27
  -5   5   6 22.4670 1.94581   3
  -5   5   6 23.2041 2.36527  17
  -5   5   6 22.9916 1.79649  18
   4  -5  -6 457.737 16.5007   9
   4  -5  -6 475.804 16.5525  30
   4  -5  -6 447.344 16.6443  27
   4  -5  -6 482.875 19.9248   7
  -4   5   6 463.777 17.8744  17
  -4   5   6 471.041 17.2663   3
  -4   5   6 473.572 17.2043  18
   3  -5  -6 440.034 16.1066  27
   3  -5  -6 471.705 19.3790   7
   3  -5  -6 454.195 16.0113  30
   3  -5  -6 429.354 15.8187  25
   3  -5  -6 451.716 15.9741   9
   3  -5  -6 484.096 15.9544  21
  -3   5   6 432.208 16.5687  18
  -3   5   6 464.853 17.2129  17
  -3   5   6 437.335 16.1724  25
  -3   5   6 437.386 16.5315   3
   2  -5  -6 106.789 4.47242  27
   2  -5  -6 101.624 4.15965   9
   2  -5  -6 104.673 4.08303  21
   2  -5  -6 98.8653 3.94185  25
   2  -5  -6 96.3324 4.38668   3
   2  -5  -6 102.931 4.22255  30
   2  -5  -6 99.5422 6.67962   7
   2  -5  -6 101.432 4.05005  28
  -2   5   6 97.8093 4.18623  25
  -2   5   6 104.016 5.08345  17
  -2   5   6 96.6830 4.07968  13
  -2   5   6 100.721 4.59718   3
   1  -5  -6 65.2449 3.11355  22
   1  -5  -6 71.8206 3.55289  10
   1  -5  -6 76.6370 3.15772  28
   1  -5  -6 74.9780 3.49018   3
   1  -5  -6 73.9709 3.30500   9
   1  -5  -6 71.8780 3.25662  30
   1  -5  -6 74.9067 3.15688  21
   1  -5  -6 71.1153 2.95959  25
  -1   5   6 77.5891 3.96861  17
  -1   5   6 76.5445 3.53411   3
  -1   5   6 70.4483 4.25261  10
  -1   5   6 72.5325 3.15601  25
   0  -5  -6 412.988 14.7384  28
   0  -5  -6 403.571 14.7079  22
   0  -5  -6 411.040 14.8294  15
   0  -5  -6 408.715 14.7706  21
   0  -5  -6 407.729 14.8183   1
   0  -5  -6 402.326 14.5105  25
   0  -5  -6 407.197 14.9124   3
   0  -5  -6 427.526 15.3066  10
   0   5   6 427.251 14.7274  25
   0   5   6 402.129 16.1948  10
   0   5   6 430.168 15.5874  17
   0   5   6 430.030 15.0884   3
  -1  -5  -6 76.0287 2.95346  25
  -1  -5  -6 79.3705 3.36584   3
  -1  -5  -6 79.5414 3.23892  28
  -1  -5  -6 77.7368 3.17622  22
  -1  -5  -6 72.8274 3.22279   1
  -1  -5  -6 79.4566 3.32072  15
   1   5   6 72.3945 3.38074   3
   1   5   6 70.8016 3.71891  17
   1   5   6 73.9135 3.13829  25
  -2  -5  -6 51.2419 2.23194  22
  -2  -5  -6 53.1415 2.29500   1
  -2  -5  -6 50.1103 2.05961  25
   2   5   6 50.9871 2.48058   3
   2   5   6 53.4054 2.21612  25
  -7   6   6 3.30836 0.71959  18
   6  -6  -6 13.5140 1.18641   4
   6  -6  -6 13.6632 1.05403  27
   6  -6  -6 12.9734 0.92607  30
  -6   6   6 12.4314 1.29941  18
   5  -6  -6 350.192 12.7150  30
   5  -6  -6 337.897 12.6673   9
   5  -6  -6 344.418 12.7966  27
  -5   6   6 363.531 14.1885  17
  -5   6   6 380.499 13.5756   3
  -5   6   6 370.423 13.4587  18
   4  -6  -6 170.304 6.61458  30
   4  -6  -6 169.537 6.73158  27
   4  -6  -6 173.990 6.59841   9
  -4   6   6 185.733 7.96885  17
  -4   6   6 177.699 7.32340   3
  -4   6   6 181.886 7.25318  18
   3  -6  -6 93.3057 3.97129  27
   3  -6  -6 90.6062 3.75267   9
   3  -6  -6 91.2066 3.79994  30
   3  -6  -6 93.3761 3.68874  21
  -3   6   6 93.1905 4.82752  17
  -3   6   6 91.6082 4.25339  18
  -3   6   6 86.2731 4.23342   3
   2  -6  -6 423.940 14.9001  28
   2  -6  -6 405.341 15.2981   3
   2  -6  -6 426.772 14.7858  25
   2  -6  -6 416.804 14.9612   9
   2  -6  -6 429.775 14.9166  21
   2  -6  -6 426.306 15.0193  30
  -2   6   6 416.550 15.0170  25
  -2   6   6 423.074 15.4161   3
  -2   6   6 401.978 14.8897  13
  -2   6   6 438.712 16.0066  17
   1  -6  -6 217.418 7.91548  25
   1  -6  -6 215.318 8.05649  28
   1  -6  -6 220.315 8.10462  21
   1  -6  -6 216.895 8.34244   3
  -1   6   6 216.071 8.11177  25
  -1   6   6 223.928 8.50010   3
  -1   6   6 221.454 8.02548  13
  -1   6   6 232.280 9.00096  17
   0  -6  -6 3.45582 0.66325   1
   0  -6  -6 3.78350 0.62783  15
   0  -6  -6 5.38454 0.57774  25
   0  -6  -6 5.02763 0.66866  28
   0  -6  -6 4.89357 0.65523  21
   0  -6  -6 5.75626 0.96861   3
   0  -6  -6 5.49612 0.77422  22
   0   6   6 2.73138 0.80865  17
   0   6   6 3.05003 0.69955   3
   0   6   6 4.20643 0.62471  25
   6  -7  -6 203.521 7.54914  27
   6  -7  -6 201.542 7.44404   9
  -6   7   6 221.638 8.05913  18
   5  -7  -6 4.64279 0.66578   9
   5  -7  -6 3.11464 0.63217  27
   5  -7  -6 3.27805 0.49246  30
  -5   7   6 5.62521 1.00273   3
   4  -7  -6 244.299 8.99940  21
   4  -7  -6 245.305 9.11491  30
   4  -7  -6 266.338 9.09938   9
   4  -7  -6 250.151 9.21226  27
  -4   7   6 260.795 9.62321   3
  -4   7   6 254.723 10.1078  17
  -4   7   6 247.913 9.60610  18
   3  -7  -6 315.567 11.6116  30
   3  -7  -6 323.847 11.5436  21
   3  -7  -6 336.332 11.6109   9
  -3   7   6 320.553 12.0364  18
  -3   7   6 326.963 12.4296  17
  -3   7   6 336.205 12.0483   3
   2  -7  -6 57.2696 2.37732  21
   2  -7  -6 55.3185 2.75440   3
  -2   7   6 57.1319 2.71884   3
   1  -7  -6 5.52569 0.96382   3
  -1   7   6 5.64734 0.79998   3
   0   7  -7 100.077 3.94931  12
   0  -7   7 88.9839 3.80198   8
   0  -7   7 97.0378 4.02179   1
  -1   7  -7 35.9460 1.89458  20
  -1   7  -7 37.4237 2.01209  12
   1  -7   7 37.8552 2.00593   8
  -2   7  -7 16.9558 1.34418  20
  -2   7  -7 20.2659 1.41762  12
   2  -7   7 17.2139 1.36393   8
   2  -7   7 14.1371 1.33392  28
  -3   7  -7 114.908 5.90117   2
  -3   7  -7 115.675 4.83742  12
   3  -7   7 114.819 4.68176  28
   3  -7   7 113.941 4.66784   8
   3  -7   7 111.768 4.50216  21
  -4   7  -7 294.122 10.1922  21
  -4   7  -7 289.628 10.9695  31
  -4   7  -7 297.191 10.8524  12
   4  -7   7 287.249 10.5755  28
   4  -7   7 296.912 10.4630  21
   4  -7   7 280.368 10.1972  16
  -5   7  -7 122.513 4.35268  21
  -5   7  -7 119.973 4.84764  12
   5  -7   7 123.354 4.57164  21
   5  -7   7 116.693 4.48634   9
   2   6  -7 175.325 6.33196  12
  -2  -6   7 161.290 6.42041  22
  -2  -6   7 164.353 6.38764   1
   1   6  -7 128.122 5.10983  12
   1   6  -7 124.534 5.00398  20
  -1  -6   7 126.948 5.42280  15
  -1  -6   7 128.049 5.29140   1
   0   6  -7 5.54014 0.85839  12
   0   6  -7 5.15876 0.85787  20
   0  -6   7 5.44260 1.09126   1
   0  -6   7 6.61924 0.89227   8
  -1   6  -7 18.2199 1.45299  12
  -1   6  -7 18.0212 1.53596  31
  -1   6  -7 18.6706 2.38969   2
   1  -6   7 15.0390 1.46917  28
   1  -6   7 16.6509 1.81403   1
   1  -6   7 17.8586 1.48784   8
  -2   6  -7 69.7900 4.84238   2
  -2   6  -7 74.8043 3.77469  31
  -2   6  -7 72.7427 3.77490  10
  -2   6  -7 71.7972 3.54869  12
   2  -6   7 76.9413 3.55388   8
   2  -6   7 76.2423 3.47665  28
  -3   6  -7 535.814 20.0036  12
  -3   6  -7 545.619 20.0698  10
  -3   6  -7 560.881 19.1911  21
  -3   6  -7 538.063 21.8318   2
  -3   6  -7 540.824 20.2741  31
   3  -6   7 552.985 19.5149  21
   3  -6   7 550.283 19.7500   8
   3  -6   7 557.366 19.7481  28
   3  -6   7 580.705 19.1903  16
  -4   6  -7 770.368 27.8576  31
  -4   6  -7 763.669 29.5529   2
  -4   6  -7 757.096 26.6396  21
  -4   6  -7 787.515 26.6712  30
  -4   6  -7 764.483 27.4989  12
   4  -6   7 775.501 26.9583  21
   4  -6   7 775.943 26.8272  30
   4  -6   7 760.879 27.1064  28
   4  -6   7 790.139 26.6284  16
   4  -6   7 771.851 26.8773   9
  -5   6  -7 42.7546 1.91518  27
  -5   6  -7 40.3635 1.98862  19
  -5   6  -7 41.3015 2.34977  12
  -5   6  -7 41.5727 1.80469  30
  -5   6  -7 40.1950 2.56036  31
  -5   6  -7 41.7374 1.77263  21
   5  -6   7 41.3770 1.98589  30
   5  -6   7 45.1990 2.06031   9
   5  -6   7 41.9459 2.04805  21
   5  -6   7 41.2934 2.05860  27
   5  -6   7 41.7456 1.80001  16
  -6   6  -7 49.3534 2.33124  11
  -6   6  -7 56.0655 2.18085  27
   6  -6   7 51.7749 2.25289  27
   6  -6   7 53.7257 2.24480   9
   3   5  -7 90.2383 3.73264  20
   3   5  -7 92.9742 3.76610  12
  -3  -5   7 91.4492 4.08770  15
  -3  -5   7 90.6438 3.90424   1
  -3  -5   7 94.3696 4.00487  22
   2   5  -7 122.072 5.10107  12
   2   5  -7 124.354 6.87506   2
   2   5  -7 124.903 5.08995  20
   2   5  -7 131.079 5.23646  31
  -2  -5   7 135.292 5.55147  22
  -2  -5   7 129.256 5.47508  15
  -2  -5   7 128.766 5.41664   1
   1   5  -7 491.190 19.8917   2
   1   5  -7 484.137 17.4667  31
   1   5  -7 466.029 17.3126  12
   1   5  -7 480.976 17.4643  20
  -1  -5   7 478.803 17.6179   1
  -1  -5   7 505.912 17.8088  15
   0   5  -7 51.5444 2.92603  10
   0   5  -7 51.7172 4.28814   2
   0   5  -7 46.9545 2.56332  31
   0   5  -7 47.1367 2.50313  12
   0  -5   7 45.2442 2.95174  15
   0  -5   7 45.6689 2.86177   1
   0  -5   7 46.4721 2.59010   8
  -1   5  -7 8.65658 1.08997  12
  -1   5  -7 11.0178 1.28063  31
  -1   5  -7 12.2767 2.19695   2
  -1   5  -7 8.99201 1.26753  10
   1  -5   7 10.2467 1.66788   1
   1  -5   7 10.5275 1.33453   8
   1  -5   7 11.5908 1.32125  28
  -2   5  -7 97.1295 4.60355  10
  -2   5  -7 88.6207 3.88438  19
  -2   5  -7 93.3190 6.02980   2
  -2   5  -7 94.4280 3.69712  21
  -2   5  -7 89.9189 4.29437  12
  -2   5  -7 93.5962 4.59702  31
   2  -5   7 99.9100 4.36913   8
   2  -5   7 91.4279 3.63471  16
   2  -5   7 98.9108 4.23077  28
   2  -5   7 92.1993 3.96073  21
  -3   5  -7 205.414 7.79679  19
  -3   5  -7 194.808 7.42781  30
  -3   5  -7 204.114 8.30549  12
  -3   5  -7 203.260 7.42394  21
  -3   5  -7 200.411 10.3753   2
  -3   5  -7 197.714 8.32134  10
  -3   5  -7 204.581 8.67099  31
   3  -5   7 202.580 7.61904  30
   3  -5   7 196.944 7.72340   9
   3  -5   7 206.393 7.72405  21
   3  -5   7 214.500 7.96384  28
   3  -5   7 202.557 7.99293   8
   3  -5   7 203.630 7.35163  16
  -4   5  -7 197.001 7.27750  27
  -4   5  -7 194.227 8.48429  31
  -4   5  -7 193.834 7.11513  21
  -4   5  -7 195.432 10.1233   2
  -4   5  -7 196.846 7.89855  11
  -4   5  -7 191.265 7.97315  12
  -4   5  -7 200.262 7.16029  30
  -4   5  -7 191.872 7.53982  19
   4  -5   7 197.660 7.48390   9
   4  -5   7 190.717 7.05193  16
   4  -5   7 191.744 7.54561  28
   4  -5   7 195.668 7.34261  30
   4  -5   7 197.095 7.41298  21
  -5   5  -7 316.731 12.0068  12
  -5   5  -7 303.499 11.9795  11
  -5   5  -7 314.527 11.7068  19
  -5   5  -7 321.092 11.3571  30
  -5   5  -7 324.958 11.4775  27
  -5   5  -7 327.873 12.5250  31
  -5   5  -7 323.802 11.2984  21
  -5   5  -7 301.944 11.8215   4
   5  -5   7 316.609 11.6205   9
   5  -5   7 323.797 11.2695  16
   5  -5   7 330.034 11.5846  21
   5  -5   7 335.353 11.5807  30
  -6   5  -7 127.132 5.41570  11
  -6   5  -7 134.544 5.68761  31
  -6   5  -7 137.940 5.08101  27
  -6   5  -7 127.784 5.30298   4
  -6   5  -7 134.533 4.98886  30
   6  -5   7 141.640 5.19532   9
   6  -5   7 139.662 5.26904  27
   6  -5   7 139.672 5.17304  30
   4   4  -7 0.67069 0.64580  12
   4   4  -7 1.72680 0.52331  31
   4   4  -7 1.35601 0.75702   2
   4   4  -7 -1.1918 1.11699  20
  -4  -4   7 1.09787 0.74529  22
  -4  -4   7 1.68569 0.61016  20
  -4  -4   7 0.91269 0.78538  15
  -4  -4   7 1.89892 0.51320  25
  -4  -4   7 1.81415 0.46302  13
   3   4  -7 10.9727 1.28128  12
   3   4  -7 11.2835 1.97996  20
   3   4  -7 11.4598 1.99789   2
   3   4  -7 13.1248 1.13254  31
  -3  -4   7 8.50717 1.26112  20
  -3  -4   7 9.61231 1.33780   1
  -3  -4   7 9.70748 1.61084  15
  -3  -4   7 9.48883 1.40679  22
   2   4  -7 176.525 6.85480  31
   2   4  -7 174.801 8.60098   2
   2   4  -7 168.385 6.68587  12
  -2  -4   7 171.788 7.10729  15
  -2  -4   7 164.420 6.98620  22
  -2  -4   7 167.123 6.96463   1
   1   4  -7 13.1154 1.40229  10
   1   4  -7 12.3384 1.10965  12
   1   4  -7 12.5758 1.20750  31
   1   4  -7 13.1151 2.46849   2
  -1  -4   7 12.2705 1.66631  22
  -1  -4   7 10.7976 1.61599   1
  -1  -4   7 13.3653 1.73417  15
   0   4  -7 949.560 32.5125  10
   0   4  -7 935.510 31.6072  19
   0   4  -7 896.863 32.1349  31
   0   4  -7 908.496 32.0184  12
   0  -4   7 938.575 32.1357   8
   0  -4   7 857.401 32.1414  15
  -1   4  -7 9.11753 1.24553  10
  -1   4  -7 9.40019 1.18350  31
  -1   4  -7 9.87121 0.83050  28
  -1   4  -7 8.41669 0.81531  19
   1  -4   7 9.61332 1.26458  28
   1  -4   7 10.0825 1.35658   8
   1  -4   7 9.05923 2.35637   5
  -2   4  -7 173.338 7.34481  10
  -2   4  -7 183.054 9.27171   2
  -2   4  -7 174.948 6.50532  21
  -2   4  -7 163.155 7.08594  12
  -2   4  -7 178.878 6.76114  19
  -2   4  -7 178.079 6.51218  28
  -2   4  -7 162.241 7.37633  31
  -2   4  -7 167.359 6.75435  26
   2  -4   7 176.901 7.10305   8
   2  -4   7 181.734 6.83704  21
   2  -4   7 177.446 6.38782  16
   2  -4   7 177.934 6.93804  28
  -3   4  -7 342.821 12.6849  19
  -3   4  -7 338.969 15.4065   2
  -3   4  -7 329.045 12.3637  27
  -3   4  -7 346.564 13.1350  11
  -3   4  -7 335.184 12.6721  26
  -3   4  -7 335.271 13.4601  31
  -3   4  -7 317.250 12.9003  12
  -3   4  -7 348.294 12.2166  30
  -3   4  -7 339.937 13.0563  10
  -3   4  -7 335.101 12.1533  21
  -3   4  -7 341.308 12.1990  28
   3  -4   7 356.229 12.1102  16
   3  -4   7 351.971 12.7588   8
   3  -4   7 354.154 12.5071  21
   3  -4   7 361.769 12.6571  28
  -4   4  -7 453.401 16.7716  31
  -4   4  -7 427.408 15.3068  21
  -4   4  -7 432.620 15.8645  19
  -4   4  -7 417.465 16.0206   4
  -4   4  -7 425.219 15.5386  27
  -4   4  -7 406.589 16.2854  11
  -4   4  -7 433.778 15.3727  30
  -4   4  -7 413.838 15.2836  28
   4  -4   7 449.656 15.2570  16
   4  -4   7 470.236 15.8059  28
   4  -4   7 459.804 15.6415  21
  -5   4  -7 130.599 4.98095  21
  -5   4  -7 131.376 5.05108  30
  -5   4  -7 134.269 5.41220  19
  -5   4  -7 126.395 5.79929  11
  -5   4  -7 126.550 5.65724   4
  -5   4  -7 129.769 5.22986  27
  -5   4  -7 141.188 6.00449  31
   5  -4   7 135.030 5.28571  30
   5  -4   7 135.417 5.26122  21
   5  -4   7 133.689 4.94546  16
  -6   4  -7 127.997 4.82095  30
  -6   4  -7 132.862 5.38850  11
  -6   4  -7 138.704 5.51955  31
  -6   4  -7 131.639 5.37280   4
  -6   4  -7 132.135 4.94284  27
   6  -4   7 116.686 4.93171  30
   6  -4   7 120.320 4.99023   9
   5   3  -7 7.19691 0.84625  31
   5   3  -7 4.31870 1.14570   2
   5   3  -7 6.03420 1.08650  12
  -5  -3   7 7.07663 0.77324  25
  -5  -3   7 4.97230 1.09933  12
  -5  -3   7 6.87929 0.71681  13
  -5  -3   7 5.72053 0.95201  22
   4   3  -7 5.40421 0.98461  31
   4   3  -7 7.33481 2.04835   2
   4   3  -7 9.06026 1.67711  12
  -4  -3   7 5.04699 1.07436  15
  -4  -3   7 4.13251 1.00931  22
  -4  -3   7 5.19794 0.78828  13
  -4  -3   7 3.05873 1.11215  12
  -4  -3   7 5.71171 0.84923  25
  -4  -3   7 5.60417 1.32682  31
   3   3  -7 300.499 11.3909  19
   3   3  -7 323.227 11.9249  12
   3   3  -7 315.468 12.0146  31
   3   3  -7 326.081 13.8857   2
  -3  -3   7 319.371 12.1490  15
  -3  -3   7 314.603 12.1330  22
  -3  -3   7 324.332 11.5756  13
  -3  -3   7 314.360 11.6568  25
  -3  -3   7 338.545 12.3961  12
  -3  -3   7 327.305 12.6391  31
   2   3  -7 324.259 12.6472  12
   2   3  -7 381.779 14.9404   2
   2   3  -7 340.474 12.3155  19
   2   3  -7 340.283 12.8776  31
  -2  -3   7 348.859 13.0769  15
  -2  -3   7 350.718 13.1302  22
   1   3  -7 650.477 22.7011  19
   1   3  -7 679.591 23.5083  10
   1   3  -7 673.846 23.3069  31
  -1  -3   7 656.509 23.4433  15
  -1  -3   7 611.701 26.7693   5
   0   3  -7 153.202 6.57258  10
   0  -3   7 162.953 8.88537   5
  -1   3  -7 131.353 5.76920  10
  -1   3  -7 137.435 5.23624  26
  -1   3  -7 135.582 5.15395  19
   1  -3   7 127.873 7.99036   5
  -2   3  -7 28.3363 1.74857  19
  -2   3  -7 31.3760 1.57343  28
  -2   3  -7 29.1455 1.82810  26
  -2   3  -7 32.6529 2.20206  10
   2  -3   7 29.6619 1.92073  28
   2  -3   7 32.9260 4.22387   5
  -3   3  -7 22.6534 1.33304  28
  -3   3  -7 25.2126 1.43803  30
  -3   3  -7 25.3338 1.75055  19
  -3   3  -7 29.6707 3.19128   2
  -3   3  -7 21.5665 1.86080   4
  -3   3  -7 27.0934 1.78596  26
  -3   3  -7 23.5775 1.36125  21
  -3   3  -7 23.4005 1.93185  10
   3  -3   7 26.5678 1.81398  28
  -4   3  -7 90.9213 4.37515   4
  -4   3  -7 86.5616 3.83167  19
  -4   3  -7 87.2498 4.39842  11
  -4   3  -7 87.7343 3.56108  30
  -4   3  -7 86.5938 3.54951   9
  -4   3  -7 82.9004 3.41210  28
  -4   3  -7 84.4650 3.73626  27
  -4   3  -7 84.8678 3.42449  21
  -4   3  -7 81.2649 4.35134  31
   4  -3   7 79.8569 3.78436  28
  -5   3  -7 24.5791 1.93039  11
  -5   3  -7 25.5240 1.37875  21
  -5   3  -7 23.6762 1.95480   4
  -5   3  -7 23.5286 1.63005  27
  -5   3  -7 27.1475 2.00277  31
  -5   3  -7 24.0151 1.42061  30
   5  -3   7 25.2852 1.35583  16
   5  -3   7 25.1841 1.70507  21
  -6   3  -7 50.4802 2.44445  11
  -6   3  -7 46.4131 2.27477  27
  -6   3  -7 43.2708 2.53390   4
   6   2  -7 60.3264 3.76080   2
   6   2  -7 64.6782 2.88780  12
  -6  -2   7 59.1697 2.51870  25
  -6  -2   7 58.9830 2.68300   3
  -6  -2   7 58.6921 2.43892  13
  -6  -2   7 62.7049 3.05236  12
   5   2  -7 2.04207 0.54618  19
   5   2  -7 2.32797 1.28285   2
   5   2  -7 3.43595 1.03765  31
  -5  -2   7 0.83074 0.50099  13
  -5  -2   7 1.48874 1.04856  31
  -5  -2   7 1.60343 0.75574  22
  -5  -2   7 1.06439 0.52621  25
  -5  -2   7 1.51709 0.72408   3
  -5  -2   7 0.35338 0.95277  12
   4   2  -7 436.865 15.6040  19
   4   2  -7 441.814 16.2870  31
   4   2  -7 419.481 17.9109   2
   4   2  -7 446.014 16.0482  12
  -4  -2   7 445.598 16.4455  12
  -4  -2   7 426.756 16.0729  22
  -4  -2   7 440.803 15.6591  25
  -4  -2   7 443.996 15.5377  13
  -4  -2   7 435.568 16.7263  31
   3   2  -7 106.253 4.73182  12
   3   2  -7 113.697 4.34828  19
   3   2  -7 111.080 6.38522   2
   3   2  -7 106.170 4.85539  31
  -3  -2   7 103.780 4.41458  25
  -3  -2   7 103.631 5.27114  31
  -3  -2   7 101.220 5.02110  12
  -3  -2   7 101.755 4.83629  22
  -3  -2   7 106.980 4.87649  15
   2   2  -7 38.3650 1.79645  19
  -2  -2   7 32.1847 4.38231   5
  -2  -2   7 36.4997 2.51548  15
   1   2  -7 789.199 27.3743  10
  -1  -2   7 756.477 30.8446   5
   0   2  -7 15.0515 1.11507  26
   0   2  -7 14.6727 1.36921  10
   0  -2   7 16.4912 2.49234   5
  -1   2  -7 12.8606 0.99637  26
  -1   2  -7 14.6545 1.40517  10
   1  -2   7 13.8236 2.71647   5
  -2   2  -7 1.88282 0.58831  26
  -2   2  -7 2.17884 0.73245  10
   2  -2   7 1.42398 1.39547   5
  -3   2  -7 123.128 5.51942  26
  -3   2  -7 147.315 6.05274  10
  -3   2  -7 140.104 5.36353  28
  -3   2  -7 150.157 6.37744   4
  -3   2  -7 149.195 5.73471  19
  -3   2  -7 142.417 5.47770  30
   3  -2   7 143.437 8.91310   5
  -4   2  -7 312.995 11.1046  30
  -4   2  -7 299.471 11.1535  19
  -4   2  -7 299.022 11.2915  27
  -4   2  -7 303.672 10.9775  21
  -4   2  -7 303.960 11.0650   9
  -4   2  -7 309.038 12.1260   4
  -4   2  -7 307.254 11.7524  11
  -5   2  -7 292.991 10.7342  11
  -5   2  -7 274.191 10.3165  30
  -5   2  -7 285.842 10.5817  27
  -5   2  -7 281.066 11.0728   4
   6   1  -7 236.515 10.6865   2
   6   1  -7 245.844 9.40345  31
   6   1  -7 254.486 9.19089  12
   6   1  -7 235.989 8.83209  19
  -6  -1   7 251.107 8.76898  13
  -6  -1   7 234.964 9.11448   3
  -6  -1   7 239.487 8.82824  25
  -6  -1   7 245.080 9.67441  31
  -6  -1   7 236.810 9.41874  12
   5   1  -7 208.750 8.77856  31
   5   1  -7 218.263 8.15712  19
   5   1  -7 204.657 8.48594  11
   5   1  -7 211.557 8.49360  12
  -5  -1   7 218.578 8.55922   3
  -5  -1   7 222.417 8.20750  25
  -5  -1   7 220.564 9.01657  31
  -5  -1   7 224.226 8.86055  12
  -5  -1   7 223.302 8.07707  13
  -5  -1   7 218.507 8.54832  11
   4   1  -7 15.5400 1.68266  31
   4   1  -7 16.0132 1.51083  11
   4   1  -7 15.0950 1.21005  19
  -4  -1   7 18.1025 1.37223  25
  -4  -1   7 15.4905 1.85979  22
  -4  -1   7 16.3249 1.47224  11
  -4  -1   7 18.5721 1.34670  13
  -4  -1   7 16.2722 1.78885  31
   3   1  -7 407.602 15.0514  31
   3   1  -7 399.979 14.2549  19
  -3  -1   7 381.438 15.2981  31
  -3  -1   7 403.237 14.6945  15
  -2  -1   7 711.660 29.7057   5
   1   1  -7 702.050 25.0487  10
  -1  -1   7 712.917 28.4357   5
   0   1  -7 489.239 17.5851  10
   0   1  -7 451.529 19.0956  14
   0   1  -7 534.145 17.1987  26
   0  -1   7 518.124 19.9444   5
   0  -1   7 432.006 20.6127  14
  -1   1  -7 98.5290 4.03512  26
  -1   1  -7 106.294 4.61276  10
  -2   1  -7 57.6062 2.85953  10
  -2   1  -7 45.0897 2.34224  26
  -3   1  -7 312.910 11.6099  10
  -3   1  -7 302.959 12.0663   4
  -3   1  -7 305.247 10.9999  21
  -3   1  -7 303.863 10.9869  28
  -3   1  -7 305.937 11.1286  30
  -4   1  -7 43.9062 2.85424   4
  -4   1  -7 43.7303 2.20191   9
  -4   1  -7 43.5759 2.19436  30
  -4   1  -7 45.3069 2.54167  27
   7   0  -7 453.274 16.4994  11
   7   0  -7 470.913 17.7554   2
  -7   0   7 461.655 16.4317   3
  -7   0   7 465.308 16.1045  13
  -7   0   7 465.480 16.5363  11
   6   0  -7 132.813 5.27238  19
   6   0  -7 128.361 5.56735  11
   6   0  -7 137.479 5.82982  31
  -6   0   7 126.237 5.74217   3
  -6   0   7 138.324 5.90936  31
  -6   0   7 145.146 5.38351  25
  -6   0   7 135.975 5.21823  13
  -6   0   7 139.515 5.58049  11
   5   0  -7 104.093 4.19262  19
   5   0  -7 99.1162 7.06622   7
   5   0  -7 112.219 4.59380  11
   5   0  -7 100.158 4.70269  31
  -5   0   7 105.602 4.48889  11
  -5   0   7 103.165 4.23586  13
  -5   0   7 88.2232 4.58126   3
  -5   0   7 107.882 4.37850  25
  -5   0   7 109.752 4.86818  31
   4   0  -7 24.0226 1.41220  19
   4   0  -7 26.6136 3.29181   7
   4   0  -7 23.1823 1.81279  31
  -4   0   7 25.1235 1.60474  25
  -4   0   7 22.4335 1.81586  31
  -3   0   7 122.553 7.83445   5
  -2   0   7 727.386 28.9501   5
   1   0  -7 378.642 13.4851  10
   1   0  -7 357.366 13.4400  26
   0   0  -7 243.787 9.19334  10
   0   0  -7 248.593 8.81230  26
   0   0  -7 236.216 11.2718  14
   0   0   7 223.884 12.7872  14
  -1   0  -7 957.549 30.9545  10
  -1   0  -7 791.527 30.1074  26
  -2   0  -7 469.535 16.5785  28
  -2   0  -7 453.086 16.6252  15
  -2   0  -7 488.975 17.1912  10
  -3   0  -7 60.9377 3.06397  10
  -3   0  -7 58.9063 2.57642  28
  -3   0  -7 58.9447 2.67796   9
  -3   0  -7 57.2858 2.97482  27
  -3   0  -7 56.5167 2.68554  30
  -3   0  -7 57.6488 2.58376  21
   7  -1  -7 142.964 5.33480  19
   7  -1  -7 142.803 5.61954  11
   7  -1  -7 141.293 5.75981  31
  -7   1   7 137.429 5.72381   3
  -7   1   7 127.211 5.63881  18
  -7   1   7 143.023 5.56586  11
  -7   1   7 149.771 5.85974  31
   6  -1  -7 2.06706 0.62848  11
   6  -1  -7 1.84482 0.50421  19
  -6   1   7 1.33772 0.63901  25
  -6   1   7 0.84183 0.56305  13
  -6   1   7 1.19956 0.47468  11
  -6   1   7 1.48691 0.87707   3
   5  -1  -7 38.9933 2.28082  23
   5  -1  -7 39.9672 1.91274  19
   5  -1  -7 36.6847 4.05893   7
   5  -1  -7 40.8828 2.21633  11
  -5   1   7 39.1736 2.10574  11
  -5   1   7 35.8023 2.03021  13
  -5   1   7 42.7004 2.42113   3
  -5   1   7 36.2051 2.13477  25
   4  -1  -7 281.914 10.6607  19
   4  -1  -7 315.549 14.2657   7
   4  -1  -7 304.731 11.2092   4
  -4   1   7 289.471 10.9007  25
   3  -1  -7 1248.23 46.1400   7
   1  -1  -7 1652.86 57.7320  26
   1  -1  -7 1689.23 57.6829  10
   0  -1  -7 1770.68 60.8422  26
   0  -1  -7 1767.93 61.1301  10
  -1  -1  -7 824.906 27.7772  10
  -1  -1  -7 737.515 27.0029  26
  -1  -1  -7 780.130 27.2609  15
  -2  -1  -7 0.80379 0.46472  15
  -2  -1  -7 1.68809 0.60420  10
  -2  -1  -7 1.51688 0.43013  28
  -2  -1  -7 2.43227 0.49326  21
  -3  -1  -7 100.230 4.07152  21
  -3  -1  -7 101.203 4.05111  28
  -3  -1  -7 102.188 4.53997  10
   7  -2  -7 7.30856 0.70944  19
   7  -2  -7 7.69840 0.91955  23
   7  -2  -7 8.03381 0.88021  11
  -7   2   7 8.55636 0.86075  11
  -7   2   7 5.44372 0.91507  18
   6  -2  -7 716.431 24.9023  11
   6  -2  -7 732.851 24.5637  19
   6  -2  -7 736.915 25.1068  23
  -6   2   7 711.243 24.8146  25
  -6   2   7 702.143 25.2934  18
  -6   2   7 705.875 24.8618  11
  -6   2   7 727.128 25.1229   3
  -6   2   7 612.633 24.8178  13
   5  -2  -7 807.692 30.1040   7
   5  -2  -7 735.250 26.1429  11
   5  -2  -7 777.723 26.3950   4
   5  -2  -7 767.340 26.3698  23
   5  -2  -7 673.595 25.9012  19
  -5   2   7 747.209 26.1310  25
  -5   2   7 690.189 25.9338  13
  -5   2   7 736.932 26.1414  11
  -5   2   7 758.630 26.4855   3
   4  -2  -7 809.567 28.4537   4
   4  -2  -7 837.066 31.6139   7
  -4   2   7 770.444 28.1977  25
   3  -2  -7 10.8507 1.86007   7
  -3   2   7 12.2860 1.53959  17
   2  -2  -7 816.534 30.9066   7
   2  -2  -7 817.518 29.0992  26
   1  -2  -7 193.727 7.42938  26
   1  -2  -7 193.345 7.54310  10
   0  -2  -7 184.841 7.03436  26
   0  -2  -7 170.493 6.93234  28
   0  -2  -7 190.281 7.38374  10
   0  -2  -7 184.950 6.95134  15
  -1  -2  -7 41.5762 2.18288  15
  -1  -2  -7 43.7200 2.11956  28
  -1  -2  -7 42.0290 2.13541  30
  -1  -2  -7 42.6583 1.87739  25
  -1  -2  -7 41.0617 2.11633  26
  -1  -2  -7 46.9420 2.49854  10
   1   2   7 44.3443 2.08249  25
  -2  -2  -7 22.8624 1.35931  21
  -2  -2  -7 21.1082 1.46266  15
  -2  -2  -7 22.1643 1.37212  28
  -2  -2  -7 20.9757 1.42892  22
  -2  -2  -7 21.6874 1.55552   1
  -2  -2  -7 22.1333 1.68967  10
  -3  -2  -7 382.493 13.6732   1
   7  -3  -7 198.100 7.55380   4
   7  -3  -7 197.596 7.40915  11
   7  -3  -7 205.575 7.59351  23
  -7   3   7 172.015 7.48477  18
  -7   3   7 204.217 7.68689   3
  -7   3   7 201.693 7.43066  11
   6  -3  -7 269.236 10.0251   4
   6  -3  -7 250.426 9.76178  11
   6  -3  -7 268.677 10.0217  23
  -6   3   7 251.710 10.0771  18
  -6   3   7 277.212 10.1568   3
  -6   3   7 265.969 9.80087  11
   5  -3  -7 6.43493 0.91862  23
   5  -3  -7 6.39096 0.93843   4
   5  -3  -7 6.83843 1.82039   7
  -5   3   7 6.06807 0.91561  13
  -5   3   7 6.57436 1.05011  25
  -5   3   7 9.33210 1.31226   3
   4  -3  -7 142.904 7.93787   7
   4  -3  -7 142.356 5.92286   4
   4  -3  -7 136.893 5.87907  23
   4  -3  -7 140.264 5.54321  27
  -4   3   7 153.341 5.73853  25
  -4   3   7 145.445 6.49789  17
  -4   3   7 135.302 5.57473  13
  -4   3   7 137.143 5.89966   3
   3  -3  -7 129.575 5.68091   4
   3  -3  -7 132.823 5.05303  30
   3  -3  -7 132.935 7.47412   7
  -3   3   7 130.290 5.20990  25
  -3   3   7 127.563 5.86606  17
   2  -3  -7 26.0042 2.86940   7
   2  -3  -7 30.8203 1.42791  25
   2  -3  -7 31.0082 1.67275  30
   2  -3  -7 28.4256 1.86417  26
  -2   3   7 27.3355 1.66704  25
  -2   3   7 26.4651 2.10291  17
   1  -3  -7 36.0644 1.62340  25
   1  -3  -7 32.6737 2.01143  26
   1  -3  -7 35.2595 1.77316  28
   1  -3  -7 34.5594 3.47567   7
   1  -3  -7 34.2058 1.84106  30
   1  -3  -7 34.1038 1.91144  15
   1  -3  -7 34.1966 2.07499  10
  -1   3   7 35.1901 1.82791  25
  -1   3   7 31.4507 2.28727  17
   0  -3  -7 40.4341 1.97679  28
   0  -3  -7 38.1836 2.38123  10
   0  -3  -7 40.5604 1.81434  25
   0  -3  -7 38.2265 2.08191  15
   0  -3  -7 43.9454 2.38054  27
   0  -3  -7 35.2032 2.11497  26
   0  -3  -7 36.8537 2.02234  30
   0  -3  -7 38.8256 1.97366  21
   0  -3  -7 44.1339 2.41644   1
   0  -3  -7 40.8159 2.07271  22
   0   3   7 40.4501 1.98592  25
  -1  -3  -7 845.769 28.6681  28
  -1  -3  -7 788.632 28.6495  30
  -1  -3  -7 830.851 28.6483  21
  -1  -3  -7 843.347 28.7890  15
  -1  -3  -7 805.370 28.6547   9
  -1  -3  -7 800.116 28.7540   1
  -1  -3  -7 815.903 28.6830  22
  -1  -3  -7 826.918 28.3912  25
  -1  -3  -7 801.245 29.1258  10
   1   3   7 876.194 28.5676  25
  -2  -3  -7 249.727 9.25020   1
  -2  -3  -7 252.328 9.22056  22
  -2  -3  -7 254.808 8.95288  25
  -2  -3  -7 248.760 9.73315  10
  -2  -3  -7 243.239 9.17495  21
  -2  -3  -7 256.949 9.22138  28
  -2  -3  -7 260.999 9.30854  15
   2   3   7 248.189 9.07129  25
  -3  -3  -7 243.311 8.88063  22
  -3  -3  -7 241.989 8.96321  15
  -3  -3  -7 253.565 8.96176   1
   7  -4  -7 20.0874 1.37589   4
   7  -4  -7 20.3740 1.36921  23
  -7   4   7 17.0149 1.35756  18
  -7   4   7 19.9114 1.58039   3
   6  -4  -7 54.3755 2.80023   4
   6  -4  -7 54.5544 2.78312  23
  -6   4   7 56.7963 2.92948  18
  -6   4   7 55.3859 2.97051   3
   5  -4  -7 70.9430 3.21343  27
   5  -4  -7 69.6058 3.47719   4
   5  -4  -7 71.7466 3.48701  23
  -5   4   7 79.4603 3.67111   3
   4  -4  -7 307.521 12.9533  23
   4  -4  -7 362.243 12.1437  30
   4  -4  -7 351.666 15.3506   7
   4  -4  -7 329.289 12.6582   4
   4  -4  -7 345.334 12.2290  27
  -4   4   7 331.791 12.3770  25
  -4   4   7 326.402 12.2551  13
  -4   4   7 339.631 13.2016  17
  -4   4   7 338.271 12.6202   3
   3  -4  -7 263.255 12.5103   7
   3  -4  -7 275.644 9.66842  30
   3  -4  -7 264.654 9.78555  27
   3  -4  -7 267.792 9.61781   9
  -3   4   7 252.019 9.64303  13
  -3   4   7 265.788 9.79500  25
  -3   4   7 261.573 10.0704   3
  -3   4   7 261.185 10.5657  17
   2  -4  -7 176.238 6.55090  21
   2  -4  -7 178.665 6.43510  25
   2  -4  -7 184.736 6.97346   3
   2  -4  -7 178.537 9.49588   7
   2  -4  -7 173.053 6.63957   9
   2  -4  -7 172.779 6.69234  30
   2  -4  -7 170.191 6.90857  27
  -2   4   7 177.777 7.49128  17
  -2   4   7 172.075 6.59521  13
  -2   4   7 165.028 6.94903   3
  -2   4   7 174.519 6.70177  25
   1  -4  -7 11.7893 1.00950  21
   1  -4  -7 11.4802 1.09932   9
   1  -4  -7 12.1120 1.21450   3
   1  -4  -7 12.3404 1.11038  30
   1  -4  -7 11.5460 1.19788  15
   1  -4  -7 10.2334 2.17371   7
   1  -4  -7 11.6610 1.07704  22
   1  -4  -7 11.6141 0.83745  25
   1  -4  -7 11.6494 0.97858  28
   1  -4  -7 10.3383 1.21596  10
  -1   4   7 11.0390 1.51406  17
  -1   4   7 11.2195 1.05418  25
  -1   4   7 8.81665 1.59058  10
  -1   4   7 9.89648 1.22399   3
   0  -4  -7 584.292 20.0593  28
   0  -4  -7 568.326 19.8188  25
   0  -4  -7 584.442 20.1027  22
   0  -4  -7 608.597 20.3711   3
   0  -4  -7 572.576 20.0696  21
   0  -4  -7 583.896 20.6491  10
   0  -4  -7 571.128 20.1559  15
   0  -4  -7 546.389 20.1368   1
   0  -4  -7 558.524 20.0958   9
   0  -4  -7 551.125 20.1238  30
   0   4   7 571.759 20.7799  17
   0   4   7 550.769 20.3765   3
   0   4   7 578.835 20.0164  25
   0   4   7 553.148 21.5472  10
  -1  -4  -7 40.8032 2.12897   1
  -1  -4  -7 43.4834 2.08538  22
  -1  -4  -7 38.9430 2.03928  21
  -1  -4  -7 43.5610 2.18146  15
  -1  -4  -7 39.5710 2.39915  10
  -1  -4  -7 45.6345 1.88550  25
  -1  -4  -7 41.7929 2.06815  28
   1   4   7 40.7401 2.04563  25
   1   4   7 39.5632 3.05199  10
  -2  -4  -7 5.62785 0.80493  22
  -2  -4  -7 5.14251 0.65872  28
  -2  -4  -7 5.35808 0.75036  15
  -2  -4  -7 5.08563 0.57308  25
  -2  -4  -7 5.68790 0.89005   1
   2   4   7 5.75458 0.76098  25
   7  -5  -7 14.6208 1.12427   4
   7  -5  -7 13.4791 1.09214  23
  -7   5   7 13.2598 1.32362   3
  -7   5   7 13.3458 1.13878  18
   6  -5  -7 8.97564 1.00688  23
   6  -5  -7 6.63581 0.93634   4
   6  -5  -7 6.60196 0.88160  27
  -6   5   7 9.56883 1.29673   3
  -6   5   7 6.96561 0.97312  18
   5  -5  -7 128.799 4.99503  27
   5  -5  -7 117.652 5.30751   4
   5  -5  -7 131.224 4.86884  30
  -5   5   7 129.872 6.03222  17
  -5   5   7 120.617 5.32928  18
  -5   5   7 123.906 5.45933   3
   4  -5  -7 92.9697 3.93461  27
   4  -5  -7 90.6475 3.74354   9
   4  -5  -7 93.1441 3.78322  30
  -4   5   7 91.7920 4.80718  17
  -4   5   7 92.4510 4.31281   3
   3  -5  -7 4.43739 0.62681  25
   3  -5  -7 3.52603 0.89165  27
   3  -5  -7 3.85356 0.70733   9
   3  -5  -7 4.62468 0.65061  21
   3  -5  -7 4.28892 0.70289  30
  -3   5   7 4.62840 0.99365   3
  -3   5   7 3.90551 0.74817  13
  -3   5   7 4.17607 1.09861  17
  -3   5   7 3.50470 0.77370  25
   2  -5  -7 180.662 6.81078  27
   2  -5  -7 177.135 6.61033   9
   2  -5  -7 175.692 6.47835  28
   2  -5  -7 170.901 6.35396  25
   2  -5  -7 180.246 6.51855  21
   2  -5  -7 170.287 6.63281  30
   2  -5  -7 170.569 6.86863   3
  -2   5   7 175.400 7.49192  17
  -2   5   7 168.510 6.93043   3
  -2   5   7 161.987 6.49633  13
  -2   5   7 168.326 6.63062  25
   1  -5  -7 26.2028 1.46868  22
   1  -5  -7 27.2738 1.57273   9
   1  -5  -7 23.7718 1.26901  25
   1  -5  -7 22.3184 1.64302   3
   1  -5  -7 21.8957 1.68855  10
   1  -5  -7 23.1853 1.42442  21
   1  -5  -7 22.8608 1.48857  30
   1  -5  -7 24.7444 1.42435  28
  -1   5   7 21.4509 1.72538   3
  -1   5   7 22.4458 2.04879  17
  -1   5   7 21.8437 1.48702  25
  -1   5   7 22.5116 1.44836  13
   0  -5  -7 17.8997 1.50890   3
   0  -5  -7 19.3771 1.40166   1
   0  -5  -7 18.9376 1.27697  22
   0  -5  -7 18.6817 1.24474  21
   0  -5  -7 19.7082 1.25629  28
   0  -5  -7 17.3135 1.05993  25
   0  -5  -7 19.6159 1.39524  15
   0   5   7 19.7988 1.27417  25
   0   5   7 20.6436 1.80456  17
   0   5   7 20.5428 1.47752   3
  -1  -5  -7 94.7298 3.83732  15
  -1  -5  -7 97.4353 3.77558  22
  -1  -5  -7 95.2736 3.79200   1
  -1  -5  -7 98.4583 3.79275  28
  -1  -5  -7 92.5244 3.72909  21
  -1  -5  -7 97.6915 3.60524  25
   1   5   7 96.2958 3.74356  25
   1   5   7 92.5971 4.25463  17
   6  -6  -7 4.06332 0.66454  27
  -6   6   7 6.42914 0.86512  18
  -6   6   7 6.06099 1.05232   3
   5  -6  -7 48.8308 2.41752  27
   5  -6  -7 50.8145 2.26136   9
   5  -6  -7 51.7046 2.29431  30
  -5   6   7 50.3906 2.64588  18
  -5   6   7 54.3893 3.28204  17
  -5   6   7 54.2396 2.87594   3
   4  -6  -7 301.834 10.9244  30
   4  -6  -7 294.374 11.0019  27
   4  -6  -7 294.157 10.8436   9
  -4   6   7 305.410 11.4431   3
  -4   6   7 318.985 12.0674  17
   3  -6  -7 183.654 7.02007  27
   3  -6  -7 186.739 6.80364  21
   3  -6  -7 180.739 6.86645   9
   3  -6  -7 185.500 6.91886  30
  -3   6   7 188.544 7.83520  17
  -3   6   7 180.168 7.30571   3
   2  -6  -7 1.20609 0.40638  25
   2  -6  -7 0.77047 0.69835   3
   2  -6  -7 1.04486 0.46060  30
   2  -6  -7 1.61847 0.50974   9
   2  -6  -7 0.77349 0.37780  28
   2  -6  -7 1.08032 0.41193  21
  -2   6   7 1.94999 0.51332  13
  -2   6   7 1.36348 0.67167   3
  -2   6   7 0.86310 0.53396  25
  -2   6   7 1.51673 0.83028  17
   1  -6  -7 1.37966 0.70550   3
   1  -6  -7 1.08958 0.36394  25
   1  -6  -7 1.44908 0.41814  21
   1  -6  -7 0.47131 0.33284  28
  -1   6   7 0.67313 0.61357  17
  -1   6   7 0.44908 0.44387  25
  -1   6   7 1.18156 0.56738   3
  -1   6   7 0.97993 0.46291  13
   0  -6  -7 11.3979 0.87267  22
   0  -6  -7 11.7640 0.80402  21
   0  -6  -7 10.0530 0.74634  25
   0  -6  -7 11.2712 0.94835   1
   0  -6  -7 10.6740 1.02847   3
   0   6   7 11.3939 0.85098  13
   0   6   7 11.1074 1.01280   3
   5  -7  -7 165.720 5.94950   9
   5  -7  -7 159.525 6.05323  27
  -5   7   7 165.552 6.37337   3
   4  -7  -7 5.20488 0.76044  27
   4  -7  -7 4.95607 0.68916   9
  -4   7   7 4.81242 0.82518   3
   3  -7  -7 13.8119 0.96382   9
   3  -7  -7 14.1270 0.87580  21
  -3   7   7 15.5280 1.25470   3
  -2   7   7 1.04131 0.55106   3
   0   7  -8 54.8288 2.41517  12
   0  -7   8 50.4355 2.48249   1
  -1   7  -8 150.534 5.61537  12
   1  -7   8 133.552 5.46761   8
  -2   7  -8 94.9819 3.96193  12
  -2   7  -8 91.5595 4.84820   2
   2  -7   8 92.0183 3.85314   8
   2  -7   8 89.9460 3.84495  28
  -3   7  -8 64.9456 3.18379  31
  -3   7  -8 64.9409 3.88358   2
  -3   7  -8 68.3965 3.08792  12
   3  -7   8 69.2344 2.99090  28
   3  -7   8 69.0641 2.98964   8
   3  -7   8 67.5772 2.82244  21
  -4   7  -8 24.4074 1.09879  21
  -4   7  -8 23.7384 1.48609  12
   4  -7   8 25.3048 1.32750  21
   2   6  -8 1.07672 0.41058  12
  -2  -6   8 0.11881 0.55402   1
   1   6  -8 64.1067 2.79770  12
   1   6  -8 60.4614 3.94774   2
  -1  -6   8 59.4424 3.14138  15
  -1  -6   8 63.3544 3.05361   1
   0   6  -8 42.9707 2.35620  31
   0   6  -8 42.5690 3.41621   2
   0   6  -8 44.8302 2.30422  12
   0  -6   8 44.8429 2.54884   1
   0  -6   8 42.8017 2.25585   8
  -1   6  -8 41.9431 2.31144  12
  -1   6  -8 39.6579 3.33966   2
  -1   6  -8 43.8288 2.48750  31
   1  -6   8 42.8717 2.34456   8
   1  -6   8 44.0257 2.54769   1
   1  -6   8 42.9460 2.32361  28
  -2   6  -8 91.8707 5.60775   2
  -2   6  -8 97.6140 4.53558  31
  -2   6  -8 93.9496 4.29998  12
   2  -6   8 99.1171 4.30113   8
   2  -6   8 105.279 4.25616  28
  -3   6  -8 17.1286 1.44505  12
  -3   6  -8 15.8163 2.19823   2
  -3   6  -8 14.1515 0.90779  21
  -3   6  -8 13.4965 1.49415  31
   3  -6   8 14.3308 1.42011  28
   3  -6   8 13.4464 1.16346  21
   3  -6   8 15.9224 1.45985   8
   3  -6   8 14.1391 0.97710  16
  -4   6  -8 229.712 8.44947  12
  -4   6  -8 206.570 7.94653  19
  -4   6  -8 216.785 8.69528  31
  -4   6  -8 225.878 7.78659  21
   4  -6   8 202.404 8.13513  28
   4  -6   8 221.566 8.04500  21
   4  -6   8 214.583 7.96268   9
   4  -6   8 219.649 7.75150  16
  -5   6  -8 12.7335 0.75592  30
  -5   6  -8 14.3611 1.27763  31
  -5   6  -8 11.4874 1.01368  11
  -5   6  -8 12.0882 0.71873  21
  -5   6  -8 12.6786 1.06937  12
  -5   6  -8 13.3455 0.86217  27
   5  -6   8 11.9582 0.95098  21
   5  -6   8 12.2041 0.89681  30
   5  -6   8 12.5287 0.93689   9
   5  -6   8 11.7579 0.94863  27
   3   5  -8 0.38683 0.39157  12
   3   5  -8 0.35805 0.63240   2
  -3  -5   8 0.89230 0.61693   1
  -3  -5   8 -1.1119 0.55152  22
   2   5  -8 72.6102 3.17713  12
   2   5  -8 68.1887 4.74663   2
   2   5  -8 71.8655 3.24575  31
  -2  -5   8 70.1619 3.50529  15
  -2  -5   8 72.0767 3.47173  22
  -2  -5   8 76.6895 3.52059   1
   1   5  -8 191.059 7.46470  31
   1   5  -8 181.206 9.41176   2
   1   5  -8 191.641 7.36090  12
  -1  -5   8 194.209 7.63395   1
  -1  -5   8 192.872 7.73341  15
   0   5  -8 125.304 5.23856  31
   0   5  -8 121.660 7.20708   2
   0   5  -8 125.370 5.48147  10
   0   5  -8 120.472 5.04391  12
   0  -5   8 116.603 5.08782   8
   0  -5   8 119.891 5.40460  15
   0  -5   8 124.522 5.37707   1
  -1   5  -8 164.896 8.45425   2
  -1   5  -8 163.488 6.62484  12
  -1   5  -8 158.108 6.19296  19
  -1   5  -8 159.139 6.90507  10
  -1   5  -8 168.061 6.83321  31
   1  -5   8 170.062 6.66821   8
   1  -5   8 159.067 6.77565   1
   1  -5   8 168.212 6.52853  28
  -2   5  -8 582.245 22.8971   2
  -2   5  -8 579.313 21.0552  31
  -2   5  -8 579.771 21.0061  10
  -2   5  -8 562.374 20.2667  19
  -2   5  -8 575.516 20.7931  12
  -2   5  -8 558.865 20.0405  21
   2  -5   8 564.578 20.2999  21
   2  -5   8 575.926 20.5474  28
   2  -5   8 601.467 20.7588   8
  -3   5  -8 571.209 20.0821  10
  -3   5  -8 543.236 19.9475  12
  -3   5  -8 546.257 20.3196  31
  -3   5  -8 534.331 19.8065  11
  -3   5  -8 563.967 19.1708  21
  -3   5  -8 559.909 22.0887   2
  -3   5  -8 551.942 19.4888  19
   3  -5   8 554.893 19.0808  16
   3  -5   8 534.707 19.5999  28
   3  -5   8 549.984 19.7093   8
   3  -5   8 529.194 19.3998  21
  -4   5  -8 230.062 8.17752  30
  -4   5  -8 227.707 8.49711  19
  -4   5  -8 223.588 8.13994  21
  -4   5  -8 231.530 8.88874  12
  -4   5  -8 219.283 8.79195  11
  -4   5  -8 234.209 8.30102  27
  -4   5  -8 238.289 9.35248  31
   4  -5   8 224.247 8.08621  16
   4  -5   8 228.158 8.34800  30
   4  -5   8 214.250 8.51380  28
   4  -5   8 220.357 8.38529  21
   4  -5   8 222.463 8.45353   9
  -5   5  -8 28.2243 1.45316  27
  -5   5  -8 26.4936 1.64025   4
  -5   5  -8 27.5118 1.74387  11
  -5   5  -8 27.1001 1.55317  19
  -5   5  -8 27.6081 1.34021  30
  -5   5  -8 28.7694 1.29986  21
  -5   5  -8 26.3691 1.91206  31
   5  -5   8 25.2057 1.49511  21
   5  -5   8 25.2898 1.27748  16
   5  -5   8 26.2091 1.49726  30
   5  -5   8 28.9622 1.60373   9
   4   4  -8 13.6165 1.00612  31
   4   4  -8 10.6724 1.01425  12
   4   4  -8 14.0483 1.97739   2
  -4  -4   8 11.8761 1.33174  22
   3   4  -8 531.957 18.6303  12
   3   4  -8 526.621 18.7739  31
   3   4  -8 499.572 20.6164   2
  -3  -4   8 539.891 18.9442  22
  -3  -4   8 516.255 18.7792   1
  -3  -4   8 538.754 18.9527  15
   2   4  -8 503.160 20.4587   2
   2   4  -8 491.761 18.0005  12
   2   4  -8 511.742 18.1858  31
  -2  -4   8 516.096 18.3945  22
  -2  -4   8 501.797 18.4044  15
  -2  -4   8 506.079 18.2847   1
   1   4  -8 588.753 20.9406  31
   1   4  -8 591.545 20.3349  19
   1   4  -8 612.485 23.4767   2
   1   4  -8 583.391 20.6957  12
  -1  -4   8 585.070 21.1125   1
  -1  -4   8 553.255 21.0608  22
  -1  -4   8 570.572 21.0919  15
   0   4  -8 114.966 4.57766  19
   0   4  -8 127.275 7.27105   2
   0   4  -8 114.768 5.11299  31
   0   4  -8 122.304 5.38818  10
   0   4  -8 112.237 4.95308  12
   0  -4   8 118.636 5.31841  15
   0  -4   8 118.881 5.12678   8
   0  -4   8 127.496 5.46908   1
  -1   4  -8 1508.18 52.2938  28
  -1   4  -8 1602.88 55.4513   2
  -1   4  -8 1484.69 53.0731  31
  -1   4  -8 1488.99 52.3721  19
  -1   4  -8 1456.60 52.6523  11
  -1   4  -8 1530.22 53.1651  10
  -1   4  -8 1414.43 52.8375  12
   1  -4   8 1559.11 52.9082   8
   1  -4   8 1522.05 52.9895   1
   1  -4   8 1668.90 52.7606  28
  -2   4  -8 14.5485 2.47931   2
  -2   4  -8 13.4518 1.14405  19
  -2   4  -8 16.1722 1.56969  10
  -2   4  -8 15.9868 1.06082  28
  -2   4  -8 14.1369 1.58152  31
  -2   4  -8 14.4095 0.99256  21
  -2   4  -8 15.0395 1.41770  11
   2  -4   8 15.0013 1.58504   8
   2  -4   8 14.1557 1.44807  28
   2  -4   8 13.9701 1.01641  16
   2  -4   8 12.8581 1.25695  21
  -3   4  -8 121.407 5.84485  31
  -3   4  -8 117.697 4.94859  27
  -3   4  -8 124.891 5.58997  10
  -3   4  -8 123.513 4.79916  28
  -3   4  -8 121.771 7.17799   2
  -3   4  -8 121.125 4.74340  21
  -3   4  -8 124.119 5.17529  19
  -3   4  -8 126.190 4.80879  30
  -3   4  -8 127.499 5.59212  11
   3  -4   8 126.014 5.21963  28
   3  -4   8 128.558 5.07951  21
   3  -4   8 126.469 4.71215  16
   3  -4   8 129.888 5.36920   8
  -4   4  -8 37.7748 1.81746  30
  -4   4  -8 38.7533 2.00126  27
  -4   4  -8 38.9015 1.78935  28
  -4   4  -8 39.1401 2.15114  19
  -4   4  -8 39.7990 2.31868   4
  -4   4  -8 36.7001 1.75633  21
  -4   4  -8 40.7547 2.54082  11
  -4   4  -8 37.1445 2.66282  31
   4  -4   8 34.2534 2.14911  28
   4  -4   8 35.2736 2.01164  21
   4  -4   8 36.3463 1.73610  16
  -5   4  -8 48.3182 2.33817  19
  -5   4  -8 46.4504 2.23973  27
  -5   4  -8 50.0999 2.58968   4
  -5   4  -8 50.5595 2.10664  30
  -5   4  -8 50.6470 2.05183  21
  -5   4  -8 47.0329 2.64183  11
  -5   4  -8 46.4757 2.68351  31
   5  -4   8 44.0762 2.23725  21
   5  -4   8 43.1716 2.23715  30
   5  -4   8 44.2426 1.98576  16
  -6   4  -8 61.0285 2.64924  11
  -6   4  -8 61.7757 2.38031  27
   6  -4   8 48.5681 2.42393  27
   6  -4   8 53.0671 2.40485   9
   5   3  -8 0.87766 0.69051   2
   5   3  -8 -0.3135 0.63675  12
   5   3  -8 1.45766 0.47559  31
  -5  -3   8 1.33376 0.47175  25
  -5  -3   8 1.14775 0.39986  13
  -5  -3   8 1.48792 0.61895  22
   4   3  -8 487.676 16.8436  12
   4   3  -8 486.833 17.0497  31
   4   3  -8 436.811 18.5059   2
  -4  -3   8 467.446 17.0209  22
  -4  -3   8 472.519 16.6497  25
  -4  -3   8 476.333 16.5943  13
  -4  -3   8 472.265 17.0450  15
   3   3  -8 194.997 7.68133  12
   3   3  -8 206.551 7.91985  31
   3   3  -8 193.707 9.46778   2
   3   3  -8 214.789 7.33995  19
  -3  -3   8 194.202 7.99149  22
  -3  -3   8 194.840 8.02515  15
   2   3  -8 42.6145 3.60399   2
   2   3  -8 44.1262 1.94789  19
   2   3  -8 41.5947 2.23728  12
   2   3  -8 41.2616 2.31005  31
  -2  -3   8 41.6972 2.77002  15
  -2  -3   8 42.0396 2.69668  22
  -2  -3   8 39.5171 2.75294   1
   1   3  -8 89.7971 3.60038  19
   1   3  -8 85.0230 4.02091  31
   1   3  -8 103.782 6.13550   2
  -1  -3   8 89.2682 4.39822  15
   0   3  -8 512.111 18.5864  31
   0   3  -8 532.674 18.8452  10
   0   3  -8 524.582 18.0478  19
   0  -3   8 519.750 21.6424   5
   0  -3   8 485.672 18.6906  15
  -1   3  -8 148.770 6.31380  10
  -1   3  -8 147.906 5.63716  19
  -1   3  -8 140.813 5.68217  26
  -1   3  -8 143.839 6.22539  31
  -1   3  -8 151.646 5.56075  28
   1  -3   8 151.999 5.94097  28
   1  -3   8 146.003 8.46943   5
  -2   3  -8 14.6857 1.06573  30
  -2   3  -8 16.3581 1.05978  28
  -2   3  -8 14.9991 1.40148   4
  -2   3  -8 17.9347 1.10637  21
  -2   3  -8 14.0549 1.54382  31
  -2   3  -8 14.8272 2.41324   2
  -2   3  -8 14.2405 1.53864  10
   2  -3   8 14.6283 1.39425  28
   2  -3   8 16.0252 1.59183   8
  -3   3  -8 212.804 7.72303  28
  -3   3  -8 203.945 7.76980   9
  -3   3  -8 203.103 8.62077  11
  -3   3  -8 216.480 8.15429  19
  -3   3  -8 203.099 8.74673  31
  -3   3  -8 219.252 8.56767   4
  -3   3  -8 218.309 8.57317  10
  -3   3  -8 211.370 7.95136  27
  -3   3  -8 205.234 10.1744   2
  -3   3  -8 216.295 7.81100  30
  -3   3  -8 206.607 7.72567  21
   3  -3   8 208.990 8.23796   8
   3  -3   8 212.958 8.10218  28
  -4   3  -8 617.475 21.8540  21
  -4   3  -8 653.777 22.8636   4
  -4   3  -8 651.121 22.8932  11
  -4   3  -8 609.176 21.8391  28
  -4   3  -8 644.970 22.2507  19
  -4   3  -8 622.330 21.9749  30
  -4   3  -8 616.539 22.1402  27
  -4   3  -8 628.635 21.9867   9
  -4   3  -8 610.486 23.3351  31
   4  -3   8 629.873 22.2197  28
  -5   3  -8 436.595 14.9977  27
  -5   3  -8 427.328 14.6870  21
  -5   3  -8 426.123 15.5130   4
  -5   3  -8 431.827 14.7986  30
  -5   3  -8 438.340 15.4300  11
   5  -3   8 382.844 14.5931  16
   5  -3   8 392.503 14.8747  21
  -6   3  -8 54.9641 2.39915  27
  -6   3  -8 56.5952 2.55363  11
   6   2  -8 12.3896 1.84611   2
  -6  -2   8 13.5504 0.85548  13
   5   2  -8 90.7952 4.02053  12
   5   2  -8 91.4247 3.51314  19
   5   2  -8 94.7511 4.04863  31
   5   2  -8 81.2460 5.19309   2
  -5  -2   8 86.5748 3.65490  25
  -5  -2   8 88.6143 3.99339  22
  -5  -2   8 85.7119 4.15294  12
  -5  -2   8 86.4344 3.57333  13
  -5  -2   8 89.3009 4.35791  31
   4   2  -8 2.45176 0.89614  31
   4   2  -8 3.76408 0.63640  19
   4   2  -8 4.65309 1.38835  12
   4   2  -8 2.80606 1.29856   2
  -4  -2   8 2.86431 0.94062  22
  -4  -2   8 3.67926 0.73327  13
  -4  -2   8 3.32092 0.76983  25
  -4  -2   8 2.05019 0.97667  31
   3   2  -8 141.475 5.31974  19
   3   2  -8 139.500 5.81328  31
   3   2  -8 139.615 5.60153  11
   3   2  -8 149.769 7.54898   2
  -3  -2   8 133.813 5.96199  15
  -3  -2   8 134.938 6.27000  31
  -3  -2   8 134.985 5.48152  25
  -3  -2   8 125.519 5.84710  22
  -3  -2   8 139.097 5.39853  13
   2   2  -8 482.455 16.8097  19
   2   2  -8 468.546 17.3094  31
  -2  -2   8 485.969 17.5384  15
   1   2  -8 414.199 15.9028  10
   1   2  -8 407.990 15.0189  19
  -1  -2   8 427.003 19.0414   5
  -1  -2   8 464.363 15.9125  15
   0   2  -8 1179.47 41.3714  10
   0   2  -8 1152.83 40.6777  19
   0   2  -8 1210.13 40.8787  26
   0  -2   8 1207.97 41.3954  15
   0  -2   8 1154.11 44.0171   5
  -1   2  -8 201.016 7.12425  28
  -1   2  -8 182.013 7.17104  15
  -1   2  -8 199.027 7.85234  10
  -1   2  -8 193.757 7.24613  26
  -1   2  -8 193.844 7.21880  19
   1  -2   8 192.825 10.2599   5
   1  -2   8 191.663 7.86026  15
  -2   2  -8 237.355 8.44387  30
  -2   2  -8 228.127 8.62851  19
  -2   2  -8 234.244 9.10854   4
  -2   2  -8 228.392 8.38027  28
  -2   2  -8 231.363 8.60684  26
  -2   2  -8 230.559 9.14420  10
   2  -2   8 219.309 12.8833   5
  -3   2  -8 1057.66 37.3398   4
  -3   2  -8 1061.97 36.6428  19
  -3   2  -8 1060.59 37.3109  11
  -3   2  -8 1052.10 36.3230  28
  -3   2  -8 1059.91 36.3899  21
  -3   2  -8 1058.60 37.0968  10
  -3   2  -8 1036.36 36.6743  27
  -3   2  -8 1017.81 36.4153   9
  -3   2  -8 1077.46 36.4660  30
  -4   2  -8 197.983 7.41087  28
  -4   2  -8 204.787 7.77350  27
  -4   2  -8 199.938 7.48888  21
  -4   2  -8 207.768 7.59076  30
  -4   2  -8 203.740 7.54619   9
  -4   2  -8 196.161 8.41257   4
  -4   2  -8 206.952 8.18935  11
   4  -2   8 207.540 7.77749  28
  -5   2  -8 11.6070 0.93695  30
  -5   2  -8 12.7595 1.33287   4
  -5   2  -8 12.7656 1.18134  27
   6   1  -8 45.7869 2.01716  19
   6   1  -8 47.8235 2.48374  31
   6   1  -8 44.6615 3.57921   2
  -6  -1   8 39.3595 2.28111   3
  -6  -1   8 43.7369 2.03648  13
  -6  -1   8 44.0367 2.67318  31
  -6  -1   8 45.0340 2.11672  25
   5   1  -8 100.582 6.13344   2
   5   1  -8 96.9718 4.06047  19
   5   1  -8 99.3476 4.63407  31
   5   1  -8 94.5388 4.44093  11
  -5  -1   8 101.805 4.93768  31
  -5  -1   8 97.7373 4.04193  13
  -5  -1   8 99.2300 4.15632  25
  -5  -1   8 96.4847 4.56272  11
   4   1  -8 18.4473 1.83784  31
   4   1  -8 18.4612 1.68582  11
   4   1  -8 18.4664 1.31257  19
   4   1  -8 20.1022 3.22219   2
  -4  -1   8 19.5231 2.00517  31
  -4  -1   8 20.0374 1.94179  22
  -4  -1   8 17.8259 1.45845  25
  -4  -1   8 18.8660 1.72777  11
  -4  -1   8 19.7174 1.42117  13
   3   1  -8 74.0526 3.60732  31
   3   1  -8 70.7827 3.15157  19
  -3  -1   8 75.2957 3.31234  25
   2   1  -8 508.777 17.7598  19
  -2  -1   8 556.407 18.5705  15
  -2  -1   8 452.275 22.3339   5
   1   1  -8 393.399 14.6336  10
  -1  -1   8 393.260 17.5873   5
   0   1  -8 55.7005 2.56316  26
   0   1  -8 54.8949 2.94980  10
  -1   1  -8 337.153 12.3235  15
  -1   1  -8 348.630 12.9129  10
  -1   1  -8 324.949 12.2185  26
   1  -1   8 362.379 13.0469  15
  -2   1  -8 405.880 15.0320  10
  -2   1  -8 381.313 14.3077  26
  -2   1  -8 409.695 14.3979  30
  -2   1  -8 414.351 14.3489  28
  -2   1  -8 408.418 15.1492   4
  -3   1  -8 50.5595 2.32278  28
  -3   1  -8 52.1660 2.63294  27
  -3   1  -8 49.8622 2.37399   9
  -3   1  -8 53.3437 2.40255  30
  -3   1  -8 51.4419 3.12138   4
  -3   1  -8 48.5137 2.78126  10
  -3   1  -8 51.9401 2.32303  21
  -4   1  -8 165.225 6.39147  27
  -4   1  -8 162.389 6.91029   4
  -4   1  -8 163.014 6.12479   9
  -4   1  -8 160.145 6.14561  30
  -4   1  -8 153.960 6.00229  21
   6   0  -8 38.6631 2.00859  19
   6   0  -8 41.1814 2.34305  11
   6   0  -8 42.7993 2.61376  31
  -6   0   8 45.8412 2.73821  31
  -6   0   8 37.6463 2.47733   3
  -6   0   8 40.1489 2.33399  11
  -6   0   8 38.6569 2.09468  25
  -6   0   8 39.5217 2.00221  13
   5   0  -8 66.5721 4.89448   2
   5   0  -8 65.7647 3.30698  11
   5   0  -8 59.2346 3.41905  31
   5   0  -8 63.4063 2.89515  19
  -5   0   8 62.7848 2.98336  25
  -5   0   8 66.4606 3.24886  11
  -5   0   8 63.8012 2.88610  13
  -5   0   8 60.9158 3.28469   3
  -5   0   8 61.8341 3.53644  31
   4   0  -8 26.8012 1.90175  11
   4   0  -8 23.2735 1.46260  19
  -4   0   8 21.6798 1.53293  13
  -4   0   8 20.7357 1.54677  25
  -4   0   8 21.5749 1.68638  11
   3   0  -8 51.3757 2.43016  19
  -3   0   8 51.8442 2.52229  25
   1   0  -8 776.335 28.4968  10
   1   0  -8 842.453 28.5137  26
   0   0  -8 867.869 30.2369  26
   0   0  -8 867.823 30.7070  10
  -1   0  -8 100.380 4.58023  10
  -1   0  -8 96.1751 4.03418  15
  -1   0  -8 102.359 3.95899  28
  -1   0  -8 96.4212 3.91588  26
   1   0   8 97.2122 4.43687  15
  -2   0  -8 7.06287 0.81396  30
  -2   0  -8 7.60767 0.79379  21
  -2   0  -8 7.56491 1.10973  10
  -2   0  -8 9.31992 1.31444   4
  -2   0  -8 6.90929 1.10241  27
  -2   0  -8 7.24070 0.79349  28
  -2   0  -8 6.94885 0.95570  15
   2   0   8 8.38740 1.38676  15
  -3   0  -8 15.3696 1.38020  10
  -3   0  -8 15.8851 1.43801  27
  -3   0  -8 14.7555 1.18690   9
  -3   0  -8 16.8862 1.13353  28
  -3   0  -8 15.1400 1.05860  21
  -3   0  -8 15.9810 1.15919  30
   7  -1  -8 65.8069 3.01880  11
  -7   1   8 66.6566 3.05882   3
  -7   1   8 60.5455 2.67483  13
  -7   1   8 68.4018 3.04648  11
   6  -1  -8 124.064 4.81749  19
   6  -1  -8 121.524 5.16581  11
  -6   1   8 116.928 4.76823  13
  -6   1   8 131.270 5.35198   3
  -6   1   8 111.993 5.02301  11
  -6   1   8 123.331 4.91099  25
   5  -1  -8 56.9057 2.91225  11
   5  -1  -8 56.9980 2.56173  19
   5  -1  -8 55.7615 3.03316  23
  -5   1   8 55.2110 2.80722  11
  -5   1   8 53.6042 2.66511  25
  -5   1   8 51.4576 2.85238   3
  -5   1   8 52.2493 2.55184  13
   4  -1  -8 23.8501 1.50809  19
   4  -1  -8 23.6437 1.85799   4
   4  -1  -8 25.4583 1.82447  11
   4  -1  -8 25.9845 3.06807   7
   4  -1  -8 25.8583 1.92962  23
  -4   1   8 28.0704 1.81240  11
  -4   1   8 25.3452 1.63921  25
  -4   1   8 24.9139 1.55835  13
   3  -1  -8 231.289 9.56867   4
  -3   1   8 255.460 9.09153  25
   1  -1  -8 15.8417 1.46273  15
   1  -1  -8 23.4183 1.59956  10
   1  -1  -8 20.4522 1.56133  26
   0  -1  -8 1.71233 0.52105  15
   0  -1  -8 2.97669 0.64250  26
   0  -1  -8 1.33918 0.61539  10
   0  -1  -8 1.35923 0.47767  28
   0   1   8 1.71278 0.80756  15
  -1  -1  -8 41.9913 1.98599  28
  -1  -1  -8 37.7517 1.94989  30
  -1  -1  -8 41.0680 2.45424  10
  -1  -1  -8 40.7010 2.10663  15
  -1  -1  -8 38.9383 1.96791  26
  -1  -1  -8 37.8641 2.37818   4
  -2  -1  -8 16.5259 1.12774  28
  -2  -1  -8 15.9910 1.12645  21
  -2  -1  -8 16.3810 1.20033   9
  -2  -1  -8 17.1051 1.52202  10
  -2  -1  -8 16.0686 1.18475  30
  -2  -1  -8 16.0373 1.29260  15
  -2  -1  -8 14.5648 1.39997  27
  -2  -1  -8 17.9818 1.42163   1
  -3  -1  -8 0.78852 0.37225  21
  -3  -1  -8 0.54624 0.50545  10
  -3  -1  -8 1.29775 0.42870  28
   7  -2  -8 340.679 12.6080  11
   7  -2  -8 334.098 12.7165  23
  -7   2   8 358.950 12.6559   3
  -7   2   8 353.158 12.6222  11
   6  -2  -8 48.1775 2.91127   4
   6  -2  -8 52.0588 2.37091  19
   6  -2  -8 50.8485 2.65520  11
   6  -2  -8 54.2636 2.85022  23
  -6   2   8 51.2979 2.54101  25
  -6   2   8 52.1336 2.79944   3
  -6   2   8 53.2028 2.64266  11
  -6   2   8 49.9554 2.46653  13
   5  -2  -8 216.180 8.43837   4
   5  -2  -8 206.965 8.23036  11
   5  -2  -8 214.851 8.46315  23
  -5   2   8 214.202 8.35718   3
  -5   2   8 210.942 7.92466  13
  -5   2   8 214.097 8.05886  25
  -5   2   8 208.236 8.19263  11
   4  -2  -8 1.96193 1.13549   7
   4  -2  -8 1.48356 0.69600   4
  -4   2   8 3.82586 0.90573   3
  -4   2   8 1.77230 0.63246  25
  -4   2   8 2.33880 0.61946  13
   3  -2  -8 8.00427 1.21495   4
   3  -2  -8 8.89166 1.62932   7
  -3   2   8 9.24175 1.49457  17
  -3   2   8 9.72935 1.05512  25
   2  -2  -8 143.453 5.97612   4
   2  -2  -8 125.519 5.21038  30
  -2   2   8 126.663 5.86402  15
  -2   2   8 142.104 5.31358  25
   1  -2  -8 323.136 12.2742  10
   1  -2  -8 338.861 11.8770  30
   1  -2  -8 326.554 11.8994  15
   1  -2  -8 331.153 11.6330  25
   1  -2  -8 319.732 12.1651  26
  -1   2   8 343.673 11.9068  25
  -1   2   8 324.546 12.1831  15
   0  -2  -8 25.8235 1.33080  25
   0  -2  -8 26.2704 1.91962  10
   0  -2  -8 26.7884 1.51494  28
   0  -2  -8 24.5609 1.66875  15
   0  -2  -8 26.9395 1.49010  21
   0  -2  -8 23.5479 1.51507  30
   0  -2  -8 23.9283 1.63123  26
   0   2   8 26.9706 1.55966  25
  -1  -2  -8 319.805 11.8159  27
  -1  -2  -8 327.769 11.6801  21
  -1  -2  -8 320.418 11.7041  30
  -1  -2  -8 326.092 11.7290  22
  -1  -2  -8 316.918 11.9319  26
  -1  -2  -8 321.665 12.2079  10
  -1  -2  -8 334.673 11.8089  15
  -1  -2  -8 318.430 11.6919   9
  -1  -2  -8 318.810 11.7833   1
  -1  -2  -8 335.762 11.6938  28
  -2  -2  -8 68.3879 2.91991  28
  -2  -2  -8 69.9423 3.04676   1
  -2  -2  -8 67.0532 2.93276  22
  -2  -2  -8 68.7522 3.01601  15
  -2  -2  -8 60.5490 2.88156   9
  -2  -2  -8 66.6914 3.39764  10
  -2  -2  -8 65.9733 2.87860  21
  -2  -2  -8 65.4042 2.94966  30
  -3  -2  -8 0.76712 0.39998  28
  -3  -2  -8 1.58676 0.55201   1
   7  -3  -8 25.2107 1.55654  11
   7  -3  -8 27.4812 1.70409  23
   7  -3  -8 26.9562 1.67574   4
  -7   3   8 25.6625 1.57043  11
  -7   3   8 24.5926 1.70414   3
   6  -3  -8 434.078 15.8784  23
   6  -3  -8 437.407 15.8517   4
   6  -3  -8 421.650 15.7313  11
  -6   3   8 431.814 15.8523  11
  -6   3   8 422.670 15.6131  25
  -6   3   8 451.195 15.7517   3
   5  -3  -8 164.554 6.96900  23
   5  -3  -8 177.747 7.00958   4
  -5   3   8 167.436 6.81628   3
  -5   3   8 165.489 6.49329  13
  -5   3   8 174.770 6.65113  25
   4  -3  -8 0.95576 0.61529  23
   4  -3  -8 1.40916 0.63679  27
   4  -3  -8 0.11233 0.52613   4
   4  -3  -8 0.55513 0.81447   7
  -4   3   8 0.12930 0.52198  25
  -4   3   8 0.06934 0.48534  13
  -4   3   8 1.06206 0.74673  17
  -4   3   8 -0.0556 0.59378   3
   3  -3  -8 10.4676 1.36793  23
   3  -3  -8 12.4517 2.04512   7
   3  -3  -8 10.6771 1.30262  27
   3  -3  -8 12.3355 1.03477  30
  -3   3   8 13.3872 1.64306  17
  -3   3   8 12.3967 1.33768   3
  -3   3   8 12.7041 1.14510  25
  -3   3   8 12.6640 1.13092  13
   2  -3  -8 230.555 7.87592  25
   2  -3  -8 202.634 8.04996   9
   2  -3  -8 216.234 8.69462   4
   2  -3  -8 227.465 8.10940  30
   2  -3  -8 209.063 8.02437  22
  -2   3   8 216.617 8.48550  22
  -2   3   8 234.179 8.19262  25
  -2   3   8 193.568 8.69337  17
  -2   3   8 225.033 8.02294  13
   1  -3  -8 216.293 8.07521  15
   1  -3  -8 222.805 7.78738  25
   1  -3  -8 220.123 7.96549  28
   1  -3  -8 199.954 8.38338  10
   1  -3  -8 219.308 8.02218  22
   1  -3  -8 203.916 8.02689   1
   1  -3  -8 208.393 8.30162  26
   1  -3  -8 209.743 8.18638  27
   1  -3  -8 220.844 7.94746  21
   1  -3  -8 210.969 7.98225   9
   1  -3  -8 204.576 7.99973  30
  -1   3   8 229.187 7.92065  13
  -1   3   8 225.660 8.03506  25
   0  -3  -8 794.250 27.4326  30
   0  -3  -8 782.544 27.4333   1
   0  -3  -8 784.427 27.9263  10
   0  -3  -8 783.102 27.3921   9
   0  -3  -8 771.768 27.3825  22
   0  -3  -8 788.646 27.3498  28
   0  -3  -8 778.865 27.4775  27
   0  -3  -8 766.459 27.3230  21
   0  -3  -8 805.585 27.1425  25
   0  -3  -8 782.659 27.4866  15
   0   3   8 798.466 27.3425  25
  -1  -3  -8 0.82547 0.44451  22
  -1  -3  -8 1.17825 0.54276  15
  -1  -3  -8 2.32716 0.67081   1
  -1  -3  -8 -0.2259 0.37236  28
  -1  -3  -8 0.42867 0.41676  30
  -1  -3  -8 1.24302 0.53995   9
  -1  -3  -8 1.19825 0.39880  25
  -1  -3  -8 0.66334 0.53258  10
  -1  -3  -8 1.10933 0.47115  21
   1   3   8 1.79252 0.61670  25
   1   3   8 0.84961 0.86648  10
  -2  -3  -8 52.9656 2.45296   1
  -2  -3  -8 51.1368 2.44768  15
  -2  -3  -8 51.6331 2.37450  22
  -2  -3  -8 53.1634 2.34799  21
  -2  -3  -8 52.4829 2.36433  28
  -3  -3  -8 28.6478 1.52422   1
   7  -4  -8 156.195 6.07831   4
   7  -4  -8 153.614 6.07469  23
  -7   4   8 149.092 5.97345   3
   6  -4  -8 113.298 5.01388  23
   6  -4  -8 114.228 5.01102   4
  -6   4   8 122.917 5.03827   3
   5  -4  -8 247.073 9.44509   4
   5  -4  -8 236.423 8.88091  27
   5  -4  -8 232.775 9.38532  23
  -5   4   8 242.342 9.05054  25
  -5   4   8 240.706 9.24333   3
   4  -4  -8 2.25596 0.75808  27
   4  -4  -8 1.97382 0.81566   4
   4  -4  -8 1.97986 0.52534  30
  -4   4   8 2.73937 0.74117  25
  -4   4   8 2.97512 1.03075  17
  -4   4   8 3.05034 0.88323   3
  -4   4   8 3.79671 0.73840  13
   3  -4  -8 128.177 5.34606  27
   3  -4  -8 121.911 5.72805   4
   3  -4  -8 132.653 7.64663   7
   3  -4  -8 136.818 5.15998  30
   3  -4  -8 131.017 5.10713   9
  -3   4   8 129.804 5.50985   3
  -3   4   8 129.989 5.12848  13
  -3   4   8 131.679 5.24141  25
  -3   4   8 131.183 5.98395  17
   2  -4  -8 381.447 13.2288   3
   2  -4  -8 343.661 15.8081   7
   2  -4  -8 361.052 12.6423  25
   2  -4  -8 356.836 12.9036  30
   2  -4  -8 362.083 12.8854   9
   2  -4  -8 377.823 12.8379  21
   2  -4  -8 351.625 13.0443  27
  -2   4   8 328.242 13.1358   3
  -2   4   8 353.224 12.7947  13
  -2   4   8 358.682 12.9366  25
  -2   4   8 361.151 13.7573  17
   1  -4  -8 2.11810 0.68529  10
   1  -4  -8 3.03744 0.87228  27
   1  -4  -8 3.41061 0.63577  30
   1  -4  -8 2.64717 0.66957   9
   1  -4  -8 2.47321 0.48756  25
   1  -4  -8 3.97168 0.61276  28
   1  -4  -8 2.98862 0.63306  22
   1  -4  -8 1.24000 0.67628   1
   1  -4  -8 2.73132 0.70077  15
   1  -4  -8 3.17389 0.59313  21
  -1   4   8 1.38737 0.81707  17
  -1   4   8 1.97430 0.97342  10
  -1   4   8 2.92952 0.69458  13
  -1   4   8 2.20168 0.67875  25
   0  -4  -8 254.115 9.37575  22
   0  -4  -8 257.358 9.36837  28
   0  -4  -8 257.778 9.16899  25
   0  -4  -8 261.586 9.44641   9
   0  -4  -8 252.495 9.89630  10
   0  -4  -8 258.535 9.46276  30
   0  -4  -8 257.394 9.42083   1
   0  -4  -8 260.064 9.48436  15
   0  -4  -8 259.869 9.38092  21
   0   4   8 273.797 9.42588  25
   0   4   8 231.842 10.6515  10
  -1  -4  -8 449.304 15.5631  21
  -1  -4  -8 442.749 15.3584  25
  -1  -4  -8 428.766 15.5547  22
  -1  -4  -8 450.148 15.5702  28
  -1  -4  -8 444.014 15.6538  15
  -1  -4  -8 435.562 15.6025   1
   1   4   8 437.721 15.5124  25
  -2  -4  -8 41.1347 1.76467  25
  -2  -4  -8 43.9745 1.98726   1
  -2  -4  -8 42.3222 1.90724  22
   2   4   8 43.3585 1.85305  13
   2   4   8 41.8134 1.94954  25
   6  -5  -8 5.80801 0.93298  23
   6  -5  -8 6.31942 0.96019   4
   6  -5  -8 8.61030 0.90845  27
  -6   5   8 6.59632 1.05768   3
   5  -5  -8 64.3957 3.40566   4
   5  -5  -8 71.4929 3.08122  27
  -5   5   8 70.4689 3.37813   3
   4  -5  -8 531.671 18.1122  30
   4  -5  -8 508.949 18.0321   9
   4  -5  -8 507.330 18.2144  27
  -4   5   8 499.075 18.2206  13
  -4   5   8 518.728 19.0876  17
  -4   5   8 513.163 18.5058   3
  -4   5   8 514.712 18.3032  25
   3  -5  -8 245.068 8.90918  30
   3  -5  -8 240.527 8.84595   9
   3  -5  -8 232.737 9.00775  27
  -3   5   8 225.486 8.83080  13
  -3   5   8 244.328 8.98864  25
  -3   5   8 249.106 9.77807  17
  -3   5   8 250.490 9.29432   3
   2  -5  -8 53.5106 2.48588   9
   2  -5  -8 55.9060 2.43380  21
   2  -5  -8 53.2738 2.68746  27
   2  -5  -8 52.6150 2.49285  30
   2  -5  -8 52.3874 2.26668  25
  -2   5   8 50.6113 2.42616  13
  -2   5   8 54.5801 3.19587  17
  -2   5   8 54.9025 2.80085   3
  -2   5   8 54.1764 2.55897  25
   1  -5  -8 325.042 11.6591  22
   1  -5  -8 322.865 11.6728  28
   1  -5  -8 332.365 11.9247   3
   1  -5  -8 319.478 11.6721  21
   1  -5  -8 334.403 11.7376   9
   1  -5  -8 329.325 11.7638  30
   1  -5  -8 308.620 11.4701  25
  -1   5   8 327.047 11.6489  13
  -1   5   8 324.966 11.7509  25
  -1   5   8 333.976 12.4908  17
  -1   5   8 330.012 11.9888   3
   0  -5  -8 266.907 9.53557  28
   0  -5  -8 257.225 9.35405  25
   0  -5  -8 261.007 9.55592   1
   0  -5  -8 269.251 9.54260  21
   0  -5  -8 262.291 9.58347  15
   0  -5  -8 262.054 9.51362  22
   0   5   8 268.706 9.56826  25
   0   5   8 268.374 10.1635  17
   0   5   8 268.497 9.47830  13
  -1  -5  -8 13.0044 0.87763  21
  -1  -5  -8 13.1585 0.90382  22
  -1  -5  -8 12.9198 0.97924   1
   1   5   8 13.7352 0.90019  13
   6  -6  -8 216.564 8.08628  27
  -6   6   8 231.174 8.37911   3
   5  -6  -8 289.576 10.5394  27
   5  -6  -8 286.736 10.4227  30
   5  -6  -8 291.462 10.3776   9
  -5   6   8 302.957 10.8865   3
   4  -6  -8 19.6560 1.24615   9
   4  -6  -8 19.6745 1.21808  30
   4  -6  -8 18.9524 1.36750  27
  -4   6   8 21.1181 1.85581  17
  -4   6   8 22.0467 1.58313   3
   3  -6  -8 14.6961 1.19581  27
   3  -6  -8 14.6936 1.05182   9
   3  -6  -8 14.7188 0.96365  21
   3  -6  -8 14.6180 1.01578  30
  -3   6   8 14.2486 1.32549   3
  -3   6   8 13.3629 1.03050  13
  -3   6   8 15.7730 1.60394  17
  -3   6   8 13.7874 1.11414  25
   2  -6  -8 20.8501 1.08087  25
   2  -6  -8 19.7567 1.21918  30
   2  -6  -8 20.9274 1.16932  28
   2  -6  -8 21.9379 1.28080   9
   2  -6  -8 21.5759 1.18076  21
  -2   6   8 20.9962 1.22803  13
  -2   6   8 20.7975 1.45990   3
  -2   6   8 20.7542 1.31699  25
  -2   6   8 21.7820 1.77346  17
   1  -6  -8 23.2190 1.46809   3
   1  -6  -8 23.2250 1.12762  25
   1  -6  -8 22.7753 1.18235  21
  -1   6   8 23.9105 1.45977   3
  -1   6   8 23.7437 1.26221  13
  -1   6   8 22.8467 1.29813  25
  -2   7  -9 123.864 4.88799  12
  -2   7  -9 120.572 5.68785   2
   2  -7   9 124.478 4.78697   8
  -3   7  -9 0.36008 0.49855   2
   1   6  -9 0.90904 0.42791  12
   1   6  -9 1.59803 0.56810  31
   1   6  -9 0.64747 0.64889   2
  -1  -6   9 0.62048 0.65234   1
   0   6  -9 62.0618 2.92150  31
   0   6  -9 61.3964 2.80386  12
   0   6  -9 55.5251 3.76877   2
   0  -6   9 64.0673 3.03005   1
   0  -6   9 58.2456 2.72757   8
  -1   6  -9 7.16708 0.91838  12
  -1   6  -9 5.01711 1.48707   2
  -1   6  -9 6.84082 1.02051  31
   1  -6   9 8.22617 1.27917   1
   1  -6   9 7.40651 1.01341   8
  -2   6  -9 260.349 11.7138   2
  -2   6  -9 292.020 10.3833  12
  -2   6  -9 274.193 10.5286  31
   2  -6   9 282.586 10.2742   8
   2  -6   9 270.568 10.1406  28
  -3   6  -9 650.656 23.5231  31
  -3   6  -9 651.681 23.2664  12
  -3   6  -9 661.172 22.6638  21
  -3   6  -9 642.779 24.7147   2
  -3   6  -9 630.444 22.8376  19
   3  -6   9 662.506 23.1462   8
   3  -6   9 674.370 22.9149  21
   3  -6   9 656.360 22.6344  16
   3  -6   9 682.634 23.1340  28
  -4   6  -9 82.9966 3.86733  31
  -4   6  -9 79.6942 3.62152  12
  -4   6  -9 85.4497 3.19291  21
   4  -6   9 87.6445 3.71729   8
   4  -6   9 82.7035 3.56736  28
   4  -6   9 89.1877 3.43825  21
   3   5  -9 35.1678 2.83643   2
  -3  -5   9 41.2495 2.00873  22
   2   5  -9 113.309 4.54192  31
   2   5  -9 114.483 4.44759  12
   2   5  -9 97.7899 5.89935   2
  -2  -5   9 110.205 4.62916  22
  -2  -5   9 112.152 4.72406  15
   1   5  -9 31.2014 3.15595   2
   1   5  -9 27.8846 1.69691  12
  -1  -5   9 26.7049 2.05298   1
  -1  -5   9 24.7226 2.07935  15
   0   5  -9 100.681 5.96503   2
   0   5  -9 98.6188 4.35160  31
   0   5  -9 95.8494 4.47405  10
   0   5  -9 97.0298 4.20294  12
   0  -5   9 94.5157 4.20818   8
   0  -5   9 93.6831 4.39316   1
   0  -5   9 98.3462 4.52774  15
  -1   5  -9 320.764 14.1570   2
  -1   5  -9 338.954 12.6788  10
  -1   5  -9 335.562 11.9527  19
  -1   5  -9 320.204 12.3266  12
  -1   5  -9 338.342 12.5948  31
   1  -5   9 337.142 12.2529  28
   1  -5   9 342.209 12.3895   8
   1  -5   9 339.110 12.5009   1
  -2   5  -9 148.066 6.44436  10
  -2   5  -9 150.945 6.49774  31
  -2   5  -9 150.680 5.83573  19
  -2   5  -9 145.906 6.25620  12
  -2   5  -9 153.186 7.87723   2
   2  -5   9 151.713 5.87857  21
   2  -5   9 155.648 6.13829  28
   2  -5   9 156.676 6.28755   8
  -3   5  -9 130.270 4.85786  21
  -3   5  -9 121.705 6.82749   2
  -3   5  -9 128.676 5.76885  31
  -3   5  -9 119.398 5.34920  11
  -3   5  -9 120.069 5.07237  19
   3  -5   9 138.232 5.14235  21
   3  -5   9 136.001 5.34251  28
   3  -5   9 136.600 5.44090   8
   3  -5   9 134.656 4.80576  16
  -4   5  -9 1.51706 0.51688  19
  -4   5  -9 1.87016 0.40381  30
  -4   5  -9 0.93713 0.53572  11
  -4   5  -9 0.78212 0.28668  21
  -4   5  -9 1.91264 0.54886  27
  -4   5  -9 0.68683 0.63564  31
   4  -5   9 1.11467 0.53144   9
   4  -5   9 1.87180 0.57877  28
   4  -5   9 1.91977 0.49802  30
   4  -5   9 0.57905 0.55909   8
   4  -5   9 1.22580 0.37182  16
   4  -5   9 1.00802 0.47837  21
  -5   5  -9 2.23337 0.55182   4
  -5   5  -9 2.37651 0.59157  11
  -5   5  -9 1.35125 0.32154  30
  -5   5  -9 1.81597 0.31917  21
  -5   5  -9 2.45138 0.48955  27
   5  -5   9 1.86573 0.47154  21
   5  -5   9 0.71751 0.38076  30
   5  -5   9 1.41821 0.45704   9
   4   4  -9 162.473 6.07778  12
   4   4  -9 151.276 7.35800   2
  -4  -4   9 176.492 6.29415  22
   3   4  -9 137.902 5.18226  12
   3   4  -9 119.602 6.82560   2
   3   4  -9 136.677 5.32182  31
  -3  -4   9 130.667 5.48218  15
  -3  -4   9 131.867 5.42281  22
  -3  -4   9 131.682 5.39277   1
   2   4  -9 7.09809 1.95647   2
   2   4  -9 8.71732 1.03066  31
   2   4  -9 6.84886 0.91923  12
   2   4  -9 7.82530 0.67951  19
  -2  -4   9 7.65428 1.24483   1
  -2  -4   9 9.25187 1.50898  15
  -2  -4   9 9.41592 1.47029  22
   1   4  -9 3.81749 0.75809  12
   1   4  -9 3.68577 0.56417  19
   1   4  -9 4.02985 0.79197  31
   1   4  -9 2.80872 1.24120   2
  -1  -4   9 2.94542 1.04204  15
  -1  -4   9 2.99654 1.08150   1
  -1  -4   9 3.22667 1.13801  22
   0   4  -9 18.5253 2.72373   2
   0   4  -9 18.8308 1.68324  10
   0   4  -9 18.2688 1.46496  31
   0   4  -9 19.3077 1.13332  19
   0  -4   9 12.9132 1.54593   8
   0  -4   9 18.8860 1.96401  15
   0  -4   9 19.2759 2.00105   1
  -1   4  -9 286.656 10.0580  19
  -1   4  -9 279.392 10.7627  10
  -1   4  -9 285.727 12.4500   2
  -1   4  -9 273.536 10.6788  31
  -1   4  -9 283.807 9.91375  28
  -1   4  -9 278.331 10.3646  11
   1  -4   9 255.711 10.6078   1
   1  -4   9 280.391 10.5348   8
   1  -4   9 257.852 10.2587  28
  -2   4  -9 190.645 7.73438  10
  -2   4  -9 203.345 9.55405   2
  -2   4  -9 177.598 7.75880  31
  -2   4  -9 193.784 7.48469  11
  -2   4  -9 191.837 6.88337  21
  -2   4  -9 185.393 7.10031  19
  -2   4  -9 193.479 6.92057  28
   2  -4   9 177.892 7.07340  21
   2  -4   9 173.070 7.25672  28
   2  -4   9 178.802 6.75888  16
   2  -4   9 183.615 7.47221   8
  -3   4  -9 20.6762 1.21475  28
  -3   4  -9 21.4985 1.93791  31
  -3   4  -9 18.4523 1.52385   4
  -3   4  -9 20.1295 1.70673  11
  -3   4  -9 20.8526 1.44613  19
  -3   4  -9 19.6866 1.42925  27
  -3   4  -9 20.0064 1.73095  10
  -3   4  -9 20.6149 1.21969  30
  -3   4  -9 20.5314 1.16854  21
  -3   4  -9 20.1087 2.63014   2
   3  -4   9 20.9463 1.42710  21
   3  -4   9 22.0262 1.20486  16
   3  -4   9 19.2264 1.58531  28
   3  -4   9 19.1950 1.69853   8
  -4   4  -9 104.263 3.87768  28
  -4   4  -9 103.280 3.91859  30
  -4   4  -9 104.711 4.79980  31
  -4   4  -9 99.1514 4.14989  19
  -4   4  -9 97.1639 4.35648   4
  -4   4  -9 102.129 4.06555  27
  -4   4  -9 93.8785 4.47072  11
  -4   4  -9 99.9679 3.86537  21
   4  -4   9 100.010 4.23547  28
   4  -4   9 96.6703 4.07964  21
   4  -4   9 101.060 3.80525  16
  -5   4  -9 96.1460 4.12702  11
  -5   4  -9 100.080 3.70819  30
  -5   4  -9 98.6086 3.63915  21
  -5   4  -9 96.7022 4.10996   4
  -5   4  -9 97.6513 3.81842  27
   5  -4   9 92.3912 3.62769  16
   5  -4   9 92.8670 3.79664  30
   5  -4   9 98.8362 3.84797  21
   5   3  -9 6.94534 1.47379   2
  -5  -3   9 8.00606 1.06130  22
  -5  -3   9 8.69765 0.66526  13
   4   3  -9 65.1955 4.31408   2
   4   3  -9 72.2523 3.15139  31
   4   3  -9 67.1254 3.05435  12
   4   3  -9 71.1434 2.73631  19
  -4  -3   9 67.5803 3.32281  15
  -4  -3   9 72.6984 3.32396  22
  -4  -3   9 65.3680 2.86127  13
   3   3  -9 325.923 14.4723   2
   3   3  -9 353.427 12.8406  31
   3   3  -9 361.210 12.2983  19
  -3  -3   9 345.317 12.9848  22
  -3  -3   9 352.921 13.0119  15
   2   3  -9 51.9615 2.64631  31
   2   3  -9 50.1984 2.46588  11
   2   3  -9 52.4401 2.22833  19
   2   3  -9 52.3436 4.21673   2
  -2  -3   9 49.2939 3.03595  15
  -2  -3   9 50.7181 2.97333  22
  -2  -3   9 50.0403 3.06809   1
   1   3  -9 34.4298 2.09661  31
   1   3  -9 34.8990 1.68566  19
   1   3  -9 36.1393 1.91830  11
   1   3  -9 37.8091 3.63654   2
  -1  -3   9 33.5906 2.44558  22
  -1  -3   9 36.3403 2.55286  15
  -1  -3   9 34.8985 2.56330   1
   0   3  -9 26.5791 1.82581  31
   0   3  -9 29.3532 1.52671  19
   0   3  -9 30.5746 1.77575  11
   0   3  -9 28.2841 2.07365  10
   0   3  -9 29.6041 1.64489   1
   0  -3   9 26.0183 2.01771   8
   0  -3   9 36.1296 2.48077  15
  -1   3  -9 423.168 16.6351   2
  -1   3  -9 401.809 14.7800  10
  -1   3  -9 408.896 14.4265  11
  -1   3  -9 398.223 14.1076  19
  -1   3  -9 392.533 13.9719  28
  -1   3  -9 378.328 14.0464   1
  -1   3  -9 377.606 14.7166  31
   1  -3   9 395.373 14.5580   8
   1  -3   9 397.876 14.3374  28
   1  -3   9 374.040 14.7568   1
  -2   3  -9 34.9186 2.44777  31
  -2   3  -9 35.8106 2.44312  10
  -2   3  -9 36.0742 3.47388   2
  -2   3  -9 37.5223 1.99470  19
  -2   3  -9 35.2433 2.02180  27
  -2   3  -9 36.5849 2.27883  11
  -2   3  -9 38.1206 1.78914  21
  -2   3  -9 35.9005 1.78486  28
  -2   3  -9 36.6514 1.82003  30
  -2   3  -9 34.7369 1.82389   9
   2  -3   9 36.7262 2.32428   8
   2  -3   9 35.2480 2.17347  28
  -3   3  -9 373.733 13.3322  28
  -3   3  -9 372.478 13.3890   9
  -3   3  -9 368.765 13.2991  21
  -3   3  -9 374.348 13.5428  27
  -3   3  -9 367.275 13.6554  19
  -3   3  -9 377.376 14.1099  10
  -3   3  -9 369.404 14.0759   4
  -3   3  -9 374.872 13.3942  30
   3  -3   9 393.331 13.7330  28
   3  -3   9 389.653 13.8617   8
  -4   3  -9 139.749 6.00225  11
  -4   3  -9 140.555 5.51926  27
  -4   3  -9 136.648 5.25709  21
  -4   3  -9 132.795 5.92547   4
  -4   3  -9 139.165 5.37104  30
  -4   3  -9 143.296 5.27215  28
  -4   3  -9 138.656 5.35936   9
  -4   3  -9 147.116 5.58169  19
   4  -3   9 144.929 5.23052  16
   4  -3   9 146.709 5.64046  28
  -5   3  -9 0.53696 0.27298  30
  -5   3  -9 1.40417 0.55103  27
  -5   3  -9 0.56528 0.50375   4
  -5   3  -9 0.41439 0.50791  11
  -5   3  -9 0.76361 0.28529  21
   5  -3   9 0.97394 0.33810  16
   5  -3   9 0.88460 0.46134  21
   5   2  -9 221.197 8.24520  31
   5   2  -9 209.376 9.50522   2
   5   2  -9 225.554 7.82111  19
  -5  -2   9 213.963 7.88929  13
  -5  -2   9 218.682 7.98598  25
  -5  -2   9 218.018 8.26575  22
   4   2  -9 502.297 17.0455  19
   4   2  -9 488.165 17.2434  11
   4   2  -9 479.425 19.2811   2
   4   2  -9 488.630 17.5467  31
  -4  -2   9 484.125 17.1125  13
  -4  -2   9 493.847 17.2633  25
  -4  -2   9 463.434 17.5998  22
   3   2  -9 58.7742 4.20455   2
   3   2  -9 53.4862 2.41244  19
   3   2  -9 53.6519 2.64667  11
   3   2  -9 49.8502 2.78743  31
  -3  -2   9 54.2683 3.10097  22
  -3  -2   9 63.4252 2.86710  13
  -3  -2   9 60.6228 3.23995  15
   2   2  -9 133.706 5.53711  11
   2   2  -9 130.573 5.26090  19
   2   2  -9 128.462 5.66858  31
   2   2  -9 150.582 7.48873   2
  -2  -2   9 148.160 6.12506  22
  -2  -2   9 149.587 6.05956   1
   1   2  -9 13.3200 0.91521  19
   1   2  -9 13.3228 1.23680  31
   0   2  -9 19.0480 1.62221  10
   0   2  -9 18.1693 1.15929  19
   0  -2   9 18.0451 2.79886   5
   0  -2   9 21.5730 2.16811  15
  -1   2  -9 174.304 6.27947  28
  -1   2  -9 169.259 6.83353   4
  -1   2  -9 169.889 6.39989  19
  -1   2  -9 168.773 6.99792  10
  -1   2  -9 158.833 6.35259  15
  -1   2  -9 173.987 6.30899  21
  -1   2  -9 166.465 6.43068  26
  -1   2  -9 167.791 6.37948  30
   1  -2   9 172.625 6.59920  28
   1  -2   9 156.686 7.01326  15
  -2   2  -9 45.2643 2.22379  19
  -2   2  -9 43.8342 2.56405   4
  -2   2  -9 39.7303 2.08360  26
  -2   2  -9 40.9381 2.52974  11
  -2   2  -9 45.3652 2.08134  30
  -2   2  -9 41.3606 2.07505   9
  -2   2  -9 40.9891 2.62503  10
  -2   2  -9 39.4081 2.10402   1
  -2   2  -9 41.7866 2.24186  27
  -2   2  -9 44.8376 2.02676  21
  -2   2  -9 41.8154 2.03061  28
  -3   2  -9 443.837 15.8175  21
  -3   2  -9 451.084 16.6258  11
  -3   2  -9 445.143 15.8568   9
  -3   2  -9 456.087 15.8764  30
  -3   2  -9 439.936 16.0771  19
  -3   2  -9 465.134 16.6910   4
  -3   2  -9 443.593 16.0757  27
  -3   2  -9 460.574 16.5884  10
  -3   2  -9 439.590 15.7713  28
   3  -2   9 436.021 16.0849  28
  -4   2  -9 239.645 8.65783   9
  -4   2  -9 238.107 8.61875  21
  -4   2  -9 246.856 9.44936   4
  -4   2  -9 231.580 8.79161  27
  -4   2  -9 240.663 8.55959  28
  -4   2  -9 236.067 9.15951  11
  -4   2  -9 241.324 8.67911  30
   4  -2   9 226.933 8.84385  28
  -5   2  -9 67.0818 2.80616  27
  -5   2  -9 63.0720 3.04721   4
  -5   2  -9 63.9521 2.63257  30
   6   1  -9 56.0221 3.62405   2
   6   1  -9 62.5766 2.52454  11
  -6  -1   9 58.2641 2.52775  25
  -6  -1   9 60.5543 2.48443  13
   5   1  -9 82.9047 3.70537  11
   5   1  -9 84.4023 5.21762   2
   5   1  -9 82.3456 3.86555  31
   5   1  -9 83.4374 3.42168  19
  -5  -1   9 81.2548 3.58471  25
  -5  -1   9 87.7808 4.17566  31
  -5  -1   9 83.8913 3.50972  13
   4   1  -9 33.2582 3.40968   2
   4   1  -9 32.9769 1.75752  19
   4   1  -9 30.3740 2.11329  31
   4   1  -9 34.4751 2.10177  11
  -4  -1   9 33.8018 1.98570  25
  -4  -1   9 39.7959 2.53890  31
  -4  -1   9 34.2578 1.92879  13
  -4  -1   9 40.6484 2.53584  22
   3   1  -9 8.15326 0.77003  19
   3   1  -9 8.50019 1.10636  31
  -3  -1   9 8.30293 1.37920  15
  -3  -1   9 8.24829 1.06380  25
  -3  -1   9 7.21967 1.26540  22
  -3  -1   9 9.05216 1.03201  13
   2   1  -9 236.312 8.39060  19
  -2  -1   9 224.944 9.15327  15
   1   1  -9 617.490 21.6680   4
   1   1  -9 596.210 21.1315  19
  -1  -1   9 608.302 22.0000  15
   0   1  -9 466.889 16.2227  26
   0   1  -9 452.045 16.5941  10
   0   1  -9 454.782 15.9435  28
   0   1  -9 438.083 15.9462  19
   0   1  -9 473.227 16.4492   4
   0   1  -9 433.723 16.0573  15
   0  -1   9 452.753 16.6908  15
  -1   1  -9 142.489 5.65221  26
  -1   1  -9 150.645 5.57228  28
  -1   1  -9 150.530 5.60310  21
  -1   1  -9 146.807 5.58822  30
  -1   1  -9 141.444 6.13920  10
  -1   1  -9 138.000 5.62571  15
  -1   1  -9 148.350 6.10388   4
   1  -1   9 147.800 6.29161  15
  -2   1  -9 1258.00 43.2340   9
  -2   1  -9 1214.41 43.1313   1
  -2   1  -9 1282.21 43.1741  21
  -2   1  -9 1257.91 43.9295   4
  -2   1  -9 1250.87 43.8717  10
  -2   1  -9 1242.21 43.1235  28
  -2   1  -9 1273.54 43.2444  30
   2  -1   9 1237.27 43.6465   1
  -3   1  -9 605.369 21.8212   4
  -3   1  -9 612.062 21.2013  27
  -3   1  -9 569.309 20.8544  28
  -3   1  -9 594.714 21.5577  10
  -3   1  -9 615.194 20.9366  21
  -3   1  -9 595.001 20.9751   9
  -3   1  -9 597.770 20.9837  30
  -4   1  -9 43.1800 2.57854   4
  -4   1  -9 45.6928 2.07735   9
  -4   1  -9 44.8720 2.09555  30
  -4   1  -9 44.4395 2.01365  21
  -4   1  -9 46.4384 2.28319  27
  -4   1  -9 43.1984 1.97308  28
   6   0  -9 103.693 4.24933  11
   6   0  -9 99.2438 5.51533   2
   6   0  -9 101.427 3.91496  19
   6   0  -9 92.7098 4.25665  31
  -6   0   9 98.4669 4.49457  31
  -6   0   9 102.924 4.33959   3
  -6   0   9 97.4695 3.90363  13
  -6   0   9 98.3962 4.00511  25
   5   0  -9 199.725 8.12085  11
   5   0  -9 206.595 7.63838  19
  -5   0   9 204.104 7.73641  25
  -5   0   9 210.067 7.63467  13
  -5   0   9 201.929 8.20816  11
   4   0  -9 51.1619 2.59383  19
   4   0  -9 57.1985 3.09249  11
  -4   0   9 57.7870 2.72578  13
  -4   0   9 60.3145 2.83095  25
  -4   0   9 70.4667 3.39811  22
   3   0  -9 1456.20 50.2909  11
   3   0  -9 1478.39 50.5442  23
   3   0  -9 1344.89 49.7181  19
  -3   0   9 1453.31 50.5360  22
  -3   0   9 1454.32 50.0173  25
  -3   0   9 1508.41 49.8872  13
   2   0  -9 1530.42 50.6256  15
   2   0  -9 1449.92 50.3482  19
   2   0  -9 1462.35 50.9142   4
  -2   0   9 1501.67 51.1250  15
  -2   0   9 1390.41 50.5793  25
   1   0  -9 127.057 5.31262  26
   1   0  -9 122.877 4.98682  15
   1   0  -9 129.515 5.29526   4
  -1   0   9 125.768 5.59093  15
   0   0  -9 208.740 8.36907  10
   0   0  -9 201.402 7.84209  15
   0   0  -9 214.060 7.98528  26
   0   0  -9 214.235 7.77239  30
   0   0  -9 208.898 7.71958  28
   0   0  -9 207.015 8.16220   4
   0   0   9 215.012 8.42047  15
  -1   0  -9 268.141 10.2674  23
  -1   0  -9 254.447 9.64434  26
  -1   0  -9 262.319 10.1734   4
  -1   0  -9 251.025 9.65216  22
  -1   0  -9 263.120 9.74851   1
  -1   0  -9 257.377 10.2248  10
  -1   0  -9 267.818 9.58848  21
  -1   0  -9 259.785 9.70278  27
  -1   0  -9 269.008 9.59239  28
  -1   0  -9 274.794 9.71793   9
  -1   0  -9 264.601 9.62586  30
  -1   0  -9 260.638 9.68910  15
   1   0   9 274.074 10.2448  15
   1   0   9 264.956 10.4244  22
  -2   0  -9 105.642 4.29449   9
  -2   0  -9 105.324 4.34494  15
  -2   0  -9 106.223 4.24907  21
  -2   0  -9 108.478 4.30837  30
  -2   0  -9 101.973 4.44317  27
  -2   0  -9 108.379 4.93364   4
  -2   0  -9 111.621 4.43976   1
  -2   0  -9 106.516 4.26488  28
  -2   0  -9 103.788 4.81226  10
   2   0   9 108.836 4.82214  15
  -3   0  -9 16.2937 1.14439   9
  -3   0  -9 15.9349 1.06498  21
  -3   0  -9 14.8235 1.41907  10
  -3   0  -9 17.4599 1.17121  30
  -3   0  -9 16.2424 1.36287  27
  -3   0  -9 17.2954 1.12991  28
   6  -1  -9 145.634 6.17001  11
   6  -1  -9 148.367 5.74897  19
  -6   1   9 152.495 5.85389  25
  -6   1   9 156.176 5.76508  13
  -6   1   9 159.401 6.12936   3
  -6   1   9 149.024 6.20383  11
   5  -1  -9 124.696 4.87894  19
   5  -1  -9 131.212 5.55157  23
   5  -1  -9 126.165 5.38715  11
  -5   1   9 125.309 4.88006  13
  -5   1   9 116.950 5.31614  11
  -5   1   9 123.788 4.98847  25
  -5   1   9 114.506 5.25763   3
   4  -1  -9 292.460 11.4460  23
   4  -1  -9 299.975 11.4071   4
   4  -1  -9 286.168 11.2344  11
  -4   1   9 287.613 11.3221  11
  -4   1   9 303.750 10.8619  25
  -4   1   9 301.340 10.7179  13
   3  -1  -9 544.928 19.0850  22
   3  -1  -9 530.552 19.7346   4
   3  -1  -9 512.501 19.7437  23
  -3   1   9 563.261 19.1051  13
  -3   1   9 533.665 19.7399  22
  -3   1   9 569.116 19.2796  25
   2  -1  -9 159.706 6.11293  15
   2  -1  -9 161.360 6.60497   4
  -2   1   9 157.370 6.66482  15
  -2   1   9 160.294 6.20255  25
   1  -1  -9 428.635 15.9213   4
   1  -1  -9 437.499 15.5392  15
   1  -1  -9 444.826 15.4842  30
   1  -1  -9 444.595 15.9543  26
  -1   1   9 433.370 15.6431  25
  -1   1   9 428.145 16.0383  15
   0  -1  -9 80.7840 3.27112  21
   0  -1  -9 78.2907 3.81291  10
   0  -1  -9 75.4429 3.38276  15
   0  -1  -9 76.5062 3.41851  27
   0  -1  -9 79.5476 3.25170  28
   0  -1  -9 78.1970 3.69115   4
   0  -1  -9 74.6250 3.33304  22
   0  -1  -9 77.6984 3.55179   1
   0  -1  -9 80.8686 3.53663  26
   0  -1  -9 80.3044 3.30289  30
   0   1   9 73.2103 3.76164  22
   0   1   9 76.4743 3.78160  15
  -1  -1  -9 100.947 4.74316  10
  -1  -1  -9 107.859 4.20038  28
  -1  -1  -9 107.655 4.25907  22
  -1  -1  -9 100.511 4.34343  27
  -1  -1  -9 105.038 4.24904  30
  -1  -1  -9 105.419 4.76290   4
  -1  -1  -9 104.189 4.36658   1
  -1  -1  -9 106.782 4.20099  21
  -1  -1  -9 101.404 4.20739   9
  -1  -1  -9 104.446 4.30910  15
   1   1   9 106.832 4.67355  15
  -2  -1  -9 19.1906 1.63120  10
  -2  -1  -9 20.8839 1.49063   1
  -2  -1  -9 19.2645 1.29182  30
  -2  -1  -9 20.9709 1.55983  27
  -2  -1  -9 20.4436 1.42058  15
  -2  -1  -9 20.6610 1.25897  21
  -2  -1  -9 19.7709 1.28274  28
  -2  -1  -9 20.4536 1.32929   9
   2   1   9 20.4843 1.77323  15
  -3  -1  -9 155.713 5.60062  28
  -3  -1  -9 134.388 5.60836  30
  -3  -1  -9 149.149 5.61396   9
  -3  -1  -9 151.568 5.55136  21
   7  -2  -9 7.65278 0.83357  23
   7  -2  -9 5.79224 0.79003  11
  -7   2   9 6.06259 0.96890   3
   6  -2  -9 312.494 12.0736  23
   6  -2  -9 316.442 11.9054  11
  -6   2   9 341.037 11.5624  13
  -6   2   9 322.041 11.8298   3
  -6   2   9 312.621 11.9297  11
  -6   2   9 318.133 11.5981  25
   5  -2  -9 37.8415 2.50666  23
   5  -2  -9 37.4803 2.34569  11
   5  -2  -9 42.2100 2.56362   4
  -5   2   9 42.7221 2.18968  25
  -5   2   9 41.9741 2.46060  11
  -5   2   9 42.4856 2.07994  13
  -5   2   9 40.8036 2.37431   3
   4  -2  -9 15.2062 1.54572   4
   4  -2  -9 14.4836 1.51879  23
  -4   2   9 17.1255 1.24709  13
  -4   2   9 17.8085 1.35272  25
   3  -2  -9 28.9565 2.06008  23
   3  -2  -9 27.5104 2.04689   4
   3  -2  -9 23.3668 1.83231  27
   3  -2  -9 28.2701 1.59113  22
  -3   2   9 28.4142 1.74407  25
  -3   2   9 25.7616 2.12533  22
  -3   2   9 29.2955 1.67123  13
   2  -2  -9 411.145 14.8429  23
   2  -2  -9 413.995 14.3119  22
   2  -2  -9 402.304 14.8904   4
   2  -2  -9 402.047 14.3289  15
   2  -2  -9 356.151 14.3351   9
   2  -2  -9 400.179 14.4024  27
   2  -2  -9 413.615 14.2750  30
  -2   2   9 413.674 14.3949  25
  -2   2   9 373.938 14.7245  15
  -2   2   9 422.126 14.2827  13
  -2   2   9 397.908 14.8150  22
   1  -2  -9 353.289 13.2113   4
   1  -2  -9 355.586 12.7126  21
   1  -2  -9 353.586 12.8675   1
   1  -2  -9 355.299 12.7532   9
   1  -2  -9 326.797 13.3411  10
   1  -2  -9 373.481 12.8388  22
   1  -2  -9 341.663 12.8569  27
   1  -2  -9 372.867 12.8150  30
   1  -2  -9 352.017 13.1704  26
   1  -2  -9 365.687 12.8476  15
   1  -2  -9 371.149 12.5581  25
  -1   2   9 365.976 13.2420  15
  -1   2   9 359.588 12.7039  13
  -1   2   9 346.725 12.8171  25
  -1   2   9 338.606 13.2181  22
   0  -2  -9 550.326 19.3357  25
   0  -2  -9 574.563 19.5757  21
   0  -2  -9 557.651 19.6673  15
   0  -2  -9 549.983 19.6106  22
   0  -2  -9 560.814 19.6982   1
   0  -2  -9 556.964 19.6228  30
   0  -2  -9 550.381 20.1477  10
   0  -2  -9 565.892 19.5707  28
   0  -2  -9 546.373 19.5718   9
   0  -2  -9 535.640 19.6721  27
   0   2   9 552.882 19.9557  15
   0   2   9 577.952 19.5190  13
   0   2   9 552.756 19.6424  25
  -1  -2  -9 117.433 4.62593   9
  -1  -2  -9 115.699 4.78125  27
  -1  -2  -9 115.873 5.16424  10
  -1  -2  -9 117.183 4.66043  22
  -1  -2  -9 114.078 4.69633  15
  -1  -2  -9 113.833 4.58774  21
  -1  -2  -9 121.193 4.76974   1
  -1  -2  -9 114.599 4.65001  30
  -1  -2  -9 118.677 4.61130  28
  -2  -2  -9 150.454 5.74911  21
  -2  -2  -9 149.011 5.73607  22
  -2  -2  -9 159.658 5.76664  28
  -2  -2  -9 150.865 5.80609  30
  -2  -2  -9 145.005 5.75696   9
  -2  -2  -9 155.190 5.82749  15
  -2  -2  -9 151.659 5.83147   1
  -3  -2  -9 251.924 8.62826   1
  -3  -2  -9 221.995 8.48861  28
   7  -3  -9 116.867 4.59121  11
   7  -3  -9 118.627 4.79124  23
  -7   3   9 114.604 4.65007   3
   6  -3  -9 102.856 4.65087   4
   6  -3  -9 103.615 4.67797  23
  -6   3   9 106.519 4.44287   3
  -6   3   9 108.878 4.18891  13
  -6   3   9 100.866 4.24393  25
   5  -3  -9 6.51338 1.08323  23
   5  -3  -9 5.20529 1.03504   4
  -5   3   9 5.05442 0.84459  25
  -5   3   9 4.28479 0.69499  13
  -5   3   9 5.96274 1.02348   3
   4  -3  -9 73.5242 3.28445  27
   4  -3  -9 69.5382 3.69650   4
   4  -3  -9 69.0116 3.67477  23
  -4   3   9 70.1263 3.43837   3
  -4   3   9 74.9336 3.27018  25
  -4   3   9 75.7665 3.17757  13
   3  -3  -9 1.43859 0.70944  23
   3  -3  -9 2.43495 0.74242  27
   3  -3  -9 0.83006 0.62892   4
   3  -3  -9 1.47605 0.47818  30
  -3   3   9 1.29945 0.78622  17
  -3   3   9 1.48316 0.62320  25
  -3   3   9 3.23286 0.63101  13
   2  -3  -9 390.035 14.0298   9
   2  -3  -9 370.043 14.1680  27
   2  -3  -9 406.135 14.0995  30
   2  -3  -9 402.444 14.0972  22
   2  -3  -9 384.874 14.5510   4
  -2   3   9 413.885 14.0790  13
  -2   3   9 397.058 14.1565  25
  -2   3   9 386.257 14.5242  22
   1  -3  -9 75.9015 3.27551  22
   1  -3  -9 77.6812 3.19341  21
   1  -3  -9 72.6611 3.44786  27
   1  -3  -9 75.4429 3.19441  28
   1  -3  -9 73.4635 3.28264  30
   1  -3  -9 77.2547 3.33135  15
   1  -3  -9 74.4097 3.26708   9
   1  -3  -9 80.1372 3.07111  25
   1  -3  -9 72.6960 3.32902   1
  -1   3   9 78.2204 3.22738  13
  -1   3   9 76.6274 3.32709  25
  -1   3   9 72.5757 3.64829  22
  -1   3   9 74.1573 3.61487  15
   0  -3  -9 22.8769 1.56775  15
   0  -3  -9 20.8297 1.56293   1
   0  -3  -9 22.2798 1.45035  30
   0  -3  -9 22.7920 1.45512   9
   0  -3  -9 19.1938 1.64322  10
   0  -3  -9 23.1706 1.38780  21
   0  -3  -9 22.2690 1.47159  22
   0  -3  -9 22.6327 1.62605  27
   0  -3  -9 22.0690 1.20871  25
   0  -3  -9 22.5685 1.37303  28
   0   3   9 21.5200 1.44971  25
   0   3   9 23.2377 1.41593  13
  -1  -3  -9 429.704 15.0686  30
  -1  -3  -9 426.586 15.0300   9
  -1  -3  -9 442.627 14.8979  25
  -1  -3  -9 420.577 15.0029  28
  -1  -3  -9 416.958 15.0159  22
  -1  -3  -9 418.969 15.0911   1
  -1  -3  -9 419.333 15.0046  21
  -1  -3  -9 429.858 15.0984  15
   1   3   9 413.015 14.8873  13
  -2  -3  -9 59.6377 2.53632  21
  -2  -3  -9 61.3069 2.55896  22
  -2  -3  -9 59.2492 2.53118  28
  -2  -3  -9 62.7102 2.64336   1
  -2  -3  -9 59.1519 2.60507  15
   6  -4  -9 23.7852 1.66173  23
   6  -4  -9 25.9821 1.74991   4
  -6   4   9 22.4112 1.64364   3
   5  -4  -9 3.44424 0.84500   4
   5  -4  -9 5.33606 0.86837  27
   5  -4  -9 5.84025 0.98125  23
  -5   4   9 4.97133 0.85511  25
  -5   4   9 4.98587 0.96517   3
  -5   4   9 4.68582 0.74529  13
   4  -4  -9 168.580 6.54520  30
   4  -4  -9 175.785 6.55451  27
   4  -4  -9 167.645 7.00075   4
  -4   4   9 174.076 6.57074  25
  -4   4   9 171.783 7.29177  17
  -4   4   9 159.446 6.39174  13
  -4   4   9 164.422 6.73160   3
   3  -4  -9 43.6992 2.04780  30
   3  -4  -9 42.4675 2.02430   9
   3  -4  -9 40.2825 2.38186   4
   3  -4  -9 41.9708 2.27304  27
  -3   4   9 39.3080 2.70918  17
  -3   4   9 39.7561 2.03840  13
  -3   4   9 39.0560 2.11112  25
  -3   4   9 38.3680 2.31790   3
   2  -4  -9 98.3707 4.21513  27
   2  -4  -9 102.109 3.95549  21
   2  -4  -9 94.8381 3.96634  22
   2  -4  -9 96.1383 4.00633  30
   2  -4  -9 100.479 3.81426  25
   2  -4  -9 97.6945 4.01525   9
  -2   4   9 99.8631 4.12091  25
  -2   4   9 97.9979 4.45578  22
  -2   4   9 100.521 3.99806  13
  -2   4   9 97.0525 4.71276  17
   1  -4  -9 250.529 9.22540   9
   1  -4  -9 255.138 9.36581  27
   1  -4  -9 228.909 9.19959   1
   1  -4  -9 250.230 9.14725  28
   1  -4  -9 252.899 9.14493  21
   1  -4  -9 245.474 8.97950  25
   1  -4  -9 252.728 9.26286  30
   1  -4  -9 254.561 9.18965  22
   1  -4  -9 252.324 9.23286  15
  -1   4   9 258.496 9.14962  13
  -1   4   9 263.190 9.56344  15
  -1   4   9 257.865 9.27727  25
   0  -4  -9 264.733 9.62471   1
   0  -4  -9 272.653 9.37737  25
   0  -4  -9 265.087 9.61501  15
   0  -4  -9 266.924 9.56575  22
   0  -4  -9 247.403 9.50083  28
   0  -4  -9 260.693 9.55413  21
   0  -4  -9 268.748 9.59221   9
   0  -4  -9 260.208 9.57927  30
   0   4   9 268.108 9.51393  13
   0   4   9 267.015 9.60347  25
  -1  -4  -9 4.23691 0.59070  21
  -1  -4  -9 4.73342 0.51038  25
  -1  -4  -9 4.95013 0.69337  22
  -1  -4  -9 4.90050 0.61984  28
  -1  -4  -9 5.18812 0.81373   1
  -1  -4  -9 5.87903 0.83422  15
   1   4   9 5.35187 0.68474  25
   1   4   9 4.54077 0.63009  13
   6  -5  -9 164.534 6.49444   4
   6  -5  -9 151.676 6.21246  23
  -6   5   9 169.686 6.29361   3
   5  -5  -9 260.042 9.31466  27
   5  -5  -9 242.684 9.60472   4
  -5   5   9 263.322 9.58113   3
   4  -5  -9 0.31669 0.35663  30
   4  -5  -9 0.43902 0.39979   9
   4  -5  -9 0.82427 0.60808  27
  -4   5   9 0.35009 0.69186  17
  -4   5   9 0.86674 0.55744  25
  -4   5   9 0.57105 0.45637  13
  -4   5   9 0.85408 0.58559   3
   3  -5  -9 77.4233 3.27570  30
   3  -5  -9 76.6186 3.43107  27
   3  -5  -9 78.0323 3.26335   9
  -3   5   9 81.3410 3.39901  25
  -3   5   9 80.7186 4.02324  17
  -3   5   9 80.1179 3.61425   3
  -3   5   9 78.9986 3.28736  13
   2  -5  -9 26.1168 1.30224  25
   2  -5  -9 26.2593 1.48956   9
   2  -5  -9 27.1620 1.50507  30
   2  -5  -9 27.5512 1.41400  21
   2  -5  -9 26.5521 1.66505  27
  -2   5   9 26.6469 2.02942  17
  -2   5   9 25.7969 1.71784   3
  -2   5   9 26.1997 1.49855  13
  -2   5   9 26.5789 1.56017  25
   1  -5  -9 1.40227 0.36371  25
   1  -5  -9 0.91433 0.38623  28
   1  -5  -9 1.40726 0.43178  30
   1  -5  -9 1.28819 0.38743  21
   1  -5  -9 1.71242 0.51029   9
   1  -5  -9 1.51978 0.41435  22
  -1   5   9 1.78496 0.80253  22
  -1   5   9 1.60921 0.73534  17
  -1   5   9 1.59852 0.52784  25
  -1   5   9 2.33354 0.57025  13
   0  -5  -9 41.3496 1.86554   1
   0  -5  -9 38.4633 1.77449  22
   0  -5  -9 40.4119 1.77510  21
   0  -5  -9 36.5688 1.62783  25
   0   5   9 43.0036 2.11654  22
   0   5   9 39.4336 1.83035  25
   0   5   9 40.2991 1.77755  13
   5  -6  -9 125.585 4.69905  27
  -5   6   9 121.970 4.89430   3
   4  -6  -9 13.8539 1.03492  27
   4  -6  -9 13.4068 0.91846   9
  -4   6   9 14.4150 1.19596   3
   3  -6  -9 1.54251 0.42955  30
   3  -6  -9 1.40149 0.47343  27
   3  -6  -9 1.97804 0.43529   9
   3  -6  -9 1.67208 0.35827  21
  -3   6   9 2.20421 0.43137  13
  -3   6   9 1.34470 0.56721   3
   2  -6  -9 33.2273 1.52193  21
   2  -6  -9 33.2192 1.59227   9
  -2   6   9 36.6506 1.86840   3
  -2   6   9 34.3108 1.58797  13
  -1  -6  10 46.9493 2.33285   1
   0   6 -10 290.325 10.3928  12
   0   6 -10 300.800 10.6031  31
   0   6 -10 262.453 11.4669   2
   0  -6  10 292.073 10.4597   1
  -1   6 -10 352.507 14.5322   2
  -1   6 -10 378.432 13.5073  31
  -1   6 -10 376.036 13.2945  12
   1  -6  10 367.427 13.2128   8
   1  -6  10 367.740 13.2555   1
  -2   6 -10 101.838 5.51759   2
  -2   6 -10 113.733 4.70779  31
  -2   6 -10 112.887 4.50957  12
   2  -6  10 104.241 4.35318  28
   2  -6  10 112.636 4.46050   8
  -3   6 -10 120.546 4.32658  21
  -3   6 -10 119.774 5.79367   2
  -3   6 -10 121.744 5.00429  31
   3  -6  10 117.136 4.70021   8
   3  -6  10 115.682 4.52552  21
   2   5 -10 110.643 6.16308   2
   2   5 -10 123.139 4.84679  31
   2   5 -10 122.253 4.71853  12
  -2  -5  10 130.908 4.92510  22
   1   5 -10 320.561 11.6372  12
   1   5 -10 284.422 13.3461   2
   1   5 -10 328.489 11.7989  31
  -1  -5  10 332.168 11.9329  15
  -1  -5  10 336.128 11.8261   1
   0   5 -10 155.863 6.32269  12
   0   5 -10 163.822 6.37246  31
   0   5 -10 161.691 5.83129  19
   0   5 -10 146.321 7.63806   2
   0  -5  10 157.013 6.30614   1
   0  -5  10 152.596 6.12539   8
  -1   5 -10 24.4835 1.74575  31
  -1   5 -10 21.8358 2.47503   2
  -1   5 -10 23.6202 1.32433  19
   1  -5  10 20.5777 1.68797   8
   1  -5  10 22.0178 1.84387   1
  -2   5 -10 221.102 8.45045  11
  -2   5 -10 223.331 10.1076   2
  -2   5 -10 223.725 8.18972  19
  -2   5 -10 233.948 8.85343  31
   2  -5  10 219.084 8.52266   8
   2  -5  10 214.065 8.37059  28
  -3   5 -10 148.860 5.38189  21
  -3   5 -10 151.111 5.60434  19
  -3   5 -10 152.591 6.22722  31
  -3   5 -10 154.980 5.89099  11
  -3   5 -10 156.413 7.30231   2
   3  -5  10 138.670 5.81562   8
   3  -5  10 145.484 5.58470  21
   3  -5  10 133.686 5.69373  28
   3  -5  10 138.145 5.30940  16
  -4   5 -10 7.10677 0.58992  30
  -4   5 -10 7.88658 0.57466  21
  -4   5 -10 7.66600 0.83783  11
  -4   5 -10 7.94142 0.99894  31
   4  -5  10 6.70189 0.88345  28
   4  -5  10 5.08321 0.77540   9
   4  -5  10 7.90145 0.76043  21
   4  -5  10 7.77869 0.93934   8
   4  -5  10 6.44691 0.70569  30
   3   4 -10 229.904 10.8883   2
   3   4 -10 265.363 9.37379  31
  -3  -4  10 266.659 9.57779  15
  -3  -4  10 242.198 9.33064   1
  -3  -4  10 261.513 9.44810  22
   2   4 -10 264.644 9.55113  31
   2   4 -10 218.373 11.1531   2
   2   4 -10 263.657 9.06844  19
  -2  -4  10 259.677 9.59149   1
  -2  -4  10 257.637 9.73245  15
  -2  -4  10 256.308 9.67005  22
   1   4 -10 4.82520 0.58669  19
  -1  -4  10 4.46267 1.06479  15
  -1  -4  10 4.07898 1.07675   1
   0   4 -10 113.475 6.40353   2
   0   4 -10 104.714 4.76502  10
   0   4 -10 102.735 4.34579  11
   0   4 -10 106.008 4.66343  31
   0   4 -10 105.376 4.13363  19
   0  -4  10 101.178 4.60131   8
   0  -4  10 103.535 4.78390  15
   0  -4  10 103.632 4.79374   1
  -1   4 -10 703.103 25.9664   2
  -1   4 -10 661.461 23.4067  19
  -1   4 -10 670.815 24.0563  10
  -1   4 -10 675.585 24.1117  31
  -1   4 -10 654.009 23.6754  11
  -1   4 -10 660.154 23.2597  28
   1  -4  10 667.280 23.8835   1
   1  -4  10 663.289 23.6627  28
   1  -4  10 672.665 23.8317   8
  -2   4 -10 188.867 9.00695   2
  -2   4 -10 182.135 7.46026  10
  -2   4 -10 181.623 7.71516  31
  -2   4 -10 170.429 7.11615  11
  -2   4 -10 169.943 6.82237  19
  -2   4 -10 183.461 6.67436  28
  -2   4 -10 187.897 6.65484  21
   2  -4  10 176.325 6.83986  21
   2  -4  10 177.630 6.52619  16
   2  -4  10 190.764 7.28763   8
   2  -4  10 178.861 7.04398  28
  -3   4 -10 281.764 10.4644  11
  -3   4 -10 277.945 10.0834  19
  -3   4 -10 281.661 10.7759  31
  -3   4 -10 285.421 9.84281  28
  -3   4 -10 274.284 9.97432  27
  -3   4 -10 280.025 9.81603  21
  -3   4 -10 253.544 10.2711   4
  -3   4 -10 286.046 12.0809   2
  -3   4 -10 283.015 9.84872  30
   3  -4  10 260.044 10.1380  28
   3  -4  10 270.393 10.0086  21
   3  -4  10 276.844 10.3307   8
   3  -4  10 264.858 9.70333  16
  -4   4 -10 27.4109 1.29648  21
  -4   4 -10 25.0977 1.61017   4
  -4   4 -10 27.5874 1.48988  19
  -4   4 -10 26.5802 1.69879  11
  -4   4 -10 28.1498 1.34198  30
  -4   4 -10 26.8611 1.28731  28
  -4   4 -10 28.4708 1.47896  27
   4  -4  10 24.8736 1.44121  30
   4  -4  10 25.3095 1.59383  28
   4  -4  10 25.5943 1.70575   8
   4  -4  10 26.3386 1.47149  21
   4  -4  10 26.5328 1.25799  16
  -5   4 -10 215.148 8.32685  11
  -5   4 -10 233.216 8.15702  27
   5  -4  10 234.389 8.20818   9
   4   3 -10 396.151 13.8786  31
   4   3 -10 397.201 13.4982  19
   4   3 -10 365.330 15.3973   2
  -4  -3  10 387.480 13.9277  22
   3   3 -10 181.207 6.69155  19
   3   3 -10 171.355 8.83448   2
   3   3 -10 189.452 7.17510  31
  -3  -3  10 190.489 7.38690  22
  -3  -3  10 188.297 7.37270  15
   2   3 -10 27.3672 1.41937  19
   2   3 -10 26.7079 1.76394  31
   2   3 -10 29.1170 3.11624   2
   2   3 -10 27.7694 1.59644  11
  -2  -3  10 30.2555 2.20794  22
  -2  -3  10 27.8690 2.27608   1
  -2  -3  10 29.5630 2.26956  15
   1   3 -10 12.8530 2.44487   2
   0   3 -10 132.745 5.62121  31
   0   3 -10 132.413 5.05645  19
   0   3 -10 127.533 5.67306  10
   0   3 -10 135.515 5.14436   1
   0   3 -10 133.344 5.36929  11
   0  -3  10 128.983 5.52984   8
  -1   3 -10 286.126 11.5106  31
  -1   3 -10 276.485 10.7602   1
  -1   3 -10 313.842 13.8430   2
  -1   3 -10 294.437 11.2105  11
  -1   3 -10 293.610 11.5144  10
  -1   3 -10 284.812 10.8345  19
  -1   3 -10 302.241 10.7419  28
   1  -3  10 312.940 11.3573   8
   1  -3  10 301.447 11.1017  28
   1  -3  10 331.331 11.6285   1
  -2   3 -10 77.3783 3.29183   9
  -2   3 -10 75.9661 3.90152  10
  -2   3 -10 80.3558 3.81225  11
  -2   3 -10 78.8247 3.29571  30
  -2   3 -10 82.0954 3.50662  19
  -2   3 -10 80.6765 3.80128   4
  -2   3 -10 79.3570 3.50340  27
  -2   3 -10 83.8722 3.25006  21
  -2   3 -10 81.7451 3.27980  28
   2  -3  10 81.2929 3.65136  28
   2  -3  10 82.9030 3.85668   8
  -3   3 -10 15.0832 1.45831  11
  -3   3 -10 15.4369 0.99231  28
  -3   3 -10 14.6256 1.03884  30
  -3   3 -10 12.7643 1.45160  10
  -3   3 -10 16.2311 1.22167  19
  -3   3 -10 15.7590 0.97466  21
  -3   3 -10 14.0986 1.34749   4
  -3   3 -10 15.1297 1.05708   9
  -3   3 -10 15.9705 1.21477  27
   3  -3  10 13.5104 1.33104  28
   3  -3  10 11.4007 1.49021   8
  -4   3 -10 210.401 7.52870  21
  -4   3 -10 205.247 7.54673  28
  -4   3 -10 215.618 7.77292  27
  -4   3 -10 203.833 7.73199  19
  -4   3 -10 204.668 8.07714   4
  -4   3 -10 217.101 7.62984  30
  -4   3 -10 216.532 8.12243  11
   4  -3  10 208.138 7.76670  21
   4  -3  10 200.929 7.84758  28
   4  -3  10 214.769 7.50184  16
  -5   3 -10 146.904 5.42074  27
  -5   3 -10 146.418 5.60548  11
   5   2 -10 21.2215 1.30375  31
  -5  -2  10 18.1265 1.21021  13
  -5  -2  10 20.2691 1.30302  25
   4   2 -10 9.19590 0.97577  31
   4   2 -10 8.80184 0.87196  11
   4   2 -10 9.24150 0.74584  19
  -4  -2  10 8.29020 1.10259  25
  -4  -2  10 9.83978 1.07999  13
   3   2 -10 58.3574 4.17786   2
   3   2 -10 56.3804 2.43231  19
   3   2 -10 54.6668 2.80352  31
   3   2 -10 57.6688 2.67815  11
  -3  -2  10 58.3954 3.13785  22
  -3  -2  10 58.9724 3.19187  15
   2   2 -10 1.06465 0.40745  19
   2   2 -10 0.39622 0.44950  31
   2   2 -10 0.57719 0.85090   2
   2   2 -10 1.44722 0.50346  11
  -2  -2  10 2.16880 0.84711  22
   1   2 -10 222.995 8.34551  19
   1   2 -10 234.305 8.51060   1
   1   2 -10 224.187 8.61012  11
  -1  -2  10 241.187 9.29299  15
  -1  -2  10 228.340 9.16662  22
   0   2 -10 194.657 7.46931   1
   0   2 -10 197.898 7.38254  19
   0   2 -10 200.360 8.01909  10
   0   2 -10 201.370 7.88441  23
   0   2 -10 192.254 7.66168  11
   0   2 -10 198.209 7.82929   4
   0  -2  10 204.469 8.27743  15
   0  -2  10 214.724 8.27835   1
   0  -2  10 197.354 7.84195   8
  -1   2 -10 66.9544 3.07738   1
  -1   2 -10 72.2031 3.47385   4
  -1   2 -10 71.2916 2.96352  21
  -1   2 -10 71.4935 3.42498  11
  -1   2 -10 71.1994 3.10173  19
  -1   2 -10 65.6581 3.54357  10
  -1   2 -10 72.0605 2.96018  28
   1  -2  10 70.0006 3.28886  28
   1  -2  10 67.8214 3.78364  15
   1  -2  10 79.4280 3.93100   1
  -2   2 -10 506.084 17.2327  30
  -2   2 -10 476.593 17.3708  27
  -2   2 -10 484.370 17.9124  10
  -2   2 -10 501.168 17.1928  21
  -2   2 -10 489.454 17.2211   9
  -2   2 -10 456.183 17.1575   1
  -2   2 -10 489.503 17.1547  28
  -2   2 -10 479.861 17.8246   4
  -2   2 -10 495.734 17.3837  19
   2  -2  10 496.737 17.7649   1
   2  -2  10 495.561 17.4685  28
  -3   2 -10 507.366 17.7090  21
  -3   2 -10 499.303 18.3904   4
  -3   2 -10 505.662 17.9229  27
  -3   2 -10 505.933 18.3477  10
  -3   2 -10 499.125 17.7149   9
  -3   2 -10 498.645 18.3524  11
  -3   2 -10 512.119 17.6570  28
  -3   2 -10 505.999 17.7372  30
   3  -2  10 504.847 17.9627  28
  -4   2 -10 83.0029 3.34890  30
  -4   2 -10 82.6501 3.26662  28
  -4   2 -10 84.5284 3.47528  27
  -4   2 -10 84.1892 3.32557   9
  -4   2 -10 83.5522 3.83186   4
  -4   2 -10 85.7031 3.26934  21
   4  -2  10 84.4297 3.54833  28
   5   1 -10 6.55791 0.61011  19
   5   1 -10 4.46762 0.81033  31
   5   1 -10 5.88365 0.69762  11
  -5  -1  10 6.28838 0.88031  25
  -5  -1  10 5.66186 0.78117  13
  -5  -1  10 4.34764 0.96938  22
   4   1 -10 60.7757 2.58028  19
   4   1 -10 61.0153 2.82380  11
  -4  -1  10 59.6871 2.75380  13
  -4  -1  10 60.8513 2.84246  25
  -4  -1  10 64.6764 3.26814  22
   3   1 -10 182.643 6.86538  11
   3   1 -10 171.930 6.52171  19
  -3  -1  10 171.205 7.25884  15
  -3  -1  10 177.484 7.28362  22
  -3  -1  10 184.035 6.88876  25
  -3  -1  10 175.327 6.68834  13
   2   1 -10 557.658 19.8340  19
   2   1 -10 601.801 20.4492  23
   2   1 -10 578.856 20.1870  11
   2   1 -10 583.906 20.0571   1
  -2  -1  10 538.713 20.5023   1
  -2  -1  10 552.901 20.6230  15
  -2  -1  10 574.583 20.7229  22
   1   1 -10 272.883 9.74022   1
   1   1 -10 272.270 10.0528   4
   1   1 -10 268.702 10.0686  23
   1   1 -10 259.215 9.69568  22
   1   1 -10 260.551 9.86585  11
   1   1 -10 260.741 9.57611  19
  -1  -1  10 266.650 10.4287  22
  -1  -1  10 269.613 10.4717  15
  -1  -1  10 263.820 10.3193   1
   0   1 -10 122.564 4.86536  26
   0   1 -10 119.348 5.01449   4
   0   1 -10 113.525 4.63588  15
   0   1 -10 109.727 4.57139  22
   0   1 -10 120.479 5.04771  23
   0   1 -10 116.174 4.69019   1
   0   1 -10 112.135 4.84612  11
   0   1 -10 114.797 5.09963  10
   0  -1  10 111.657 5.23029  22
   0  -1  10 118.541 5.38701  15
   0  -1  10 123.899 5.31659   1
  -1   1 -10 83.4041 3.64204   9
  -1   1 -10 85.9140 4.22385  10
  -1   1 -10 93.3725 3.65967  28
  -1   1 -10 86.2976 3.73471  15
  -1   1 -10 86.0501 4.06479  11
  -1   1 -10 93.8395 3.70890  30
  -1   1 -10 85.0275 3.75051   1
  -1   1 -10 90.7088 3.64195  21
  -1   1 -10 85.5657 4.13289   4
   1  -1  10 99.0655 4.49934  15
   1  -1  10 103.564 4.41924   1
  -2   1 -10 132.549 5.98362  10
  -2   1 -10 148.596 5.42230  28
  -2   1 -10 144.242 5.49711  30
  -2   1 -10 138.456 5.48114   1
  -2   1 -10 137.183 6.02399   4
  -2   1 -10 143.236 5.40718  21
  -2   1 -10 141.152 5.46614   9
  -2   1 -10 140.200 5.63464  27
   2  -1  10 150.831 6.00235   1
  -3   1 -10 22.1559 1.25903  21
  -3   1 -10 24.0920 1.80450   4
  -3   1 -10 22.8212 1.54442  27
  -3   1 -10 23.5011 1.28801  28
  -3   1 -10 22.0478 1.34469   9
  -3   1 -10 21.4185 1.30640  30
  -4   1 -10 15.8127 0.92428  28
  -4   1 -10 16.6791 1.13993  27
  -4   1 -10 16.2217 1.29486   4
  -4   1 -10 15.1616 0.97544  30
  -4   1 -10 15.7637 0.95023  21
  -4   1 -10 17.5788 1.03603   9
   4  -1  10 13.7252 1.13437  28
   6   0 -10 19.5509 1.15382  11
  -6   0  10 17.9714 1.17082  25
  -6   0  10 18.1410 1.10972  13
   5   0 -10 102.696 4.35655  11
   5   0 -10 104.369 4.03179  19
  -5   0  10 103.594 4.13956  13
  -5   0  10 105.058 4.24780  25
   4   0 -10 161.754 6.54674  23
   4   0 -10 157.379 5.99176  19
   4   0 -10 161.170 6.37029  11
  -4   0  10 167.376 6.16736  13
  -4   0  10 164.574 6.26278  25
  -4   0  10 155.165 6.63474  22
   3   0 -10 54.3180 2.60346  11
   3   0 -10 54.7942 2.82492  23
   3   0 -10 51.9481 2.30734  19
   3   0 -10 56.1337 2.80313   4
  -3   0  10 49.4745 3.10299  15
  -3   0  10 54.8526 2.61505  25
  -3   0  10 55.6658 3.15357  22
  -3   0  10 53.1148 2.51026  13
   2   0 -10 166.110 6.58739   4
   2   0 -10 167.213 6.62734  23
   2   0 -10 155.386 6.31236  11
   2   0 -10 164.979 6.20941  22
  -2   0  10 163.343 6.92892  15
  -2   0  10 159.770 6.88512  22
   1   0 -10 3.30092 0.73954   4
   1   0 -10 4.65409 0.75214  22
   1   0 -10 4.08565 0.88140  23
   1   0 -10 3.34466 0.64232  15
   1   0 -10 3.64493 0.71482   1
   1   0 -10 4.16043 0.77574  11
  -1   0  10 2.60935 0.97689  15
  -1   0  10 2.98641 1.09023   1
  -1   0  10 4.27893 1.07864  22
   0   0 -10 2.70040 0.56303  28
   0   0 -10 3.10950 0.76972  27
   0   0 -10 2.71589 0.66024  15
   0   0 -10 3.94693 0.72758  26
   0   0 -10 2.83870 0.60345   9
   0   0 -10 2.75432 0.61194  22
   0   0 -10 3.43614 0.57221  30
   0   0 -10 3.10801 0.78033  23
   0   0 -10 2.61288 0.52992  21
   0   0 -10 2.70875 0.71170   4
   0   0 -10 2.96836 0.70568   1
   0   0 -10 4.27623 0.90953  10
   0   0  10 3.12684 1.04232  15
   0   0  10 2.73193 1.17264   1
   0   0  10 3.43568 1.04353  22
  -1   0 -10 27.7597 1.53583   9
  -1   0 -10 22.9222 1.59870  15
  -1   0 -10 27.9884 1.52712  30
  -1   0 -10 23.8823 1.66092   1
  -1   0 -10 25.2558 1.50184  28
  -1   0 -10 22.6358 1.52160  22
  -1   0 -10 28.6300 1.93868   4
  -1   0 -10 25.0459 1.65959  27
  -1   0 -10 28.6725 1.50476  21
  -1   0 -10 25.3106 1.93226  10
   1   0  10 25.4795 2.17447  15
  -2   0 -10 54.1646 2.66045  27
  -2   0 -10 59.4276 3.08648   4
  -2   0 -10 56.3340 2.62942  15
  -2   0 -10 54.1799 2.48223  28
  -2   0 -10 51.5856 2.93207  10
  -2   0 -10 55.7165 2.52447  30
  -2   0 -10 56.4730 2.52188   9
  -2   0 -10 57.6044 2.47028  21
  -2   0 -10 52.0928 2.59269   1
   2   0  10 59.6449 3.18143  15
  -3   0 -10 88.2233 3.51451  28
  -3   0 -10 89.4474 3.51075  21
  -3   0 -10 89.1225 3.74672  27
  -3   0 -10 88.8121 3.56629   9
  -3   0 -10 87.3665 3.56493  30
   6  -1 -10 29.2069 1.42763  19
   6  -1 -10 29.7085 1.67330  11
  -6   1  10 30.3726 1.62041  25
  -6   1  10 29.4959 1.54127  13
   5  -1 -10 0.71638 0.49124  11
   5  -1 -10 0.63832 0.58109  23
   5  -1 -10 2.06975 0.47408  19
  -5   1  10 1.35399 0.53174  13
  -5   1  10 1.81094 0.61975  25
   4  -1 -10 244.183 9.48358  23
   4  -1 -10 238.595 9.14067  11
   4  -1 -10 249.655 9.44208   4
  -4   1  10 228.753 9.65615  22
  -4   1  10 249.575 8.91767  13
  -4   1  10 245.420 9.02881  25
   3  -1 -10 549.722 19.8538   4
   3  -1 -10 523.651 19.4550  11
   3  -1 -10 527.619 19.8210  23
   3  -1 -10 562.891 19.3430  22
  -3   1  10 579.230 19.3392  13
  -3   1  10 560.454 19.4777  25
  -3   1  10 544.579 19.9817  22
   2  -1 -10 368.104 13.4564   4
   2  -1 -10 366.521 12.9772  22
   2  -1 -10 368.589 13.0013  15
   2  -1 -10 365.140 13.4664  23
  -2   1  10 351.787 13.5690  15
  -2   1  10 375.090 13.0080  13
  -2   1  10 346.362 13.5570  22
  -2   1  10 358.012 13.0972  25
   1  -1 -10 1.33876 0.59326  15
   1  -1 -10 1.38307 0.54126  26
   1  -1 -10 2.20573 0.56113  22
   1  -1 -10 2.42285 0.67818   1
   1  -1 -10 1.58272 0.49973  30
   1  -1 -10 2.12593 0.72388  23
   1  -1 -10 1.90924 0.60446   4
   1  -1 -10 1.53858 0.73827  27
   1  -1 -10 0.73013 0.52135   9
  -1   1  10 2.81386 0.92487  22
  -1   1  10 2.69987 1.06751   1
  -1   1  10 1.93283 0.92097  15
   0  -1 -10 1.54010 0.64751  10
   0  -1 -10 0.73612 0.46515   9
   0  -1 -10 1.58679 0.48889  28
   0  -1 -10 1.38820 0.53874  22
   0  -1 -10 1.51063 0.47186  30
   0  -1 -10 1.99149 0.59364  15
   0  -1 -10 1.17436 0.66309   1
   0  -1 -10 2.90528 0.80480  23
   0  -1 -10 1.38148 0.47604  21
   0  -1 -10 1.12906 0.60344   4
   0  -1 -10 1.20707 0.69107  27
   0   1  10 1.66500 0.82846  22
   0   1  10 1.03351 0.88664  15
  -1  -1 -10 13.2911 1.41887   4
  -1  -1 -10 14.4821 1.11569   9
  -1  -1 -10 14.7934 1.07633  21
  -1  -1 -10 16.0927 1.11576  28
  -1  -1 -10 14.6297 1.23308  27
  -1  -1 -10 16.3472 1.32668  15
  -1  -1 -10 13.5530 1.39299  10
  -1  -1 -10 15.2633 1.12783  30
  -1  -1 -10 13.4509 1.31872   1
  -1  -1 -10 15.9737 1.21000  22
   1   1  10 15.3374 1.61507  22
   1   1  10 13.4774 1.67201  15
  -2  -1 -10 125.760 4.98501  30
  -2  -1 -10 127.489 5.12867  27
  -2  -1 -10 127.740 4.94075  21
  -2  -1 -10 129.844 5.03165  15
  -2  -1 -10 130.428 5.06105   1
  -2  -1 -10 127.646 4.97561   9
  -2  -1 -10 129.981 4.95749  28
   2   1  10 129.272 5.44074  15
  -3  -1 -10 59.9532 2.55532  30
  -3  -1 -10 60.9709 2.56019   9
  -3  -1 -10 60.4166 2.52239  28
  -3  -1 -10 62.4106 2.52056  21
   6  -2 -10 0.79190 0.42613  11
   6  -2 -10 1.12412 0.55736  23
  -6   2  10 2.40330 0.55877  13
  -6   2  10 0.81062 0.47283  25
  -6   2  10 1.62905 0.64550   3
   5  -2 -10 327.486 12.4125   4
   5  -2 -10 328.302 12.4580  23
   5  -2 -10 330.387 12.1075  11
  -5   2  10 334.657 11.8757  13
  -5   2  10 336.621 11.9968  25
   4  -2 -10 19.1139 1.63206  23
   4  -2 -10 19.4201 1.62969   4
  -4   2  10 21.8823 1.38591  13
  -4   2  10 22.0071 1.46061  25
   3  -2 -10 109.630 4.38220  22
   3  -2 -10 111.216 4.91104   4
   3  -2 -10 108.226 4.85954  23
  -3   2  10 115.292 4.47903  13
  -3   2  10 106.849 4.98641  22
  -3   2  10 114.240 4.58346  25
   2  -2 -10 207.956 8.15224  23
   2  -2 -10 199.813 7.78357  27
   2  -2 -10 212.882 7.70657  30
   2  -2 -10 205.697 7.74713  15
   2  -2 -10 205.037 8.16460   4
   2  -2 -10 217.256 7.75342  22
  -2   2  10 207.714 7.82214  25
  -2   2  10 192.065 8.23020  15
  -2   2  10 205.352 8.28489  22
  -2   2  10 213.145 7.70465  13
   1  -2 -10 49.3503 2.55584  27
   1  -2 -10 50.5760 2.49397  15
   1  -2 -10 48.9552 2.43917  22
   1  -2 -10 49.0472 2.53975   1
   1  -2 -10 51.6074 2.38870  30
   1  -2 -10 50.6552 2.38044   9
   1  -2 -10 51.2995 2.31246  21
   1  -2 -10 50.4678 2.68971   4
  -1   2  10 52.4867 2.40821  13
  -1   2  10 49.7422 2.97539  15
  -1   2  10 46.7216 2.83807  22
  -1   2  10 47.6782 2.42036  25
   0  -2 -10 23.3930 1.35712  21
   0  -2 -10 22.5068 1.42003   9
   0  -2 -10 21.5383 1.61334   1
   0  -2 -10 22.5932 1.33111  28
   0  -2 -10 21.0958 1.53785  27
   0  -2 -10 22.8416 1.55327  15
   0  -2 -10 20.5935 1.63132  10
   0  -2 -10 22.6337 1.40238  30
   0  -2 -10 22.0758 1.46494  22
   0   2  10 21.8994 1.89143  22
   0   2  10 22.6157 1.86398  15
  -1  -2 -10 43.7559 2.23300  27
  -1  -2 -10 43.8621 2.23235   1
  -1  -2 -10 42.7576 2.10274  22
  -1  -2 -10 42.7522 2.09553   9
  -1  -2 -10 43.2143 2.09282  30
  -1  -2 -10 42.1272 2.02879  28
  -1  -2 -10 44.9958 2.22460  15
  -1  -2 -10 44.9031 2.05848  21
   1   2  10 43.5527 2.49435  22
   1   2  10 42.2594 2.49327  15
  -2  -2 -10 8.19096 0.82665   9
  -2  -2 -10 4.95196 0.76977  22
  -2  -2 -10 6.42011 0.68270  28
  -2  -2 -10 5.31565 0.84372  15
  -2  -2 -10 5.12921 0.66386  30
  -2  -2 -10 7.45965 0.94242   1
  -2  -2 -10 6.45669 0.67488  21
   2   2  10 6.80854 1.00114  22
   2   2  10 5.66914 0.96032  15
   6  -3 -10 37.4097 2.05696   4
   6  -3 -10 37.1180 2.05913  23
  -6   3  10 35.6307 1.81066  25
  -6   3  10 35.6858 1.74755  13
  -6   3  10 33.1847 1.90574   3
   5  -3 -10 25.3619 1.80537   4
   5  -3 -10 26.8829 1.83424  23
  -5   3  10 25.2366 1.45917  13
  -5   3  10 26.7655 1.57538  25
  -5   3  10 26.5478 1.76016   3
   4  -3 -10 -0.0774 0.49178  23
   4  -3 -10 0.32212 0.49547   4
  -4   3  10 0.40468 0.47881  13
  -4   3  10 0.25647 0.53899  25
   3  -3 -10 2.91180 0.77633  27
   3  -3 -10 2.87510 0.77137  23
   3  -3 -10 2.60952 0.56637  30
   3  -3 -10 2.46966 0.68123   4
  -3   3  10 3.84638 0.80326  25
  -3   3  10 4.49810 0.77365  13
   2  -3 -10 364.250 12.9858  30
   2  -3 -10 368.533 12.9540   9
   2  -3 -10 367.974 12.9762  22
   2  -3 -10 345.015 13.3380   4
   2  -3 -10 362.277 13.0740  27
  -2   3  10 364.736 13.0746  25
  -2   3  10 359.361 13.4915  22
  -2   3  10 366.850 12.9548  13
   1  -3 -10 633.047 23.4696   1
   1  -3 -10 685.080 23.4336  22
   1  -3 -10 657.855 23.3562   9
   1  -3 -10 672.089 23.3383  21
   1  -3 -10 655.320 23.3947  30
   1  -3 -10 662.640 23.4728  27
   1  -3 -10 673.186 23.1713  25
   1  -3 -10 686.779 23.4744  15
  -1   3  10 688.407 23.8625  15
  -1   3  10 665.523 23.8567  22
  -1   3  10 679.103 23.4832  25
  -1   3  10 674.915 23.3589  13
   0  -3 -10 105.325 4.29872   9
   0  -3 -10 105.564 4.25007  28
   0  -3 -10 109.010 4.26405  21
   0  -3 -10 107.233 4.38366   1
   0  -3 -10 108.793 4.10725  25
   0  -3 -10 107.904 4.39260  15
   0  -3 -10 110.495 4.33338  22
   0  -3 -10 113.381 4.34903  30
   0  -3 -10 111.586 4.46466  27
   0   3  10 107.920 4.33157  25
   0   3  10 107.828 4.71188  22
   0   3  10 108.256 4.24488  13
   0   3  10 110.718 4.72229  15
  -1  -3 -10 28.7805 1.50769  28
  -1  -3 -10 28.6270 1.56826  30
  -1  -3 -10 33.0024 1.68396   1
  -1  -3 -10 31.0976 1.58292  22
  -1  -3 -10 31.0173 1.54280  21
  -1  -3 -10 32.6449 1.62642   9
  -1  -3 -10 30.8610 1.67921  15
   1   3  10 29.5722 1.94039  15
   1   3  10 30.1612 1.91916  22
  -2  -3 -10 169.697 6.27443  21
  -2  -3 -10 175.771 6.33875   1
  -2  -3 -10 168.077 6.25649  22
   2   3  10 180.148 6.60226  22
   6  -4 -10 178.458 6.77281   4
   6  -4 -10 173.388 6.68819  23
  -6   4  10 172.663 6.59387   3
   5  -4 -10 94.9384 4.13785   4
   5  -4 -10 97.9813 4.08059  23
  -5   4  10 94.8652 3.84868  25
  -5   4  10 93.8414 3.74881  13
  -5   4  10 90.0169 3.94642   3
   4  -4 -10 76.3231 3.53133   4
   4  -4 -10 79.8572 3.31352  27
  -4   4  10 73.7073 3.84245  17
  -4   4  10 73.7427 3.44960   3
  -4   4  10 79.3950 3.31272  25
  -4   4  10 74.0018 3.18349  13
   3  -4 -10 468.668 16.5439  27
   3  -4 -10 483.020 16.4371   9
   3  -4 -10 483.557 16.4734  30
   3  -4 -10 426.392 16.8373   4
  -3   4  10 455.119 17.2185  17
  -3   4  10 478.335 16.6114  25
  -3   4  10 473.593 16.4938  13
   2  -4 -10 251.069 9.09012  21
   2  -4 -10 245.151 9.26293  27
   2  -4 -10 253.289 9.16062   9
   2  -4 -10 245.984 9.17078  30
   2  -4 -10 254.515 9.14981  22
  -2   4  10 248.824 9.25883  25
  -2   4  10 255.669 9.17359  13
  -2   4  10 263.050 9.64154  22
   1  -4 -10 26.4822 1.37919  21
   1  -4 -10 23.9806 1.35356  28
   1  -4 -10 26.3138 1.46762  30
   1  -4 -10 23.0630 1.54649   1
   1  -4 -10 27.1240 1.48826   9
   1  -4 -10 26.2619 1.46830  22
   1  -4 -10 26.9041 1.60742  27
   1  -4 -10 25.4062 1.51787  15
   1  -4 -10 25.5659 1.26585  25
  -1   4  10 26.9161 1.93200  22
  -1   4  10 25.5207 1.46063  13
  -1   4  10 25.1778 1.90182  15
  -1   4  10 24.0924 1.51640  25
   0  -4 -10 32.2158 1.62175  30
   0  -4 -10 35.1842 1.66855  22
   0  -4 -10 32.2524 1.70021   1
   0  -4 -10 32.1458 1.44456  25
   0  -4 -10 33.7292 1.63911   9
   0  -4 -10 31.1081 1.55675  28
   0  -4 -10 33.4894 1.57689  21
   0  -4 -10 32.7895 1.70387  15
   0   4  10 32.4020 1.60425  13
   0   4  10 35.9505 2.04932  22
   0   4  10 32.5291 1.65837  25
   0   4  10 33.2746 1.98839  15
  -1  -4 -10 9.48908 0.88470   1
  -1  -4 -10 9.99814 0.75501  22
   1   4  10 9.41545 1.08831  22
   5  -5 -10 90.5028 3.45694  27
  -5   5  10 81.8757 3.59182   3
   4  -5 -10 129.131 4.69123   9
   4  -5 -10 125.705 4.69438  30
   4  -5 -10 123.952 4.81731  27
  -4   5  10 122.368 4.82091  25
  -4   5  10 123.322 4.98566   3
  -4   5  10 123.685 4.73984  13
   3  -5 -10 6.99364 0.77907   9
   3  -5 -10 6.96232 0.88254  27
   3  -5 -10 7.50570 0.73588  30
  -3   5  10 6.87693 0.80177  13
  -3   5  10 7.11159 0.82232  25
  -3   5  10 7.00776 1.19142  17
  -3   5  10 7.49808 0.99334   3
   2  -5 -10 37.9979 1.75490   9
   2  -5 -10 36.1336 1.65458  21
   2  -5 -10 35.1243 1.80769  27
   2  -5 -10 36.6124 1.73265  30
  -2   5  10 37.3392 1.79744  25
  -2   5  10 36.5936 1.72572  13
   1  -5 -10 23.3023 1.19985  21
   1  -5 -10 24.2927 1.26234  22
   1  -5 -10 25.3865 1.28084   9
  -1   5  10 24.5579 1.29202  13
  -1   5  10 27.2403 1.64149  22
  -1   6 -11 7.47887 1.27175   2
  -2   6 -11 14.8716 1.60108   2
   1   5 -11 82.9324 4.77356   2
   1   5 -11 91.9116 3.81722  31
  -1  -5  11 93.1956 3.84590   1
   0   5 -11 133.149 6.84851   2
   0   5 -11 153.422 5.40295  19
   0   5 -11 149.942 5.86400  31
   0  -5  11 143.190 5.75742   1
  -1   5 -11 60.7884 3.88001   2
  -1   5 -11 60.0261 2.53038  19
  -1   5 -11 60.6065 2.98182  31
   1  -5  11 58.4304 2.86065   1
   1  -5  11 57.2904 2.89227   8
  -2   5 -11 50.7970 3.35465   2
  -2   5 -11 45.9000 2.12248  19
  -2   5 -11 45.8714 2.31201  11
  -2   5 -11 51.0262 2.59760  31
   2  -5  11 43.1667 2.34448  28
   2  -5  11 45.8515 2.42726   8
  -3   5 -11 23.7691 1.63825  31
  -3   5 -11 22.3655 1.42064  11
  -3   5 -11 24.5862 1.12816  21
   3  -5  11 23.6724 1.51434   8
   3  -5  11 25.5662 1.31501  21
   3   4 -11 0.63182 0.62329   2
  -3  -4  11 0.99514 0.53276  22
   2   4 -11 130.065 4.65193  19
   2   4 -11 112.108 6.40052   2
   2   4 -11 128.437 5.04001  31
  -2  -4  11 127.163 5.15525  22
  -2  -4  11 127.883 5.10220   1
  -2  -4  11 124.436 5.21164  15
   1   4 -11 76.2160 3.00194  19
   1   4 -11 70.3856 4.81987   2
   1   4 -11 77.9908 3.42983  31
  -1  -4  11 73.3491 3.64089  15
  -1  -4  11 74.0343 3.57265   1
   0   4 -11 25.4566 1.64798  11
   0   4 -11 29.2872 1.88194  31
   0   4 -11 32.7930 2.83643   2
   0   4 -11 25.2611 1.43556  19
   0  -4  11 22.5974 1.90457   8
   0  -4  11 33.6536 2.22657  15
  -1   4 -11 111.843 5.02382  11
  -1   4 -11 127.488 5.39524  31
  -1   4 -11 117.005 4.79918  19
  -1   4 -11 128.315 6.60118   2
   1  -4  11 121.321 5.19623   8
   1  -4  11 144.687 5.34513   1
   1  -4  11 119.699 5.07642  28
  -2   4 -11 12.6823 0.88093  28
  -2   4 -11 11.1131 1.15783  11
  -2   4 -11 12.6773 1.00540  19
  -2   4 -11 13.0351 0.86072  21
  -2   4 -11 14.3996 1.43587  31
  -2   4 -11 13.0454 1.95159   2
   2  -4  11 13.2784 1.26063  28
   2  -4  11 13.0325 1.35603   8
   2  -4  11 13.9834 1.05674  21
  -3   4 -11 1.63882 0.34636  28
  -3   4 -11 1.07444 0.54910  11
  -3   4 -11 1.23313 0.51008   4
  -3   4 -11 1.40430 0.34515  21
  -3   4 -11 1.28841 0.50233  19
  -3   4 -11 1.64589 0.38039  30
   3  -4  11 1.40741 0.62276   8
   3  -4  11 1.71495 0.57109  28
   3  -4  11 1.81360 0.36451  16
   3  -4  11 1.52165 0.46997  21
  -4   4 -11 11.9972 0.97178  11
  -4   4 -11 12.1622 0.88247  27
  -4   4 -11 12.4735 0.71735  21
   4  -4  11 11.0136 0.85237  21
  -4  -3  11 1.64617 0.56677  22
   3   3 -11 29.4922 1.67445  31
   3   3 -11 24.9488 2.73919   2
   3   3 -11 31.5374 1.53226  11
   3   3 -11 30.8189 1.38063  19
  -3  -3  11 26.1800 1.93730  15
   2   3 -11 2.42076 1.08631   2
   2   3 -11 3.56360 0.73457  31
   2   3 -11 3.81797 0.56958  19
   2   3 -11 2.65997 0.58516  11
  -2  -3  11 3.42356 0.98512  15
  -2  -3  11 3.17490 0.92235  22
  -2  -3  11 3.23402 1.03515   1
   1   3 -11 15.9623 1.18020  11
   1   3 -11 16.4999 1.01444  19
   1   3 -11 13.9500 1.27597  31
   1   3 -11 17.0210 2.56256   2
  -1  -3  11 14.5698 1.67241  22
  -1  -3  11 15.8519 1.87673  15
   0   3 -11 33.3616 2.14772  10
   0   3 -11 32.7025 1.75707   1
   0   3 -11 36.5847 1.71933  19
   0   3 -11 34.6969 1.91547  11
   0  -3  11 33.2965 2.50024   1
   0  -3  11 31.6089 2.42291  15
   0  -3  11 29.1452 2.14725   8
  -1   3 -11 333.861 12.5669   1
  -1   3 -11 364.332 12.6982  19
  -1   3 -11 359.759 12.5387  28
  -1   3 -11 344.995 13.1792  10
  -1   3 -11 359.124 12.9892  11
   1  -3  11 354.332 13.0678   8
   1  -3  11 363.535 12.9053  28
   1  -3  11 347.630 13.1808   1
  -2   3 -11 304.519 10.9653  28
  -2   3 -11 322.543 11.2095  19
  -2   3 -11 297.146 10.9936   1
  -2   3 -11 300.818 11.4827  11
  -2   3 -11 314.652 10.9384  21
  -2   3 -11 295.914 11.4673   4
   2  -3  11 316.616 11.3227  28
   2  -3  11 311.960 11.4794   8
  -3   3 -11 49.4543 2.23469  27
  -3   3 -11 49.4176 2.13157   9
  -3   3 -11 47.2896 2.52563  11
  -3   3 -11 48.9473 2.07623  28
  -3   3 -11 48.7918 2.25529  19
  -3   3 -11 45.9275 2.47708   4
  -3   3 -11 48.0667 2.02715  21
  -3   3 -11 48.3590 2.11274  30
   3  -3  11 46.2439 2.01013  16
   3  -3  11 45.1056 2.53046   8
   3  -3  11 45.7692 2.37748  28
  -4   3 -11 10.1231 0.71871  30
  -4   3 -11 11.2512 0.95048   4
  -4   3 -11 9.68568 0.64583  21
  -4   3 -11 10.1116 0.93597  11
  -4   3 -11 9.89226 0.87677  27
   4  -3  11 8.71190 1.01598   8
   4  -3  11 8.18334 0.81714  21
   4   2 -11 210.267 7.70851  11
   4   2 -11 204.080 9.34630   2
   4   2 -11 209.837 7.52592  19
   4   2 -11 204.519 7.85293  31
  -4  -2  11 224.622 8.11793  22
   3   2 -11 117.678 4.38111  19
   3   2 -11 125.389 7.01217   2
   3   2 -11 111.552 4.75226  31
   3   2 -11 112.488 4.58733  11
  -3  -2  11 112.793 4.98316  22
  -3  -2  11 113.513 5.04392  15
   2   2 -11 47.4980 2.04029  19
   2   2 -11 46.4017 2.26605  11
  -2  -2  11 45.3723 2.83727  15
  -2  -2  11 44.6363 2.74404  22
  -2  -2  11 45.2689 2.73008   1
   1   2 -11 180.345 6.96596  11
   1   2 -11 183.554 6.79128   1
   1   2 -11 179.150 6.68689  19
   1   2 -11 158.261 7.25560  23
  -1  -2  11 185.866 7.54901  15
  -1  -2  11 189.203 7.45372   1
  -1  -2  11 187.027 7.48733  22
   0   2 -11 1277.54 44.3454   4
   0   2 -11 1252.30 43.8724   1
   0   2 -11 1224.25 44.3883  10
   0   2 -11 1292.60 44.2158  11
   0   2 -11 1283.11 43.8552  19
   0  -2  11 1261.93 44.4898  15
   0  -2  11 1282.40 44.2357   8
   0  -2  11 1307.27 44.5336   1
  -1   2 -11 211.973 8.72414  10
  -1   2 -11 223.322 8.07400  28
  -1   2 -11 223.159 8.63836   4
  -1   2 -11 221.490 8.55720  11
  -1   2 -11 220.303 8.17208   1
  -1   2 -11 227.338 8.26577  19
  -1   2 -11 221.890 8.10993  21
   1  -2  11 218.388 8.86871  15
   1  -2  11 218.736 8.57930   8
   1  -2  11 226.336 8.42311  28
   1  -2  11 226.348 8.84881   1
  -2   2 -11 33.3056 2.13269  11
  -2   2 -11 31.8398 1.72933   1
  -2   2 -11 33.2749 2.07937   4
  -2   2 -11 34.6958 1.89533  27
  -2   2 -11 35.2861 1.69600  21
  -2   2 -11 34.3956 1.70541  30
  -2   2 -11 33.5136 1.65608  28
  -2   2 -11 34.1903 1.73058   9
  -2   2 -11 31.3100 2.16377  10
   2  -2  11 34.6795 2.14429   8
   2  -2  11 35.5656 2.04389  28
   2  -2  11 34.1869 2.31950   1
  -3   2 -11 67.7849 3.23445  11
  -3   2 -11 70.1566 2.82872   9
  -3   2 -11 70.3104 2.79084  28
  -3   2 -11 66.0668 2.78334  21
  -3   2 -11 67.6567 2.83459  30
  -3   2 -11 72.4389 3.32744   4
  -3   2 -11 69.5379 2.96896  27
   3  -2  11 62.5780 3.02456  28
   3  -2  11 68.1785 3.21234   8
  -4   2 -11 1.13744 0.49966  27
  -4   2 -11 1.16837 0.28691  21
  -4   2 -11 0.84347 0.48757   4
  -4   2 -11 1.12243 0.38653   9
   5   1 -11 436.732 14.7998  11
  -5  -1  11 404.062 14.7516  25
  -5  -1  11 415.549 14.9946  22
  -5  -1  11 421.975 14.6812  13
   4   1 -11 236.818 8.36334  19
   4   1 -11 236.091 8.63519  11
  -4  -1  11 232.054 8.59419  25
  -4  -1  11 230.128 8.94546  22
  -4  -1  11 232.460 8.49459  13
   3   1 -11 40.7709 2.00723  11
   3   1 -11 40.7968 1.77330  19
  -3  -1  11 35.5787 2.39464  22
  -3  -1  11 36.7960 2.48979  15
   2   1 -11 111.582 4.29234  19
   2   1 -11 114.330 4.45812   1
   2   1 -11 115.493 4.75626  23
   2   1 -11 114.112 4.57221  11
  -2  -1  11 103.620 4.98797   1
  -2  -1  11 111.265 5.11953  22
  -2  -1  11 112.814 5.15644  15
   1   1 -11 407.702 14.2322  19
   1   1 -11 406.554 14.3349   1
   1   1 -11 413.159 14.7027   4
   1   1 -11 411.317 14.5685  11
   1   1 -11 395.619 14.7008  23
   1   1 -11 390.782 14.2740  22
  -1  -1  11 389.924 14.8822   1
  -1  -1  11 403.029 15.0148  22
  -1  -1  11 400.324 15.0698  15
   0   1 -11 19.2466 1.62549  10
   0   1 -11 20.4245 1.44538  15
   0   1 -11 22.5269 1.45858   1
   0   1 -11 22.1239 1.60246   4
   0   1 -11 19.7091 1.49234  11
   0   1 -11 22.1018 1.63770  23
   0   1 -11 19.1825 1.28587  22
   0  -1  11 20.5441 2.12849   1
   0  -1  11 22.0844 2.17627  15
   0  -1  11 21.1585 2.04376  22
  -1   1 -11 220.893 9.07057  10
  -1   1 -11 247.913 8.50745  21
  -1   1 -11 234.037 9.06224   4
  -1   1 -11 232.228 8.97280  11
  -1   1 -11 224.989 8.53743  15
  -1   1 -11 236.304 8.54190  30
  -1   1 -11 236.602 8.47547  28
  -1   1 -11 238.719 8.54119   9
  -1   1 -11 225.962 8.57550   1
  -1   1 -11 229.675 8.65679  27
   1  -1  11 235.574 9.27815  15
   1  -1  11 230.157 9.11533   1
  -2   1 -11 198.345 7.14791  21
  -2   1 -11 191.884 7.12498  28
  -2   1 -11 197.060 7.21891   1
  -2   1 -11 195.086 7.19109  30
  -2   1 -11 192.016 7.17211   9
  -2   1 -11 197.652 7.76668   4
  -2   1 -11 191.293 7.32740  27
   2  -1  11 191.182 7.64705   1
  -3   1 -11 116.795 4.59454  27
  -3   1 -11 117.352 4.40047  21
  -3   1 -11 117.915 4.43825  30
  -3   1 -11 116.692 4.92776   4
  -3   1 -11 114.785 4.41797   9
  -3   1 -11 115.537 4.36546  28
   3  -1  11 110.526 4.60100  28
  -4   1 -11 30.2028 1.38537   9
   5   0 -11 49.8985 2.08952  19
   5   0 -11 52.9171 2.32410  11
  -5   0  11 49.1976 2.32974  25
  -5   0  11 50.4506 2.25749  13
   4   0 -11 137.262 5.51672  11
   4   0 -11 140.255 5.25715  19
   4   0 -11 141.725 5.71691  23
  -4   0  11 145.232 5.55000  25
  -4   0  11 147.604 5.45879  13
  -4   0  11 139.861 5.89001  22
   3   0 -11 402.767 14.1554   4
   3   0 -11 389.012 13.9377  11
   3   0 -11 386.229 14.1857  23
  -3   0  11 390.143 14.4376  22
  -3   0  11 380.574 13.9054  25
  -3   0  11 364.884 14.3342  15
  -3   0  11 401.970 13.8232  13
   2   0 -11 63.9678 3.00898  23
   2   0 -11 63.8544 2.92883   4
   2   0 -11 59.0407 2.65931  22
   2   0 -11 58.0534 2.72940  11
  -2   0  11 58.4351 3.29470  22
  -2   0  11 56.7429 3.35017  15
  -2   0  11 52.4212 3.23828   1
   1   0 -11 23.9887 1.54891   1
   1   0 -11 23.4954 1.64952   4
   1   0 -11 24.0523 1.50920  15
   1   0 -11 22.0779 1.42181  22
   1   0 -11 23.7622 1.65675  23
  -1   0  11 22.2820 2.12888   1
  -1   0  11 23.5126 2.11338  22
  -1   0  11 24.8980 2.20218  15
   0   0 -11 50.6842 2.25314  28
   0   0 -11 51.1171 2.26996  30
   0   0 -11 47.1060 2.28608  22
   0   0 -11 47.2403 2.61450   4
   0   0 -11 47.5819 2.24642   9
   0   0 -11 49.5044 2.38662   1
   0   0 -11 44.8672 2.67932  10
   0   0 -11 48.2071 2.67878  23
   0   0 -11 48.7403 2.37625  15
   0   0 -11 50.7146 2.38392  27
   0   0  11 49.6244 2.98744  15
   0   0  11 49.0456 2.92605  22
   0   0  11 45.2950 2.85310   1
  -1   0 -11 182.004 6.79677  21
  -1   0 -11 184.272 6.85299   9
  -1   0 -11 184.214 6.91578   1
  -1   0 -11 184.497 6.82273  28
  -1   0 -11 183.751 6.85956  30
  -1   0 -11 169.702 7.34233  10
  -1   0 -11 180.032 6.99272  27
  -1   0 -11 186.724 7.41757   4
  -1   0 -11 188.702 6.94082  15
   1   0  11 180.993 7.38129   1
   1   0  11 189.777 7.55680  15
  -2   0 -11 603.260 21.7740  21
  -2   0 -11 623.383 21.9759  27
  -2   0 -11 643.427 21.8216   1
  -2   0 -11 641.245 22.4321   4
  -2   0 -11 620.982 21.8360   9
  -2   0 -11 626.551 21.8545  30
  -2   0 -11 610.987 21.7720  28
   2   0  11 637.743 22.2373   1
  -3   0 -11 123.265 4.72411  30
  -3   0 -11 132.201 4.73304   9
  -3   0 -11 127.482 4.87251  27
  -3   0 -11 123.361 4.66381  28
  -3   0 -11 122.980 4.66294  21
   6  -1 -11 10.4123 0.75828  11
  -6   1  11 9.24610 0.79504  13
   5  -1 -11 157.276 5.92240  11
   5  -1 -11 154.601 6.11905  23
  -5   1  11 154.069 5.93951  25
  -5   1  11 159.170 5.87448  13
   4  -1 -11 167.384 6.82973  23
   4  -1 -11 171.943 6.59214  11
   4  -1 -11 177.104 6.83835   4
  -4   1  11 172.090 6.60429  25
  -4   1  11 182.166 6.52718  13
  -4   1  11 170.395 7.02322  22
   3  -1 -11 220.968 8.76786  23
   3  -1 -11 235.331 8.40548  22
   3  -1 -11 238.074 8.83956   4
  -3   1  11 226.474 9.01614  22
  -3   1  11 225.882 8.50327  25
  -3   1  11 225.443 8.38896  13
   2  -1 -11 58.1427 2.58550  15
   2  -1 -11 52.8662 2.79102  23
   2  -1 -11 55.6981 2.79245   4
   2  -1 -11 55.2201 2.50940  22
  -2   1  11 55.3479 3.21885  15
  -2   1  11 53.8980 3.12440  22
  -2   1  11 51.9258 2.60132  25
  -2   1  11 52.3519 2.52471  13
   1  -1 -11 2.77230 0.61592   9
   1  -1 -11 3.47654 0.77317  27
   1  -1 -11 2.84696 0.65417  15
   1  -1 -11 2.85445 0.71044   1
   1  -1 -11 3.93998 0.63261  30
   1  -1 -11 2.66297 0.60600  22
   1  -1 -11 4.47015 0.88144   4
   1  -1 -11 3.18512 0.80263  23
  -1   1  11 3.83623 1.08850   1
  -1   1  11 3.09990 1.02960  22
   0  -1 -11 64.8639 3.27565   4
   0  -1 -11 68.6987 2.87043  28
   0  -1 -11 69.0968 3.00666  15
   0  -1 -11 65.1845 2.89303  22
   0  -1 -11 67.3497 2.87515  30
   0  -1 -11 68.0799 3.35025  23
   0  -1 -11 65.9174 2.99336  27
   0  -1 -11 67.7664 2.99423   1
   0  -1 -11 57.7990 3.19119  10
   0  -1 -11 65.9981 2.87441   9
   0   1  11 65.7243 3.50073  15
   0   1  11 66.5584 3.44265  22
   0   1  11 67.8201 3.47612   1
  -1  -1 -11 339.516 11.8887   1
  -1  -1 -11 350.226 11.9128  15
  -1  -1 -11 321.443 11.7463  21
  -1  -1 -11 336.500 11.7918  22
  -1  -1 -11 320.871 11.9429  27
  -1  -1 -11 327.039 11.8283  30
  -1  -1 -11 326.131 11.8066   9
  -1  -1 -11 322.496 11.7675  28
  -1  -1 -11 329.607 12.3450   4
   1   1  11 325.665 12.3254  15
   1   1  11 326.764 12.2385  22
  -2  -1 -11 10.0791 1.00189  15
  -2  -1 -11 11.7954 0.96956   9
  -2  -1 -11 10.6207 0.83137  21
  -2  -1 -11 11.0794 1.08831  27
  -2  -1 -11 10.7405 1.00836   1
  -2  -1 -11 10.9709 0.88226  30
   2   1  11 10.4276 1.39259  15
  -3  -1 -11 189.218 6.80622   9
   6  -2 -11 3.06781 0.47512  11
   6  -2 -11 2.47594 0.52918  23
  -6   2  11 3.24548 0.51470  13
   5  -2 -11 15.6972 1.22977   4
   5  -2 -11 17.5126 1.28142  23
  -5   2  11 16.6043 1.19208  25
  -5   2  11 16.2826 1.12766  13
   4  -2 -11 21.7829 1.50313  23
   4  -2 -11 20.7832 1.49045   4
  -4   2  11 19.9554 1.31844  13
  -4   2  11 20.0610 1.37410  25
   3  -2 -11 36.6583 2.11547   4
   3  -2 -11 36.8057 1.81472  22
   3  -2 -11 35.8155 2.09072  23
  -3   2  11 36.8218 2.46433  22
  -3   2  11 35.0565 1.97208  25
  -3   2  11 35.2929 1.88093  13
   2  -2 -11 176.604 7.36871   4
   2  -2 -11 197.239 7.17025  27
   2  -2 -11 179.361 7.39659  23
   2  -2 -11 197.820 7.05489  30
   2  -2 -11 191.114 7.06893  22
   2  -2 -11 194.779 7.10198  15
  -2   2  11 182.972 7.59938  15
  -2   2  11 187.453 7.64588  22
  -2   2  11 187.722 7.16245  25
  -2   2  11 193.496 7.07891  13
   1  -2 -11 485.787 16.9162  15
   1  -2 -11 484.578 16.8576  22
   1  -2 -11 482.866 16.8854   1
   1  -2 -11 474.662 16.7963  30
   1  -2 -11 466.933 16.8769  27
   1  -2 -11 475.021 16.7702   9
   1  -2 -11 476.710 17.2693   4
  -1   2  11 478.434 17.4006  22
  -1   2  11 453.797 16.7714  13
  -1   2  11 489.198 17.4265  15
   0  -2 -11 1.85096 0.44596  28
   0  -2 -11 2.83192 0.73759  27
   0  -2 -11 2.48846 0.62745  15
   0  -2 -11 1.83922 0.50484   9
   0  -2 -11 2.13607 0.53752  30
   0  -2 -11 2.47478 0.64503   1
   0  -2 -11 1.56554 0.44420  21
   0  -2 -11 2.11782 0.55374  22
   0   2  11 2.42443 0.88701  15
   0   2  11 3.35677 0.86869  22
  -1  -2 -11 13.1311 1.09563  15
  -1  -2 -11 13.3116 1.00828   9
  -1  -2 -11 11.3714 0.88398  28
  -1  -2 -11 13.4774 0.97351  30
  -1  -2 -11 12.9412 1.17857  27
  -1  -2 -11 13.2371 1.01388  22
  -1  -2 -11 12.2642 1.09356   1
   1   2  11 11.9100 1.37031  22
   1   2  11 12.7488 1.48073  15
  -2  -2 -11 204.888 7.44095   9
  -2  -2 -11 201.398 7.40228  21
  -2  -2 -11 214.116 7.46980   1
   6  -3 -11 40.5344 1.91941  23
  -6   3  11 37.8156 1.75152  13
   5  -3 -11 1.47940 0.49646   4
   5  -3 -11 1.16567 0.50427  23
  -5   3  11 0.82880 0.47295  25
  -5   3  11 1.60727 0.46308  13
   4  -3 -11 37.4268 2.04731   4
   4  -3 -11 36.8370 2.00615  23
  -4   3  11 35.6244 1.87910  25
  -4   3  11 34.3078 1.77629  13
   3  -3 -11 215.650 8.31245  23
   3  -3 -11 218.669 8.36897   4
   3  -3 -11 210.403 8.01532  22
   3  -3 -11 221.345 8.08728  27
  -3   3  11 224.810 8.56306  22
  -3   3  11 217.229 8.13241  25
  -3   3  11 223.359 8.05211  13
   2  -3 -11 314.315 11.9891   4
   2  -3 -11 327.705 11.6889  30
   2  -3 -11 334.650 11.7113  22
   2  -3 -11 323.517 11.6484   9
  -2   3  11 322.521 11.8027  25
  -2   3  11 328.414 11.7012  13
  -2   3  11 338.154 12.2515  22
   1  -3 -11 2.83511 0.48993  21
   1  -3 -11 2.53371 0.61197  15
   1  -3 -11 3.56049 0.71242   1
   1  -3 -11 3.92115 0.58586  30
   1  -3 -11 3.36342 0.59582   9
   1  -3 -11 3.85438 0.77532  27
   1  -3 -11 2.44019 0.54732  22
  -1   3  11 2.83294 0.87668  22
  -1   3  11 3.82112 0.67773  13
  -1   3  11 3.54715 0.95657  15
   0  -3 -11 37.0167 1.75775  30
   0  -3 -11 35.9240 1.82591  15
   0  -3 -11 35.2721 1.67296  21
   0  -3 -11 36.7392 1.85911  27
   0  -3 -11 37.5533 1.75596   9
   0  -3 -11 35.3779 1.85490   1
   0  -3 -11 35.4989 1.68743  28
   0  -3 -11 36.9471 1.78109  22
   0   3  11 36.3003 1.83641  13
   0   3  11 36.3948 2.14138  22
   0   3  11 35.1361 2.21541  15
  -1  -3 -11 1.15647 0.39407   9
  -1  -3 -11 0.55886 0.40258   1
  -1  -3 -11 0.63192 0.27970  21
  -1  -3 -11 0.68363 0.32644  22
   1   3  11 1.14127 0.59259  22
   5  -4 -11 22.7641 1.37019   4
   5  -4 -11 23.0938 1.32785  23
  -5   4  11 23.3081 1.21568  13
  -5   4  11 21.6089 1.28342  25
   4  -4 -11 25.8016 1.44846  27
   4  -4 -11 23.6308 1.49167   4
  -4   4  11 25.7951 1.44812  25
  -4   4  11 23.0833 1.31236  13
   3  -4 -11 26.8579 1.56499  27
   3  -4 -11 25.8155 1.40425   9
   3  -4 -11 25.8608 1.39826  30
  -3   4  11 27.0650 1.47115  13
  -3   4  11 28.0313 1.55256  25
   2  -4 -11 90.2995 3.60280  27
   2  -4 -11 86.0790 3.49075  30
   2  -4 -11 86.0899 3.46711  22
   2  -4 -11 87.2216 3.48248   9
  -2   4  11 89.4117 3.96662  22
  -2   4  11 87.3487 3.59087  25
  -2   4  11 91.2125 3.51791  13
   1  -4 -11 2.59024 0.58802  27
   1  -4 -11 2.62497 0.46384  22
   1  -4 -11 3.10593 0.47124  30
   1  -4 -11 2.92922 0.49518   9
   1  -4 -11 2.67980 0.40031  21
  -1   4  11 3.28225 0.55586  13
  -1   4  11 3.51815 0.80768  22
  -1   4  11 2.58071 0.52963  25
   0  -4 -11 5.26414 0.62707  22
   0   4  11 5.57675 0.82767  22
   3  -5 -11 71.3829 2.76269   9
   3  -5 -11 69.5347 2.84926  27
  -3   5  11 70.3808 2.80214  13
   0   5 -12 45.9204 2.96660   2
   0  -5  12 48.4688 2.31927   1
  -1   5 -12 23.3264 2.05838   2
  -1   5 -12 24.7616 1.47807  11
   1  -5  12 26.9574 1.55528   1
   1  -5  12 21.3596 1.49619   8
  -2   5 -12 4.81344 1.13114   2
  -2   5 -12 4.74008 0.65765  11
   2  -5  12 4.39766 0.68149   8
   2   4 -12 48.8975 3.23900   2
  -2  -4  12 55.5528 2.54825  22
  -2  -4  12 49.8204 2.45056   1
   1   4 -12 39.4109 1.77330  19
   1   4 -12 37.1753 2.05682  31
   1   4 -12 40.7320 2.92432   2
   1   4 -12 38.6583 1.93277  11
  -1  -4  12 44.5267 2.44716  15
   0   4 -12 17.6252 1.02907  19
   0   4 -12 16.5541 1.31054  31
   0   4 -12 16.3679 1.94065   2
   0   4 -12 16.5751 1.17003  11
   0  -4  12 15.3900 1.60961  15
   0  -4  12 16.0330 1.62091   1
  -1   4 -12 61.7891 2.58566  19
  -1   4 -12 62.0617 2.79799  11
  -1   4 -12 60.7942 3.18522  31
   1  -4  12 60.3771 2.86159   8
   1  -4  12 57.5941 2.88926   1
  -2   4 -12 332.403 12.1030  11
  -2   4 -12 332.962 11.8590  19
  -2   4 -12 335.557 11.6838  28
   2  -4  12 340.746 12.0866   8
   2  -4  12 325.877 11.9735  28
  -3   4 -12 43.2229 2.04795  11
  -3   4 -12 42.6948 1.69650  21
   3  -4  12 39.2140 1.83899  21
   3  -4  12 40.9916 2.06452   8
   3   3 -12 32.9156 2.69029   2
   3   3 -12 30.6400 1.56767  11
  -3  -3  12 36.6659 1.99750  22
   2   3 -12 26.5077 1.28006  19
   2   3 -12 27.0805 1.45708  11
   2   3 -12 24.1165 2.64581   2
   2   3 -12 24.5305 1.51960  31
  -2  -3  12 25.4011 1.84153   1
  -2  -3  12 25.5033 1.92161  22
  -2  -3  12 26.1320 1.92469  15
   1   3 -12 31.4446 1.53411  19
   1   3 -12 31.1948 1.72596  11
  -1  -3  12 31.0336 2.22017  15
  -1  -3  12 33.5581 2.16863  22
   0   3 -12 370.472 13.4161   1
   0   3 -12 376.902 13.7455  11
   0   3 -12 392.164 13.4731  19
   0  -3  12 359.779 13.9554  15
   0  -3  12 400.057 13.9532   1
   0  -3  12 378.645 13.7661   8
  -1   3 -12 473.426 16.9255  11
  -1   3 -12 474.205 16.4686  28
  -1   3 -12 493.439 16.6605  19
  -1   3 -12 477.328 16.5076   1
   1  -3  12 492.209 16.9296   8
   1  -3  12 451.214 16.9623   1
   1  -3  12 438.597 16.6944  28
  -2   3 -12 61.1178 2.42891  21
  -2   3 -12 61.4570 2.49238  28
  -2   3 -12 61.9050 2.65781  19
  -2   3 -12 58.5732 2.87150   4
  -2   3 -12 62.2081 2.59970   1
  -2   3 -12 62.6401 2.93568  11
   2  -3  12 61.9691 2.92132   8
   2  -3  12 58.3144 2.76346  28
   2  -3  12 59.6840 2.64603  21
   2  -3  12 58.6102 2.40488  16
  -3   3 -12 60.1067 2.76060  11
  -3   3 -12 57.1480 2.73113   4
  -3   3 -12 63.5658 2.55879  27
  -3   3 -12 62.0696 2.38634  21
   3  -3  12 60.9428 2.55615  21
   3  -3  12 59.7171 2.74871   8
   4   2 -12 196.883 7.12157  11
  -4  -2  12 195.073 7.37399  22
   3   2 -12 15.8013 0.89587  19
   3   2 -12 15.3131 1.03088  11
  -3  -2  12 14.1303 1.48828  15
  -3  -2  12 14.3204 1.47171  22
   2   2 -12 26.2809 1.54982  11
   2   2 -12 26.9490 1.37344  19
  -2  -2  12 29.3240 1.96504   1
  -2  -2  12 28.3627 2.04269  22
  -2  -2  12 27.8775 2.08526  15
   1   2 -12 208.197 7.49251  19
   1   2 -12 204.928 7.77168  11
   1   2 -12 206.255 7.91442  23
   1   2 -12 202.031 7.53544   1
  -1  -2  12 207.568 8.13242  22
  -1  -2  12 213.120 8.12462   1
  -1  -2  12 195.985 8.11136  15
   0   2 -12 1.20220 0.60822   4
   0   2 -12 1.17304 0.47283   1
   0   2 -12 1.43070 0.59101  11
   0   2 -12 3.02511 0.61544  19
   0  -2  12 0.38412 0.62113   8
   0  -2  12 1.10369 0.99107  15
   0  -2  12 0.70657 0.90253   1
  -1   2 -12 112.718 4.22566  28
  -1   2 -12 109.579 4.30451   1
  -1   2 -12 117.020 4.72065  11
  -1   2 -12 110.493 4.70135   4
   1  -2  12 108.587 4.69431   8
   1  -2  12 102.407 4.91225  15
   1  -2  12 106.801 4.50092  28
   1  -2  12 110.692 4.88980   1
  -2   2 -12 2.93928 0.71056  27
  -2   2 -12 2.37961 0.43069  21
  -2   2 -12 2.32741 0.66334   4
  -2   2 -12 2.40289 0.49542   1
  -2   2 -12 2.17340 0.51240   9
  -2   2 -12 2.52679 0.44168  28
  -2   2 -12 2.27409 0.46690  30
  -2   2 -12 3.53632 0.76174  11
   2  -2  12 2.72037 0.88809   1
   2  -2  12 1.99696 0.65598   8
   2  -2  12 2.38806 0.64237  28
  -3   2 -12 7.80179 0.59526  21
  -3   2 -12 7.60836 0.66334  30
  -3   2 -12 7.27566 0.77286  27
  -3   2 -12 7.71701 0.67840   9
  -3   2 -12 7.18050 0.85793   4
   3  -2  12 6.79103 0.99971   8
   4   1 -12 100.598 3.96657  11
   4   1 -12 100.183 3.76859  19
  -4  -1  12 97.9576 3.89204  13
  -4  -1  12 104.135 4.32359  22
   3   1 -12 48.6908 2.03695  19
   3   1 -12 49.3024 2.25597  11
  -3  -1  12 45.4268 2.64733  15
  -3  -1  12 50.3595 2.69946  22
   2   1 -12 11.5457 0.96156  11
   2   1 -12 11.6147 0.95833   1
   2   1 -12 11.2415 0.81984  19
   2   1 -12 12.4984 1.09904  23
  -2  -1  12 12.6945 1.63650  15
  -2  -1  12 14.3024 1.63775  22
  -2  -1  12 12.6625 1.64868   1
   1   1 -12 30.9922 1.92851  23
   1   1 -12 30.8942 1.66170   1
   1   1 -12 33.8424 1.93382   4
   1   1 -12 31.1162 1.78390  11
  -1  -1  12 28.9718 2.24579  22
  -1  -1  12 28.4421 2.38023  15
  -1  -1  12 27.7015 2.24356   1
   0   1 -12 417.464 15.3273  22
   0   1 -12 458.626 15.9108   4
   0   1 -12 397.767 15.8346  10
   0   1 -12 452.821 15.4349   1
   0   1 -12 462.516 15.8137  11
   0  -1  12 435.257 16.0992  15
   0  -1  12 431.641 15.9813  22
   0  -1  12 422.822 15.9299   1
   0  -1  12 441.503 15.7025   8
  -1   1 -12 5.67631 0.63836  21
  -1   1 -12 3.41410 0.74554  27
  -1   1 -12 4.22352 0.83067   4
  -1   1 -12 3.95376 0.69006   1
  -1   1 -12 3.90727 0.54497  28
  -1   1 -12 3.96117 0.57400  30
  -1   1 -12 2.87855 0.54569   9
   1  -1  12 4.00863 1.05538   1
   1  -1  12 4.85966 0.81473  28
   1  -1  12 4.94668 1.16506  15
  -2   1 -12 54.0277 2.36441  30
  -2   1 -12 56.3750 2.37570   9
  -2   1 -12 55.6141 2.52470  27
  -2   1 -12 52.7789 2.73778   4
  -2   1 -12 57.0120 2.42739   1
  -2   1 -12 55.8272 2.31874  28
  -2   1 -12 54.3578 2.32752  21
   2  -1  12 58.3358 2.60296  28
   2  -1  12 52.8324 2.80574   1
  -3   1 -12 78.8685 3.09697  21
  -3   1 -12 82.5905 3.12519   9
  -3   1 -12 80.6018 3.22459  27
   5   0 -12 385.695 13.6205  11
  -5   0  12 390.168 13.5741  13
   4   0 -12 52.1728 2.29107  11
   4   0 -12 52.8937 2.46025  23
  -4   0  12 49.8296 2.35130  25
  -4   0  12 50.3766 2.67784  22
  -4   0  12 52.1349 2.32985  13
   3   0 -12 9.02368 0.81993  11
   3   0 -12 9.14322 0.91462   4
   3   0 -12 8.45341 0.91664  23
  -3   0  12 6.35248 1.08227  15
  -3   0  12 7.32571 1.19426  22
  -3   0  12 8.88847 0.97353  13
   2   0 -12 2.51028 0.64605   4
   2   0 -12 2.04613 0.51305  22
   2   0 -12 2.58242 0.54632  11
   2   0 -12 2.69772 0.66787  23
  -2   0  12 2.21828 1.02248   1
  -2   0  12 1.77146 0.89841  22
  -2   0  12 2.62211 1.01032  15
   1   0 -12 11.9491 1.17231   4
   1   0 -12 11.7789 0.99943  22
   1   0 -12 12.7460 1.19529  23
   1   0 -12 13.8717 1.12179   1
  -1   0  12 13.6758 1.71498  22
  -1   0  12 13.3992 1.75983  15
  -1   0  12 11.9177 1.67497   1
   0   0 -12 11.4077 1.18134   4
   0   0 -12 11.3912 1.15141  27
   0   0 -12 12.3520 0.97756  30
   0   0 -12 13.7606 1.12672  15
   0   0 -12 13.6369 1.04864  22
   0   0 -12 11.3995 0.97746   9
   0   0 -12 12.0802 1.10823   1
   0   0  12 11.9388 1.71924  15
   0   0  12 11.1920 1.64067  22
   0   0  12 10.9732 1.55324   1
  -1   0 -12 40.5790 1.96975   1
  -1   0 -12 39.6170 1.82935  21
  -1   0 -12 41.2338 1.95175  15
  -1   0 -12 39.7002 1.84307  28
  -1   0 -12 39.4569 2.02603  27
  -1   0 -12 38.4697 1.89296  30
  -1   0 -12 38.4200 1.91054   9
  -1   0 -12 38.6743 2.25999   4
   1   0  12 40.6013 2.57550  15
   1   0  12 40.3206 2.43223   1
  -2   0 -12 9.33468 0.81230  30
  -2   0 -12 10.2650 1.07702   4
  -2   0 -12 10.6005 0.92357   1
  -2   0 -12 10.4859 0.77661  28
  -2   0 -12 10.4876 1.02032  27
  -2   0 -12 10.6880 0.88765   9
  -2   0 -12 10.2926 0.76645  21
   2   0  12 11.0413 1.33990   1
   5  -1 -12 0.98704 0.40707  23
   5  -1 -12 1.01865 0.32907  11
  -5   1  12 1.16750 0.46265  13
  -5   1  12 1.26309 0.48535  25
   4  -1 -12 6.73761 0.81932  23
   4  -1 -12 7.98427 0.71156  11
   4  -1 -12 7.85822 0.85228   4
  -4   1  12 7.75020 0.87112  13
  -4   1  12 6.43175 1.04985  22
  -4   1  12 6.98597 0.91290  25
   3  -1 -12 21.9629 1.43806   4
   3  -1 -12 18.9498 1.40560  23
  -3   1  12 20.3521 1.32423  13
  -3   1  12 21.5498 1.88449  22
  -3   1  12 22.5187 1.40610  25
   2  -1 -12 1.08936 0.45028  22
   2  -1 -12 0.43500 0.50285  23
   2  -1 -12 -0.1913 0.41044   4
  -2   1  12 1.05026 0.83139  22
  -2   1  12 0.31405 0.84229  15
   1  -1 -12 23.7556 1.42311  15
   1  -1 -12 21.3530 1.42231   1
   1  -1 -12 22.2543 1.46543  27
   1  -1 -12 24.0998 1.35440  30
   1  -1 -12 24.1629 1.64437  23
   1  -1 -12 23.7729 1.41254  22
   1  -1 -12 22.9118 1.60989   4
  -1   1  12 20.5914 1.89640   1
  -1   1  12 23.4130 2.04063  15
  -1   1  12 21.9416 1.89941  22
   0  -1 -12 28.0992 1.59495   1
   0  -1 -12 28.9572 1.63217  15
   0  -1 -12 30.0931 1.87703   4
   0  -1 -12 28.0775 1.43593  21
   0  -1 -12 29.3867 1.53447   9
   0  -1 -12 27.1267 1.60428  27
   0  -1 -12 25.3144 1.45825  30
   0  -1 -12 26.1976 1.43950  28
   0   1  12 27.8299 2.07642  22
   0   1  12 26.3865 2.00749   1
   0   1  12 27.7479 2.16488  15
  -1  -1 -12 204.266 7.40482  22
  -1  -1 -12 212.459 7.44329   9
  -1  -1 -12 207.126 7.46102   1
  -1  -1 -12 206.606 7.48205  15
  -1  -1 -12 199.647 7.85636   4
  -1  -1 -12 209.031 7.56065  27
  -1  -1 -12 206.611 7.44799  30
  -1  -1 -12 201.255 7.38907  28
  -1  -1 -12 203.638 7.38948  21
   1   1  12 202.236 7.91413  15
   1   1  12 200.326 7.77098   1
   1   1  12 197.027 7.79971  22
  -2  -1 -12 382.669 13.7805  21
  -2  -1 -12 412.992 13.8316   9
  -2  -1 -12 399.074 13.9239  27
  -2  -1 -12 404.356 13.8161   1
   2   1  12 379.051 14.0014   1
   5  -2 -12 38.8979 2.00007   4
   5  -2 -12 37.8426 1.88828  23
  -5   2  12 38.3731 1.81032  25
  -5   2  12 37.6701 1.73465  13
   4  -2 -12 262.663 9.63131   4
   4  -2 -12 263.856 9.64111  23
  -4   2  12 258.940 9.43494  25
  -4   2  12 258.162 9.34216  13
   3  -2 -12 321.161 11.7522  23
   3  -2 -12 309.332 11.7081   4
   3  -2 -12 335.290 11.4424  22
  -3   2  12 334.345 12.0022  22
  -3   2  12 315.730 11.5344  25
  -3   2  12 311.816 11.4305  13
   2  -2 -12 148.561 5.60207  15
   2  -2 -12 147.111 5.89786  23
   2  -2 -12 153.713 5.61878  22
   2  -2 -12 153.520 5.65089  27
   2  -2 -12 145.036 5.88659   4
  -2   2  12 149.513 5.59291  13
  -2   2  12 140.293 6.13053  15
  -2   2  12 152.332 6.17405  22
  -2   2  12 142.208 5.64787  25
   1  -2 -12 170.663 6.29242  22
   1  -2 -12 166.132 6.24965  30
   1  -2 -12 172.405 6.66116   4
   1  -2 -12 169.515 6.32623  15
   1  -2 -12 168.569 6.21822   9
   1  -2 -12 164.360 6.33082  27
   1  -2 -12 168.754 6.30367   1
  -1   2  12 167.448 6.81655  15
  -1   2  12 169.992 6.64144   1
  -1   2  12 167.848 6.79679  22
   0  -2 -12 209.815 7.58639   9
   0  -2 -12 206.138 7.63122   1
   0  -2 -12 210.901 7.68764  27
   0  -2 -12 209.992 7.61724  22
   0  -2 -12 206.284 7.56503  28
   0  -2 -12 214.225 7.68986  15
   0  -2 -12 209.966 7.60891  30
   0   2  12 206.659 8.08832  15
   0   2  12 202.682 7.99888  22
   0   2  12 216.567 7.97022   1
  -1  -2 -12 25.7577 1.24631  21
  -1  -2 -12 27.4466 1.33564   9
  -1  -2 -12 25.6720 1.30896  22
  -1  -2 -12 26.9561 1.45674  27
  -1  -2 -12 27.6019 1.38427   1
   1   2  12 25.5269 1.70706   1
   1   2  12 26.1681 1.68450  22
   5  -3 -12 235.394 8.47738  23
  -5   3  12 229.757 8.27526  13
   4  -3 -12 220.284 8.13855   4
   4  -3 -12 213.584 8.10789  23
  -4   3  12 228.434 7.92538  13
  -4   3  12 216.650 7.98370  25
   3  -3 -12 6.38114 0.84798  27
   3  -3 -12 5.62570 0.73434   4
   3  -3 -12 5.50061 0.72248  23
   3  -3 -12 6.12265 0.70411  22
  -3   3  12 5.87892 1.01349  22
  -3   3  12 6.03604 0.71645  13
  -3   3  12 5.05644 0.73481  25
   2  -3 -12 142.293 5.78019   4
   2  -3 -12 147.178 5.50880  30
   2  -3 -12 147.067 5.59196  27
   2  -3 -12 148.887 5.52440  22
   2  -3 -12 151.077 5.48931   9
  -2   3  12 161.035 6.06586  22
  -2   3  12 151.303 5.55583  13
  -2   3  12 143.876 5.62010  25
   1  -3 -12 112.786 4.42631   1
   1  -3 -12 116.969 4.43367  22
   1  -3 -12 114.982 4.41749  30
   1  -3 -12 121.422 4.51984  27
   1  -3 -12 116.956 4.39349   9
  -1   3  12 121.253 4.87493  22
  -1   3  12 116.810 4.41817  13
  -1   3  12 114.727 4.73569   1
   0  -3 -12 38.5742 1.76105   1
   0  -3 -12 38.6167 1.69909   9
   0  -3 -12 37.4137 1.69924  22
   0  -3 -12 39.5869 1.82980  27
   0   3  12 38.8948 2.07765  22
   0   3  12 38.1484 2.04455   1
  -4   4  12 70.4541 2.76976  13
   3  -4 -12 208.244 7.51873  27
   3  -4 -12 210.505 7.45459   9
  -3   4  12 208.842 7.51365  13
   2  -4 -12 43.1551 1.82835   9
   2  -4 -12 43.5792 1.91962  27
  -2   4  12 43.4340 1.87870  13
   0   4 -13 76.7690 3.22564  11
   0  -4  13 80.5172 3.42150   1
  -1   4 -13 67.8175 2.89300  11
   1  -4  13 66.7170 3.02000   1
   2   3 -13 176.914 6.41703  11
  -2  -3  13 180.809 6.67142  22
  -2  -3  13 163.241 6.47781   1
   1   3 -13 166.676 6.11898  11
   1   3 -13 155.325 5.97010  19
  -1  -3  13 161.903 6.27125   1
   0   3 -13 2.18400 0.48561  19
   0   3 -13 1.14556 0.48010  11
   0  -3  13 1.43012 0.71602   1
  -1   3 -13 73.1086 3.06502  11
   1  -3  13 67.9468 3.06520   8
   1  -3  13 65.4888 3.11506   1
  -2   3 -13 73.5774 3.09277  11
   2  -3  13 68.2130 3.06652   8
   3   2 -13 141.889 5.22234  11
  -3  -2  13 135.409 5.48994  22
   2   2 -13 14.5087 0.86505  19
   2   2 -13 14.6809 1.04174  11
  -2  -2  13 16.6596 1.45253  22
  -2  -2  13 14.4737 1.36936   1
  -2  -2  13 16.4236 1.48595  15
   1   2 -13 203.913 7.11369  19
   1   2 -13 191.011 7.28654  11
   1   2 -13 199.477 7.11223   1
  -1  -2  13 194.321 7.53718  22
  -1  -2  13 183.815 7.55546  15
  -1  -2  13 199.212 7.53636   1
   0   2 -13 608.975 20.8976   1
   0   2 -13 637.561 21.2441  11
   0   2 -13 597.055 21.2778   4
   0  -2  13 587.501 21.3309   1
   0  -2  13 575.662 21.3839  15
  -1   2 -13 34.1190 1.56451  28
  -1   2 -13 36.0184 1.66707   1
  -1   2 -13 37.6821 1.94476  11
  -1   2 -13 35.7450 1.93242   4
   1  -2  13 32.5577 1.98435   8
   1  -2  13 32.1954 1.81525  28
   1  -2  13 34.1190 2.14366   1
  -2   2 -13 3.85479 0.70132  11
  -2   2 -13 2.97478 0.46371   1
  -2   2 -13 3.75885 0.73318   4
  -2   2 -13 3.46807 0.43219  21
  -2   2 -13 3.85038 0.59486  27
  -2   2 -13 3.93193 0.53363   9
   2  -2  13 3.01268 0.62450   8
   2  -2  13 2.92536 0.74682   1
   4   1 -13 111.247 4.18162  11
  -4  -1  13 110.275 4.47796  22
   3   1 -13 57.6640 2.49902  11
  -3  -1  13 58.8370 2.84113  22
   2   1 -13 137.838 5.08032   1
   2   1 -13 140.730 5.45733  23
   2   1 -13 145.224 5.28850  11
  -2  -1  13 128.059 5.56507  15
  -2  -1  13 128.140 5.45858   1
  -2  -1  13 137.634 5.62693  22
   1   1 -13 276.948 10.1182  11
   1   1 -13 275.308 10.2639   4
   1   1 -13 275.240 10.2913  23
   1   1 -13 284.501 9.93904   1
  -1  -1  13 280.387 10.4571  22
  -1  -1  13 267.113 10.4681  15
  -1  -1  13 280.578 10.3839   1
   0   1 -13 161.593 6.40019   4
   0   1 -13 166.079 6.04140   1
   0   1 -13 164.036 6.30757  11
   0  -1  13 160.781 6.51198   1
   0  -1  13 160.150 6.37658   8
   0  -1  13 161.476 6.64759  15
  -1   1 -13 0.41043 0.33125  30
  -1   1 -13 0.92666 0.32452  28
  -1   1 -13 0.84234 0.54539  27
  -1   1 -13 0.41712 0.40605   1
  -1   1 -13 0.79026 0.51505   4
  -1   1 -13 0.62958 0.37830   9
   1  -1  13 0.22662 0.52440   8
   1  -1  13 0.93801 0.54161  28
   1  -1  13 -0.1788 0.74971   1
  -2   1 -13 1.79440 0.41142   1
  -2   1 -13 1.88247 0.55395  27
  -2   1 -13 2.24278 0.38617  21
  -2   1 -13 2.43406 0.43636   9
   2  -1  13 1.75636 0.72106   1
   2  -1  13 1.76064 0.50707   8
   4   0 -13 4.81565 0.52018  11
   4   0 -13 5.14994 0.59894  23
  -4   0  13 5.50488 0.67478  13
  -4   0  13 3.89331 0.71255  22
   3   0 -13 16.6817 1.23141   4
   3   0 -13 16.2597 1.14619  23
   3   0 -13 15.8603 1.02776  11
  -3   0  13 16.8865 1.53057  22
   2   0 -13 1.76157 0.47707  11
   2   0 -13 2.01769 0.58561  23
   2   0 -13 2.99151 0.63484   4
  -2   0  13 2.09235 0.80726  22
  -2   0  13 2.52148 0.85266  15
   1   0 -13 99.0420 4.23233   4
   1   0 -13 102.267 3.93808   1
   1   0 -13 101.538 3.91545  22
   1   0 -13 94.8645 4.22121  23
  -1   0  13 100.389 4.55035  15
  -1   0  13 102.949 4.39480   1
  -1   0  13 98.6488 4.45581  22
   0   0 -13 19.0313 1.19802  22
   0   0 -13 21.1940 1.30762  27
   0   0 -13 20.9856 1.45998   4
   0   0 -13 19.9102 1.27709   1
   0   0  13 19.4663 1.73606   1
   0   0  13 19.5489 1.87238  15
   0   0  13 19.9239 1.80675  22
  -1   0 -13 222.709 7.82016   1
  -1   0 -13 216.264 7.72743  21
  -1   0 -13 211.481 7.76543  30
  -1   0 -13 212.704 8.17979   4
  -1   0 -13 219.689 7.77238   9
  -1   0 -13 222.118 7.88826  27
   1   0  13 212.424 8.12172   1
   4  -1 -13 46.6488 2.12282  23
  -4   1  13 46.9386 1.99138  13
  -4   1  13 43.8070 2.28833  22
   3  -1 -13 67.8762 2.96010  23
   3  -1 -13 68.0400 2.96677   4
  -3   1  13 64.3382 2.73205  13
  -3   1  13 69.3277 3.23142  22
   2  -1 -13 41.4396 1.89437  22
   2  -1 -13 41.2178 2.10567   4
   2  -1 -13 41.1858 2.10785  23
  -2   1  13 38.9313 2.42784  15
  -2   1  13 41.4800 2.42713  22
   1  -1 -13 61.3205 2.87794  23
   1  -1 -13 63.2403 2.65148  27
   1  -1 -13 63.9060 2.58128  22
   1  -1 -13 57.4680 2.59011   1
   1  -1 -13 60.0173 2.85878   4
  -1   1  13 60.7382 3.15315  15
  -1   1  13 60.4056 3.09353  22
  -1   1  13 62.6072 2.99790   1
   0  -1 -13 217.448 7.70014  22
   0  -1 -13 206.688 8.08195   4
   0  -1 -13 220.719 7.76417   1
   0  -1 -13 214.772 7.69697   9
   0  -1 -13 211.488 7.70493  30
   0  -1 -13 219.146 7.80975  27
   0   1  13 213.268 8.04244   1
   0   1  13 211.080 8.11921  22
  -1  -1 -13 231.077 8.00425   9
  -1  -1 -13 229.431 8.10184  27
  -1  -1 -13 236.018 8.03712   1
  -1  -1 -13 203.733 7.98494  21
   1   1  13 225.068 8.26881   1
   4  -2 -13 130.176 5.07340  23
  -4   2  13 136.437 4.91930  13
   3  -2 -13 8.22747 0.81323  23
   3  -2 -13 8.34993 0.83804   4
  -3   2  13 9.17591 0.82264  13
  -3   2  13 9.56113 1.22399  22
  -3   2  13 9.08418 0.83281  25
   2  -2 -13 16.6623 1.02128  22
   2  -2 -13 15.6305 1.15596  23
   2  -2 -13 14.9018 1.13570   4
   2  -2 -13 16.5075 1.07383  27
  -2   2  13 17.1935 1.53627  22
   1  -2 -13 53.3728 2.17498  22
   1  -2 -13 51.5866 2.22022  27
   1  -2 -13 50.4063 2.13336   9
   1  -2 -13 48.8573 2.19106   1
   1  -2 -13 46.6280 2.37743   4
  -1   2  13 54.3170 2.64192  22
  -1   2  13 52.7243 2.52797   1
   0  -2 -13 17.8960 1.10402   1
   0  -2 -13 18.3432 1.09294  27
   0  -2 -13 15.7654 0.96657  22
   0  -2 -13 17.5855 0.97350   9
   0   2  13 18.3445 1.43639  22
   0   2  13 15.6982 1.38818   1
  -3   3  13 63.1687 2.51685  13
   1   2 -14 20.4189 1.15180  11
  -1  -2  14 16.9271 1.34315   1
   0   2 -14 22.5293 1.32641  11
   0   2 -14 24.2003 1.19903   1
   0  -2  14 25.1223 1.63730   1
   2   1 -14 49.0639 2.05751  11
  -2  -1  14 42.4472 2.23224   1
  -2  -1  14 47.4525 2.36235  22
   1   1 -14 3.14409 0.48691   1
   1   1 -14 1.81022 0.44734  11
  -1  -1  14 3.04245 0.79508  22
  -1  -1  14 3.23045 0.76521   1
   0   1 -14 41.1624 1.78837   1
   0  -1  14 38.0574 2.17724   1
   3   0 -14 19.6335 1.17734  23
  -3   0  14 20.7571 1.45271  22
   2   0 -14 32.0776 1.66835  23
  -2   0  14 31.3838 1.94970  22
   1   0 -14 215.886 7.35625   1
   1   0 -14 195.045 7.74628   4
  -1   0  14 205.099 7.68799   1
  -1   0  14 203.153 7.71877  22
   0   0 -14 216.662 7.65935   1
   0   0  14 213.060 7.99392   1
   2  -1 -14 91.1070 3.67631  23
  -2   1  14 90.1840 3.81660  22
   1  -1 -14 21.3833 1.13318  22
  -1   1  14 22.2567 1.68146  22
   0   0   0    0.00    0.00   0

 _exptl_absorpt_process_details
)
 SADABS 2016/2: Krause, L., Herbst-Irmer, R., Sheldrick G.M. & Stalke D.,
 J. Appl. Cryst. 48 (2015) 3-10
)
 _exptl_absorpt_correction_type   multi-scan
 _exptl_absorpt_correction_T_max  0.1560
 _exptl_absorpt_correction_T_min  0.0487
 _exptl_special_details
)
 The following wavelength and cell were deduced by SADABS from the
 direction cosines etc. They are given here for emergency use only:
 CELL 1.54178    7.335    7.666   12.655   94.563   98.169  114.781
)
;
_shelx_hkl_checksum              67667
_olex2_diffrn_ambient_temperature_device 'Oxford 700'
_olex2_submission_special_instructions 'No special instructions were received'
loop_
_space_group_symop_operation_xyz
'x, y, z'
'-x, -y, -z'
loop_
_atom_site_label
_atom_site_type_symbol
_atom_site_fract_x
_atom_site_fract_y
_atom_site_fract_z
_atom_site_U_iso_or_equiv
_atom_site_adp_type
_atom_site_occupancy
_atom_site_site_symmetry_order
_atom_site_calc_flag
_atom_site_refinement_flags_posn
_atom_site_refinement_flags_adp
_atom_site_refinement_flags_occupancy
_atom_site_disorder_assembly
_atom_site_disorder_group
Ga1 Ga 0.37598(9) 0.31177(8) 0.24390(5) 0.0309(3) Uani 1 1 d . . . . .
Cl1 Cl 0.2803(2) 0.06378(19) 0.10966(11) 0.0416(4) Uani 1 1 d . . . . .
S1 S 0.5374(2) 0.2440(2) 0.39286(11) 0.0380(4) Uani 1 1 d . . . . .
S2 S 0.6382(2) 0.5795(2) 0.20713(12) 0.0408(4) Uani 1 1 d . . . . .
N1 N 0.1044(6) 0.1924(6) 0.3136(3) 0.0316(9) Uani 1 1 d . . . . .
N2 N 0.1808(7) 0.4374(6) 0.1783(4) 0.0364(10) Uani 1 1 d . . . . .
C1 C 0.3121(8) 0.0968(8) 0.4468(5) 0.0383(12) Uani 1 1 d . . . . .
H1A H 0.326053 -0.018310 0.469641 0.046 Uiso 1 1 calc R . . . .
H1B H 0.305818 0.174260 0.511346 0.046 Uiso 1 1 calc R . . . .
C2 C 0.1153(9) 0.0296(8) 0.3652(5) 0.0380(12) Uani 1 1 d . . . . .
H2A H 0.106117 -0.072857 0.309039 0.046 Uiso 1 1 calc R . . . .
H2B H -0.002603 -0.027505 0.401573 0.046 Uiso 1 1 calc R . . . .
C3 C -0.0722(8) 0.1269(8) 0.2250(5) 0.0386(12) Uani 1 1 d . . . . .
H3A H -0.194664 0.114371 0.254079 0.046 Uiso 1 1 calc R . . . .
H3B H -0.099885 -0.002481 0.187255 0.046 Uiso 1 1 calc R . . . .
C4 C -0.0287(9) 0.2768(8) 0.1431(5) 0.0408(13) Uani 1 1 d . . . . .
H4A H -0.042140 0.209983 0.070278 0.049 Uiso 1 1 calc R . . . .
H4B H -0.130519 0.330529 0.139146 0.049 Uiso 1 1 calc R . . . .
C5 C 0.1099(9) 0.3449(8) 0.3960(4) 0.0381(12) Uani 1 1 d . . . . .
H5A H 0.247429 0.408473 0.443064 0.046 Uiso 1 1 calc R . . . .
H5B H 0.009138 0.282622 0.441681 0.046 Uiso 1 1 calc R . . . .
C6 C 0.0627(9) 0.4981(8) 0.3465(5) 0.0412(13) Uani 1 1 d . . . . .
H6A H 0.087616 0.603806 0.405025 0.049 Uiso 1 1 calc R . . . .
H6B H -0.084595 0.439327 0.313091 0.049 Uiso 1 1 calc R . . . .
C7 C 0.1856(9) 0.5864(8) 0.2622(5) 0.0396(12) Uani 1 1 d . . . . .
H7A H 0.130607 0.669957 0.227261 0.048 Uiso 1 1 calc R . . . .
H7B H 0.329455 0.669871 0.298196 0.048 Uiso 1 1 calc R . . . .
C8 C 0.2642(9) 0.5286(8) 0.0868(5) 0.0402(13) Uani 1 1 d . . . . .
H8A H 0.183365 0.595357 0.056600 0.048 Uiso 1 1 calc R . . . .
H8B H 0.251517 0.426454 0.029323 0.048 Uiso 1 1 calc R . . . .
C9 C 0.4860(9) 0.6734(8) 0.1215(5) 0.0397(13) Uani 1 1 d . . . . .
H9A H 0.494160 0.793391 0.161748 0.048 Uiso 1 1 calc R . . . .
H9B H 0.545609 0.708074 0.056484 0.048 Uiso 1 1 calc R . . . .
loop_
_atom_site_aniso_label
_atom_site_aniso_U_11
_atom_site_aniso_U_22
_atom_site_aniso_U_33
_atom_site_aniso_U_23
_atom_site_aniso_U_13
_atom_site_aniso_U_12
Ga1 0.0280(4) 0.0334(4) 0.0342(4) 0.0066(3) 0.0048(3) 0.0165(3)
Cl1 0.0488(9) 0.0405(7) 0.0391(7) 0.0021(5) 0.0067(6) 0.0243(6)
S1 0.0294(7) 0.0464(8) 0.0408(7) 0.0134(6) 0.0047(6) 0.0187(6)
S2 0.0288(7) 0.0423(7) 0.0544(8) 0.0177(6) 0.0070(6) 0.0169(6)
N1 0.026(2) 0.036(2) 0.034(2) 0.0062(18) 0.0040(19) 0.0150(19)
N2 0.032(2) 0.039(2) 0.045(3) 0.012(2) 0.008(2) 0.021(2)
C1 0.030(3) 0.045(3) 0.044(3) 0.016(2) 0.007(2) 0.019(3)
C2 0.037(3) 0.035(3) 0.044(3) 0.012(2) 0.010(3) 0.016(2)
C3 0.029(3) 0.042(3) 0.042(3) 0.004(2) 0.000(2) 0.015(2)
C4 0.037(3) 0.046(3) 0.039(3) 0.004(2) -0.002(3) 0.021(3)
C5 0.037(3) 0.044(3) 0.039(3) 0.009(2) 0.011(2) 0.023(3)
C6 0.043(3) 0.042(3) 0.042(3) 0.003(2) 0.004(3) 0.025(3)
C7 0.037(3) 0.039(3) 0.044(3) 0.004(2) 0.003(3) 0.021(3)
C8 0.042(3) 0.047(3) 0.039(3) 0.010(2) 0.006(3) 0.027(3)
C9 0.036(3) 0.043(3) 0.046(3) 0.015(2) 0.009(3) 0.021(3)
loop_
_atom_type_symbol
_atom_type_description
_atom_type_scat_dispersion_real
_atom_type_scat_dispersion_imag
_atom_type_scat_source
C C 0.0181 0.0091 'International Tables Vol C Tables 4.2.6.8 and 6.1.1.4'
H H 0.0000 0.0000 'International Tables Vol C Tables 4.2.6.8 and 6.1.1.4'
Cl Cl 0.3639 0.7018 'International Tables Vol C Tables 4.2.6.8 and 6.1.1.4'
Ga Ga -1.2846 0.7763 'International Tables Vol C Tables 4.2.6.8 and 6.1.1.4'
N N 0.0311 0.0180 'International Tables Vol C Tables 4.2.6.8 and 6.1.1.4'
S S 0.3331 0.5567 'International Tables Vol C Tables 4.2.6.8 and 6.1.1.4'
loop_
_geom_angle_atom_site_label_1
_geom_angle_atom_site_label_2
_geom_angle_atom_site_label_3
_geom_angle
_geom_angle_site_symmetry_1
_geom_angle_site_symmetry_3
Cl1 Ga1 S1 107.76(5) . .
Cl1 Ga1 S2 109.29(6) . .
S2 Ga1 S1 101.37(5) . .
N1 Ga1 Cl1 97.19(12) . .
N1 Ga1 S1 85.80(12) . .
N1 Ga1 S2 148.54(12) . .
N2 Ga1 Cl1 98.33(13) . .
N2 Ga1 S1 148.60(13) . .
N2 Ga1 S2 85.69(13) . .
N2 Ga1 N1 73.65(16) . .
C1 S1 Ga1 98.85(18) . .
C9 S2 Ga1 98.78(18) . .
C2 N1 Ga1 105.6(3) . .
C2 N1 C5 110.3(4) . .
C3 N1 Ga1 107.1(3) . .
C3 N1 C2 112.3(4) . .
C3 N1 C5 112.2(4) . .
C5 N1 Ga1 109.0(3) . .
C4 N2 Ga1 107.2(3) . .
C7 N2 Ga1 109.3(3) . .
C7 N2 C4 111.3(4) . .
C8 N2 Ga1 106.6(3) . .
C8 N2 C4 112.1(4) . .
C8 N2 C7 110.2(4) . .
C2 C1 S1 112.4(4) . .
N1 C2 C1 111.4(4) . .
N1 C3 C4 109.9(4) . .
N2 C4 C3 110.2(4) . .
N1 C5 C6 112.8(4) . .
C5 C6 C7 115.0(5) . .
N2 C7 C6 112.7(5) . .
N2 C8 C9 111.3(5) . .
C8 C9 S2 112.7(4) . .
loop_
_geom_bond_atom_site_label_1
_geom_bond_atom_site_label_2
_geom_bond_distance
_geom_bond_site_symmetry_2
Ga1 Cl1 2.2409(14) .
Ga1 S1 2.2942(14) .
Ga1 S2 2.2855(15) .
Ga1 N1 2.164(4) .
Ga1 N2 2.147(4) .
S1 C1 1.831(5) .
S2 C9 1.842(5) .
N1 C2 1.479(7) .
N1 C3 1.462(7) .
N1 C5 1.487(7) .
N2 C4 1.485(8) .
N2 C7 1.483(7) .
N2 C8 1.476(7) .
C1 C2 1.511(8) .
C3 C4 1.572(8) .
C5 C6 1.512(8) .
C6 C7 1.512(8) .
C8 C9 1.508(8) .
loop_
_geom_torsion_atom_site_label_1
_geom_torsion_atom_site_label_2
_geom_torsion_atom_site_label_3
_geom_torsion_atom_site_label_4
_geom_torsion
_geom_torsion_site_symmetry_1
_geom_torsion_site_symmetry_2
_geom_torsion_site_symmetry_3
_geom_torsion_site_symmetry_4
Ga1 S1 C1 C2 15.3(4) . . . .
Ga1 S2 C9 C8 -12.7(4) . . . .
Ga1 N1 C2 C1 56.5(5) . . . .
Ga1 N1 C3 C4 -39.7(5) . . . .
Ga1 N1 C5 C6 74.4(5) . . . .
Ga1 N2 C4 C3 37.6(5) . . . .
Ga1 N2 C7 C6 -75.3(5) . . . .
Ga1 N2 C8 C9 -55.7(5) . . . .
S1 C1 C2 N1 -48.5(6) . . . .
N1 C3 C4 N2 1.6(6) . . . .
N1 C5 C6 C7 -50.6(7) . . . .
N2 C8 C9 S2 45.5(6) . . . .
C2 N1 C3 C4 -155.2(4) . . . .
C2 N1 C5 C6 -170.1(5) . . . .
C3 N1 C2 C1 172.9(4) . . . .
C3 N1 C5 C6 -44.0(6) . . . .
C4 N2 C7 C6 43.0(6) . . . .
C4 N2 C8 C9 -172.7(4) . . . .
C5 N1 C2 C1 -61.2(6) . . . .
C5 N1 C3 C4 79.9(5) . . . .
C5 C6 C7 N2 50.6(7) . . . .
C7 N2 C4 C3 -81.9(5) . . . .
C7 N2 C8 C9 62.8(6) . . . .
C8 N2 C4 C3 154.2(4) . . . .
C8 N2 C7 C6 167.9(4) . . . .
