#------------------------------------------------------------------------------
#$Date: 2019-12-20 12:08:49 +0200 (Fri, 20 Dec 2019) $
#$Revision: 245430 $
#$URL: file:///home/coder/svn-repositories/cod/cif/1/55/66/1556692.cif $
#------------------------------------------------------------------------------
#
# This file is available in the Crystallography Open Database (COD),
# http://www.crystallography.net/
#
# All data on this site have been placed in the public domain by the
# contributors.
#
data_1556692
loop_
_publ_author_name
'Butsch, K.'
'Sandleben, A.'
'Dokoohaki, M.H.'
'Zolghadr, A.R.'
'Klein, A.'
_publ_section_title
;
 Pyridine-2,6-Dicarboxylic Acid Esters (pydicR2) as O,N,O-Pincer Ligands
 in CuII Complexes
;
_journal_name_full               Inorganics
_journal_page_first              53
_journal_paper_doi               10.3390/inorganics7040053
_journal_volume                  7
_journal_year                    2019
_chemical_formula_moiety         'C14 H6 Cl2 Cu3 N2 O14'
_chemical_formula_sum            'C14 H6 Cl2 Cu3 N2 O14'
_chemical_formula_weight         687.73
_space_group_crystal_system      triclinic
_space_group_IT_number           2
_space_group_name_Hall           '-P 1'
_space_group_name_H-M_alt        'P -1'
_atom_sites_solution_hydrogens   geom
_cell_angle_alpha                69.01(3)
_cell_angle_beta                 66.97(3)
_cell_angle_gamma                89.04(4)
_cell_formula_units_Z            1
_cell_length_a                   8.185(3)
_cell_length_b                   9.500(3)
_cell_length_c                   9.682(2)
_cell_measurement_reflns_used    7681
_cell_measurement_temperature    293(2)
_cell_measurement_theta_max      28.208
_cell_measurement_theta_min      2.320
_cell_volume                     640.2(4)
_computing_cell_refinement       'X-AREA (STOE & Cie 2001)'
_computing_data_collection       'X-AREA (STOE & Cie 2001)'
_computing_data_reduction        'X-RED (STOE & Cie 2001)'
_computing_molecular_graphics    'DIAMOND (Brandenburg, 2006)'
_computing_publication_material  'WinGX publication routines (Farrugia, 2012)'
_computing_structure_refinement  'SHELXL-2017/1 (Sheldrick, 2017)'
_computing_structure_solution    'SHELXS-97 (Sheldrick, 1990)'
_diffrn_ambient_temperature      293(2)
_diffrn_measured_fraction_theta_full 0.940
_diffrn_measured_fraction_theta_max 0.904
_diffrn_measurement_device_type  'STOE IPDS II'
_diffrn_measurement_method       'w scans'
_diffrn_radiation_source         'fine-focus sealed tube'
_diffrn_radiation_type           MoK\a
_diffrn_radiation_wavelength     0.71073
_diffrn_reflns_av_R_equivalents  0.0658
_diffrn_reflns_av_unetI/netI     0.1047
_diffrn_reflns_Laue_measured_fraction_full 0.940
_diffrn_reflns_Laue_measured_fraction_max 0.904
_diffrn_reflns_limit_h_max       10
_diffrn_reflns_limit_h_min       -10
_diffrn_reflns_limit_k_max       12
_diffrn_reflns_limit_k_min       -12
_diffrn_reflns_limit_l_max       12
_diffrn_reflns_limit_l_min       -12
_diffrn_reflns_number            7681
_diffrn_reflns_point_group_measured_fraction_full 0.940
_diffrn_reflns_point_group_measured_fraction_max 0.904
_diffrn_reflns_theta_full        25.000
_diffrn_reflns_theta_max         28.208
_diffrn_reflns_theta_min         2.320
_exptl_absorpt_coefficient_mu    2.742
_exptl_absorpt_correction_T_max  56.1
_exptl_absorpt_correction_T_min  4.7
_exptl_absorpt_correction_type   numerical
_exptl_absorpt_process_details
;
The absorption correction (X-RED; Stoe & Cie, 2001) 
was performed after optimizing the crystal shape 
using X-SHAPE (Stoe & Cie, 1999).
;
_exptl_crystal_colour            turquoise
_exptl_crystal_density_diffrn    1.784
_exptl_crystal_density_meas      ?
_exptl_crystal_description       needle
_exptl_crystal_F_000             337
_exptl_crystal_size_max          0.5
_exptl_crystal_size_mid          0.3
_exptl_crystal_size_min          0.2
_refine_diff_density_max         3.793
_refine_diff_density_min         -1.489
_refine_diff_density_rms         0.266
_refine_ls_extinction_coef       .
_refine_ls_extinction_method     none
_refine_ls_goodness_of_fit_ref   1.015
_refine_ls_hydrogen_treatment    constr
_refine_ls_matrix_type           full
_refine_ls_number_parameters     160
_refine_ls_number_reflns         2849
_refine_ls_number_restraints     0
_refine_ls_restrained_S_all      1.015
_refine_ls_R_factor_all          0.1291
_refine_ls_R_factor_gt           0.0813
_refine_ls_shift/su_max          0.000
_refine_ls_shift/su_mean         0.000
_refine_ls_structure_factor_coef Fsqd
_refine_ls_weighting_details
'w=1/[\s^2^(Fo^2^)+(0.1609P)^2^] where P=(Fo^2^+2Fc^2^)/3'
_refine_ls_weighting_scheme      calc
_refine_ls_wR_factor_gt          0.2361
_refine_ls_wR_factor_ref         0.2593
_reflns_Friedel_coverage         0.000
_reflns_Friedel_fraction_full    .
_reflns_Friedel_fraction_max     .
_reflns_number_gt                1626
_reflns_number_total             2849
_reflns_threshold_expression     'I > 2\s(I)'
_cod_data_source_file            Inorganics-2019-7-53.cif
_cod_data_source_block           2
_cod_depositor_comments
;
The following automatic conversions were performed:

data item '_exptl_crystal_density_meas' value 'not measured' was
changed to '?' -- the value is perceived as not measured.

Automatic conversion script
Id: cif_fix_values 6909 2019-04-08 15:41:33Z antanas 
;
_cod_database_code               1556692
_shelx_space_group_comment
;
The symmetry employed for this shelxl refinement is uniquely defined
by the following loop, which should always be used as a source of
symmetry information in preference to the above space-group names.
They are only intended as comments.
;
_shelx_res_file
;
TITL kbd58 in P 1                New: P-1
    shelx.res
    created by SHELXL-2017/1 at 10:57:07 on 26-Feb-2019
CELL  0.71073   8.1850   9.5000   9.6820   69.010   66.970   89.040
ZERR     1.00   0.0030   0.0030   0.0020    0.030    0.030    0.040
LATT   1
SFAC  C    CL   CU   N    O    H
UNIT  14 2 3 2 14 6
MERG   2
FMAP   2
PLAN    5
ACTA    50.00
BOND   $H
CONF
L.S.  20
WGHT    0.160900
FVAR       0.61141
CU1   3    0.657388    0.437879    0.079371    11.00000    0.02600    0.03003 =
         0.01515   -0.00558   -0.00898   -0.00581
CU2   3    0.000000    0.000000    0.500000    10.50000    0.02718    0.02705 =
         0.04956    0.00061   -0.01716   -0.00811
CL1   2    0.605554    0.386213   -0.106442    11.00000    0.03812    0.03651 =
         0.02507   -0.01747   -0.01700    0.00668
O1    5    0.861281    0.617098   -0.074869    11.00000    0.02926    0.02903 =
         0.01727   -0.00235   -0.00647   -0.00983
O2    5    0.495990    0.260451    0.286134    11.00000    0.03385    0.03303 =
         0.01996   -0.00438   -0.01214   -0.00777
O3    5    1.053278    0.783070   -0.074139    11.00000    0.04545    0.04899 =
         0.02924   -0.00161   -0.00636   -0.02969
O4    5    0.416895    0.163984    0.556131    11.00000    0.04643    0.04100 =
         0.01978    0.00383   -0.01264   -0.01904
O5    5    0.139131    0.205723    0.361237    11.00000    0.05665    0.05717 =
         0.03458    0.00604   -0.02218   -0.02601
O6    5   -0.167112    0.049637    0.394505    11.00000    0.03555    0.04222 =
         0.02865    0.00291   -0.01306   -0.00995
N1    4    0.730776    0.472407    0.232459    11.00000    0.02182    0.02224 =
         0.01883   -0.00548   -0.00976   -0.00392
C1    1    0.510457    0.255925    0.417728    11.00000    0.02430    0.03638 =
         0.01563   -0.00350   -0.00738   -0.00255
C2    1    0.650314    0.380443    0.387863    11.00000    0.02356    0.03096 =
         0.01742   -0.00392   -0.00792   -0.00092
C3    1    0.689951    0.406971    0.501266    11.00000    0.03103    0.03789 =
         0.01834   -0.00687   -0.01058    0.00024
AFIX  43
H3    6    0.635832    0.341706    0.609941    11.00000   -1.20000
AFIX   0
C4    1    0.813332    0.533943    0.451463    11.00000    0.03403    0.06162 =
         0.02515   -0.02226   -0.01467    0.00347
AFIX  43
H4    6    0.838835    0.555375    0.528011    11.00000   -1.20000
AFIX   0
C5    1    0.900064    0.630498    0.284764    11.00000    0.03043    0.03871 =
         0.02907   -0.01440   -0.01105   -0.00460
AFIX  43
H5    6    0.983230    0.715125    0.249203    11.00000   -1.20000
AFIX   0
C6    1    0.854890    0.592585    0.178306    11.00000    0.02777    0.02748 =
         0.02684   -0.01285   -0.01292    0.00227
C7    1    0.931525    0.675837   -0.006077    11.00000    0.02321    0.03075 =
         0.01936   -0.00394   -0.00691    0.00012
O7    5    0.215985   -0.049690    0.257421    11.00000    0.70640    0.05564 =
         0.13320   -0.02139   -0.26227    0.00926
HKLF    4




REM  kbd58 in P 1                New: P-1
REM R1 =  0.0813 for    1626 Fo > 4sig(Fo)  and  0.1291 for all    2849 data
REM    160 parameters refined using      0 restraints

END

WGHT      0.1617      0.0000

REM Highest difference peak  3.793,  deepest hole -1.489,  1-sigma level  0.266
Q1    1   0.4436 -0.0131  0.0602  11.00000  0.05    3.79
Q2    1   0.3658  0.0113 -0.0381  11.00000  0.05    3.72
Q3    1   0.1673 -0.0662  0.2806  11.00000  0.05    1.29
Q4    1   0.3603 -0.0327  0.2084  11.00000  0.05    1.26
Q5    1   0.8822  0.5658  0.3780  11.00000  0.05    0.97
;
_shelx_res_checksum              44705
_shelx_hkl_file
;
  -1   0   0  138.30   24.02   0  0.66151
   1   0   0  154.41   21.31   0  0.66151
  -2   0   0   71.83   14.49   0  0.66151
   2   0   0   70.19   14.64   0  0.66151
  -3   0   0  520.48   23.23   0  0.66151
   3   0   0  546.43   27.71   0  0.66151
  -4   0   0  665.37   26.17   0  0.66151
   4   0   0  695.38   23.84   0  0.66151
   5   0   0   28.14   16.81   0  0.66151
  -5   0   0   21.07   22.86   0  0.66151
   6   0   0  590.86   22.95   0  0.66151
  -6   0   0  569.78   22.43   0  0.66151
   7   0   0   -1.75   26.63   0  0.66151
  -7   0   0   21.42   18.10   0  0.66151
   8   0   0   55.27   31.24   0  0.66151
  -8   0   0   46.78   21.79   0  0.66151
   9   0   0   17.87   37.53   0  0.66151
  -9   0   0   11.68   25.84   0  0.66151
   9  -1   0   32.63   25.45   0  0.66151
  -9   1   0  -10.65   26.24   0  0.66151
   8  -1   0   17.83   22.17   0  0.66151
  -8   1   0   17.81   21.73   0  0.66151
   7  -1   0   98.83   19.48   0  0.66151
  -7   1   0  117.36   25.99   0  0.66151
   6  -1   0  129.40   17.71   0  0.66151
  -6   1   0  135.37   23.29   0  0.66151
   5  -1   0  409.34   22.58   0  0.66151
  -5   1   0  392.22   18.13   0  0.66151
  -4   1   0  334.30   21.82   0  0.66151
   4  -1   0  336.38   22.12   0  0.66151
  -3   1   0  179.63   16.87   0  0.66151
   3  -1   0  182.10   17.51   0  0.66151
  -2   1   0 4717.31   63.85   0  0.66151
   2  -1   0 4967.44   65.06   0  0.66151
  -1   1   0  453.94   29.38   0  0.66151
   1  -1   0  441.09   27.35   0  0.66151
   0  -1   0 1174.58   70.84   0  0.66151
   0   1   0 1181.43   69.90   0  0.66151
  -1  -1   0 1390.09   77.12   0  0.66151
   1   1   0 1480.71   81.68   0  0.66151
  -2  -1   0   27.31   25.48   0  0.66151
   2   1   0   24.34   25.99   0  0.66151
  -3  -1   0  324.60   24.60   0  0.66151
   3   1   0  316.03   21.13   0  0.66151
   4   1   0 1636.35   35.61   0  0.66151
  -4  -1   0 1589.08   36.86   0  0.66151
   5   1   0  136.25   25.45   0  0.66151
  -5  -1   0  131.74   23.94   0  0.66151
   6   1   0   56.15   16.99   0  0.66151
  -6  -1   0   56.42   22.30   0  0.66151
   7   1   0  300.70   22.81   0  0.66151
  -7  -1   0  288.94   28.46   0  0.66151
   8   1   0   16.16   31.29   0  0.66151
  -8  -1   0   -3.28   30.44   0  0.66151
   9   1   0  -14.43   27.45   0  0.66151
  -9  -1   0   -0.53   39.53   0  0.66151
  -9  -1   0  -11.06   27.89   0  0.66151
   9  -2   0   36.53   27.49   0  0.66151
  -9   2   0   22.17   38.34   0  0.66151
   8  -2   0   15.12   21.73   0  0.66151
  -8   2   0   -3.94   22.21   0  0.66151
   7  -2   0   12.58   18.44   0  0.66151
  -7   2   0    2.87   18.08   0  0.66151
   6  -2   0  711.73   22.82   0  0.66151
  -6   2   0  672.65   27.94   0  0.66151
   5  -2   0   24.75   23.05   0  0.66151
  -5   2   0   22.62   16.17   0  0.66151
   4  -2   0   -0.95   12.97   0  0.66151
  -4   2   0    0.19   12.40   0  0.66151
  -3   2   0 1614.54   31.86   0  0.66151
   3  -2   0 1622.37   32.30   0  0.66151
  -2   2   0 9999.00   83.11   0  0.66151
   2  -2   0 9853.66   85.29   0  0.66151
  -1   2   0  497.62   25.05   0  0.66151
   1  -2   0  516.77   25.84   0  0.66151
   0  -2   0 1960.91   65.71   0  0.66151
   0   2   0 1854.50   62.85   0  0.66151
  -2  -2   0 1626.98   64.27   0  0.66151
  -2  -2   0 2085.71   73.54   0  0.66151
   2   2   0 1796.15   68.92   0  0.66151
   3   2   0  756.77   34.95   0  0.66151
  -3  -2   0  738.51   33.87   0  0.66151
   4   2   0  251.53   23.79   0  0.66151
  -4  -2   0  227.03   22.17   0  0.66151
   5   2   0  598.10   31.12   0  0.66151
  -5  -2   0  558.99   28.97   0  0.66151
   6   2   0   57.61   23.54   0  0.66151
  -6  -2   0   69.94   21.56   0  0.66151
  -7  -2   0   23.39   19.64   0  0.66151
   7   2   0   20.39   18.99   0  0.66151
  -7  -2   0   27.84   24.45   0  0.66151
  -8  -2   0   45.33   23.67   0  0.66151
   8   2   0   55.70   22.83   0  0.66151
  -8  -2   0   36.01   30.69   0  0.66151
   9   2   0   32.85   45.34   0  0.66151
  -9  -2   0   46.49   42.70   0  0.66151
  -9  -2   0   72.19   45.39   0  0.66151
   9  -3   0  -10.43   26.84   0  0.66151
  -9   3   0   -0.01   37.55   0  0.66151
   8  -3   0   94.34   22.62   0  0.66151
  -8   3   0  107.68   31.83   0  0.66151
   7  -3   0   15.96   25.56   0  0.66151
  -7   3   0    9.24   17.68   0  0.66151
   6  -3   0   22.73   16.20   0  0.66151
  -6   3   0   14.67   15.93   0  0.66151
   5  -3   0  728.44   23.37   0  0.66151
  -5   3   0  718.76   27.97   0  0.66151
   4  -3   0   71.03   18.93   0  0.66151
  -4   3   0   59.79   18.62   0  0.66151
   3  -3   0    4.16   13.00   0  0.66151
  -3   3   0    9.17   12.47   0  0.66151
   2  -3   0 4361.58   52.95   0  0.66151
  -2   3   0 4204.75   51.76   0  0.66151
   1  -3   0  526.25   26.74   0  0.66151
  -1   3   0  510.48   25.49   0  0.66151
   0  -3   0  444.68   35.09   0  0.66151
   0   3   0  434.88   32.67   0  0.66151
  -3  -3   0   56.99   26.04   0  0.66151
   3   3   0   51.45   24.27   0  0.66151
  -3  -3   0   43.21   22.99   0  0.66151
  -4  -3   0  244.19   29.68   0  0.66151
   4   3   0  222.71   28.09   0  0.66151
  -4  -3   0  210.29   26.49   0  0.66151
   5   3   0   85.77   24.24   0  0.66151
  -5  -3   0   81.31   22.91   0  0.66151
  -5  -3   0   87.16   25.73   0  0.66151
   6   3   0  118.98   27.90   0  0.66151
  -6  -3   0  105.17   26.48   0  0.66151
  -6  -3   0  139.01   29.54   0  0.66151
  -7  -3   0   95.05   33.37   0  0.66151
   7   3   0   98.29   32.58   0  0.66151
  -7  -3   0   85.57   30.77   0  0.66151
   8   3   0  -13.26   26.94   0  0.66151
  -8  -3   0    2.62   35.33   0  0.66151
  -8  -3   0   -2.35   38.58   0  0.66151
   9   3   0  -29.41   42.71   0  0.66151
  -9  -3   0    2.58   43.63   0  0.66151
  -9  -3   0   15.46   30.43   0  0.66151
   9  -4   0  -10.67   37.71   0  0.66151
  -9   4   0   -2.68   37.51   0  0.66151
   8  -4   0   21.05   22.30   0  0.66151
  -8   4   0   48.35   22.05   0  0.66151
   7  -4   0    7.66   18.67   0  0.66151
  -7   4   0    3.83   25.25   0  0.66151
   6  -4   0  329.32   24.59   0  0.66151
  -6   4   0  294.13   18.45   0  0.66151
   5  -4   0   40.00   16.56   0  0.66151
  -5   4   0   32.38   15.93   0  0.66151
   4  -4   0 2855.62   37.05   0  0.66151
  -4   4   0 2899.51   39.38   0  0.66151
   3  -4   0    6.75   13.06   0  0.66151
  -3   4   0    9.91   12.54   0  0.66151
   2  -4   0  291.81   18.26   0  0.66151
  -2   4   0  271.07   17.15   0  0.66151
   1  -4   0  505.49   27.06   0  0.66151
  -1   4   0  460.73   24.89   0  0.66151
   0  -4   0   74.18   21.19   0  0.66151
   0   4   0   62.45   19.05   0  0.66151
   1   4   0    2.07   21.94   0  0.66151
  -1  -4   0    1.42   24.37   0  0.66151
  -4  -4   0    0.13   33.33   0  0.66151
  -4  -4   0    0.22   26.61   0  0.66151
   4   4   0    3.56   32.24   0  0.66151
  -5  -4   0   34.10   21.84   0  0.66151
   5   4   0   42.66   23.14   0  0.66151
  -5  -4   0   43.77   24.39   0  0.66151
  -6  -4   0   19.21   26.92   0  0.66151
  -6  -4   0   16.22   24.58   0  0.66151
   6   4   0   17.39   25.82   0  0.66151
  -7  -4   0    8.28   31.54   0  0.66151
  -7  -4   0   12.58   29.10   0  0.66151
   7   4   0    8.22   30.69   0  0.66151
  -8  -4   0  148.29   38.04   0  0.66151
  -8  -4   0  170.99   40.94   0  0.66151
   8   4   0  182.86   40.20   0  0.66151
   9  -5   0  -53.09   44.53   0  0.66151
  -9   5   0  -62.64   43.67   0  0.66151
   8  -5   0  114.71   23.37   0  0.66151
  -8   5   0  122.14   23.04   0  0.66151
   7  -5   0    3.18   18.28   0  0.66151
  -7   5   0   12.12   18.20   0  0.66151
   6  -5   0   52.35   19.79   0  0.66151
  -6   5   0   92.97   18.26   0  0.66151
   5  -5   0  300.45   25.46   0  0.66151
  -5   5   0  282.34   24.84   0  0.66151
   4  -5   0  632.06   28.01   0  0.66151
  -4   5   0  581.49   21.54   0  0.66151
   3  -5   0  181.55   20.76   0  0.66151
  -3   5   0  164.80   15.32   0  0.66151
   2  -5   0  266.92   17.22   0  0.66151
  -2   5   0  233.67   16.42   0  0.66151
   1  -5   0  439.97   25.73   0  0.66151
  -1   5   0  381.29   23.14   0  0.66151
   0  -5   0 2036.44   49.62   0  0.66151
   0   5   0 1823.69   42.66   0  0.66151
   1   5   0  773.30   46.82   0  0.66151
  -1  -5   0  795.24   50.46   0  0.66151
   9  -6   0   10.73   42.58   0  0.66151
  -9   6   0    7.14   30.07   0  0.66151
   8  -6   0   26.00   26.95   0  0.66151
  -8   6   0   40.03   26.54   0  0.66151
   7  -6   0   49.53   32.01   0  0.66151
  -7   6   0   80.36   22.60   0  0.66151
   6  -6   0  131.98   27.36   0  0.66151
  -6   6   0  163.51   19.26   0  0.66151
   5  -6   0   21.50   15.32   0  0.66151
  -5   6   0   -0.11   21.23   0  0.66151
   4  -6   0  520.99   27.07   0  0.66151
  -4   6   0  506.09   26.34   0  0.66151
   3  -6   0   -3.32   16.76   0  0.66151
  -3   6   0   -3.84   15.66   0  0.66151
   2  -6   0  116.53   18.47   0  0.66151
  -2   6   0  117.84   17.08   0  0.66151
   1  -6   0  520.75   30.17   0  0.66151
  -1   6   0  449.90   22.46   0  0.66151
   0  -6   0   80.85   25.74   0  0.66151
   0   6   0   77.03   23.24   0  0.66151
   1   6   0  148.58   33.03   0  0.66151
  -1  -6   0  153.10   35.61   0  0.66151
   1   6   0  171.45   36.05   0  0.66151
   8  -7   0    6.96   41.18   0  0.66151
  -8   7   0  -15.70   26.77   0  0.66151
   7  -7   0   20.31   22.36   0  0.66151
  -7   7   0   35.63   21.65   0  0.66151
   6  -7   0  268.32   24.62   0  0.66151
  -6   7   0  253.21   20.45   0  0.66151
   5  -7   0   33.49   18.65   0  0.66151
  -5   7   0   36.87   18.22   0  0.66151
   4  -7   0    9.19   24.18   0  0.66151
  -4   7   0  -10.87   18.50   0  0.66151
   3  -7   0  514.14   27.95   0  0.66151
  -3   7   0  450.09   20.59   0  0.66151
   2  -7   0   13.00   22.98   0  0.66151
  -2   7   0   -6.37   21.29   0  0.66151
   1  -7   0   89.03   18.10   0  0.66151
  -1   7   0   85.22   22.76   0  0.66151
   0  -7   0  231.07   28.10   0  0.66151
   0   7   0  206.70   25.13   0  0.66151
   1   7   0   16.38   30.07   0  0.66151
  -1  -7   0   20.65   34.61   0  0.66151
  -1  -7   0   17.14   33.95   0  0.66151
   1   7   0   17.69   28.56   0  0.66151
   8  -8   0   14.41   31.02   0  0.66151
  -8   8   0   51.40   29.24   0  0.66151
   7  -8   0   30.16   26.84   0  0.66151
  -7   8   0   18.92   26.07   0  0.66151
   6  -8   0   41.21   22.10   0  0.66151
  -6   8   0   31.83   30.31   0  0.66151
   5  -8   0   46.04   31.44   0  0.66151
  -5   8   0   51.91   30.31   0  0.66151
   4  -8   0   46.48   19.71   0  0.66151
  -4   8   0   61.32   17.87   0  0.66151
   3  -8   0   52.42   19.50   0  0.66151
  -3   8   0   36.31   18.26   0  0.66151
   2  -8   0  240.63   29.90   0  0.66151
  -2   8   0  246.64   27.50   0  0.66151
   1  -8   0   -4.06   27.37   0  0.66151
  -1   8   0    0.09   24.56   0  0.66151
   0   8   0    3.72   25.59   0  0.66151
   0  -8   0   16.37   28.06   0  0.66151
   1   8   0   40.79   48.37   0  0.66151
  -1  -8   0   38.49   49.98   0  0.66151
   1   8   0   44.12   48.96   0  0.66151
   7  -9   0  -22.76   31.05   0  0.66151
  -7   9   0  -12.61   42.40   0  0.66151
   6  -9   0   47.76   26.93   0  0.66151
  -6   9   0   36.77   26.77   0  0.66151
   5  -9   0   20.56   31.36   0  0.66151
  -5   9   0   -0.60   21.71   0  0.66151
   4  -9   0   26.65   31.75   0  0.66151
  -4   9   0   41.52   21.20   0  0.66151
   3  -9   0  124.78   23.78   0  0.66151
  -3   9   0  122.21   22.65   0  0.66151
   2  -9   0   -0.91   18.50   0  0.66151
  -2   9   0   22.54   24.03   0  0.66151
   1  -9   0   42.21   27.22   0  0.66151
  -1   9   0   23.19   25.29   0  0.66151
   0   9   0   43.25   30.59   0  0.66151
   0  -9   0   27.49   27.81   0  0.66151
   0   9   0   20.72   33.66   0  0.66151
   6 -10   0   -4.34   43.13   0  0.66151
  -6  10   0   21.52   29.42   0  0.66151
   5 -10   0   62.65   27.54   0  0.66151
  -5  10   0   65.96   26.12   0  0.66151
   4 -10   0   12.19   26.45   0  0.66151
  -4  10   0    2.80   25.35   0  0.66151
   3 -10   0   -3.66   22.64   0  0.66151
  -3  10   0  -11.86   32.72   0  0.66151
   2 -10   0    8.77   32.52   0  0.66151
  -2  10   0   22.31   21.09   0  0.66151
   1 -10   0   24.23   32.18   0  0.66151
  -1  10   0   16.86   30.05   0  0.66151
   0  10   0   -3.28   37.09   0  0.66151
   0  10   0   -3.74   31.93   0  0.66151
   0 -10   0   -4.58   32.35   0  0.66151
   4 -11   0    7.42   31.24   0  0.66151
  -4  11   0  -14.72   29.81   0  0.66151
   3 -11   0   18.90   31.03   0  0.66151
  -3  11   0   18.53   29.23   0  0.66151
   2 -11   0   29.78   31.90   0  0.66151
  -2  11   0   15.43   30.20   0  0.66151
  -1  11   0    3.50   39.34   0  0.66151
  -1  11   0  -11.77   42.45   0  0.66151
   1 -11   0  -10.24   42.01   0  0.66151
   0  11   0   19.89   64.32   0  0.66151
   0 -11   0   21.15   64.57   0  0.66151
   0 -11   0   27.85   54.59   0  0.66151
   0  11   0   32.40   53.63   0  0.66151
   0  11  -1    0.60   31.07   0  0.66151
  -1  11  -1    7.87   41.90   0  0.66151
   1 -11   1   29.02   43.12   0  0.66151
  -1  11  -1   -6.28   44.97   0  0.66151
  -2  11  -1   84.81   31.45   0  0.66151
   2 -11   1   99.23   32.27   0  0.66151
   3 -11   1   17.23   30.87   0  0.66151
  -3  11  -1   -2.48   29.56   0  0.66151
   4 -11   1   30.21   33.58   0  0.66151
   0  10  -1    8.46   46.43   0  0.66151
   0 -10   1    2.78   47.24   0  0.66151
   0  10  -1    2.71   45.98   0  0.66151
   0 -10   1    6.75   46.79   0  0.66151
  -1  10  -1   83.32   37.10   0  0.66151
   1 -10   1   70.90   39.56   0  0.66151
   2 -10   1   28.97   38.07   0  0.66151
  -2  10  -1   31.84   25.63   0  0.66151
   3 -10   1   59.86   37.48   0  0.66151
  -3  10  -1   12.28   36.73   0  0.66151
   4 -10   1   63.28   27.14   0  0.66151
  -4  10  -1   64.69   25.88   0  0.66151
   5 -10   1   10.81   31.72   0  0.66151
  -5  10  -1   47.21   29.73   0  0.66151
   6 -10   1   11.99   29.76   0  0.66151
  -6  10  -1    2.45   29.86   0  0.66151
   0  -9   1   20.81   32.28   0  0.66151
   0  -9   1   15.25   39.10   0  0.66151
   0   9  -1   15.25   38.25   0  0.66151
  -1   9  -1   17.94   29.62   0  0.66151
   1  -9   1    0.14   31.91   0  0.66151
   2  -9   1  190.91   33.50   0  0.66151
  -2   9  -1  157.68   31.81   0  0.66151
   3  -9   1    9.65   22.10   0  0.66151
  -3   9  -1   -6.37   21.05   0  0.66151
   4  -9   1   10.64   21.61   0  0.66151
  -4   9  -1   -4.02   21.44   0  0.66151
   5  -9   1  157.33   23.70   0  0.66151
  -5   9  -1  157.66   26.99   0  0.66151
   6  -9   1   29.19   26.55   0  0.66151
  -6   9  -1   24.03   36.75   0  0.66151
   7  -9   1   13.83   42.95   0  0.66151
  -7   9  -1   75.06   29.18   0  0.66151
   0   8  -1  256.02   30.56   0  0.66151
   0  -8   1  226.88   31.54   0  0.66151
   1  -8   1   20.08   26.98   0  0.66151
  -1   8  -1   22.48   17.88   0  0.66151
   2  -8   1   88.34   19.62   0  0.66151
  -2   8  -1   85.05   18.98   0  0.66151
   3  -8   1  430.08   30.18   0  0.66151
  -3   8  -1  374.90   22.53   0  0.66151
   4  -8   1    3.72   17.74   0  0.66151
  -4   8  -1   10.21   17.34   0  0.66151
   5  -8   1    8.77   30.71   0  0.66151
  -5   8  -1  -10.17   21.54   0  0.66151
   6  -8   1  115.15   32.37   0  0.66151
  -6   8  -1  133.65   22.71   0  0.66151
   7  -8   1   16.60   36.82   0  0.66151
  -7   8  -1   40.71   25.55   0  0.66151
   8  -8   1   -8.44   42.99   0  0.66151
  -8   8  -1   17.90   29.73   0  0.66151
   1   7  -1  154.06   47.80   0  0.66151
  -1  -7   1  127.63   39.47   0  0.66151
  -1  -7   1  133.86   45.70   0  0.66151
   0   7  -1   22.71   22.67   0  0.66151
   0  -7   1   40.11   23.41   0  0.66151
   1  -7   1  109.40   17.83   0  0.66151
  -1   7  -1  106.80   22.81   0  0.66151
   2  -7   1  390.27   26.79   0  0.66151
  -2   7  -1  372.21   20.48   0  0.66151
   3  -7   1  100.15   23.26   0  0.66151
  -3   7  -1  116.48   16.61   0  0.66151
   4  -7   1  303.37   22.24   0  0.66151
  -4   7  -1  311.47   27.89   0  0.66151
   5  -7   1   23.19   18.04   0  0.66151
  -5   7  -1   15.41   18.08   0  0.66151
   6  -7   1   14.69   22.62   0  0.66151
  -6   7  -1   25.00   30.22   0  0.66151
   7  -7   1   79.67   31.59   0  0.66151
  -7   7  -1   97.69   22.25   0  0.66151
   8  -7   1   20.93   26.40   0  0.66151
  -8   7  -1  -35.90   26.67   0  0.66151
  -1  -6   1    1.47   28.67   0  0.66151
   1   6  -1   -4.96   29.48   0  0.66151
  -1  -6   1   -0.60   30.35   0  0.66151
   0  -6   1  703.65   34.08   0  0.66151
   0   6  -1  727.09   33.71   0  0.66151
   1  -6   1  180.67   25.51   0  0.66151
  -1   6  -1  178.90   24.51   0  0.66151
   2  -6   1   23.39   16.61   0  0.66151
  -2   6  -1   24.46   15.54   0  0.66151
   3  -6   1  713.45   29.12   0  0.66151
  -3   6  -1  686.69   28.04   0  0.66151
   4  -6   1   56.75   22.73   0  0.66151
  -4   6  -1   63.53   15.77   0  0.66151
   5  -6   1  209.35   17.54   0  0.66151
  -5   6  -1  217.91   25.47   0  0.66151
   6  -6   1   30.67   18.62   0  0.66151
  -6   6  -1   69.62   25.25   0  0.66151
   7  -6   1   -5.03   30.24   0  0.66151
  -7   6  -1   15.95   21.30   0  0.66151
   8  -6   1   37.17   26.53   0  0.66151
  -8   6  -1   28.56   37.65   0  0.66151
   9  -6   1   15.29   30.06   0  0.66151
  -9   6  -1    8.63   42.56   0  0.66151
  -1  -5   1  116.90   31.61   0  0.66151
   1   5  -1  134.96   28.51   0  0.66151
  -1  -5   1  136.88   28.93   0  0.66151
   0  -5   1  482.92   28.44   0  0.66151
   0   5  -1  512.11   27.76   0  0.66151
   1  -5   1 1464.39   36.40   0  0.66151
  -1   5  -1 1406.64   32.50   0  0.66151
   2  -5   1    6.98   17.88   0  0.66151
  -2   5  -1    2.19   12.36   0  0.66151
   3  -5   1    1.86   12.81   0  0.66151
  -3   5  -1    5.80   15.80   0  0.66151
   4  -5   1  636.29   22.39   0  0.66151
  -4   5  -1  606.66   21.69   0  0.66151
   5  -5   1   13.48   15.65   0  0.66151
  -5   5  -1    5.39   21.55   0  0.66151
   6  -5   1   11.97   25.93   0  0.66151
  -6   5  -1    1.56   25.95   0  0.66151
   7  -5   1  129.67   19.05   0  0.66151
  -7   5  -1  108.44   19.17   0  0.66151
   8  -5   1   26.29   21.69   0  0.66151
  -8   5  -1    1.83   22.08   0  0.66151
   9  -5   1   10.86   37.38   0  0.66151
  -9   5  -1   15.32   26.87   0  0.66151
  -8  -4   1   11.70   43.02   0  0.66151
  -8  -4   1   20.52   40.22   0  0.66151
   8   4  -1   18.94   42.15   0  0.66151
  -7  -4   1   43.39   37.75   0  0.66151
  -7  -4   1   30.92   35.66   0  0.66151
   7   4  -1   41.14   37.54   0  0.66151
  -6  -4   1  420.65   44.60   0  0.66151
  -6  -4   1  367.06   35.75   0  0.66151
   6   4  -1  390.74   43.62   0  0.66151
  -5  -4   1   14.84   27.49   0  0.66151
   5   4  -1   16.54   26.05   0  0.66151
  -5  -4   1   15.84   30.24   0  0.66151
  -4  -4   1   52.85   29.33   0  0.66151
   4   4  -1   47.13   28.64   0  0.66151
  -4  -4   1   42.35   27.12   0  0.66151
  -3  -4   1  383.27   45.15   0  0.66151
  -3  -4   1  427.66   42.59   0  0.66151
  -2  -4   1  146.88   38.52   0  0.66151
  -2  -4   1  145.01   35.34   0  0.66151
   1   4  -1 1679.60   59.61   0  0.66151
  -1  -4   1 1604.51   60.00   0  0.66151
  -1  -4   1 1389.16   54.46   0  0.66151
   0   4  -1 1010.16   36.33   0  0.66151
   0  -4   1  925.64   35.58   0  0.66151
   1  -4   1  318.72   19.51   0  0.66151
  -1   4  -1  318.91   22.78   0  0.66151
   2  -4   1  482.77   20.43   0  0.66151
  -2   4  -1  465.58   19.83   0  0.66151
   3  -4   1    2.68   12.58   0  0.66151
  -3   4  -1    2.27   17.24   0  0.66151
   4  -4   1   13.75   12.87   0  0.66151
  -4   4  -1   10.88   17.62   0  0.66151
   5  -4   1  226.20   18.30   0  0.66151
  -5   4  -1  210.13   24.01   0  0.66151
   6  -4   1    7.16   14.94   0  0.66151
  -6   4  -1   -1.99   14.90   0  0.66151
   7  -4   1   18.97   17.74   0  0.66151
  -7   4  -1  -16.10   25.27   0  0.66151
   8  -4   1   67.28   31.13   0  0.66151
  -8   4  -1   64.03   31.24   0  0.66151
   9  -4   1    2.33   37.14   0  0.66151
  -9   4  -1  -18.89   37.03   0  0.66151
  10  -4   1   30.93   33.37   0  0.66151
  -8  -3   1  122.46   33.91   0  0.66151
   8   3  -1  124.42   43.00   0  0.66151
  -8  -3   1  118.15   42.99   0  0.66151
  -7  -3   1   -6.71   22.47   0  0.66151
   7   3  -1   -6.62   30.87   0  0.66151
  -7  -3   1   -6.75   29.97   0  0.66151
  -6  -3   1   -2.80   26.75   0  0.66151
   6   3  -1   -4.06   25.85   0  0.66151
  -6  -3   1   -8.26   24.97   0  0.66151
  -5  -3   1   56.17   24.62   0  0.66151
   5   3  -1   78.35   22.81   0  0.66151
  -5  -3   1   58.92   21.91   0  0.66151
  -4  -3   1   64.41   23.79   0  0.66151
   4   3  -1   70.70   25.04   0  0.66151
  -4  -3   1   73.81   25.21   0  0.66151
  -3  -3   1    1.51   18.37   0  0.66151
  -3  -3   1    1.11   19.29   0  0.66151
   3   3  -1    0.80   18.52   0  0.66151
  -2  -3   1 4166.59   88.23   0  0.66151
  -2  -3   1 4289.07   90.53   0  0.66151
   2   3  -1 4383.71   85.50   0  0.66151
   1   3  -1    6.78   20.00   0  0.66151
  -1  -3   1    7.17   22.52   0  0.66151
  -1  -3   1   10.20   20.47   0  0.66151
   0   3  -1  150.15   18.54   0  0.66151
   0  -3   1  134.43   23.04   0  0.66151
  -1   3  -1 1079.60   34.50   0  0.66151
   1  -3   1 1080.04   35.37   0  0.66151
   2  -3   1  676.60   23.79   0  0.66151
  -2   3  -1  660.45   23.26   0  0.66151
   3  -3   1   97.83   14.50   0  0.66151
  -3   3  -1  113.99   18.76   0  0.66151
   4  -3   1  498.00   19.26   0  0.66151
  -4   3  -1  503.85   18.93   0  0.66151
   5  -3   1   11.92   22.74   0  0.66151
  -5   3  -1   11.25   16.02   0  0.66151
   6  -3   1  436.16   25.74   0  0.66151
  -6   3  -1  432.43   25.62   0  0.66151
   7  -3   1   21.48   25.68   0  0.66151
  -7   3  -1    9.12   17.56   0  0.66151
   8  -3   1    4.76   28.11   0  0.66151
  -8   3  -1  -11.37   21.52   0  0.66151
   9  -3   1   25.72   36.76   0  0.66151
  -9   3  -1  -15.35   37.57   0  0.66151
  10  -3   1  -18.97   30.61   0  0.66151
 -10   3  -1   22.11   29.35   0  0.66151
   8   2  -1   34.52   26.85   0  0.66151
  -8  -2   1   24.49   25.98   0  0.66151
  -8  -2   1   33.98   39.31   0  0.66151
  -7  -2   1   65.65   24.05   0  0.66151
   7   2  -1   46.71   22.49   0  0.66151
  -7  -2   1   40.66   30.70   0  0.66151
  -6  -2   1  135.10   29.19   0  0.66151
   6   2  -1  112.30   20.16   0  0.66151
  -6  -2   1   92.15   26.92   0  0.66151
  -5  -2   1   92.87   23.24   0  0.66151
  -5  -2   1  110.68   18.99   0  0.66151
   5   2  -1   86.76   18.58   0  0.66151
  -4  -2   1  768.21   33.27   0  0.66151
   4   2  -1  736.24   28.69   0  0.66151
  -4  -2   1  866.29   30.37   0  0.66151
  -3  -2   1   24.19   20.22   0  0.66151
  -3  -2   1   21.59   19.13   0  0.66151
   3   2  -1   17.03   18.89   0  0.66151
  -2  -2   1  279.51   28.21   0  0.66151
  -2  -2   1  273.68   27.94   0  0.66151
   2   2  -1  276.78   26.68   0  0.66151
   1   2  -1 4279.36   89.12   0  0.66151
  -1  -2   1 3953.91   87.47   0  0.66151
   1   2  -1 3856.50   82.19   0  0.66151
  -1  -2   1 4015.56   83.58   0  0.66151
   0   2  -1  119.32   28.62   0  0.66151
   0  -2   1  111.06   21.93   0  0.66151
  -1   2  -1  149.60   16.11   0  0.66151
   1  -2   1  137.67   19.75   0  0.66151
  -2   2  -1  889.78   28.89   0  0.66151
   2  -2   1  874.64   29.35   0  0.66151
   3  -2   1  249.91   18.00   0  0.66151
  -3   2  -1  263.83   17.10   0  0.66151
   4  -2   1  378.02   21.83   0  0.66151
  -4   2  -1  377.77   21.41   0  0.66151
   5  -2   1  653.34   20.50   0  0.66151
  -5   2  -1  647.95   24.00   0  0.66151
   6  -2   1   11.95   22.37   0  0.66151
  -6   2  -1   22.36   14.94   0  0.66151
   7  -2   1   28.62   18.48   0  0.66151
  -7   2  -1   45.24   18.53   0  0.66151
   8  -2   1   21.12   18.43   0  0.66151
  -8   2  -1   16.21   25.29   0  0.66151
   9  -2   1   17.71   26.15   0  0.66151
  -9   2  -1    5.57   34.26   0  0.66151
  10  -2   1    7.24   43.15   0  0.66151
 -10   2  -1  -17.92   31.01   0  0.66151
  -9  -1   1  -21.72   44.58   0  0.66151
   9   1  -1    6.70   43.31   0  0.66151
  -9  -1   1   -0.53   41.97   0  0.66151
   8   1  -1   94.30   35.56   0  0.66151
  -8  -1   1  112.49   36.37   0  0.66151
  -8  -1   1   77.48   27.23   0  0.66151
  -7  -1   1    3.37   27.56   0  0.66151
   7   1  -1   17.28   25.79   0  0.66151
  -7  -1   1   14.22   25.18   0  0.66151
   6   1  -1    9.95   18.86   0  0.66151
  -6  -1   1    3.79   28.64   0  0.66151
  -6  -1   1   12.48   25.96   0  0.66151
  -5  -1   1  592.14   24.26   0  0.66151
  -5  -1   1  714.00   31.66   0  0.66151
   5   1  -1  655.69   30.63   0  0.66151
  -4  -1   1  579.19   26.57   0  0.66151
  -4  -1   1  671.81   29.15   0  0.66151
   4   1  -1  615.38   27.18   0  0.66151
  -3  -1   1  437.92   22.51   0  0.66151
   3   1  -1  435.49   26.63   0  0.66151
  -3  -1   1  504.57   28.34   0  0.66151
  -2  -1   1  725.24   35.99   0  0.66151
  -2  -1   1  800.48   37.71   0  0.66151
   2   1  -1  710.56   34.86   0  0.66151
  -1  -1   1  467.19   30.52   0  0.66151
   1   1  -1  518.82   34.19   0  0.66151
  -1  -1   1  470.60   30.47   0  0.66151
   1   1  -1  453.12   31.95   0  0.66151
   0  -1   1 1124.37   46.65   0  0.66151
   0  -1   1 1182.04   48.39   0  0.66151
   0   1  -1 1184.62   47.86   0  0.66151
  -1   1  -1 2040.10   51.11   0  0.66151
   1  -1   1 2060.87   49.96   0  0.66151
  -2   1  -1  179.05   19.51   0  0.66151
   2  -1   1  180.77   16.42   0  0.66151
   3  -1   1 1160.17   29.72   0  0.66151
  -3   1  -1 1182.20   29.73   0  0.66151
   4  -1   1   21.24   17.92   0  0.66151
  -4   1  -1   16.08   17.85   0  0.66151
   5  -1   1  131.69   19.68   0  0.66151
  -5   1  -1  129.96   19.13   0  0.66151
   6  -1   1   69.50   17.09   0  0.66151
  -6   1  -1   66.00   22.90   0  0.66151
   7  -1   1   99.19   24.73   0  0.66151
  -7   1  -1   99.68   26.21   0  0.66151
   8  -1   1   -7.74   17.89   0  0.66151
  -8   1  -1  -18.80   18.16   0  0.66151
   9  -1   1   77.54   26.86   0  0.66151
  -9   1  -1   66.05   26.60   0  0.66151
  10  -1   1  -16.21   43.70   0  0.66151
 -10   1  -1  -15.34   30.67   0  0.66151
   9   0  -1    5.33   31.15   0  0.66151
  -9   0   1   -8.99   32.31   0  0.66151
  -9   0   1  -27.70   31.86   0  0.66151
  -8   0   1    5.55   23.00   0  0.66151
   8   0  -1    8.64   22.20   0  0.66151
  -8   0   1    9.99   30.88   0  0.66151
   7   0  -1  342.06   29.42   0  0.66151
  -7   0   1  296.42   21.33   0  0.66151
  -6   0   1   13.12   21.09   0  0.66151
   6   0  -1   28.43   21.81   0  0.66151
  -5   0   1    8.46   16.78   0  0.66151
   5   0  -1   18.35   23.89   0  0.66151
  -4   0   1 1806.76   34.26   0  0.66151
   4   0  -1 1921.05   35.41   0  0.66151
  -3   0   1  701.92   28.69   0  0.66151
   3   0  -1  683.20   25.19   0  0.66151
  -2   0   1   63.76   19.55   0  0.66151
   2   0  -1   76.26   19.94   0  0.66151
  -1   0   1 2095.30   55.92   0  0.66151
  -1   0   1 1873.01   51.84   0  0.66151
   1   0  -1 1866.06   53.08   0  0.66151
   0   0  -1  283.32   28.83   0  0.66151
   0   0   1  277.84   29.46   0  0.66151
   0   0   1  270.56   28.54   0  0.66151
   0   0  -1  267.86   28.36   0  0.66151
  -1   0  -1   29.52   12.70   0  0.66151
   1   0   1   26.28   12.89   0  0.66151
  -2   0  -1  163.15   16.35   0  0.66151
   2   0   1  201.18   20.59   0  0.66151
   3   0   1  524.82   23.86   0  0.66151
  -3   0  -1  538.95   23.92   0  0.66151
   4   0   1  282.18   17.54   0  0.66151
  -4   0  -1  294.01   17.59   0  0.66151
   5   0   1  169.09   20.03   0  0.66151
  -5   0  -1  162.49   19.58   0  0.66151
   6   0   1   24.19   16.22   0  0.66151
  -6   0  -1   27.90   15.84   0  0.66151
   7   0   1  125.60   26.95   0  0.66151
  -7   0  -1  101.40   27.12   0  0.66151
   8   0   1   90.61   19.27   0  0.66151
  -8   0  -1   74.08   25.87   0  0.66151
   9   0   1   -2.22   37.74   0  0.66151
  -9   0  -1   -1.03   26.43   0  0.66151
  10   0   1   57.78   43.25   0  0.66151
 -10   0  -1   72.61   29.67   0  0.66151
   9  -1  -1   -7.25   31.64   0  0.66151
  -9   1   1   14.24   30.64   0  0.66151
  -9   1   1   12.54   31.72   0  0.66151
   8  -1  -1  158.57   23.39   0  0.66151
  -8   1   1  128.25   23.56   0  0.66151
   7  -1  -1   61.57   26.16   0  0.66151
  -7   1   1   62.49   26.24   0  0.66151
  -6   1   1  712.96   23.28   0  0.66151
   6  -1  -1  772.41   29.74   0  0.66151
  -5   1   1   56.77   16.56   0  0.66151
   5  -1  -1   39.13   17.31   0  0.66151
  -4   1   1  206.06   16.10   0  0.66151
   4  -1  -1  202.47   21.25   0  0.66151
  -3   1   1 1060.13   27.92   0  0.66151
   3  -1  -1  941.10   27.15   0  0.66151
  -2   1   1   -1.02   25.16   0  0.66151
   2  -1  -1    4.46   18.58   0  0.66151
  -1   1   1   34.31   17.65   0  0.66151
   1  -1  -1   31.74   13.57   0  0.66151
   0   1   1 5197.99   99.82   0  0.66151
   0   1   1 4776.45   95.18   0  0.66151
   0  -1  -1 4759.48   95.74   0  0.66151
   0  -1  -1 5000.31   98.38   0  0.66151
  -1  -1  -1  316.15   30.16   0  0.66151
   1   1   1  313.32   30.01   0  0.66151
  -2  -1  -1  716.47   32.70   0  0.66151
   2   1   1  666.86   33.23   0  0.66151
   3   1   1   21.01   14.20   0  0.66151
  -3  -1  -1   23.46   14.37   0  0.66151
   4   1   1   72.22   18.91   0  0.66151
  -4  -1  -1   66.47   13.80   0  0.66151
   5   1   1   20.75   13.29   0  0.66151
  -5  -1  -1   23.70   12.65   0  0.66151
   6   1   1  298.29   19.98   0  0.66151
  -6  -1  -1  316.79   25.14   0  0.66151
   7   1   1   37.08   26.45   0  0.66151
  -7  -1  -1    7.53   25.49   0  0.66151
   8   1   1   -1.20   22.16   0  0.66151
  -8  -1  -1   19.56   21.13   0  0.66151
   9   1   1   94.18   27.76   0  0.66151
  -9  -1  -1   39.54   37.48   0  0.66151
   9  -2  -1   30.35   41.15   0  0.66151
  -9   2   1   26.09   40.85   0  0.66151
   8  -2  -1   14.03   21.98   0  0.66151
  -8   2   1    0.53   31.24   0  0.66151
   7  -2  -1  176.56   20.59   0  0.66151
  -7   2   1  185.76   27.89   0  0.66151
  -6   2   1  315.07   18.98   0  0.66151
   6  -2  -1  329.55   19.81   0  0.66151
  -5   2   1  312.01   19.81   0  0.66151
   5  -2  -1  323.10   19.89   0  0.66151
  -4   2   1  337.97   17.47   0  0.66151
   4  -2  -1  328.19   17.85   0  0.66151
  -3   2   1  278.86   21.88   0  0.66151
   3  -2  -1  255.48   22.63   0  0.66151
  -2   2   1 2038.29   42.96   0  0.66151
   2  -2  -1 1977.37   43.69   0  0.66151
  -1   2   1 6301.40   76.68   0  0.66151
   1  -2  -1 5756.48   76.47   0  0.66151
   0   2   1   66.56   19.27   0  0.66151
   0  -2  -1   70.84   20.43   0  0.66151
   0   2   1   74.41   20.31   0  0.66151
  -1  -2  -1 3351.53   96.69   0  0.66151
   1   2   1 3254.51   93.28   0  0.66151
   1   2   1 3317.97   94.24   0  0.66151
  -1  -2  -1 3310.06   94.33   0  0.66151
  -2  -2  -1    4.14   30.35   0  0.66151
   2   2   1    9.35   21.76   0  0.66151
   3   2   1   77.83   19.76   0  0.66151
  -3  -2  -1   89.30   20.31   0  0.66151
   4   2   1  264.97   23.07   0  0.66151
  -4  -2  -1  274.31   19.17   0  0.66151
   5   2   1  233.53   26.24   0  0.66151
  -5  -2  -1  228.33   25.36   0  0.66151
   6   2   1    6.42   22.23   0  0.66151
  -6  -2  -1    3.28   15.30   0  0.66151
   7   2   1  192.63   21.96   0  0.66151
  -7  -2  -1  221.74   20.98   0  0.66151
   8   2   1   -1.56   31.14   0  0.66151
  -8  -2  -1    0.31   21.13   0  0.66151
   9   2   1   49.83   38.33   0  0.66151
  -9  -2  -1   53.39   36.30   0  0.66151
   9  -3  -1  116.49   44.22   0  0.66151
  -9   3   1   86.46   45.10   0  0.66151
   8  -3  -1   32.24   22.64   0  0.66151
  -8   3   1   32.61   31.28   0  0.66151
   7  -3  -1   14.37   25.78   0  0.66151
  -7   3   1   -6.47   25.48   0  0.66151
  -6   3   1  538.72   26.63   0  0.66151
   6  -3  -1  518.57   21.23   0  0.66151
  -5   3   1   68.61   16.70   0  0.66151
   5  -3  -1   57.23   17.31   0  0.66151
  -4   3   1  226.86   16.16   0  0.66151
   4  -3  -1  225.42   16.46   0  0.66151
  -3   3   1 1778.96   31.91   0  0.66151
   3  -3  -1 1783.01   35.47   0  0.66151
  -2   3   1  991.43   27.56   0  0.66151
   2  -3  -1  995.95   32.19   0  0.66151
  -1   3   1  302.02   22.55   0  0.66151
   1  -3  -1  308.53   24.07   0  0.66151
   0   3   1  191.66   28.92   0  0.66151
   0  -3  -1  201.49   25.31   0  0.66151
   1   3   1  440.41   41.49   0  0.66151
   1   3   1  399.86   38.75   0  0.66151
  -1  -3  -1  452.26   42.19   0  0.66151
   2   3   1   77.43   33.12   0  0.66151
  -2  -3  -1   72.42   38.11   0  0.66151
   3   3   1 1426.73   54.18   0  0.66151
  -3  -3  -1 1554.84   55.59   0  0.66151
   4   3   1   53.39   20.08   0  0.66151
  -4  -3  -1   57.00   18.86   0  0.66151
   5   3   1  134.52   25.84   0  0.66151
  -5  -3  -1  128.54   24.07   0  0.66151
   6   3   1  237.45   25.93   0  0.66151
  -6  -3  -1  232.39   24.11   0  0.66151
   7   3   1    5.49   26.22   0  0.66151
  -7  -3  -1    4.67   17.55   0  0.66151
  -8  -3  -1  104.54   25.15   0  0.66151
   8   3   1  108.51   23.79   0  0.66151
  -8  -3  -1  105.78   31.16   0  0.66151
  -9  -3  -1  116.03   46.68   0  0.66151
   9   3   1  143.49   45.71   0  0.66151
  -9  -3  -1  114.29   43.25   0  0.66151
   9  -4  -1   -2.51   31.76   0  0.66151
  -9   4   1   -7.47   44.20   0  0.66151
   8  -4  -1  177.62   23.85   0  0.66151
  -8   4   1  199.96   33.23   0  0.66151
   7  -4  -1   -4.56   18.63   0  0.66151
  -7   4   1   -6.57   18.37   0  0.66151
   6  -4  -1    8.29   24.45   0  0.66151
  -6   4   1   -9.33   18.80   0  0.66151
  -5   4   1  683.15   27.69   0  0.66151
   5  -4  -1  666.23   28.51   0  0.66151
  -4   4   1    2.42   16.16   0  0.66151
   4  -4  -1   -1.59   16.96   0  0.66151
  -3   4   1  813.70   22.92   0  0.66151
   3  -4  -1  827.99   23.61   0  0.66151
  -2   4   1  672.21   26.04   0  0.66151
   2  -4  -1  728.75   27.60   0  0.66151
  -1   4   1   99.48   19.64   0  0.66151
   1  -4  -1  103.88   16.90   0  0.66151
   0   4   1   33.87   19.44   0  0.66151
   0  -4  -1   36.63   16.07   0  0.66151
   1   4   1 1613.11   57.54   0  0.66151
   1   4   1 1944.51   64.81   0  0.66151
  -1  -4  -1 1936.37   64.93   0  0.66151
  -4  -4  -1  384.94   39.91   0  0.66151
  -4  -4  -1  442.32   46.90   0  0.66151
   4   4   1  380.96   40.71   0  0.66151
  -5  -4  -1    4.57   21.52   0  0.66151
   5   4   1    2.85   22.48   0  0.66151
  -5  -4  -1   -2.44   24.66   0  0.66151
  -6  -4  -1   76.59   29.01   0  0.66151
  -6  -4  -1   69.28   26.38   0  0.66151
   6   4   1   61.16   26.95   0  0.66151
  -7  -4  -1  353.92   35.40   0  0.66151
   7   4   1  396.01   36.34   0  0.66151
  -7  -4  -1  404.69   38.34   0  0.66151
  -8  -4  -1    8.77   38.16   0  0.66151
  -8  -4  -1  -10.26   35.82   0  0.66151
   8   4   1   -6.92   37.31   0  0.66151
  -9  -4  -1    9.67   39.50   0  0.66151
   9   4   1    4.93   42.17   0  0.66151
  -9  -4  -1   10.65   43.12   0  0.66151
   9  -5  -1  -59.58   43.89   0  0.66151
  -9   5   1   23.10   43.63   0  0.66151
   8  -5  -1   65.71   26.98   0  0.66151
  -8   5   1   71.67   26.79   0  0.66151
   7  -5  -1   88.98   32.53   0  0.66151
  -7   5   1   62.51   31.96   0  0.66151
   6  -5  -1   56.65   26.37   0  0.66151
  -6   5   1   61.51   18.55   0  0.66151
  -5   5   1  234.31   24.51   0  0.66151
   5  -5  -1  263.86   24.77   0  0.66151
  -4   5   1 1044.81   30.47   0  0.66151
   4  -5  -1 1035.13   26.12   0  0.66151
  -3   5   1   77.34   18.75   0  0.66151
   3  -5  -1   98.69   19.98   0  0.66151
  -2   5   1   17.57   12.77   0  0.66151
   2  -5  -1   18.48   14.17   0  0.66151
  -1   5   1  333.15   18.93   0  0.66151
   1  -5  -1  350.93   24.98   0  0.66151
   0   5   1  189.33   21.73   0  0.66151
   0  -5  -1  218.20   19.81   0  0.66151
   1   5   1   41.08   21.16   0  0.66151
  -1  -5  -1   39.72   21.40   0  0.66151
   1   5   1   28.31   18.29   0  0.66151
   6   5   1    2.20   44.22   0  0.66151
   6   5   1    8.01   43.51   0  0.66151
  -7  -5  -1   40.40   37.51   0  0.66151
   7   5   1   38.60   37.96   0  0.66151
  -7  -5  -1   48.36   39.05   0  0.66151
  -8  -5  -1  236.38   52.58   0  0.66151
   8   5   1  261.34   52.38   0  0.66151
  -8  -5  -1  272.72   52.28   0  0.66151
   8  -6  -1   81.25   27.23   0  0.66151
  -8   6   1  100.54   37.24   0  0.66151
   7  -6  -1    6.78   31.91   0  0.66151
  -7   6   1   51.58   22.00   0  0.66151
   6  -6  -1   34.63   26.83   0  0.66151
  -6   6   1   55.05   18.63   0  0.66151
   5  -6  -1  615.38   24.40   0  0.66151
  -5   6   1  543.92   24.22   0  0.66151
   4  -6  -1   54.48   17.12   0  0.66151
  -4   6   1   55.09   16.39   0  0.66151
  -3   6   1  151.83   23.64   0  0.66151
   3  -6  -1  161.32   18.70   0  0.66151
  -2   6   1   72.74   23.31   0  0.66151
   2  -6  -1   78.85   24.89   0  0.66151
   1  -6  -1    1.04   19.43   0  0.66151
  -1   6   1    3.91   17.54   0  0.66151
   0  -6  -1   47.30   20.85   0  0.66151
   0   6   1   36.81   18.20   0  0.66151
   1   6   1 1018.58   46.64   0  0.66151
  -1  -6  -1  963.67   45.65   0  0.66151
   1   6   1  797.02   39.41   0  0.66151
   8  -7  -1    8.46   30.33   0  0.66151
  -8   7   1   15.48   43.35   0  0.66151
   7  -7  -1  220.43   23.70   0  0.66151
  -7   7   1  176.93   23.66   0  0.66151
   6  -7  -1   78.25   22.81   0  0.66151
  -6   7   1   84.74   22.61   0  0.66151
   5  -7  -1    6.02   26.38   0  0.66151
  -5   7   1   12.11   25.17   0  0.66151
   4  -7  -1  114.09   16.41   0  0.66151
  -4   7   1   98.58   19.39   0  0.66151
   3  -7  -1    4.98   15.88   0  0.66151
  -3   7   1   -1.62   21.20   0  0.66151
   2  -7  -1   14.39   16.64   0  0.66151
  -2   7   1    1.07   15.19   0  0.66151
   1  -7  -1  677.64   31.88   0  0.66151
  -1   7   1  606.75   28.45   0  0.66151
   0  -7  -1   -1.95   24.58   0  0.66151
   0   7   1   10.73   15.00   0  0.66151
   1   7   1    8.41   25.04   0  0.66151
   1   7   1    1.08   26.72   0  0.66151
  -1  -7  -1    4.15   30.59   0  0.66151
   7  -8  -1   55.46   38.16   0  0.66151
  -7   8   1   44.27   37.29   0  0.66151
   6  -8  -1  120.42   23.19   0  0.66151
  -6   8   1   76.32   31.50   0  0.66151
   5  -8  -1   -4.71   22.19   0  0.66151
  -5   8   1  -16.88   21.54   0  0.66151
   4  -8  -1   29.68   18.76   0  0.66151
  -4   8   1   20.86   17.66   0  0.66151
   3  -8  -1  138.65   21.03   0  0.66151
  -3   8   1  131.51   19.24   0  0.66151
   2  -8  -1   52.93   25.65   0  0.66151
  -2   8   1   28.69   14.83   0  0.66151
   1  -8  -1   32.24   23.47   0  0.66151
  -1   8   1   26.80   14.88   0  0.66151
   0   8   1   43.62   23.99   0  0.66151
   0  -8  -1   33.05   24.18   0  0.66151
   0   8   1   37.08   14.72   0  0.66151
   1   8   1   95.16   33.73   0  0.66151
   1   8   1   96.37   37.67   0  0.66151
  -1  -8  -1  101.07   38.07   0  0.66151
   7  -9  -1   35.09   30.90   0  0.66151
  -7   9   1   10.80   30.08   0  0.66151
   6  -9  -1  -23.99   37.93   0  0.66151
  -6   9   1  -18.35   25.76   0  0.66151
   5  -9  -1   34.58   22.16   0  0.66151
  -5   9   1   27.74   21.54   0  0.66151
   4  -9  -1   47.42   22.58   0  0.66151
  -4   9   1   44.00   21.84   0  0.66151
   3  -9  -1   30.59   26.65   0  0.66151
  -3   9   1   14.32   24.88   0  0.66151
   2  -9  -1    9.75   19.21   0  0.66151
  -2   9   1  -17.39   24.79   0  0.66151
   1  -9  -1  109.64   28.62   0  0.66151
  -1   9   1  101.21   25.69   0  0.66151
   0   9   1   20.35   27.17   0  0.66151
   0  -9  -1    9.08   28.00   0  0.66151
   0   9   1    7.64   24.46   0  0.66151
   1   9   1   29.27   33.36   0  0.66151
   1   9   1   21.83   36.65   0  0.66151
  -1  -9  -1   27.39   40.00   0  0.66151
   6 -10  -1    6.38   42.96   0  0.66151
  -6  10   1   14.99   29.67   0  0.66151
   5 -10  -1  -14.94   37.87   0  0.66151
  -5  10   1   -8.70   25.37   0  0.66151
   4 -10  -1   38.94   37.26   0  0.66151
  -4  10   1    0.35   25.60   0  0.66151
   3 -10  -1   58.92   32.47   0  0.66151
  -3  10   1   78.48   21.48   0  0.66151
   2 -10  -1    0.30   22.79   0  0.66151
  -2  10   1   -2.64   29.71   0  0.66151
   1 -10  -1    8.95   32.34   0  0.66151
  -1  10   1   -5.14   29.40   0  0.66151
  -1  10   1   -7.62   32.51   0  0.66151
   0  10   1   22.72   30.47   0  0.66151
   0 -10  -1   37.68   32.77   0  0.66151
   0  10   1   39.98   32.79   0  0.66151
   4 -11  -1   12.46   44.11   0  0.66151
  -4  11   1  -67.54   42.80   0  0.66151
   3 -11  -1   25.04   37.83   0  0.66151
  -3  11   1    3.82   35.94   0  0.66151
  -2  11   1   19.68   27.23   0  0.66151
   2 -11  -1   26.34   27.33   0  0.66151
  -2  11   1   15.02   36.13   0  0.66151
  -1  11   1   41.80   39.24   0  0.66151
   1 -11  -1   64.12   39.53   0  0.66151
  -1  11   1   53.51   36.71   0  0.66151
   0  11   1    6.78   36.44   0  0.66151
   0  11   1   -3.04   38.56   0  0.66151
   0 -11  -1   -2.27   39.46   0  0.66151
   0  10  -2   47.80   64.81   0  0.66151
   0  10  -2   40.88   65.35   0  0.66151
   0 -10   2   49.34   56.76   0  0.66151
   0 -10   2   56.58   55.89   0  0.66151
   1 -10   2   21.23   39.71   0  0.66151
   1 -10   2   40.61   38.03   0  0.66151
  -1  10  -2   39.78   38.02   0  0.66151
  -2  10  -2  115.62   38.44   0  0.66151
   2 -10   2  133.49   39.02   0  0.66151
   3 -10   2   41.97   27.12   0  0.66151
  -3  10  -2   28.98   37.16   0  0.66151
   4 -10   2    2.12   43.70   0  0.66151
  -4  10  -2   -8.25   42.15   0  0.66151
   5 -10   2   19.26   31.54   0  0.66151
  -5  10  -2   23.65   41.74   0  0.66151
   0  -9   2   39.08   38.94   0  0.66151
   0   9  -2   39.03   39.04   0  0.66151
   0  -9   2   20.17   40.19   0  0.66151
  -1   9  -2  466.32   36.78   0  0.66151
   1  -9   2  464.88   37.75   0  0.66151
   2  -9   2   62.79   22.52   0  0.66151
  -2   9  -2   61.69   30.63   0  0.66151
   3  -9   2   44.79   31.78   0  0.66151
  -3   9  -2   53.31   21.89   0  0.66151
   4  -9   2    7.17   31.79   0  0.66151
  -4   9  -2   14.42   33.04   0  0.66151
   5  -9   2   56.20   26.18   0  0.66151
  -5   9  -2   49.48   25.89   0  0.66151
   6  -9   2   17.08   41.14   0  0.66151
  -6   9  -2   32.07   30.27   0  0.66151
   7  -9   2  -19.70   44.36   0  0.66151
  -7   9  -2  -11.69   30.02   0  0.66151
   0  -8   2   33.31   26.45   0  0.66151
   0   8  -2   27.27   26.89   0  0.66151
   0  -8   2   28.30   27.54   0  0.66151
  -1   8  -2   21.29   18.32   0  0.66151
   1  -8   2   25.45   26.14   0  0.66151
   2  -8   2  219.66   28.13   0  0.66151
  -2   8  -2  235.63   21.12   0  0.66151
   3  -8   2    9.17   25.71   0  0.66151
  -3   8  -2   20.90   17.48   0  0.66151
   4  -8   2    5.84   21.38   0  0.66151
  -4   8  -2   15.57   20.55   0  0.66151
   5  -8   2  124.17   22.56   0  0.66151
  -5   8  -2  104.80   22.31   0  0.66151
   6  -8   2  -19.63   21.84   0  0.66151
  -6   8  -2   -7.65   33.62   0  0.66151
   7  -8   2   13.16   26.19   0  0.66151
  -7   8  -2   42.27   25.99   0  0.66151
   8  -8   2   -3.44   44.63   0  0.66151
  -8   8  -2   -6.43   29.56   0  0.66151
  -1  -7   2  456.59   44.53   0  0.66151
  -1  -7   2  483.44   47.08   0  0.66151
   1   7  -2  525.81   47.33   0  0.66151
   0  -7   2  534.38   34.31   0  0.66151
   0   7  -2  595.97   36.11   0  0.66151
   0  -7   2  582.18   36.51   0  0.66151
   1  -7   2   15.34   26.35   0  0.66151
  -1   7  -2   23.71   18.35   0  0.66151
   2  -7   2   38.18   26.01   0  0.66151
  -2   7  -2   29.81   17.94   0  0.66151
   3  -7   2  430.53   23.68   0  0.66151
  -3   7  -2  475.13   29.46   0  0.66151
   4  -7   2   12.28   17.98   0  0.66151
  -4   7  -2   11.39   17.34   0  0.66151
   5  -7   2    5.30   17.80   0  0.66151
  -5   7  -2   -7.63   17.76   0  0.66151
   6  -7   2   85.78   31.04   0  0.66151
  -6   7  -2   84.46   22.61   0  0.66151
   7  -7   2   21.46   21.00   0  0.66151
  -7   7  -2  -11.20   21.15   0  0.66151
   8  -7   2   10.40   40.57   0  0.66151
  -8   7  -2  -15.25   26.29   0  0.66151
  -1  -6   2  543.33   38.25   0  0.66151
  -1  -6   2  598.61   38.08   0  0.66151
   1   6  -2  656.53   38.45   0  0.66151
   0  -6   2  128.95   24.31   0  0.66151
   0  -6   2  143.30   25.58   0  0.66151
   0   6  -2  143.98   25.24   0  0.66151
   1  -6   2  213.47   24.57   0  0.66151
  -1   6  -2  199.88   24.91   0  0.66151
   2  -6   2  379.04   26.45   0  0.66151
  -2   6  -2  402.95   25.81   0  0.66151
   3  -6   2  144.08   23.39   0  0.66151
  -3   6  -2  159.06   17.07   0  0.66151
   4  -6   2  264.17   18.35   0  0.66151
  -4   6  -2  253.27   18.49   0  0.66151
   5  -6   2    0.95   25.53   0  0.66151
  -5   6  -2   16.73   24.89   0  0.66151
   6  -6   2   -2.74   17.76   0  0.66151
  -6   6  -2    4.36   17.64   0  0.66151
   7  -6   2   47.12   21.28   0  0.66151
  -7   6  -2   54.36   22.26   0  0.66151
   8  -6   2  -18.85   37.12   0  0.66151
  -8   6  -2  -13.37   25.69   0  0.66151
   9  -6   2  -44.22   31.52   0  0.66151
  -9   6  -2  -43.73   30.93   0  0.66151
  -3  -5   2 1336.61   90.35   0  0.66151
  -2  -5   2  160.50   34.88   0  0.66151
  -2  -5   2  145.72   30.86   0  0.66151
   1   5  -2    1.41   24.40   0  0.66151
  -1  -5   2    4.47   24.68   0  0.66151
  -1  -5   2    1.38   21.84   0  0.66151
   0  -5   2  927.31   32.11   0  0.66151
   0  -5   2  808.87   33.28   0  0.66151
   0   5  -2  923.69   35.62   0  0.66151
  -1   5  -2  119.78   24.01   0  0.66151
   1  -5   2  119.73   23.79   0  0.66151
   2  -5   2  183.98   24.18   0  0.66151
  -2   5  -2  178.55   23.81   0  0.66151
   3  -5   2  606.61   27.78   0  0.66151
  -3   5  -2  587.57   22.06   0  0.66151
   4  -5   2    0.86   15.56   0  0.66151
  -4   5  -2    8.25   15.42   0  0.66151
   5  -5   2   88.60   15.96   0  0.66151
  -5   5  -2   98.66   22.10   0  0.66151
   6  -5   2   87.39   18.14   0  0.66151
  -6   5  -2   52.62   18.69   0  0.66151
   7  -5   2    1.79   18.07   0  0.66151
  -7   5  -2    2.79   17.74   0  0.66151
   8  -5   2   31.80   21.60   0  0.66151
  -8   5  -2  -34.73   30.78   0  0.66151
   9  -5   2   41.39   26.42   0  0.66151
  -9   5  -2   14.35   27.41   0  0.66151
  -7  -4   2   57.25   54.43   0  0.66151
  -7  -4   2   59.89   42.29   0  0.66151
   7   4  -2   65.49   53.09   0  0.66151
  -6  -4   2   92.48   32.51   0  0.66151
   6   4  -2   83.76   31.61   0  0.66151
  -6  -4   2   74.79   30.98   0  0.66151
  -5  -4   2  307.28   32.49   0  0.66151
   5   4  -2  304.06   31.51   0  0.66151
  -5  -4   2  259.51   35.94   0  0.66151
  -4  -4   2   -2.74   26.11   0  0.66151
   4   4  -2   -1.12   25.84   0  0.66151
  -4  -4   2    1.10   27.01   0  0.66151
  -3  -4   2  388.59   34.90   0  0.66151
  -3  -4   2  351.54   32.55   0  0.66151
  -2  -4   2  719.89   36.26   0  0.66151
  -2  -4   2  769.34   40.86   0  0.66151
   1   4  -2   33.78   19.91   0  0.66151
  -1  -4   2   22.96   21.93   0  0.66151
  -1  -4   2   26.10   19.99   0  0.66151
   0  -4   2  261.86   22.85   0  0.66151
   0  -4   2  304.50   20.92   0  0.66151
   0   4  -2  296.12   20.40   0  0.66151
  -1   4  -2 2324.40   39.81   0  0.66151
   1  -4   2 2214.63   39.04   0  0.66151
  -2   4  -2    4.55   16.98   0  0.66151
   2  -4   2    2.65   17.52   0  0.66151
  -3   4  -2  126.76   13.96   0  0.66151
   3  -4   2  109.49   13.85   0  0.66151
   4  -4   2  613.96   27.14   0  0.66151
  -4   4  -2  595.65   21.85   0  0.66151
   5  -4   2    6.20   16.02   0  0.66151
  -5   4  -2  -10.53   15.28   0  0.66151
   6  -4   2   11.16   15.41   0  0.66151
  -6   4  -2   39.24   20.95   0  0.66151
   7  -4   2   77.08   18.58   0  0.66151
  -7   4  -2   75.92   18.84   0  0.66151
   8  -4   2   12.30   30.52   0  0.66151
  -8   4  -2    6.80   21.59   0  0.66151
   9  -4   2    2.15   36.79   0  0.66151
  -9   4  -2    3.97   26.26   0  0.66151
  10  -4   2   -0.46   42.47   0  0.66151
 -10   4  -2   60.56   29.38   0  0.66151
  -7  -3   2    5.29   37.84   0  0.66151
   7   3  -2   -0.84   37.44   0  0.66151
  -7  -3   2  -12.80   36.62   0  0.66151
  -6  -3   2  252.64   34.71   0  0.66151
   6   3  -2  234.52   33.66   0  0.66151
  -6  -3   2  193.62   32.66   0  0.66151
  -5  -3   2  378.98   31.02   0  0.66151
  -5  -3   2  429.02   33.41   0  0.66151
   5   3  -2  404.74   32.00   0  0.66151
  -4  -3   2  347.83   28.48   0  0.66151
  -4  -3   2  381.94   29.49   0  0.66151
   4   3  -2  346.86   23.22   0  0.66151
  -3  -3   2  493.60   32.76   0  0.66151
  -3  -3   2  525.73   32.14   0  0.66151
   3   3  -2  501.55   30.96   0  0.66151
  -2  -3   2  185.23   24.55   0  0.66151
   2   3  -2  212.39   24.71   0  0.66151
   2   3  -2  182.72   22.59   0  0.66151
  -2  -3   2  197.30   23.32   0  0.66151
  -1  -3   2  960.02   35.79   0  0.66151
  -1  -3   2 1047.47   39.00   0  0.66151
   1   3  -2 1067.12   38.75   0  0.66151
   0  -3   2  435.25   26.16   0  0.66151
   0  -3   2  472.33   27.92   0  0.66151
   0   3  -2  461.84   23.92   0  0.66151
  -1   3  -2  392.16   20.71   0  0.66151
   1  -3   2  397.72   24.26   0  0.66151
  -2   3  -2  462.31   20.02   0  0.66151
   2  -3   2  455.93   19.97   0  0.66151
  -3   3  -2    5.81   17.18   0  0.66151
   3  -3   2    2.26   12.33   0  0.66151
   4  -3   2    0.29   12.39   0  0.66151
  -4   3  -2   -0.85   17.23   0  0.66151
   5  -3   2   97.45   16.81   0  0.66151
  -5   3  -2  102.73   22.87   0  0.66151
   6  -3   2   98.19   22.79   0  0.66151
  -6   3  -2  129.20   17.05   0  0.66151
   7  -3   2   14.81   18.14   0  0.66151
  -7   3  -2   -2.20   25.44   0  0.66151
   8  -3   2  134.45   18.99   0  0.66151
  -8   3  -2   99.34   19.38   0  0.66151
   9  -3   2   -6.75   34.34   0  0.66151
  -9   3  -2   27.56   26.21   0  0.66151
  10  -3   2  -16.57   43.90   0  0.66151
 -10   3  -2    7.72   30.25   0  0.66151
  -8  -2   2  156.49   34.09   0  0.66151
   8   2  -2  149.21   32.40   0  0.66151
  -8  -2   2  143.14   31.95   0  0.66151
  -7  -2   2  -14.83   32.28   0  0.66151
   7   2  -2   -9.45   22.06   0  0.66151
  -7  -2   2    5.08   30.02   0  0.66151
  -6  -2   2   -5.22   25.84   0  0.66151
  -6  -2   2    3.49   19.19   0  0.66151
   6   2  -2  -16.87   26.12   0  0.66151
  -5  -2   2  754.50   35.09   0  0.66151
  -5  -2   2  818.28   34.49   0  0.66151
   5   2  -2  761.50   33.74   0  0.66151
  -4  -2   2   42.22   23.85   0  0.66151
  -4  -2   2   43.90   24.62   0  0.66151
   4   2  -2   32.08   23.81   0  0.66151
  -3  -2   2   72.19   15.78   0  0.66151
  -3  -2   2   69.39   20.60   0  0.66151
   3   2  -2   73.06   19.94   0  0.66151
  -2  -2   2 4107.28   62.55   0  0.66151
  -2  -2   2 4059.40   65.12   0  0.66151
   2   2  -2 4020.29   61.67   0  0.66151
  -1  -2   2  822.93   34.83   0  0.66151
   1   2  -2  854.83   35.05   0  0.66151
   1   2  -2  762.19   29.70   0  0.66151
  -1  -2   2  799.51   33.77   0  0.66151
   0  -2   2  342.09   27.11   0  0.66151
   0   2  -2  352.08   27.58   0  0.66151
   0  -2   2  354.96   28.51   0  0.66151
  -1   2  -2   15.89   15.77   0  0.66151
   1  -2   2   19.72   22.53   0  0.66151
  -2   2  -2  491.82   25.99   0  0.66151
   2  -2   2  510.23   22.67   0  0.66151
  -3   2  -2  388.30   22.54   0  0.66151
   3  -2   2  381.37   18.37   0  0.66151
  -4   2  -2  485.76   18.71   0  0.66151
   4  -2   2  480.06   18.68   0  0.66151
   5  -2   2   15.89   12.87   0  0.66151
  -5   2  -2   14.21   17.49   0  0.66151
   6  -2   2   55.73   16.06   0  0.66151
  -6   2  -2   59.93   15.68   0  0.66151
   7  -2   2   74.78   15.46   0  0.66151
  -7   2  -2   83.64   23.92   0  0.66151
   8  -2   2   22.33   17.98   0  0.66151
  -8   2  -2    4.00   17.90   0  0.66151
   9  -2   2   19.89   30.73   0  0.66151
  -9   2  -2   21.26   21.69   0  0.66151
  10  -2   2  112.74   32.20   0  0.66151
 -10   2  -2   62.26   44.06   0  0.66151
  -8  -1   2   50.29   39.00   0  0.66151
   8   1  -2   24.92   38.34   0  0.66151
  -8  -1   2   54.79   25.90   0  0.66151
   7   1  -2  306.95   34.41   0  0.66151
  -7  -1   2  319.08   35.06   0  0.66151
  -7  -1   2  282.01   25.42   0  0.66151
  -6  -1   2   22.76   26.06   0  0.66151
   6   1  -2    7.04   26.83   0  0.66151
  -6  -1   2   17.77   28.03   0  0.66151
  -5  -1   2   41.04   16.61   0  0.66151
   5   1  -2   73.31   22.97   0  0.66151
  -5  -1   2   63.89   24.52   0  0.66151
  -4  -1   2 1009.87   29.43   0  0.66151
   4   1  -2 1046.03   34.24   0  0.66151
  -4  -1   2 1154.00   35.38   0  0.66151
  -3  -1   2   97.18   21.43   0  0.66151
  -3  -1   2   81.68   20.64   0  0.66151
   3   1  -2   84.24   20.23   0  0.66151
  -2  -1   2    4.20   14.20   0  0.66151
   2   1  -2    3.99   19.27   0  0.66151
  -2  -1   2   12.09   20.69   0  0.66151
   1   1  -2 2197.37   47.25   0  0.66151
  -1  -1   2 2172.44   46.87   0  0.66151
  -1  -1   2 2095.51   46.86   0  0.66151
   1   1  -2 2046.42   45.28   0  0.66151
   0   1  -2   43.10   28.27   0  0.66151
   0  -1   2   40.85   28.28   0  0.66151
   0   1  -2   41.81   19.66   0  0.66151
   0  -1   2   40.22   20.12   0  0.66151
  -1   1  -2  135.36   15.87   0  0.66151
   1  -1   2  141.38   15.81   0  0.66151
  -2   1  -2 1357.29   34.19   0  0.66151
   2  -1   2 1362.18   33.98   0  0.66151
  -3   1  -2  593.75   22.43   0  0.66151
   3  -1   2  556.44   22.03   0  0.66151
  -4   1  -2   18.33   12.78   0  0.66151
   4  -1   2   23.17   12.76   0  0.66151
   5  -1   2  477.51   18.74   0  0.66151
  -5   1  -2  471.05   18.48   0  0.66151
   6  -1   2   21.55   15.75   0  0.66151
  -6   1  -2   11.21   22.19   0  0.66151
   7  -1   2    1.18   14.66   0  0.66151
  -7   1  -2    5.43   14.56   0  0.66151
   8  -1   2  190.08   27.27   0  0.66151
  -8   1  -2  202.52   26.92   0  0.66151
   9  -1   2  -10.26   21.83   0  0.66151
  -9   1  -2    6.82   30.36   0  0.66151
  10  -1   2   10.25   30.57   0  0.66151
 -10   1  -2  -12.74   30.62   0  0.66151
  -8   0   2   17.83   39.36   0  0.66151
   8   0  -2   46.38   38.34   0  0.66151
  -8   0   2   20.79   38.19   0  0.66151
  -7   0   2   65.02   33.07   0  0.66151
   7   0  -2   90.89   32.36   0  0.66151
  -7   0   2   65.76   22.70   0  0.66151
  -6   0   2   98.54   19.65   0  0.66151
   6   0  -2  105.68   27.59   0  0.66151
  -6   0   2  124.28   28.92   0  0.66151
  -5   0   2  352.60   26.59   0  0.66151
   5   0  -2  365.79   20.93   0  0.66151
  -5   0   2  392.15   21.99   0  0.66151
  -4   0   2  744.92   25.69   0  0.66151
   4   0  -2  763.88   30.67   0  0.66151
  -4   0   2  829.57   32.56   0  0.66151
  -3   0   2 1625.31   37.23   0  0.66151
  -3   0   2 1420.72   32.33   0  0.66151
   3   0  -2 1407.99   34.70   0  0.66151
  -2   0   2  204.63   18.52   0  0.66151
   2   0  -2  214.86   22.80   0  0.66151
  -2   0   2  217.37   24.76   0  0.66151
   1   0  -2   15.56   27.41   0  0.66151
  -1   0   2    5.28   18.77   0  0.66151
   1   0  -2    1.10   26.59   0  0.66151
  -1   0   2    4.60   28.16   0  0.66151
   0   0  -2 2812.35   54.30   0  0.66151
   0   0   2 2723.59   53.65   0  0.66151
   0   0   2 2080.90   46.77   0  0.66151
   0   0  -2 2578.52   51.95   0  0.66151
  -1   0  -2   21.27   11.29   0  0.66151
   1   0   2   24.45   16.76   0  0.66151
  -2   0  -2  169.23   19.93   0  0.66151
   2   0   2  165.21   16.31   0  0.66151
  -3   0  -2  719.70   25.55   0  0.66151
   3   0   2  724.37   29.32   0  0.66151
  -4   0  -2  439.10   19.24   0  0.66151
   4   0   2  434.44   22.43   0  0.66151
   5   0   2   19.83   12.70   0  0.66151
  -5   0  -2   27.40   17.76   0  0.66151
   6   0   2  190.45   23.96   0  0.66151
  -6   0  -2  191.94   23.80   0  0.66151
   7   0   2  117.20   22.08   0  0.66151
  -7   0  -2  112.15   16.19   0  0.66151
   8   0   2  123.32   26.73   0  0.66151
  -8   0  -2  116.28   26.60   0  0.66151
   9   0   2  149.34   23.52   0  0.66151
  -9   0  -2  155.10   32.07   0  0.66151
  10   0   2   10.74   30.91   0  0.66151
 -10   0  -2    8.49   30.71   0  0.66151
  -9   1   2   39.42   46.48   0  0.66151
   8  -1  -2   12.79   26.92   0  0.66151
  -8   1   2   15.89   39.20   0  0.66151
  -8   1   2   32.25   26.52   0  0.66151
  -7   1   2  260.42   25.00   0  0.66151
  -7   1   2  314.78   26.30   0  0.66151
   7  -1  -2  314.85   25.39   0  0.66151
  -6   1   2   16.57   26.70   0  0.66151
  -6   1   2   35.23   20.40   0  0.66151
   6  -1  -2   46.82   19.21   0  0.66151
  -5   1   2   20.77   22.97   0  0.66151
  -5   1   2   15.35   24.74   0  0.66151
   5  -1  -2   -5.05   23.70   0  0.66151
  -4   1   2  509.45   20.31   0  0.66151
  -4   1   2  571.23   26.17   0  0.66151
   4  -1  -2  548.06   24.82   0  0.66151
  -3   1   2  314.98   18.82   0  0.66151
  -3   1   2  343.97   19.96   0  0.66151
   3  -1  -2  307.06   18.52   0  0.66151
  -2   1   2  338.26   21.09   0  0.66151
   2  -1  -2  355.11   20.94   0  0.66151
  -2   1   2  387.47   22.31   0  0.66151
  -1   1   2  132.97   21.60   0  0.66151
   1  -1  -2  156.91   22.91   0  0.66151
   1  -1  -2  115.62   29.46   0  0.66151
  -1   1   2  119.41   30.91   0  0.66151
   0   1   2   85.94   20.06   0  0.66151
   0  -1  -2   48.80   12.68   0  0.66151
   0   1   2   83.13   13.97   0  0.66151
   0  -1  -2   80.14   19.47   0  0.66151
  -1  -1  -2    2.66   11.49   0  0.66151
   1   1   2    0.81   11.28   0  0.66151
  -1  -1  -2    3.26   11.97   0  0.66151
   1   1   2    2.03   11.79   0  0.66151
  -2  -1  -2 1253.47   37.89   0  0.66151
   2   1   2 1254.71   37.31   0  0.66151
  -3  -1  -2   17.74   14.56   0  0.66151
   3   1   2   14.99   14.24   0  0.66151
  -4  -1  -2  403.87   19.83   0  0.66151
   4   1   2  392.28   22.92   0  0.66151
   5   1   2  335.80   21.73   0  0.66151
  -5  -1  -2  357.32   21.75   0  0.66151
   6   1   2   11.79   21.87   0  0.66151
  -6  -1  -2    4.38   15.58   0  0.66151
   7   1   2   67.41   21.69   0  0.66151
  -7  -1  -2   52.63   23.83   0  0.66151
   8   1   2  342.89   22.33   0  0.66151
  -8  -1  -2  342.47   21.81   0  0.66151
   9   1   2   10.07   31.83   0  0.66151
  -9  -1  -2   22.26   22.03   0  0.66151
  10   1   2   33.80   44.04   0  0.66151
 -10  -1  -2   21.72   42.62   0  0.66151
   9  -2  -2   76.29   29.94   0  0.66151
  -9   2   2   61.45   31.65   0  0.66151
  -9   2   2   61.47   29.79   0  0.66151
   8  -2  -2   41.60   37.36   0  0.66151
  -8   2   2   25.76   38.63   0  0.66151
  -8   2   2   11.04   37.63   0  0.66151
  -7   2   2   17.05   18.69   0  0.66151
  -7   2   2   19.58   30.42   0  0.66151
   7  -2  -2   15.51   29.36   0  0.66151
  -6   2   2  571.46   31.13   0  0.66151
   6  -2  -2  579.48   31.59   0  0.66151
  -5   2   2   21.56   16.71   0  0.66151
   5  -2  -2   27.94   17.14   0  0.66151
  -4   2   2   28.91   13.57   0  0.66151
   4  -2  -2   26.18   19.47   0  0.66151
  -3   2   2  503.06   24.31   0  0.66151
   3  -2  -2  476.28   20.41   0  0.66151
  -2   2   2    4.11   15.46   0  0.66151
  -2   2   2   -2.25   19.82   0  0.66151
   2  -2  -2    4.58   14.11   0  0.66151
  -1   2   2  700.29   28.85   0  0.66151
   1  -2  -2  690.61   35.37   0  0.66151
  -1   2   2  761.05   36.97   0  0.66151
   0  -2  -2 1200.76   36.07   0  0.66151
   0   2   2 1238.14   36.53   0  0.66151
   0   2   2 1168.21   35.15   0  0.66151
   0  -2  -2 1176.26   35.99   0  0.66151
  -1  -2  -2    1.33   12.79   0  0.66151
   1   2   2    3.10   17.82   0  0.66151
   1   2   2    6.20   12.23   0  0.66151
  -1  -2  -2    4.68   18.50   0  0.66151
   2   2   2  112.69   20.34   0  0.66151
   2   2   2  121.50   21.11   0  0.66151
  -2  -2  -2  124.85   21.36   0  0.66151
  -3  -2  -2    5.67   13.37   0  0.66151
   3   2   2    9.29   17.79   0  0.66151
  -4  -2  -2   45.02   18.36   0  0.66151
   4   2   2   40.74   13.31   0  0.66151
   5   2   2    1.33   12.69   0  0.66151
  -5  -2  -2    7.27   17.47   0  0.66151
   6   2   2 1263.00   30.52   0  0.66151
  -6  -2  -2 1303.15   34.27   0  0.66151
   7   2   2   -4.45   25.54   0  0.66151
  -7  -2  -2   -7.00   24.80   0  0.66151
   8   2   2   -3.79   28.41   0  0.66151
  -8  -2  -2   -4.82   20.94   0  0.66151
   9   2   2  258.91   40.40   0  0.66151
  -9  -2  -2  301.53   28.26   0  0.66151
  10   2   2   10.73   42.36   0  0.66151
 -10  -2  -2   12.57   43.40   0  0.66151
  -9   3   2    8.41   31.27   0  0.66151
   9  -3  -2   27.47   29.98   0  0.66151
  -9   3   2    4.36   43.63   0  0.66151
  -8   3   2   22.28   39.16   0  0.66151
   8  -3  -2   13.47   38.34   0  0.66151
  -8   3   2   21.05   37.76   0  0.66151
  -7   3   2   69.31   23.36   0  0.66151
   7  -3  -2   87.40   23.06   0  0.66151
  -6   3   2   93.82   19.51   0  0.66151
   6  -3  -2   77.43   20.41   0  0.66151
  -5   3   2  274.26   25.18   0  0.66151
   5  -3  -2  309.61   25.81   0  0.66151
  -4   3   2   23.88   17.08   0  0.66151
   4  -3  -2   30.88   17.56   0  0.66151
  -3   3   2  100.21   14.47   0  0.66151
   3  -3  -2   96.96   14.85   0  0.66151
  -2   3   2  752.76   24.07   0  0.66151
   2  -3  -2  745.05   28.42   0  0.66151
  -1   3   2 1258.51   32.61   0  0.66151
  -1   3   2 1363.45   34.63   0  0.66151
   1  -3  -2 1230.40   33.22   0  0.66151
   0   3   2    8.03   24.76   0  0.66151
   0  -3  -2    2.05   19.51   0  0.66151
   0   3   2    3.57   19.27   0  0.66151
   1   3   2   89.41   21.34   0  0.66151
   1   3   2   85.35   20.21   0  0.66151
  -1  -3  -2   95.48   21.57   0  0.66151
  -1  -3  -2   84.05   20.95   0  0.66151
   2   3   2    2.28   19.62   0  0.66151
  -2  -3  -2   -0.67   22.13   0  0.66151
   2   3   2    4.72   20.68   0  0.66151
  -3  -3  -2   -0.32   18.33   0  0.66151
   3   3   2    1.11   17.20   0  0.66151
   4   3   2  344.06   24.57   0  0.66151
  -4  -3  -2  377.17   25.69   0  0.66151
   5   3   2  418.77   28.60   0  0.66151
  -5  -3  -2  438.52   28.67   0  0.66151
   6   3   2  114.95   17.90   0  0.66151
  -6  -3  -2  125.08   17.46   0  0.66151
   7   3   2  312.64   29.19   0  0.66151
  -7  -3  -2  307.01   28.97   0  0.66151
   8   3   2    8.43   30.66   0  0.66151
  -8  -3  -2   15.17   20.80   0  0.66151
   9   3   2   85.88   38.65   0  0.66151
  -9  -3  -2  101.25   26.43   0  0.66151
   9  -4  -2   43.20   34.73   0  0.66151
  -9   4   2   41.74   30.85   0  0.66151
   8  -4  -2   38.88   37.73   0  0.66151
  -8   4   2   39.91   37.60   0  0.66151
  -7   4   2   29.09   31.47   0  0.66151
   7  -4  -2   27.14   31.34   0  0.66151
  -6   4   2  212.48   27.04   0  0.66151
   6  -4  -2  187.69   27.85   0  0.66151
  -5   4   2   19.26   22.27   0  0.66151
   5  -4  -2   -7.41   16.75   0  0.66151
  -4   4   2   99.50   24.17   0  0.66151
   4  -4  -2   73.70   25.16   0  0.66151
  -3   4   2  170.63   15.25   0  0.66151
   3  -4  -2  165.74   20.76   0  0.66151
  -2   4   2   57.60   19.44   0  0.66151
   2  -4  -2   56.65   20.07   0  0.66151
  -1   4   2   64.02   14.75   0  0.66151
  -1   4   2   66.56   15.79   0  0.66151
   1  -4  -2   69.34   15.93   0  0.66151
   0   4   2 1013.35   35.65   0  0.66151
   0   4   2  904.96   32.51   0  0.66151
   0  -4  -2  966.45   35.30   0  0.66151
   1   4   2  145.09   22.85   0  0.66151
  -1  -4  -2  154.88   24.92   0  0.66151
   1   4   2  159.75   24.19   0  0.66151
   2   4   2   41.13   20.09   0  0.66151
  -2  -4  -2   59.39   21.81   0  0.66151
   2   4   2   48.72   20.28   0  0.66151
  -3  -4  -2 1412.71   55.30   0  0.66151
   3   4   2 1411.41   51.88   0  0.66151
   3   4   2 1089.37   46.88   0  0.66151
   4   4   2  156.57   26.05   0  0.66151
   4   4   2  185.12   23.65   0  0.66151
  -4  -4  -2  175.28   27.02   0  0.66151
  -5  -4  -2  250.41   27.07   0  0.66151
   5   4   2  233.65   27.34   0  0.66151
  -6  -4  -2  318.55   26.67   0  0.66151
   6   4   2  314.43   27.15   0  0.66151
  -7  -4  -2  289.56   29.10   0  0.66151
   7   4   2  277.30   29.81   0  0.66151
  -8  -4  -2   75.11   30.57   0  0.66151
   8   4   2   86.76   31.97   0  0.66151
  -9  -4  -2   58.70   42.74   0  0.66151
   9   4   2   61.73   45.32   0  0.66151
  -9  -4  -2   67.52   32.69   0  0.66151
   8  -5  -2   76.97   27.68   0  0.66151
  -8   5   2   81.87   27.15   0  0.66151
   7  -5  -2    3.37   21.72   0  0.66151
  -7   5   2   40.81   21.35   0  0.66151
  -6   5   2   -6.18   26.06   0  0.66151
   6  -5  -2    3.74   18.60   0  0.66151
  -5   5   2   96.85   22.49   0  0.66151
   5  -5  -2   72.61   23.42   0  0.66151
  -4   5   2   -0.18   15.86   0  0.66151
   4  -5  -2   10.26   16.97   0  0.66151
  -3   5   2   37.67   16.68   0  0.66151
   3  -5  -2   42.47   17.86   0  0.66151
  -2   5   2  197.23   20.73   0  0.66151
   2  -5  -2  226.77   16.97   0  0.66151
  -1   5   2    1.91   18.13   0  0.66151
   1  -5  -2    5.06   14.30   0  0.66151
   0   5   2  245.96   18.26   0  0.66151
   0  -5  -2  254.10   24.37   0  0.66151
   0   5   2  286.90   24.34   0  0.66151
   1   5   2  187.06   23.07   0  0.66151
  -1  -5  -2  209.17   20.83   0  0.66151
   1   5   2  222.37   20.33   0  0.66151
   2   5   2  362.55   34.35   0  0.66151
   2   5   2  369.53   33.83   0  0.66151
   5   5   2    8.45   31.38   0  0.66151
  -5  -5  -2    6.98   31.98   0  0.66151
   5   5   2    7.30   31.75   0  0.66151
   6   5   2   14.54   32.30   0  0.66151
  -6  -5  -2   19.25   34.15   0  0.66151
  -6  -5  -2   19.24   31.56   0  0.66151
   6   5   2   14.90   31.70   0  0.66151
  -7  -5  -2  624.90   48.54   0  0.66151
   7   5   2  631.86   43.09   0  0.66151
  -7  -5  -2  693.50   51.31   0  0.66151
  -8  -5  -2    9.10   43.08   0  0.66151
  -8  -5  -2    8.05   46.66   0  0.66151
   8   5   2   11.63   44.89   0  0.66151
  -9  -5  -2   12.04   54.81   0  0.66151
  -9  -5  -2    7.88   42.57   0  0.66151
   9   5   2    1.02   53.39   0  0.66151
   8  -6  -2   -6.87   31.38   0  0.66151
  -8   6   2   10.79   41.25   0  0.66151
   7  -6  -2   36.79   22.65   0  0.66151
  -7   6   2   26.18   22.10   0  0.66151
  -6   6   2   27.44   25.58   0  0.66151
   6  -6  -2   27.95   18.66   0  0.66151
  -5   6   2  -10.84   18.42   0  0.66151
   5  -6  -2   27.38   26.76   0  0.66151
  -4   6   2   14.96   22.26   0  0.66151
   4  -6  -2    9.47   16.25   0  0.66151
  -3   6   2   81.02   16.89   0  0.66151
   3  -6  -2   68.39   17.79   0  0.66151
  -2   6   2    7.83   16.27   0  0.66151
   2  -6  -2    2.39   17.55   0  0.66151
  -1   6   2    3.84   12.85   0  0.66151
   1  -6  -2   15.39   19.99   0  0.66151
   0   6   2  823.53   27.21   0  0.66151
   0  -6  -2  976.65   33.37   0  0.66151
   0   6   2 1052.25   34.48   0  0.66151
   1   6   2  109.83   20.55   0  0.66151
  -1  -6  -2  145.85   23.43   0  0.66151
   1   6   2  139.87   22.98   0  0.66151
   2   6   2  492.90   42.04   0  0.66151
   2   6   2  585.76   48.44   0  0.66151
   8  -7  -2    6.32   30.81   0  0.66151
  -8   7   2   -6.59   42.65   0  0.66151
   7  -7  -2  -19.20   26.74   0  0.66151
  -7   7   2    2.51   26.26   0  0.66151
   6  -7  -2   15.73   22.06   0  0.66151
  -6   7   2   -7.93   30.88   0  0.66151
  -5   7   2  128.37   19.19   0  0.66151
   5  -7  -2  184.28   26.79   0  0.66151
  -4   7   2    1.99   18.16   0  0.66151
   4  -7  -2   -8.88   27.15   0  0.66151
  -3   7   2    9.90   21.98   0  0.66151
   3  -7  -2   25.54   16.77   0  0.66151
  -2   7   2  104.23   17.09   0  0.66151
   2  -7  -2  127.82   18.84   0  0.66151
  -1   7   2   67.07   22.82   0  0.66151
  -1   7   2   61.95   18.64   0  0.66151
   1  -7  -2   57.12   18.29   0  0.66151
   0   7   2    4.50   22.16   0  0.66151
   0   7   2    4.86   24.90   0  0.66151
   0  -7  -2   15.31   24.72   0  0.66151
  -1  -7  -2  470.39   33.25   0  0.66151
   1   7   2  492.95   33.13   0  0.66151
   1   7   2  376.64   29.13   0  0.66151
   2   7   2  148.63   42.76   0  0.66151
   2   7   2  143.37   40.12   0  0.66151
   7  -8  -2   12.74   26.48   0  0.66151
  -7   8   2   15.77   26.59   0  0.66151
   6  -8  -2   37.68   30.97   0  0.66151
  -6   8   2   28.67   21.93   0  0.66151
   5  -8  -2    5.75   21.97   0  0.66151
  -5   8   2  -12.24   21.67   0  0.66151
   4  -8  -2   46.40   19.09   0  0.66151
  -4   8   2   38.38   17.99   0  0.66151
  -3   8   2   90.68   25.71   0  0.66151
   3  -8  -2   83.80   28.32   0  0.66151
  -2   8   2   67.39   20.98   0  0.66151
   2  -8  -2   53.58   16.76   0  0.66151
  -1   8   2  223.93   20.50   0  0.66151
   1  -8  -2  201.53   20.33   0  0.66151
  -1   8   2  191.48   18.14   0  0.66151
   0   8   2   38.60   24.56   0  0.66151
   0  -8  -2   43.41   24.64   0  0.66151
   0   8   2   42.16   21.15   0  0.66151
  -1  -8  -2   21.25   24.68   0  0.66151
   1   8   2   21.58   23.84   0  0.66151
   1   8   2   17.45   20.74   0  0.66151
   7  -9  -2  -18.16   42.90   0  0.66151
  -7   9   2   10.27   44.61   0  0.66151
   6  -9  -2  -13.15   26.35   0  0.66151
  -6   9   2   35.73   36.24   0  0.66151
   5  -9  -2   33.97   22.52   0  0.66151
  -5   9   2   24.25   29.89   0  0.66151
   4  -9  -2   -3.05   22.35   0  0.66151
  -4   9   2   -2.46   21.23   0  0.66151
   3  -9  -2    1.09   26.79   0  0.66151
  -3   9   2  -10.31   17.82   0  0.66151
  -2   9   2  176.57   21.95   0  0.66151
   2  -9  -2  181.73   21.02   0  0.66151
  -2   9   2  138.13   27.32   0  0.66151
  -1   9   2  113.64   28.40   0  0.66151
   1  -9  -2   96.90   28.89   0  0.66151
  -1   9   2   74.88   25.44   0  0.66151
   0  -9  -2  224.47   23.58   0  0.66151
   0   9   2  204.51   27.88   0  0.66151
   0   9   2  270.04   24.57   0  0.66151
   1   9   2   46.53   34.18   0  0.66151
   1   9   2   38.35   25.41   0  0.66151
  -1  -9  -2   53.97   35.47   0  0.66151
   6 -10  -2    2.51   30.76   0  0.66151
  -6  10   2   -1.24   29.97   0  0.66151
   5 -10  -2  -14.66   26.75   0  0.66151
  -5  10   2  -17.21   36.31   0  0.66151
   4 -10  -2   75.41   27.99   0  0.66151
  -4  10   2   72.00   36.62   0  0.66151
  -3  10   2    4.60   22.88   0  0.66151
   3 -10  -2  -10.27   22.85   0  0.66151
  -3  10   2   10.85   29.73   0  0.66151
   2 -10  -2    6.46   32.11   0  0.66151
  -2  10   2   -8.38   29.93   0  0.66151
  -2  10   2  -22.51   32.51   0  0.66151
  -1  10   2  114.14   34.01   0  0.66151
   1 -10  -2   96.16   33.97   0  0.66151
  -1  10   2  101.30   22.12   0  0.66151
   0  10   2   27.38   32.49   0  0.66151
   0 -10  -2   12.35   33.12   0  0.66151
   0  10   2    2.34   29.65   0  0.66151
   1  10   2  117.73   34.67   0  0.66151
   1  10   2   94.58   38.33   0  0.66151
  -1 -10  -2  115.80   43.05   0  0.66151
   5 -11  -2  -18.98   31.24   0  0.66151
  -5  11   2   -3.89   30.82   0  0.66151
  -4  11   2  -24.16   45.55   0  0.66151
   4 -11  -2   -5.58   45.97   0  0.66151
  -4  11   2  -17.97   43.02   0  0.66151
   3 -11  -2   56.62   39.27   0  0.66151
  -3  11   2   47.56   26.45   0  0.66151
  -3  11   2   81.07   39.44   0  0.66151
   2 -11  -2    4.85   38.52   0  0.66151
  -2  11   2   -7.60   36.10   0  0.66151
  -2  11   2    1.42   38.47   0  0.66151
   1 -11  -2    7.55   38.77   0  0.66151
  -1  11   2   21.95   35.52   0  0.66151
  -1  11   2    1.95   38.73   0  0.66151
   0  11   2  106.42   37.34   0  0.66151
   0 -11  -2  121.45   49.65   0  0.66151
   0  11   2  138.87   40.56   0  0.66151
   1  11   2   44.30   61.28   0  0.66151
  -2  12   2   44.11   43.48   0  0.66151
   2 -12  -2   28.01   43.55   0  0.66151
  -2  12   2   14.43   41.62   0  0.66151
  -1  12   2   -9.81   44.41   0  0.66151
   1 -12  -2    2.50   44.21   0  0.66151
  -1  12   2   -2.36   41.66   0  0.66151
   0  12   2   -5.98   53.80   0  0.66151
   0  12   2   -3.13   42.16   0  0.66151
   0 -12  -2   -9.12   53.70   0  0.66151
   1 -10   3   82.67   44.04   0  0.66151
  -1  10  -3  114.69   45.02   0  0.66151
   1 -10   3  107.64   44.40   0  0.66151
   2 -10   3   28.75   42.09   0  0.66151
   2 -10   3   13.02   42.43   0  0.66151
  -2  10  -3    8.89   42.69   0  0.66151
  -3  10  -3    6.26   41.85   0  0.66151
   3 -10   3    9.65   30.75   0  0.66151
   4 -10   3  -18.57   30.57   0  0.66151
  -4  10  -3   -6.20   29.68   0  0.66151
   0   9  -3   21.41   38.82   0  0.66151
   0  -9   3   23.84   37.52   0  0.66151
   0  -9   3    3.47   39.40   0  0.66151
   1  -9   3   12.02   37.14   0  0.66151
   1  -9   3    0.36   37.65   0  0.66151
  -1   9  -3    8.64   37.56   0  0.66151
  -2   9  -3   81.79   37.14   0  0.66151
   2  -9   3   64.45   37.27   0  0.66151
   3  -9   3   -4.46   25.58   0  0.66151
  -3   9  -3    9.99   25.08   0  0.66151
   4  -9   3   12.77   25.37   0  0.66151
  -4   9  -3   -8.46   25.18   0  0.66151
   5  -9   3   16.31   37.51   0  0.66151
  -5   9  -3   65.78   36.42   0  0.66151
   6  -9   3   19.59   42.82   0  0.66151
  -6   9  -3   14.60   30.02   0  0.66151
   1   8  -3   58.58   48.10   0  0.66151
  -1  -8   3   50.11   56.34   0  0.66151
  -1  -8   3   48.70   57.66   0  0.66151
   0  -8   3   44.34   31.60   0  0.66151
   0   8  -3   65.33   32.61   0  0.66151
   0  -8   3   46.90   33.70   0  0.66151
   1  -8   3  207.38   32.97   0  0.66151
   1  -8   3  222.45   34.20   0  0.66151
  -1   8  -3  223.39   25.69   0  0.66151
   2  -8   3    5.60   30.28   0  0.66151
  -2   8  -3   12.59   29.82   0  0.66151
   3  -8   3  145.84   23.15   0  0.66151
  -3   8  -3  141.55   31.54   0  0.66151
   4  -8   3    4.70   29.85   0  0.66151
  -4   8  -3   -0.88   20.96   0  0.66151
   5  -8   3  -16.49   30.26   0  0.66151
  -5   8  -3    0.81   20.68   0  0.66151
   6  -8   3   11.03   36.17   0  0.66151
  -6   8  -3   -2.77   25.40   0  0.66151
   7  -8   3  -14.66   30.67   0  0.66151
  -7   8  -3   22.04   30.56   0  0.66151
   8  -8   3   23.76   33.16   0  0.66151
  -1  -7   3  392.04   44.14   0  0.66151
   1   7  -3  493.63   46.96   0  0.66151
  -1  -7   3  442.65   41.52   0  0.66151
   0  -7   3   20.16   25.05   0  0.66151
   0   7  -3   13.60   26.78   0  0.66151
   0  -7   3   26.95   27.29   0  0.66151
   1  -7   3   25.08   25.07   0  0.66151
   1  -7   3   20.04   26.79   0  0.66151
  -1   7  -3   28.65   26.16   0  0.66151
   2  -7   3  135.33   19.52   0  0.66151
  -2   7  -3  150.94   20.06   0  0.66151
   3  -7   3   33.17   17.95   0  0.66151
  -3   7  -3   17.58   17.89   0  0.66151
   4  -7   3   -6.02   17.72   0  0.66151
  -4   7  -3   -7.50   17.40   0  0.66151
   5  -7   3    9.57   28.20   0  0.66151
  -5   7  -3   42.97   17.71   0  0.66151
   6  -7   3   -0.85   21.26   0  0.66151
  -6   7  -3   18.55   29.54   0  0.66151
   7  -7   3   35.77   36.39   0  0.66151
  -7   7  -3   55.90   25.36   0  0.66151
   8  -7   3   35.05   30.68   0  0.66151
  -8   7  -3  101.28   29.84   0  0.66151
  -2  -6   3   94.28   36.17   0  0.66151
  -2  -6   3   90.93   31.91   0  0.66151
  -1  -6   3  159.25   31.04   0  0.66151
   1   6  -3  193.36   31.35   0  0.66151
  -1  -6   3  160.16   27.98   0  0.66151
   0   6  -3   44.22   28.56   0  0.66151
   0  -6   3   48.61   28.62   0  0.66151
   0  -6   3   40.92   18.63   0  0.66151
  -1   6  -3   38.96   15.66   0  0.66151
   1  -6   3   32.39   21.36   0  0.66151
  -2   6  -3   32.78   15.31   0  0.66151
   2  -6   3   24.19   20.81   0  0.66151
   3  -6   3  184.22   22.70   0  0.66151
  -3   6  -3  189.49   22.80   0  0.66151
   4  -6   3  128.60   19.45   0  0.66151
  -4   6  -3  115.35   26.64   0  0.66151
   5  -6   3   44.45   25.01   0  0.66151
  -5   6  -3   49.06   17.80   0  0.66151
   6  -6   3   40.13   25.14   0  0.66151
  -6   6  -3   28.04   17.76   0  0.66151
   7  -6   3   25.82   21.64   0  0.66151
  -7   6  -3   19.73   22.03   0  0.66151
   8  -6   3   -6.17   26.03   0  0.66151
  -8   6  -3   23.12   25.61   0  0.66151
   9  -6   3   26.37   31.29   0  0.66151
  -9   6  -3   52.56   31.34   0  0.66151
  -5  -5   3   14.61   50.13   0  0.66151
  -5  -5   3   11.88   50.61   0  0.66151
  -4  -5   3  401.27   47.08   0  0.66151
  -4  -5   3  438.24   46.38   0  0.66151
  -3  -5   3   83.94   34.36   0  0.66151
  -3  -5   3   87.29   26.65   0  0.66151
  -2  -5   3    1.93   29.03   0  0.66151
  -2  -5   3   -0.80   25.49   0  0.66151
   2   5  -3    6.41   28.51   0  0.66151
  -1  -5   3  169.60   24.50   0  0.66151
   1   5  -3  211.97   26.92   0  0.66151
  -1  -5   3  189.19   27.60   0  0.66151
   0   5  -3   69.38   18.18   0  0.66151
   0  -5   3   62.39   22.46   0  0.66151
   0  -5   3   75.92   25.13   0  0.66151
  -1   5  -3  289.94   26.17   0  0.66151
   1  -5   3  270.71   25.07   0  0.66151
  -2   5  -3  550.42   22.40   0  0.66151
   2  -5   3  531.33   27.04   0  0.66151
  -3   5  -3   11.99   22.00   0  0.66151
   3  -5   3   15.75   21.60   0  0.66151
   4  -5   3   39.01   15.65   0  0.66151
  -4   5  -3   44.75   15.63   0  0.66151
   5  -5   3   17.79   14.80   0  0.66151
  -5   5  -3   -3.01   15.08   0  0.66151
   6  -5   3   19.05   18.24   0  0.66151
  -6   5  -3   22.41   18.04   0  0.66151
   7  -5   3   50.59   18.14   0  0.66151
  -7   5  -3   40.22   25.11   0  0.66151
   8  -5   3  110.48   22.13   0  0.66151
  -8   5  -3   96.40   31.57   0  0.66151
   9  -5   3   51.39   25.83   0  0.66151
  -9   5  -3   37.44   25.78   0  0.66151
  -6  -4   3  183.86   39.71   0  0.66151
   6   4  -3  205.98   39.20   0  0.66151
  -6  -4   3  161.39   38.67   0  0.66151
  -5  -4   3    1.72   37.50   0  0.66151
   5   4  -3    0.57   30.59   0  0.66151
  -5  -4   3    9.92   30.53   0  0.66151
  -4  -4   3    2.59   25.66   0  0.66151
  -4  -4   3   -5.17   26.30   0  0.66151
  -3  -4   3 1114.54   41.03   0  0.66151
  -3  -4   3 1089.30   44.63   0  0.66151
  -2  -4   3   23.20   22.41   0  0.66151
  -2  -4   3   26.21   24.35   0  0.66151
   2   4  -3   21.04   24.46   0  0.66151
  -1  -4   3  224.52   27.64   0  0.66151
  -1  -4   3  198.49   25.15   0  0.66151
   1   4  -3  241.63   27.93   0  0.66151
   0  -4   3  184.40   24.42   0  0.66151
   0   4  -3  210.68   20.40   0  0.66151
   0  -4   3  220.19   20.79   0  0.66151
  -1   4  -3    9.31   13.05   0  0.66151
   1  -4   3   11.33   12.42   0  0.66151
  -2   4  -3   -1.34   17.71   0  0.66151
   2  -4   3   -5.55   17.32   0  0.66151
  -3   4  -3  211.87   17.94   0  0.66151
   3  -4   3  214.87   18.13   0  0.66151
  -4   4  -3   25.12   15.27   0  0.66151
   4  -4   3    3.77   15.61   0  0.66151
   5  -4   3   10.13   21.14   0  0.66151
  -5   4  -3  -11.35   21.82   0  0.66151
   6  -4   3  135.26   15.95   0  0.66151
  -6   4  -3  110.74   22.32   0  0.66151
   7  -4   3   15.90   17.69   0  0.66151
  -7   4  -3    7.82   18.28   0  0.66151
   8  -4   3  -11.39   29.98   0  0.66151
  -8   4  -3    0.93   21.56   0  0.66151
   9  -4   3  122.69   38.52   0  0.66151
  -9   4  -3  156.61   37.98   0  0.66151
  10  -4   3    9.20   29.63   0  0.66151
 -10   4  -3   -2.25   30.67   0  0.66151
  -7  -3   3   49.53   43.86   0  0.66151
   7   3  -3   42.87   43.96   0  0.66151
  -7  -3   3   38.77   43.49   0  0.66151
  -6  -3   3   65.99   37.37   0  0.66151
  -6  -3   3   87.07   38.43   0  0.66151
   6   3  -3   78.52   34.56   0  0.66151
  -5  -3   3  238.26   32.26   0  0.66151
  -5  -3   3  261.68   32.22   0  0.66151
   5   3  -3  231.85   31.70   0  0.66151
  -4  -3   3  282.28   31.71   0  0.66151
  -4  -3   3  300.47   31.69   0  0.66151
   4   3  -3  277.98   30.10   0  0.66151
  -3  -3   3  124.03   25.77   0  0.66151
  -3  -3   3  119.65   25.26   0  0.66151
   3   3  -3  118.97   24.68   0  0.66151
  -2  -3   3  398.85   28.69   0  0.66151
  -2  -3   3  418.33   30.48   0  0.66151
   2   3  -3  447.11   30.89   0  0.66151
   2   3  -3  401.83   23.55   0  0.66151
  -1  -3   3   35.61   13.69   0  0.66151
  -1  -3   3   30.75   14.88   0  0.66151
   1   3  -3   31.29   14.47   0  0.66151
   0  -3   3  178.48   16.45   0  0.66151
   0   3  -3  193.96   17.26   0  0.66151
   0  -3   3  194.51   17.83   0  0.66151
  -1   3  -3  665.46   26.75   0  0.66151
   1  -3   3  633.09   26.07   0  0.66151
  -2   3  -3  429.38   22.69   0  0.66151
   2  -3   3  401.34   18.78   0  0.66151
  -3   3  -3  284.73   16.52   0  0.66151
   3  -3   3  253.01   16.21   0  0.66151
  -4   3  -3  260.47   15.76   0  0.66151
   4  -3   3  275.47   16.23   0  0.66151
  -5   3  -3   89.78   16.80   0  0.66151
   5  -3   3  106.78   16.80   0  0.66151
   6  -3   3   63.63   16.06   0  0.66151
  -6   3  -3   58.60   15.97   0  0.66151
   7  -3   3  347.52   28.11   0  0.66151
  -7   3  -3  365.27   21.19   0  0.66151
   8  -3   3   41.82   17.86   0  0.66151
  -8   3  -3   28.82   18.32   0  0.66151
   9  -3   3   28.53   33.80   0  0.66151
  -9   3  -3   33.46   33.91   0  0.66151
  10  -3   3  133.51   31.25   0  0.66151
 -10   3  -3  122.26   33.25   0  0.66151
   7   2  -3   28.22   37.42   0  0.66151
  -7  -2   3   20.98   27.13   0  0.66151
  -7  -2   3   16.82   37.25   0  0.66151
  -6  -2   3  208.64   24.75   0  0.66151
   6   2  -3  218.39   33.69   0  0.66151
  -6  -2   3  251.58   33.95   0  0.66151
  -5  -2   3  615.32   33.94   0  0.66151
  -5  -2   3  568.75   32.96   0  0.66151
   5   2  -3  591.03   32.69   0  0.66151
  -4  -2   3   24.64   16.97   0  0.66151
  -4  -2   3   28.94   22.90   0  0.66151
   4   2  -3   14.87   22.49   0  0.66151
  -3  -2   3   88.46   25.12   0  0.66151
  -3  -2   3   76.96   19.08   0  0.66151
   3   2  -3   80.96   24.48   0  0.66151
   2   2  -3    1.18   13.97   0  0.66151
  -2  -2   3    3.21   14.16   0  0.66151
  -2  -2   3   11.34   19.32   0  0.66151
   2   2  -3    6.17   18.81   0  0.66151
   1   2  -3  462.43   22.76   0  0.66151
  -1  -2   3  427.49   22.01   0  0.66151
   1   2  -3  451.11   25.23   0  0.66151
  -1  -2   3  452.87   26.00   0  0.66151
   0  -2   3 1210.75   33.53   0  0.66151
   0   2  -3 1278.05   35.12   0  0.66151
   0  -2   3 1292.51   35.36   0  0.66151
  -1   2  -3   11.60   18.23   0  0.66151
   1  -2   3    1.06   18.67   0  0.66151
  -2   2  -3  102.06   14.50   0  0.66151
   2  -2   3  112.38   19.61   0  0.66151
  -3   2  -3  685.22   21.71   0  0.66151
   3  -2   3  701.54   25.43   0  0.66151
  -4   2  -3    4.23   12.10   0  0.66151
   4  -2   3    3.93   12.31   0  0.66151
  -5   2  -3  497.60   20.50   0  0.66151
   5  -2   3  481.18   20.22   0  0.66151
   6  -2   3  231.13   17.92   0  0.66151
  -6   2  -3  227.45   17.94   0  0.66151
   7  -2   3  102.26   16.19   0  0.66151
  -7   2  -3  130.11   15.98   0  0.66151
   8  -2   3  199.31   19.85   0  0.66151
  -8   2  -3  204.60   19.94   0  0.66151
   9  -2   3   24.58   31.24   0  0.66151
  -9   2  -3   24.57   21.92   0  0.66151
  10  -2   3   45.29   31.20   0  0.66151
 -10   2  -3   15.15   40.90   0  0.66151
  -8  -1   3   95.08   44.99   0  0.66151
   8   1  -3  110.33   43.26   0  0.66151
  -8  -1   3   55.98   46.47   0  0.66151
  -7  -1   3   13.12   26.78   0  0.66151
  -7  -1   3   46.79   27.19   0  0.66151
   7   1  -3   24.37   26.30   0  0.66151
  -6  -1   3   83.55   32.52   0  0.66151
  -6  -1   3   69.91   33.59   0  0.66151
   6   1  -3   75.00   31.97   0  0.66151
  -5  -1   3  402.13   31.41   0  0.66151
  -5  -1   3  400.74   25.29   0  0.66151
   5   1  -3  406.59   31.43   0  0.66151
  -4  -1   3   15.61   16.39   0  0.66151
   4   1  -3    5.45   23.26   0  0.66151
  -4  -1   3   -0.28   17.32   0  0.66151
  -3  -1   3  198.54   20.63   0  0.66151
   3   1  -3  200.71   19.88   0  0.66151
  -3  -1   3  213.00   20.71   0  0.66151
  -2  -1   3 1988.40   39.99   0  0.66151
  -2  -1   3 1921.22   37.75   0  0.66151
   2   1  -3 2121.81   39.21   0  0.66151
   2   1  -3 1839.24   38.59   0  0.66151
   1   1  -3    0.96   13.49   0  0.66151
  -1  -1   3   -3.98   14.39   0  0.66151
  -1  -1   3    1.58   13.84   0  0.66151
   1   1  -3    8.45   13.46   0  0.66151
   0   1  -3  352.45   20.67   0  0.66151
   0  -1   3  308.43   20.61   0  0.66151
   0   1  -3  324.59   20.50   0  0.66151
   0  -1   3  334.73   20.81   0  0.66151
   1  -1   3  236.45   19.70   0  0.66151
   1  -1   3  242.40   20.04   0  0.66151
  -1   1  -3  241.85   19.58   0  0.66151
  -2   1  -3    0.95   13.65   0  0.66151
   2  -1   3    0.93   14.37   0  0.66151
  -3   1  -3   24.06   12.65   0  0.66151
   3  -1   3   17.30   13.12   0  0.66151
  -4   1  -3 1210.01   26.17   0  0.66151
   4  -1   3 1223.39   29.00   0  0.66151
  -5   1  -3   -1.60   12.28   0  0.66151
   5  -1   3   -0.35   12.42   0  0.66151
   6  -1   3   12.27   21.50   0  0.66151
  -6   1  -3    3.23   15.34   0  0.66151
   7  -1   3  450.24   19.82   0  0.66151
  -7   1  -3  495.07   25.37   0  0.66151
   8  -1   3  106.67   18.88   0  0.66151
  -8   1  -3  122.75   18.86   0  0.66151
   9  -1   3   63.63   30.81   0  0.66151
  -9   1  -3   66.29   22.09   0  0.66151
  10  -1   3  119.73   42.12   0  0.66151
 -10   1  -3  168.87   27.45   0  0.66151
  -8   0   3   65.18   45.00   0  0.66151
   8   0  -3   18.19   44.38   0  0.66151
  -8   0   3   59.22   31.98   0  0.66151
  -7   0   3  360.13   26.59   0  0.66151
  -7   0   3  390.34   27.03   0  0.66151
   7   0  -3  400.36   34.66   0  0.66151
  -6   0   3   59.13   28.34   0  0.66151
  -6   0   3   81.72   27.51   0  0.66151
   6   0  -3   94.00   19.44   0  0.66151
  -5   0   3   31.97   25.52   0  0.66151
  -5   0   3    1.54   19.44   0  0.66151
   5   0  -3   12.98   15.19   0  0.66151
  -4   0   3  414.23   22.27   0  0.66151
  -4   0   3  361.67   21.73   0  0.66151
   4   0  -3  364.76   21.03   0  0.66151
  -3   0   3  188.74   17.03   0  0.66151
  -3   0   3  205.77   22.32   0  0.66151
   3   0  -3  193.47   21.40   0  0.66151
  -2   0   3  246.98   22.58   0  0.66151
   2   0  -3  257.28   17.99   0  0.66151
  -2   0   3  260.13   23.32   0  0.66151
  -1   0   3  567.10   24.18   0  0.66151
  -1   0   3  556.50   27.48   0  0.66151
   1   0  -3  509.38   23.02   0  0.66151
   1   0  -3  587.17   28.03   0  0.66151
   0   0  -3   18.43   17.45   0  0.66151
   0   0   3   20.35   18.18   0  0.66151
   0   0   3   14.57   17.60   0  0.66151
   0   0  -3   14.50   17.58   0  0.66151
   1   0   3  401.79   24.49   0  0.66151
  -1   0  -3  434.30   24.53   0  0.66151
   1   0   3  421.13   24.34   0  0.66151
  -2   0  -3  812.96   27.55   0  0.66151
   2   0   3  841.31   27.93   0  0.66151
  -3   0  -3  433.06   19.98   0  0.66151
   3   0   3  403.54   19.78   0  0.66151
  -4   0  -3    8.51   12.46   0  0.66151
   4   0   3   12.42   12.34   0  0.66151
  -5   0  -3 1260.95   26.52   0  0.66151
   5   0   3 1251.02   26.19   0  0.66151
   6   0   3   48.71   16.02   0  0.66151
  -6   0  -3   36.89   16.27   0  0.66151
   7   0   3   61.62   15.26   0  0.66151
  -7   0  -3   53.62   21.31   0  0.66151
   8   0   3  417.48   22.28   0  0.66151
  -8   0  -3  470.24   28.54   0  0.66151
   9   0   3   -0.73   21.60   0  0.66151
  -9   0  -3    2.72   21.44   0  0.66151
  10   0   3   -0.53   26.91   0  0.66151
 -10   0  -3   31.35   25.78   0  0.66151
   8  -1  -3  124.24   32.45   0  0.66151
  -8   1   3   97.92   46.68   0  0.66151
  -8   1   3  111.77   31.78   0  0.66151
  -7   1   3   91.18   32.23   0  0.66151
   7  -1  -3   98.88   32.05   0  0.66151
  -7   1   3   93.17   33.64   0  0.66151
  -6   1   3   73.18   26.96   0  0.66151
  -6   1   3   83.92   27.45   0  0.66151
   6  -1  -3   47.40   27.42   0  0.66151
  -5   1   3   26.03   15.96   0  0.66151
  -5   1   3   30.38   23.91   0  0.66151
   5  -1  -3   17.69   22.53   0  0.66151
  -4   1   3  164.40   18.89   0  0.66151
   4  -1  -3  170.94   19.01   0  0.66151
  -4   1   3  176.78   19.80   0  0.66151
  -3   1   3  299.76   18.03   0  0.66151
   3  -1  -3  305.98   17.95   0  0.66151
  -3   1   3  343.57   19.46   0  0.66151
  -2   1   3  947.28   30.38   0  0.66151
  -2   1   3  862.05   28.90   0  0.66151
   2  -1  -3  795.49   24.68   0  0.66151
   1  -1  -3  861.63   31.16   0  0.66151
  -1   1   3  787.82   29.78   0  0.66151
   1  -1  -3  768.54   26.28   0  0.66151
  -1   1   3  844.68   31.57   0  0.66151
   0   1   3  219.94   22.51   0  0.66151
   0   1   3  219.30   21.62   0  0.66151
   0  -1  -3  219.83   22.39   0  0.66151
   0  -1  -3  204.48   22.25   0  0.66151
  -1  -1  -3 1966.90   44.91   0  0.66151
   1   1   3 2025.57   45.59   0  0.66151
   1   1   3 1957.06   41.31   0  0.66151
  -1  -1  -3 1951.47   41.34   0  0.66151
   2   1   3   -1.13   17.56   0  0.66151
   2   1   3   -1.46   17.64   0  0.66151
  -2  -1  -3    3.14   17.42   0  0.66151
  -3  -1  -3  509.22   21.68   0  0.66151
   3   1   3  478.97   25.25   0  0.66151
  -4  -1  -3  995.41   28.97   0  0.66151
   4   1   3  959.76   25.21   0  0.66151
  -5  -1  -3  353.40   17.63   0  0.66151
   5   1   3  342.79   21.44   0  0.66151
   6   1   3  472.63   26.14   0  0.66151
  -6  -1  -3  496.27   26.49   0  0.66151
   7   1   3   56.21   21.08   0  0.66151
  -7  -1  -3   54.21   15.45   0  0.66151
   8   1   3  153.28   19.77   0  0.66151
  -8  -1  -3  159.28   19.48   0  0.66151
   9   1   3  230.15   24.29   0  0.66151
  -9  -1  -3  244.10   32.21   0  0.66151
  10   1   3   -0.81   31.07   0  0.66151
 -10  -1  -3   24.70   42.19   0  0.66151
  -8   2   3   14.31   42.44   0  0.66151
   8  -2  -3    5.63   41.33   0  0.66151
  -8   2   3   -9.24   26.57   0  0.66151
  -7   2   3  129.20   23.52   0  0.66151
  -7   2   3  112.28   32.95   0  0.66151
   7  -2  -3  129.22   32.24   0  0.66151
  -6   2   3   -4.35   26.43   0  0.66151
   6  -2  -3   -4.48   26.37   0  0.66151
  -6   2   3   17.70   18.64   0  0.66151
  -5   2   3   -6.18   22.75   0  0.66151
   5  -2  -3   31.41   22.82   0  0.66151
  -5   2   3   16.56   23.63   0  0.66151
  -4   2   3  564.03   22.84   0  0.66151
   4  -2  -3  577.67   28.57   0  0.66151
  -4   2   3  613.42   29.63   0  0.66151
  -3   2   3    3.00   19.99   0  0.66151
  -3   2   3    0.83   13.51   0  0.66151
   3  -2  -3    7.67   13.71   0  0.66151
  -2   2   3   19.99   19.50   0  0.66151
   2  -2  -3   20.62   14.19   0  0.66151
  -2   2   3   33.09   14.56   0  0.66151
  -1   2   3 2148.36   38.02   0  0.66151
  -1   2   3 1976.96   36.44   0  0.66151
   1  -2  -3 2183.54   38.11   0  0.66151
   1  -2  -3 2017.38   40.22   0  0.66151
   0  -2  -3  159.76   27.55   0  0.66151
   0   2   3  165.93   27.02   0  0.66151
   0  -2  -3  153.00   28.37   0  0.66151
   0   2   3  155.47   28.40   0  0.66151
  -1  -2  -3   12.11   18.96   0  0.66151
   1   2   3   10.25   27.34   0  0.66151
   1   2   3    5.38   18.80   0  0.66151
  -1  -2  -3   14.26   27.51   0  0.66151
   2   2   3 1252.26   37.81   0  0.66151
  -2  -2  -3 1378.52   39.11   0  0.66151
   2   2   3 1377.90   39.04   0  0.66151
  -3  -2  -3  212.83   22.03   0  0.66151
   3   2   3  213.05   21.50   0  0.66151
  -4  -2  -3  362.26   18.79   0  0.66151
   4   2   3  337.50   18.47   0  0.66151
  -5  -2  -3 1372.59   32.44   0  0.66151
   5   2   3 1238.43   28.70   0  0.66151
   6   2   3   91.11   22.53   0  0.66151
  -6  -2  -3   95.67   17.06   0  0.66151
   7   2   3   81.64   23.56   0  0.66151
  -7  -2  -3   63.43   19.08   0  0.66151
   8   2   3  178.96   27.51   0  0.66151
  -8  -2  -3  193.71   20.04   0  0.66151
   9   2   3   37.97   31.43   0  0.66151
  -9  -2  -3   49.19   30.06   0  0.66151
  10   2   3   96.45   31.48   0  0.66151
 -10  -2  -3   60.47   42.88   0  0.66151
   8  -3  -3   12.54   27.09   0  0.66151
  -8   3   3    4.39   27.92   0  0.66151
  -8   3   3   -0.67   26.82   0  0.66151
  -7   3   3   10.54   22.25   0  0.66151
   7  -3  -3  -10.62   22.77   0  0.66151
  -7   3   3    3.78   22.59   0  0.66151
  -6   3   3  248.61   20.85   0  0.66151
  -6   3   3  260.93   22.06   0  0.66151
   6  -3  -3  253.11   21.26   0  0.66151
  -5   3   3    6.63   15.70   0  0.66151
  -5   3   3    5.12   17.05   0  0.66151
   5  -3  -3   15.06   15.49   0  0.66151
  -4   3   3   83.84   18.31   0  0.66151
  -4   3   3   73.01   17.48   0  0.66151
   4  -3  -3   65.65   17.65   0  0.66151
  -3   3   3   12.50   19.00   0  0.66151
  -3   3   3   23.13   20.18   0  0.66151
   3  -3  -3   12.84   19.46   0  0.66151
  -2   3   3  238.31   18.18   0  0.66151
  -2   3   3  224.08   16.45   0  0.66151
   2  -3  -3  202.80   17.14   0  0.66151
  -1   3   3   -2.09   19.14   0  0.66151
   1  -3  -3    6.72   14.55   0  0.66151
  -1   3   3   -2.92   14.60   0  0.66151
   0   3   3  488.66   27.58   0  0.66151
   0   3   3  482.25   24.44   0  0.66151
   0  -3  -3  470.55   24.49   0  0.66151
   0  -3  -3  513.26   28.47   0  0.66151
   1   3   3  225.73   26.18   0  0.66151
  -1  -3  -3  211.91   20.35   0  0.66151
   1   3   3  207.28   19.76   0  0.66151
  -1  -3  -3  212.05   27.59   0  0.66151
  -2  -3  -3 1226.63   37.24   0  0.66151
   2   3   3 1173.51   35.90   0  0.66151
   2   3   3 1136.45   32.65   0  0.66151
   3   3   3 1715.43   40.39   0  0.66151
  -3  -3  -3 1911.06   42.36   0  0.66151
   3   3   3 1812.85   41.27   0  0.66151
  -4  -3  -3    1.72   12.33   0  0.66151
   4   3   3   -2.05   12.12   0  0.66151
  -5  -3  -3    5.32   22.47   0  0.66151
   5   3   3    6.38   15.55   0  0.66151
   6   3   3 1415.93   32.46   0  0.66151
  -6  -3  -3 1636.57   37.85   0  0.66151
   7   3   3   25.77   25.19   0  0.66151
  -7  -3  -3    9.22   24.79   0  0.66151
   8   3   3   21.83   30.93   0  0.66151
  -8  -3  -3   22.74   21.43   0  0.66151
   9   3   3  101.13   28.18   0  0.66151
  -9  -3  -3  115.12   36.63   0  0.66151
 -10  -3  -3    1.45   28.58   0  0.66151
  10   3   3   17.90   42.93   0  0.66151
   8  -4  -3    3.41   31.15   0  0.66151
  -8   4   3    0.86   32.34   0  0.66151
  -8   4   3    0.43   30.80   0  0.66151
  -7   4   3   15.38   32.06   0  0.66151
  -7   4   3   43.43   23.34   0  0.66151
   7  -4  -3   54.27   22.42   0  0.66151
  -6   4   3   32.73   18.49   0  0.66151
  -6   4   3   41.88   19.57   0  0.66151
   6  -4  -3   24.42   18.93   0  0.66151
  -5   4   3   28.22   15.82   0  0.66151
  -5   4   3   28.67   16.95   0  0.66151
   5  -4  -3   44.03   16.40   0  0.66151
  -4   4   3  118.42   24.15   0  0.66151
  -4   4   3  150.93   18.60   0  0.66151
   4  -4  -3  112.60   24.87   0  0.66151
  -3   4   3    4.48   21.30   0  0.66151
  -3   4   3   15.77   14.02   0  0.66151
   3  -4  -3    4.98   13.72   0  0.66151
  -2   4   3  118.09   19.99   0  0.66151
  -2   4   3  143.51   21.42   0  0.66151
   2  -4  -3  102.74   20.73   0  0.66151
  -1   4   3 1439.25   30.30   0  0.66151
  -1   4   3 1554.25   32.28   0  0.66151
   1  -4  -3 1487.86   31.21   0  0.66151
   0   4   3  246.46   18.77   0  0.66151
   0   4   3  216.70   22.24   0  0.66151
   0  -4  -3  232.06   18.92   0  0.66151
   1   4   3  277.63   25.09   0  0.66151
  -1  -4  -3  304.54   24.49   0  0.66151
   1   4   3  279.44   23.54   0  0.66151
  -1  -4  -3  270.12   25.44   0  0.66151
  -2  -4  -3    2.55   19.14   0  0.66151
   2   4   3    5.06   18.32   0  0.66151
  -2  -4  -3    3.36   20.41   0  0.66151
   2   4   3    9.98   18.94   0  0.66151
  -3  -4  -3  472.31   28.57   0  0.66151
   3   4   3  438.75   26.76   0  0.66151
   3   4   3  444.31   27.18   0  0.66151
  -4  -4  -3  935.52   34.64   0  0.66151
   4   4   3  798.49   29.18   0  0.66151
   4   4   3  934.24   33.30   0  0.66151
   5   4   3  526.45   29.94   0  0.66151
  -5  -4  -3  599.80   26.11   0  0.66151
   6   4   3   67.87   22.17   0  0.66151
  -6  -4  -3   81.43   22.68   0  0.66151
   7   4   3  373.78   30.39   0  0.66151
  -7  -4  -3  377.89   30.01   0  0.66151
  -8  -4  -3   -4.29   21.30   0  0.66151
   8   4   3   23.32   30.23   0  0.66151
  -9  -4  -3    6.47   35.93   0  0.66151
   9   4   3    0.24   38.27   0  0.66151
  -8   5   3   12.62   31.83   0  0.66151
   8  -5  -3   37.85   31.14   0  0.66151
  -8   5   3   -1.40   31.04   0  0.66151
  -7   5   3   11.79   22.10   0  0.66151
  -7   5   3   -2.09   22.91   0  0.66151
   7  -5  -3   18.45   22.21   0  0.66151
  -6   5   3  137.43   20.00   0  0.66151
  -6   5   3  162.67   28.58   0  0.66151
   6  -5  -3  134.81   27.07   0  0.66151
  -5   5   3   27.22   18.60   0  0.66151
   5  -5  -3   37.17   19.37   0  0.66151
  -5   5   3   23.47   19.88   0  0.66151
  -4   5   3   -4.20   15.78   0  0.66151
   4  -5  -3   -2.94   16.91   0  0.66151
  -4   5   3   -0.08   17.10   0  0.66151
  -3   5   3  289.67   26.04   0  0.66151
   3  -5  -3  307.46   26.97   0  0.66151
  -3   5   3  346.70   27.45   0  0.66151
  -2   5   3   32.30   14.77   0  0.66151
  -2   5   3   19.65   13.40   0  0.66151
   2  -5  -3   38.36   14.47   0  0.66151
  -1   5   3   10.81   14.09   0  0.66151
  -1   5   3    9.73   13.16   0  0.66151
   1  -5  -3   11.81   14.02   0  0.66151
   0   5   3 1522.47   36.65   0  0.66151
   0   5   3 1322.25   31.24   0  0.66151
   0  -5  -3 1396.99   36.18   0  0.66151
   1   5   3  192.60   18.29   0  0.66151
   1   5   3  171.24   21.31   0  0.66151
  -1  -5  -3  167.39   18.45   0  0.66151
  -2  -5  -3  110.23   21.82   0  0.66151
   2   5   3   90.78   20.40   0  0.66151
   2   5   3  104.66   20.94   0  0.66151
  -2  -5  -3  105.38   21.83   0  0.66151
  -3  -5  -3 1144.80   39.06   0  0.66151
   3   5   3 1106.60   39.52   0  0.66151
   3   5   3 1154.10   40.69   0  0.66151
  -4  -5  -3  518.74   33.87   0  0.66151
   4   5   3  481.28   32.88   0  0.66151
   4   5   3  402.26   30.85   0  0.66151
   5   5   3  171.87   25.48   0  0.66151
  -5  -5  -3  216.38   27.39   0  0.66151
   5   5   3  207.22   26.60   0  0.66151
   6   5   3  118.48   28.26   0  0.66151
  -6  -5  -3  131.58   28.93   0  0.66151
   6   5   3  140.93   27.97   0  0.66151
   7   5   3   71.03   26.84   0  0.66151
   7   5   3   97.33   26.14   0  0.66151
  -7  -5  -3   90.58   26.72   0  0.66151
  -8  -5  -3   42.51   34.19   0  0.66151
   8   5   3   59.43   31.42   0  0.66151
  -9  -5  -3   21.48   41.88   0  0.66151
   9   5   3   21.88   45.17   0  0.66151
  -8   6   3   64.27   30.95   0  0.66151
   8  -6  -3   -4.88   31.24   0  0.66151
  -8   6   3   36.97   30.78   0  0.66151
  -7   6   3  -23.49   26.95   0  0.66151
  -7   6   3  -11.61   27.00   0  0.66151
   7  -6  -3   -2.61   26.61   0  0.66151
  -6   6   3   12.74   21.56   0  0.66151
   6  -6  -3   -1.85   22.85   0  0.66151
  -6   6   3   15.58   22.65   0  0.66151
  -5   6   3   34.59   18.53   0  0.66151
  -5   6   3   47.60   19.46   0  0.66151
   5  -6  -3   48.10   19.37   0  0.66151
  -4   6   3   69.20   21.52   0  0.66151
   4  -6  -3   40.55   16.80   0  0.66151
  -4   6   3   48.81   17.10   0  0.66151
  -3   6   3  195.67   19.45   0  0.66151
  -3   6   3  182.13   24.20   0  0.66151
   3  -6  -3  182.99   18.26   0  0.66151
  -2   6   3  195.16   24.86   0  0.66151
   2  -6  -3  224.22   26.78   0  0.66151
  -2   6   3  267.46   27.15   0  0.66151
  -1   6   3  129.78   16.22   0  0.66151
  -1   6   3  100.44   19.98   0  0.66151
   1  -6  -3  124.08   16.21   0  0.66151
   0   6   3   13.96   14.47   0  0.66151
   0   6   3   13.12   18.60   0  0.66151
   0  -6  -3   11.84   14.40   0  0.66151
   1   6   3 1505.04   38.28   0  0.66151
   1   6   3 1729.42   41.76   0  0.66151
  -1  -6  -3 1641.72   41.08   0  0.66151
   2   6   3   -4.92   23.58   0  0.66151
   2   6   3   -2.69   24.53   0  0.66151
  -2  -6  -3    3.97   24.84   0  0.66151
   3   6   3  165.25   32.31   0  0.66151
   3   6   3  155.79   27.15   0  0.66151
   4   6   3  711.76   54.06   0  0.66151
   4   6   3  867.83   57.63   0  0.66151
   6   6   3   31.50   45.71   0  0.66151
   6   6   3   32.66   46.13   0  0.66151
  -7  -6  -3  286.26   58.36   0  0.66151
  -7  -6  -3  289.97   59.30   0  0.66151
   7   6   3  246.97   52.13   0  0.66151
   7   6   3  287.24   56.71   0  0.66151
  -8  -6  -3    8.33   52.78   0  0.66151
  -8  -6  -3    7.49   65.96   0  0.66151
   8   6   3    7.55   52.34   0  0.66151
   8   6   3   10.90   51.07   0  0.66151
  -7   7   3   -6.10   27.16   0  0.66151
   7  -7  -3   13.65   26.80   0  0.66151
  -7   7   3  -10.07   26.12   0  0.66151
  -6   7   3   23.83   22.55   0  0.66151
  -6   7   3   16.17   22.26   0  0.66151
   6  -7  -3   36.17   22.55   0  0.66151
  -5   7   3    8.50   17.49   0  0.66151
  -5   7   3   -2.53   18.74   0  0.66151
   5  -7  -3   -9.56   18.53   0  0.66151
  -4   7   3   12.63   18.09   0  0.66151
   4  -7  -3    8.36   18.99   0  0.66151
  -4   7   3   -6.17   19.68   0  0.66151
  -3   7   3  176.14   17.69   0  0.66151
   3  -7  -3  156.90   25.34   0  0.66151
  -3   7   3  171.97   26.02   0  0.66151
  -2   7   3  129.75   23.42   0  0.66151
   2  -7  -3  127.86   25.57   0  0.66151
  -2   7   3  130.34   26.19   0  0.66151
  -1   7   3  385.08   22.42   0  0.66151
  -1   7   3  317.62   20.42   0  0.66151
   1  -7  -3  358.88   21.75   0  0.66151
   0   7   3  253.87   21.51   0  0.66151
   0   7   3  217.84   19.16   0  0.66151
   0  -7  -3  244.56   21.28   0  0.66151
   1   7   3  105.34   24.50   0  0.66151
  -1  -7  -3  127.94   26.94   0  0.66151
   1   7   3  133.90   26.76   0  0.66151
   2   7   3  621.64   33.97   0  0.66151
   2   7   3  703.45   36.77   0  0.66151
  -2  -7  -3  722.34   37.53   0  0.66151
   3   7   3   37.23   31.65   0  0.66151
   3   7   3   36.85   34.24   0  0.66151
  -7   8   3  -27.71   31.92   0  0.66151
   7  -8  -3   10.49   30.67   0  0.66151
  -7   8   3  -11.66   30.74   0  0.66151
  -6   8   3    5.38   36.83   0  0.66151
  -6   8   3   -0.16   26.80   0  0.66151
   6  -8  -3    6.20   26.58   0  0.66151
  -5   8   3  103.20   22.58   0  0.66151
  -5   8   3  121.94   23.78   0  0.66151
   5  -8  -3  111.98   23.62   0  0.66151
  -4   8   3   -5.32   17.59   0  0.66151
   4  -8  -3  -10.46   19.17   0  0.66151
  -4   8   3    4.93   19.04   0  0.66151
  -3   8   3    9.20   17.95   0  0.66151
  -3   8   3   20.04   19.51   0  0.66151
   3  -8  -3   21.06   19.20   0  0.66151
  -2   8   3  150.47   16.66   0  0.66151
  -2   8   3  171.78   19.26   0  0.66151
   2  -8  -3  141.66   18.66   0  0.66151
  -1   8   3   44.86   21.28   0  0.66151
  -1   8   3   46.24   23.79   0  0.66151
   1  -8  -3   32.27   24.31   0  0.66151
   0   8   3   13.13   21.72   0  0.66151
   0   8   3   12.69   24.39   0  0.66151
   0  -8  -3   20.38   24.67   0  0.66151
   1   8   3  656.13   31.22   0  0.66151
  -1  -8  -3  773.20   35.41   0  0.66151
   1   8   3  826.19   35.41   0  0.66151
   2   8   3  267.08   31.10   0  0.66151
   2   8   3  313.21   30.27   0  0.66151
  -2  -8  -3  320.52   31.07   0  0.66151
  -6   9   3   -3.67   31.95   0  0.66151
   6  -9  -3   61.62   31.03   0  0.66151
  -6   9   3    4.04   26.98   0  0.66151
  -5   9   3   19.33   35.25   0  0.66151
   5  -9  -3   28.26   35.20   0  0.66151
  -5   9   3   33.08   25.97   0  0.66151
  -4   9   3   75.50   22.76   0  0.66151
  -4   9   3  109.36   23.78   0  0.66151
   4  -9  -3   99.82   23.79   0  0.66151
  -3   9   3   10.63   24.87   0  0.66151
   3  -9  -3    7.32   26.61   0  0.66151
  -3   9   3   24.44   26.25   0  0.66151
  -2   9   3   22.55   17.86   0  0.66151
   2  -9  -3   17.83   19.19   0  0.66151
  -2   9   3   32.23   19.41   0  0.66151
  -1   9   3  285.58   21.97   0  0.66151
  -1   9   3  343.57   32.20   0  0.66151
   1  -9  -3  318.21   30.88   0  0.66151
   0   9   3   37.88   25.51   0  0.66151
   0   9   3   40.77   28.14   0  0.66151
   0  -9  -3   38.84   28.85   0  0.66151
   1   9   3   -1.43   27.54   0  0.66151
  -1  -9  -3   -2.73   28.18   0  0.66151
   1   9   3   -7.17   17.53   0  0.66151
   2   9   3  235.47   36.74   0  0.66151
  -2  -9  -3  274.37   41.08   0  0.66151
   2   9   3  276.16   39.40   0  0.66151
   6 -10  -3  -11.43   30.36   0  0.66151
   5 -10  -3   17.52   42.24   0  0.66151
  -5  10   3   35.08   42.50   0  0.66151
  -5  10   3   47.30   26.55   0  0.66151
   4 -10  -3  -11.96   38.33   0  0.66151
  -4  10   3    1.92   38.33   0  0.66151
  -4  10   3    7.30   25.68   0  0.66151
  -3  10   3   25.97   32.38   0  0.66151
   3 -10  -3   19.44   32.74   0  0.66151
  -3  10   3   -2.18   30.21   0  0.66151
  -2  10   3   40.25   23.43   0  0.66151
   2 -10  -3   40.07   23.46   0  0.66151
  -2  10   3   34.28   30.39   0  0.66151
   1 -10  -3  116.67   33.81   0  0.66151
  -1  10   3  138.80   34.27   0  0.66151
  -1  10   3  104.80   31.33   0  0.66151
   0  10   3  256.20   27.01   0  0.66151
   0 -10  -3  225.22   26.79   0  0.66151
   0  10   3  209.97   24.15   0  0.66151
   1  10   3   29.66   33.13   0  0.66151
  -1 -10  -3   46.77   33.20   0  0.66151
   1  10   3   18.43   30.23   0  0.66151
  -5  11   3   -6.77   35.31   0  0.66151
   4 -11  -3   24.81   32.23   0  0.66151
  -4  11   3   64.23   32.21   0  0.66151
  -4  11   3   43.84   42.41   0  0.66151
  -3  11   3    4.62   27.29   0  0.66151
   3 -11  -3   18.58   27.47   0  0.66151
  -3  11   3    7.07   35.85   0  0.66151
  -2  11   3   16.27   37.77   0  0.66151
   2 -11  -3   -6.35   39.34   0  0.66151
  -2  11   3   -0.83   36.22   0  0.66151
  -1  11   3   88.51   39.61   0  0.66151
   1 -11  -3   92.58   39.88   0  0.66151
  -1  11   3   81.52   26.77   0  0.66151
   0 -11  -3   40.96   39.74   0  0.66151
   0  11   3   85.68   38.67   0  0.66151
   0  11   3   62.55   36.03   0  0.66151
   1  11   3  151.78   40.94   0  0.66151
   1  11   3  107.11   45.71   0  0.66151
  -1 -11  -3  123.97   41.57   0  0.66151
  -3  12   3   66.43   33.24   0  0.66151
   2 -12  -3    2.10   44.00   0  0.66151
  -2  12   3   19.22   29.44   0  0.66151
  -2  12   3   10.97   44.02   0  0.66151
  -1  12   3   27.93   43.97   0  0.66151
   1 -12  -3  -39.37   45.97   0  0.66151
  -1  12   3  -14.79   42.01   0  0.66151
   0  12   3   36.01   43.53   0  0.66151
   0 -12  -3   71.43   46.19   0  0.66151
   0  12   3   71.34   45.22   0  0.66151
   1  12   3   10.46   50.65   0  0.66151
   1  12   3    9.09   53.27   0  0.66151
  -1 -12  -3   13.45   53.47   0  0.66151
   0  -9   4  -10.90   52.16   0  0.66151
   0  -9   4   -1.06   53.21   0  0.66151
   0   9  -4   15.23   53.62   0  0.66151
   1  -9   4  105.77   44.39   0  0.66151
  -1   9  -4  123.06   45.75   0  0.66151
   1  -9   4  107.72   46.40   0  0.66151
   2  -9   4   -4.92   30.26   0  0.66151
  -2   9  -4    0.51   40.37   0  0.66151
   2  -9   4    0.72   43.32   0  0.66151
  -3   9  -4   17.01   30.16   0  0.66151
   3  -9   4   36.86   30.02   0  0.66151
   4  -9   4    1.41   30.21   0  0.66151
  -4   9  -4  -10.92   42.58   0  0.66151
   5  -9   4    9.28   29.90   0  0.66151
  -5   9  -4  -17.49   42.06   0  0.66151
  -1  -8   4   51.80   54.47   0  0.66151
   1   8  -4   67.33   49.78   0  0.66151
  -1  -8   4   47.10   57.09   0  0.66151
   0  -8   4   18.83   36.72   0  0.66151
   0  -8   4   22.98   39.11   0  0.66151
   0   8  -4   34.17   38.43   0  0.66151
   1  -8   4   11.68   35.88   0  0.66151
  -1   8  -4   -1.81   37.26   0  0.66151
   1  -8   4   -6.52   37.93   0  0.66151
   2  -8   4   49.88   30.61   0  0.66151
   2  -8   4   66.26   22.70   0  0.66151
  -2   8  -4   72.44   22.46   0  0.66151
   3  -8   4   11.39   30.20   0  0.66151
  -3   8  -4    7.74   21.25   0  0.66151
   4  -8   4   10.16   33.18   0  0.66151
  -4   8  -4  -21.26   33.17   0  0.66151
   5  -8   4   30.66   36.22   0  0.66151
  -5   8  -4   13.72   25.30   0  0.66151
   6  -8   4    7.40   36.58   0  0.66151
  -6   8  -4   10.18   36.44   0  0.66151
   7  -8   4  -30.07   30.23   0  0.66151
  -7   8  -4   13.50   41.89   0  0.66151
  -2  -7   4   67.48   69.43   0  0.66151
  -1  -7   4   19.89   30.01   0  0.66151
  -1  -7   4   21.40   40.63   0  0.66151
   1   7  -4   33.53   32.93   0  0.66151
   0   7  -4   93.05   32.80   0  0.66151
   0  -7   4   73.66   33.11   0  0.66151
   0  -7   4   68.81   30.55   0  0.66151
  -1   7  -4   75.20   31.49   0  0.66151
   1  -7   4   42.53   32.37   0  0.66151
   1  -7   4   38.74   29.46   0  0.66151
   2  -7   4    4.06   24.61   0  0.66151
  -2   7  -4    6.54   24.99   0  0.66151
   3  -7   4   34.32   24.84   0  0.66151
  -3   7  -4   38.43   24.61   0  0.66151
   4  -7   4   68.46   21.42   0  0.66151
  -4   7  -4   33.83   30.77   0  0.66151
   5  -7   4   -2.25   21.13   0  0.66151
  -5   7  -4    0.92   20.63   0  0.66151
   6  -7   4    3.11   21.47   0  0.66151
  -6   7  -4   31.78   29.93   0  0.66151
   7  -7   4   69.07   35.96   0  0.66151
  -7   7  -4   78.47   25.79   0  0.66151
   8  -7   4  -17.23   30.72   0  0.66151
  -8   7  -4   -4.82   30.33   0  0.66151
  -3  -6   4    7.50   52.40   0  0.66151
  -3  -6   4    1.16   49.56   0  0.66151
  -2  -6   4   -1.18   40.51   0  0.66151
  -2  -6   4    3.23   35.82   0  0.66151
   1   6  -4  285.20   32.09   0  0.66151
  -1  -6   4  272.20   32.07   0  0.66151
  -1  -6   4  232.24   28.74   0  0.66151
   0   6  -4   29.28   26.70   0  0.66151
   0  -6   4   29.62   27.80   0  0.66151
   0  -6   4   23.03   24.69   0  0.66151
  -1   6  -4   55.24   26.74   0  0.66151
   1  -6   4   49.60   27.32   0  0.66151
   1  -6   4   47.35   17.87   0  0.66151
  -2   6  -4  183.11   20.98   0  0.66151
   2  -6   4  199.20   26.12   0  0.66151
  -3   6  -4   18.84   25.42   0  0.66151
   3  -6   4   22.21   25.02   0  0.66151
   4  -6   4   -3.87   24.43   0  0.66151
  -4   6  -4    9.65   24.68   0  0.66151
   5  -6   4   67.49   18.25   0  0.66151
  -5   6  -4  120.11   18.66   0  0.66151
   6  -6   4    9.24   20.88   0  0.66151
  -6   6  -4   21.78   29.28   0  0.66151
   7  -6   4   -1.91   21.56   0  0.66151
  -7   6  -4    5.79   29.81   0  0.66151
   8  -6   4  143.74   26.86   0  0.66151
  -8   6  -4  143.07   26.74   0  0.66151
   9  -6   4  -14.31   41.85   0  0.66151
  -9   6  -4   20.08   29.20   0  0.66151
  -5  -5   4   13.46   50.53   0  0.66151
  -5  -5   4    5.50   51.63   0  0.66151
  -4  -5   4   12.21   36.78   0  0.66151
  -4  -5   4   10.35   43.19   0  0.66151
  -3  -5   4  278.92   44.25   0  0.66151
  -3  -5   4  266.90   34.39   0  0.66151
   2   5  -4   46.85   27.62   0  0.66151
  -2  -5   4   26.39   27.83   0  0.66151
  -2  -5   4   19.17   25.18   0  0.66151
   1   5  -4    9.24   27.20   0  0.66151
  -1  -5   4   -7.73   27.71   0  0.66151
  -1  -5   4    6.82   24.55   0  0.66151
   0   5  -4   40.76   22.74   0  0.66151
   0  -5   4   29.65   15.16   0  0.66151
   0  -5   4   40.93   23.17   0  0.66151
   1  -5   4   28.98   21.13   0  0.66151
   1  -5   4   20.93   23.13   0  0.66151
  -1   5  -4   25.32   22.14   0  0.66151
  -2   5  -4    3.24   21.87   0  0.66151
   2  -5   4    8.71   14.70   0  0.66151
  -3   5  -4  168.37   17.39   0  0.66151
   3  -5   4  141.95   22.82   0  0.66151
  -4   5  -4  187.36   22.57   0  0.66151
   4  -5   4  168.84   16.94   0  0.66151
  -5   5  -4   45.27   17.94   0  0.66151
   5  -5   4   41.65   18.27   0  0.66151
   6  -5   4  262.75   26.85   0  0.66151
  -6   5  -4  264.69   20.51   0  0.66151
   7  -5   4   29.34   29.84   0  0.66151
  -7   5  -4   25.68   21.54   0  0.66151
   8  -5   4    8.43   31.06   0  0.66151
  -8   5  -4    8.17   31.22   0  0.66151
   9  -5   4  104.41   31.29   0  0.66151
  -9   5  -4  108.38   40.99   0  0.66151
  -6  -4   4   13.52   43.45   0  0.66151
  -5  -4   4   55.93   36.54   0  0.66151
  -5  -4   4   39.26   37.80   0  0.66151
  -4  -4   4  172.36   32.67   0  0.66151
  -4  -4   4  184.10   34.01   0  0.66151
  -3  -4   4   12.16   25.07   0  0.66151
  -3  -4   4    4.31   27.62   0  0.66151
  -2  -4   4    3.54   25.74   0  0.66151
  -2  -4   4   13.13   27.79   0  0.66151
   2   4  -4   22.81   27.55   0  0.66151
  -1  -4   4    8.11   21.64   0  0.66151
   1   4  -4   12.23   23.25   0  0.66151
  -1  -4   4   20.49   23.50   0  0.66151
   0   4  -4   54.17   24.76   0  0.66151
   0  -4   4   60.44   22.58   0  0.66151
   0  -4   4   56.49   24.36   0  0.66151
   1  -4   4   42.94   16.43   0  0.66151
  -1   4  -4   45.50   23.55   0  0.66151
   1  -4   4   44.67   24.00   0  0.66151
  -2   4  -4  511.89   21.94   0  0.66151
   2  -4   4  459.50   26.26   0  0.66151
  -3   4  -4   46.85   22.66   0  0.66151
   3  -4   4   39.67   22.14   0  0.66151
  -4   4  -4  155.28   17.27   0  0.66151
   4  -4   4  122.48   23.00   0  0.66151
  -5   4  -4  182.00   17.70   0  0.66151
   5  -4   4  164.66   17.17   0  0.66151
   6  -4   4   81.11   18.85   0  0.66151
  -6   4  -4   95.58   18.34   0  0.66151
   7  -4   4   39.50   25.02   0  0.66151
  -7   4  -4   31.71   25.09   0  0.66151
   8  -4   4  274.60   23.64   0  0.66151
  -8   4  -4  276.76   24.34   0  0.66151
   9  -4   4   30.24   24.98   0  0.66151
  -9   4  -4   22.05   26.08   0  0.66151
  10  -4   4   31.59   42.05   0  0.66151
 -10   4  -4   66.26   41.85   0  0.66151
  -6  -3   4   65.56   45.20   0  0.66151
  -6  -3   4   92.43   44.78   0  0.66151
   6   3  -4   83.71   44.24   0  0.66151
  -5  -3   4    6.21   31.51   0  0.66151
  -5  -3   4   -2.90   22.19   0  0.66151
   5   3  -4    2.17   21.51   0  0.66151
  -4  -3   4   -5.27   27.02   0  0.66151
  -4  -3   4    3.63   25.56   0  0.66151
   4   3  -4    2.17   25.65   0  0.66151
  -3  -3   4  155.76   29.39   0  0.66151
   3   3  -4  139.00   20.75   0  0.66151
  -3  -3   4  151.08   20.81   0  0.66151
  -2  -3   4   38.94   23.08   0  0.66151
  -2  -3   4   40.55   17.32   0  0.66151
   2   3  -4   29.15   17.90   0  0.66151
  -1  -3   4   10.33   22.56   0  0.66151
   1   3  -4   -1.20   24.28   0  0.66151
  -1  -3   4    2.43   24.19   0  0.66151
   0   3  -4  438.30   28.62   0  0.66151
   0  -3   4  401.15   22.59   0  0.66151
   0  -3   4  400.79   21.51   0  0.66151
   1  -3   4  195.27   20.03   0  0.66151
  -1   3  -4  208.06   16.35   0  0.66151
   1  -3   4  218.95   16.78   0  0.66151
   2  -3   4   31.70   13.02   0  0.66151
  -2   3  -4   48.90   18.31   0  0.66151
  -3   3  -4  681.08   24.82   0  0.66151
   3  -3   4  690.39   24.60   0  0.66151
  -4   3  -4   88.25   16.46   0  0.66151
   4  -3   4   76.03   16.42   0  0.66151
  -5   3  -4   52.00   22.47   0  0.66151
   5  -3   4   63.48   22.18   0  0.66151
  -6   3  -4  863.48   22.98   0  0.66151
   6  -3   4  815.84   27.36   0  0.66151
   7  -3   4   72.66   25.67   0  0.66151
  -7   3  -4  105.75   25.24   0  0.66151
   8  -3   4    9.39   21.57   0  0.66151
  -8   3  -4   -6.17   21.38   0  0.66151
   9  -3   4   91.67   34.28   0  0.66151
  -9   3  -4  117.57   22.79   0  0.66151
  10  -3   4   24.00   31.21   0  0.66151
 -10   3  -4   -3.03   43.66   0  0.66151
  -7  -2   4    6.34   30.59   0  0.66151
   7   2  -4    8.62   29.65   0  0.66151
  -6  -2   4   18.17   27.43   0  0.66151
  -6  -2   4   14.85   27.53   0  0.66151
   6   2  -4   11.15   26.64   0  0.66151
  -5  -2   4  121.85   33.41   0  0.66151
  -5  -2   4  141.22   32.82   0  0.66151
   5   2  -4  131.01   31.93   0  0.66151
  -4  -2   4  100.37   28.36   0  0.66151
  -4  -2   4   93.85   20.42   0  0.66151
   4   2  -4   97.42   27.29   0  0.66151
  -3  -2   4   66.61   23.63   0  0.66151
  -3  -2   4   48.50   16.92   0  0.66151
   3   2  -4   53.44   16.66   0  0.66151
  -2  -2   4  445.40   29.26   0  0.66151
   2   2  -4  492.82   24.15   0  0.66151
  -2  -2   4  441.24   28.19   0  0.66151
   2   2  -4  431.36   22.19   0  0.66151
   1   2  -4  253.85   20.62   0  0.66151
  -1  -2   4  244.40   20.79   0  0.66151
   1   2  -4  261.32   25.94   0  0.66151
  -1  -2   4  271.22   26.11   0  0.66151
   0  -2   4    2.10   18.27   0  0.66151
   0   2  -4   -0.29   18.86   0  0.66151
   0  -2   4    3.66   13.44   0  0.66151
   1  -2   4   89.39   14.20   0  0.66151
  -1   2  -4   79.89   19.28   0  0.66151
   1  -2   4   92.13   14.43   0  0.66151
  -2   2  -4   75.82   13.83   0  0.66151
   2  -2   4   71.03   13.41   0  0.66151
  -3   2  -4   57.11   13.16   0  0.66151
   3  -2   4   55.87   13.36   0  0.66151
  -4   2  -4  789.82   21.46   0  0.66151
   4  -2   4  786.50   21.37   0  0.66151
  -5   2  -4   76.24   16.34   0  0.66151
   5  -2   4   69.03   16.20   0  0.66151
  -6   2  -4  394.38   19.28   0  0.66151
   6  -2   4  409.52   24.46   0  0.66151
   7  -2   4  446.96   29.05   0  0.66151
  -7   2  -4  438.14   29.47   0  0.66151
   8  -2   4   37.34   24.67   0  0.66151
  -8   2  -4  -16.69   18.15   0  0.66151
   9  -2   4   -9.59   21.45   0  0.66151
  -9   2  -4    0.84   30.58   0  0.66151
  10  -2   4  173.32   31.93   0  0.66151
 -10   2  -4  194.50   31.81   0  0.66151
  -7  -1   4  -23.38   44.75   0  0.66151
   7   1  -4    2.36   30.91   0  0.66151
  -7  -1   4   18.02   31.02   0  0.66151
  -6  -1   4   44.98   23.41   0  0.66151
   6   1  -4   56.47   31.40   0  0.66151
  -6  -1   4   59.06   23.54   0  0.66151
  -5  -1   4    3.27   26.85   0  0.66151
   5   1  -4   -4.29   18.57   0  0.66151
  -5  -1   4    7.93   18.66   0  0.66151
  -4  -1   4   -0.37   20.09   0  0.66151
  -4  -1   4   16.27   27.47   0  0.66151
   4   1  -4   -4.39   19.61   0  0.66151
  -3  -1   4  189.70   19.53   0  0.66151
  -3  -1   4  195.90   26.28   0  0.66151
   3   1  -4  178.07   18.73   0  0.66151
   2   1  -4   25.81   17.80   0  0.66151
  -2  -1   4   22.89   17.65   0  0.66151
  -2  -1   4    7.46   17.72   0  0.66151
   2   1  -4   17.09   17.03   0  0.66151
   1   1  -4    1.08   19.25   0  0.66151
  -1  -1   4    1.77   19.11   0  0.66151
  -1  -1   4    1.68   13.61   0  0.66151
   1   1  -4    4.77   13.01   0  0.66151
   0   1  -4 1616.38   35.41   0  0.66151
   0  -1   4 1569.41   34.83   0  0.66151
   0   1  -4 1529.49   31.39   0  0.66151
   0  -1   4 1561.37   34.51   0  0.66151
   1  -1   4   84.91   19.79   0  0.66151
  -1   1  -4   87.93   19.70   0  0.66151
   1  -1   4   74.34   20.26   0  0.66151
  -2   1  -4  506.60   24.08   0  0.66151
   2  -1   4  499.04   24.04   0  0.66151
  -3   1  -4 1363.59   27.58   0  0.66151
   3  -1   4 1338.25   27.28   0  0.66151
  -4   1  -4  391.86   17.36   0  0.66151
   4  -1   4  362.47   17.38   0  0.66151
  -5   1  -4  574.13   26.41   0  0.66151
   5  -1   4  570.33   24.41   0  0.66151
  -6   1  -4  628.12   21.22   0  0.66151
   6  -1   4  593.50   26.12   0  0.66151
   7  -1   4  119.23   16.06   0  0.66151
  -7   1  -4  118.29   16.12   0  0.66151
   8  -1   4  284.93   20.32   0  0.66151
  -8   1  -4  279.64   20.42   0  0.66151
   9  -1   4   53.95   21.83   0  0.66151
  -9   1  -4   46.77   21.97   0  0.66151
  10  -1   4   64.07   26.17   0  0.66151
 -10   1  -4   34.05   37.34   0  0.66151
  -7   0   4  -19.31   38.47   0  0.66151
   7   0  -4  -26.62   27.46   0  0.66151
  -7   0   4    9.16   26.97   0  0.66151
  -6   0   4   53.71   22.87   0  0.66151
  -6   0   4   85.44   32.17   0  0.66151
   6   0  -4   61.87   31.65   0  0.66151
  -5   0   4   41.42   19.74   0  0.66151
  -5   0   4    0.86   28.28   0  0.66151
   5   0  -4   40.53   26.38   0  0.66151
  -4   0   4   29.95   22.53   0  0.66151
   4   0  -4   19.52   22.67   0  0.66151
  -4   0   4   13.44   23.54   0  0.66151
  -3   0   4   10.44   17.71   0  0.66151
   3   0  -4    6.61   17.06   0  0.66151
  -3   0   4   15.73   17.34   0  0.66151
  -2   0   4  740.76   27.64   0  0.66151
  -2   0   4  682.90   23.28   0  0.66151
   2   0  -4  784.68   24.16   0  0.66151
   2   0  -4  707.67   26.45   0  0.66151
   1   0  -4  332.21   18.78   0  0.66151
  -1   0   4  341.08   23.56   0  0.66151
  -1   0   4  328.54   18.38   0  0.66151
   1   0  -4  294.18   18.19   0  0.66151
   0   0   4   20.40   19.58   0  0.66151
   0   0   4   36.85   20.65   0  0.66151
   0   0  -4   33.65   19.52   0  0.66151
   0   0  -4   33.82   19.45   0  0.66151
   1   0   4  437.69   20.45   0  0.66151
  -1   0  -4  419.51   20.26   0  0.66151
   1   0   4  411.85   20.23   0  0.66151
   2   0   4   79.25   14.51   0  0.66151
   2   0   4   76.60   19.89   0  0.66151
  -2   0  -4   88.68   19.43   0  0.66151
  -3   0  -4    6.56   17.83   0  0.66151
   3   0   4   11.68   18.02   0  0.66151
  -4   0  -4 5219.94   51.18   0  0.66151
   4   0   4 5182.94   48.76   0  0.66151
  -5   0  -4  157.46   19.07   0  0.66151
   5   0   4  157.26   19.19   0  0.66151
  -6   0  -4  101.71   16.68   0  0.66151
   6   0   4  113.10   16.36   0  0.66151
   7   0   4  242.74   23.37   0  0.66151
  -7   0  -4  259.46   17.89   0  0.66151
   8   0   4  237.40   20.76   0  0.66151
  -8   0  -4  268.48   20.66   0  0.66151
   9   0   4   54.71   30.00   0  0.66151
  -9   0  -4   41.36   21.24   0  0.66151
  10   0   4   80.87   37.77   0  0.66151
 -10   0  -4   59.48   37.49   0  0.66151
  -7   1   4   12.56   27.20   0  0.66151
  -7   1   4   20.62   38.52   0  0.66151
   7  -1  -4   23.48   26.77   0  0.66151
  -6   1   4   87.94   32.55   0  0.66151
  -6   1   4   91.55   23.90   0  0.66151
   6  -1  -4   82.05   23.38   0  0.66151
  -5   1   4   18.01   19.42   0  0.66151
  -5   1   4    9.62   19.80   0  0.66151
   5  -1  -4   14.02   19.22   0  0.66151
  -4   1   4   86.45   17.22   0  0.66151
  -4   1   4   87.54   24.37   0  0.66151
   4  -1  -4   79.50   17.17   0  0.66151
  -3   1   4  691.02   30.00   0  0.66151
  -3   1   4  785.46   30.72   0  0.66151
   3  -1  -4  691.66   29.60   0  0.66151
  -2   1   4  310.83   18.77   0  0.66151
  -2   1   4  282.84   22.53   0  0.66151
   2  -1  -4  293.66   17.95   0  0.66151
  -1   1   4   69.43   15.23   0  0.66151
  -1   1   4   62.65   19.92   0  0.66151
   1  -1  -4   61.58   14.48   0  0.66151
   1  -1  -4   62.56   14.75   0  0.66151
   0   1   4   -4.11   20.72   0  0.66151
   0   1   4   -5.95   19.27   0  0.66151
   0  -1  -4    0.32   13.85   0  0.66151
   0  -1  -4   -0.92   14.05   0  0.66151
  -1  -1  -4  729.76   24.32   0  0.66151
   1   1   4  718.14   24.15   0  0.66151
   1   1   4  728.67   24.87   0  0.66151
  -1  -1  -4  703.02   24.46   0  0.66151
   2   1   4 2536.11   38.41   0  0.66151
   2   1   4 2626.93   41.36   0  0.66151
  -2  -1  -4 2630.57   41.58   0  0.66151
  -3  -1  -4   68.70   14.28   0  0.66151
   3   1   4   68.05   14.29   0  0.66151
  -4  -1  -4  270.09   20.82   0  0.66151
   4   1   4  264.73   20.53   0  0.66151
  -5  -1  -4  882.57   26.43   0  0.66151
   5   1   4  864.33   26.38   0  0.66151
  -6  -1  -4   33.65   22.63   0  0.66151
   6   1   4   30.76   22.28   0  0.66151
   7   1   4   26.04   15.40   0  0.66151
  -7  -1  -4   28.32   21.51   0  0.66151
   8   1   4  627.74   30.15   0  0.66151
  -8  -1  -4  673.32   24.81   0  0.66151
   9   1   4   12.34   21.77   0  0.66151
  -9  -1  -4   15.33   21.29   0  0.66151
  10   1   4    2.95   37.59   0  0.66151
 -10  -1  -4   27.27   25.76   0  0.66151
  -8   2   4   67.38   31.90   0  0.66151
   8  -2  -4   42.27   34.77   0  0.66151
  -7   2   4  -15.09   27.44   0  0.66151
   7  -2  -4   15.85   26.33   0  0.66151
  -7   2   4   13.50   27.28   0  0.66151
  -6   2   4   14.93   32.37   0  0.66151
   6  -2  -4   25.56   31.86   0  0.66151
  -6   2   4   15.14   22.93   0  0.66151
  -5   2   4  133.09   28.04   0  0.66151
   5  -2  -4  150.39   28.07   0  0.66151
  -5   2   4  166.95   29.00   0  0.66151
  -4   2   4   32.23   17.31   0  0.66151
   4  -2  -4   40.30   17.01   0  0.66151
  -4   2   4   38.87   17.73   0  0.66151
  -3   2   4   78.33   18.51   0  0.66151
  -3   2   4   64.11   17.68   0  0.66151
   3  -2  -4   58.66   17.83   0  0.66151
  -2   2   4  632.66   21.51   0  0.66151
  -2   2   4  726.39   22.84   0  0.66151
   2  -2  -4  619.90   21.54   0  0.66151
  -1   2   4   10.06   13.49   0  0.66151
   1  -2  -4   14.53   13.69   0  0.66151
   1  -2  -4    7.94   13.61   0  0.66151
  -1   2   4    8.94   14.56   0  0.66151
   0   2   4  435.23   20.79   0  0.66151
   0  -2  -4  449.38   24.77   0  0.66151
   0   2   4  409.43   23.89   0  0.66151
   0  -2  -4  438.75   25.46   0  0.66151
  -1  -2  -4 1953.94   38.32   0  0.66151
   1   2   4 1903.21   35.58   0  0.66151
   1   2   4 1883.94   37.52   0  0.66151
  -1  -2  -4 1926.64   35.33   0  0.66151
   2   2   4 3167.94   43.58   0  0.66151
  -2  -2  -4 3276.56   46.46   0  0.66151
   2   2   4 3107.42   45.51   0  0.66151
   3   2   4 1039.97   29.67   0  0.66151
   3   2   4 1030.34   26.52   0  0.66151
  -3  -2  -4 1006.45   26.67   0  0.66151
  -4  -2  -4  428.91   19.59   0  0.66151
   4   2   4  420.61   19.10   0  0.66151
  -5  -2  -4  428.18   18.95   0  0.66151
   5   2   4  414.65   18.82   0  0.66151
  -6  -2  -4 1208.38   28.30   0  0.66151
   6   2   4 1152.47   31.65   0  0.66151
   7   2   4   39.34   15.24   0  0.66151
  -7  -2  -4   39.00   21.34   0  0.66151
   8   2   4   62.23   25.40   0  0.66151
  -8  -2  -4   65.79   18.07   0  0.66151
   9   2   4  157.87   23.12   0  0.66151
  -9  -2  -4  145.85   23.45   0  0.66151
  10   2   4  -13.05   44.02   0  0.66151
 -10  -2  -4   13.97   42.01   0  0.66151
   8  -3  -4   14.16   45.35   0  0.66151
  -8   3   4  -34.63   47.73   0  0.66151
  -7   3   4   -6.76   27.61   0  0.66151
   7  -3  -4   53.02   36.68   0  0.66151
  -7   3   4   15.23   38.45   0  0.66151
  -6   3   4    4.28   22.70   0  0.66151
  -6   3   4  -19.30   23.09   0  0.66151
   6  -3  -4   -7.86   22.53   0  0.66151
  -5   3   4   72.56   19.88   0  0.66151
   5  -3  -4   79.60   19.78   0  0.66151
  -5   3   4   72.40   20.88   0  0.66151
  -4   3   4  246.72   19.46   0  0.66151
   4  -3  -4  263.26   19.37   0  0.66151
  -4   3   4  276.37   20.20   0  0.66151
  -3   3   4  110.20   18.36   0  0.66151
   3  -3  -4  103.95   18.40   0  0.66151
  -3   3   4  108.00   18.99   0  0.66151
  -2   3   4   55.81   20.57   0  0.66151
  -2   3   4   42.37   13.92   0  0.66151
   2  -3  -4   52.47   19.66   0  0.66151
  -1   3   4 1668.49   33.09   0  0.66151
  -1   3   4 1740.04   35.22   0  0.66151
   1  -3  -4 1638.87   34.26   0  0.66151
   1  -3  -4 1720.00   34.13   0  0.66151
   0   3   4    9.05   14.18   0  0.66151
   0   3   4    2.63   13.37   0  0.66151
   0  -3  -4    9.91   13.48   0  0.66151
   0  -3  -4    5.30   14.65   0  0.66151
  -1  -3  -4   83.00   15.58   0  0.66151
   1   3   4   85.59   16.09   0  0.66151
   1   3   4   88.36   14.84   0  0.66151
  -1  -3  -4   79.27   16.76   0  0.66151
  -2  -3  -4 2580.58   40.86   0  0.66151
   2   3   4 2491.58   39.59   0  0.66151
  -2  -3  -4 2497.83   40.83   0  0.66151
   2   3   4 2376.32   39.19   0  0.66151
   3   3   4  366.73   23.37   0  0.66151
  -3  -3  -4  385.86   24.20   0  0.66151
   3   3   4  397.78   23.56   0  0.66151
   4   3   4  336.38   18.53   0  0.66151
   4   3   4  362.23   19.05   0  0.66151
  -4  -3  -4  373.17   18.95   0  0.66151
  -5  -3  -4  793.10   25.30   0  0.66151
   5   3   4  759.10   29.53   0  0.66151
  -6  -3  -4  272.68   19.45   0  0.66151
   6   3   4  251.33   18.68   0  0.66151
   7   3   4   45.33   24.86   0  0.66151
  -7  -3  -4   51.21   25.46   0  0.66151
   8   3   4   68.06   25.47   0  0.66151
  -8  -3  -4   68.59   25.66   0  0.66151
   9   3   4   47.85   34.04   0  0.66151
  -9  -3  -4   22.96   33.37   0  0.66151
  10   3   4   35.94   43.81   0  0.66151
 -10  -3  -4   59.10   29.73   0  0.66151
   8  -4  -4   41.46   29.85   0  0.66151
  -8   4   4   -6.42   30.65   0  0.66151
  -7   4   4  -27.69   27.24   0  0.66151
  -7   4   4   34.15   37.99   0  0.66151
   7  -4  -4   12.54   37.67   0  0.66151
  -6   4   4   18.78   31.87   0  0.66151
  -6   4   4   32.82   22.78   0  0.66151
   6  -4  -4   35.26   22.32   0  0.66151
  -5   4   4  309.14   21.82   0  0.66151
  -5   4   4  328.43   30.46   0  0.66151
   5  -4  -4  309.16   29.49   0  0.66151
  -4   4   4   98.56   17.37   0  0.66151
  -4   4   4  120.35   18.46   0  0.66151
   4  -4  -4  108.04   24.03   0  0.66151
  -3   4   4   87.51   17.98   0  0.66151
  -3   4   4  102.33   25.86   0  0.66151
   3  -4  -4   81.40   25.20   0  0.66151
  -2   4   4  259.48   21.75   0  0.66151
   2  -4  -4  280.29   17.65   0  0.66151
  -2   4   4  319.23   18.31   0  0.66151
  -1   4   4  317.33   23.22   0  0.66151
  -1   4   4  270.29   21.63   0  0.66151
   1  -4  -4  305.38   22.57   0  0.66151
   0  -4  -4 3484.92   44.06   0  0.66151
   0   4   4 3184.10   41.72   0  0.66151
   0  -4  -4 3361.66   47.01   0  0.66151
   0   4   4 3484.55   46.78   0  0.66151
   1   4   4   28.02   20.02   0  0.66151
   1   4   4   14.95   18.38   0  0.66151
  -1  -4  -4   13.24   20.53   0  0.66151
  -1  -4  -4   19.09   19.12   0  0.66151
   2   4   4  415.77   24.04   0  0.66151
  -2  -4  -4  408.89   24.86   0  0.66151
   2   4   4  414.27   21.13   0  0.66151
  -2  -4  -4  444.43   21.95   0  0.66151
   3   4   4 1692.88   38.18   0  0.66151
  -3  -4  -4 1812.98   39.34   0  0.66151
   3   4   4 1748.70   37.65   0  0.66151
   4   4   4  104.46   19.40   0  0.66151
  -4  -4  -4  119.63   20.45   0  0.66151
   4   4   4  114.00   19.78   0  0.66151
   5   4   4   26.18   22.07   0  0.66151
   5   4   4   38.59   16.34   0  0.66151
  -5  -4  -4   33.64   16.65   0  0.66151
  -6  -4  -4 1058.58   33.15   0  0.66151
   6   4   4  925.24   31.93   0  0.66151
   7   4   4    7.14   17.37   0  0.66151
  -7  -4  -4    6.16   25.16   0  0.66151
  -8  -4  -4   27.40   30.00   0  0.66151
   8   4   4   25.86   22.07   0  0.66151
  -9  -4  -4   66.21   37.31   0  0.66151
   9   4   4   96.97   37.59   0  0.66151
  10   4   4   27.50   32.50   0  0.66151
  -8   5   4    8.67   34.27   0  0.66151
  -7   5   4   77.98   38.82   0  0.66151
  -7   5   4   63.06   39.21   0  0.66151
   7  -5  -4  100.69   38.74   0  0.66151
  -6   5   4    3.51   22.44   0  0.66151
   6  -5  -4  -10.84   23.32   0  0.66151
  -6   5   4   20.76   22.86   0  0.66151
  -5   5   4   -0.88   18.54   0  0.66151
   5  -5  -4   -3.28   26.55   0  0.66151
  -5   5   4   -9.41   19.41   0  0.66151
  -4   5   4  117.07   18.12   0  0.66151
  -4   5   4  126.60   23.15   0  0.66151
   4  -5  -4  125.96   16.98   0  0.66151
  -3   5   4   76.27   25.43   0  0.66151
  -3   5   4   94.82   23.58   0  0.66151
   3  -5  -4   72.51   24.93   0  0.66151
  -2   5   4  151.84   18.16   0  0.66151
   2  -5  -4  159.86   19.24   0  0.66151
  -2   5   4  181.26   19.68   0  0.66151
  -1   5   4  291.10   23.05   0  0.66151
  -1   5   4  272.59   21.47   0  0.66151
   1  -5  -4  257.05   17.70   0  0.66151
   0  -5  -4  774.36   24.68   0  0.66151
   0   5   4  735.93   23.35   0  0.66151
   0   5   4  816.70   25.02   0  0.66151
   1   5   4  473.69   21.86   0  0.66151
  -1  -5  -4  503.60   25.42   0  0.66151
   1   5   4  459.00   24.11   0  0.66151
  -1  -5  -4  458.70   21.92   0  0.66151
   2   5   4   88.69   19.62   0  0.66151
   2   5   4   86.96   15.51   0  0.66151
  -2  -5  -4   96.55   16.05   0  0.66151
  -2  -5  -4   85.47   20.40   0  0.66151
   3   5   4  221.85   22.23   0  0.66151
   3   5   4  225.09   22.01   0  0.66151
  -3  -5  -4  243.23   22.74   0  0.66151
  -4  -5  -4 1777.52   43.75   0  0.66151
   4   5   4 1548.72   40.82   0  0.66151
   4   5   4 1694.84   41.97   0  0.66151
  -5  -5  -4  317.61   27.53   0  0.66151
   5   5   4  327.34   27.28   0  0.66151
   5   5   4  259.93   25.62   0  0.66151
   6   5   4    0.25   24.47   0  0.66151
  -6  -5  -4    3.23   26.32   0  0.66151
   6   5   4    4.68   25.90   0  0.66151
   7   5   4  278.94   29.08   0  0.66151
  -7  -5  -4  307.85   30.29   0  0.66151
   7   5   4  307.11   29.83   0  0.66151
   8   5   4    1.33   31.16   0  0.66151
   8   5   4    0.38   29.46   0  0.66151
  -8  -5  -4    5.64   29.74   0  0.66151
   9   5   4    4.67   26.68   0  0.66151
   9   5   4   -2.02   39.32   0  0.66151
  -9  -5  -4   -2.12   41.52   0  0.66151
  -7   6   4   27.48   41.43   0  0.66151
   7  -6  -4   44.16   27.62   0  0.66151
  -7   6   4    9.15   28.18   0  0.66151
  -6   6   4   68.37   22.97   0  0.66151
   6  -6  -4   79.18   23.04   0  0.66151
  -6   6   4   40.53   33.40   0  0.66151
  -5   6   4   47.16   18.40   0  0.66151
   5  -6  -4   31.97   19.45   0  0.66151
  -5   6   4   50.59   19.43   0  0.66151
  -4   6   4   31.86   18.87   0  0.66151
   4  -6  -4   19.02   19.74   0  0.66151
  -4   6   4   46.78   19.91   0  0.66151
  -3   6   4  467.84   21.78   0  0.66151
   3  -6  -4  396.61   21.22   0  0.66151
  -3   6   4  432.34   25.62   0  0.66151
  -2   6   4  150.60   18.46   0  0.66151
  -2   6   4  177.91   26.25   0  0.66151
   2  -6  -4  143.55   19.30   0  0.66151
  -1   6   4   -1.91   23.37   0  0.66151
   1  -6  -4   -4.40   25.11   0  0.66151
  -1   6   4  -10.99   25.12   0  0.66151
   0   6   4 1165.85   28.82   0  0.66151
   0   6   4 1266.17   34.97   0  0.66151
   0  -6  -4 1140.09   28.59   0  0.66151
   1   6   4  349.20   20.05   0  0.66151
   1   6   4  310.96   18.73   0  0.66151
  -1  -6  -4  325.20   19.95   0  0.66151
   2   6   4  465.37   29.26   0  0.66151
  -2  -6  -4  531.12   30.92   0  0.66151
   2   6   4  496.64   25.55   0  0.66151
  -2  -6  -4  492.83   25.81   0  0.66151
   3   6   4  323.78   27.94   0  0.66151
  -3  -6  -4  368.32   29.36   0  0.66151
   3   6   4  330.39   28.33   0  0.66151
  -4  -6  -4  193.14   27.21   0  0.66151
   4   6   4  165.85   25.07   0  0.66151
   4   6   4  181.86   26.32   0  0.66151
   5   6   4   96.26   28.55   0  0.66151
  -5  -6  -4   92.83   25.17   0  0.66151
   5   6   4   96.37   21.99   0  0.66151
   6   6   4   20.95   25.87   0  0.66151
  -6  -6  -4   37.03   33.21   0  0.66151
   6   6   4   35.65   26.41   0  0.66151
   7   6   4    6.99   31.43   0  0.66151
  -7  -6  -4   24.32   30.90   0  0.66151
   7   6   4   15.79   30.79   0  0.66151
   8   6   4   22.72   38.09   0  0.66151
  -8  -6  -4   40.61   45.01   0  0.66151
   8   6   4   25.24   44.88   0  0.66151
   9   6   4   75.34   44.34   0  0.66151
  -9  -6  -4   55.22   43.47   0  0.66151
   9   6   4   69.50   52.52   0  0.66151
  -7   7   4   38.02   31.88   0  0.66151
   7  -7  -4   11.79   45.19   0  0.66151
  -7   7   4    3.35   45.68   0  0.66151
  -6   7   4    1.76   37.29   0  0.66151
   6  -7  -4    4.85   27.28   0  0.66151
  -6   7   4   27.79   27.20   0  0.66151
  -5   7   4   98.80   31.92   0  0.66151
   5  -7  -4   78.70   23.22   0  0.66151
  -5   7   4   84.34   23.41   0  0.66151
  -4   7   4   36.10   25.52   0  0.66151
  -4   7   4   30.51   19.49   0  0.66151
   4  -7  -4   46.27   18.91   0  0.66151
  -3   7   4   87.00   21.55   0  0.66151
  -3   7   4   79.71   27.35   0  0.66151
   3  -7  -4   67.78   26.01   0  0.66151
  -2   7   4  582.41   22.30   0  0.66151
   2  -7  -4  577.26   23.03   0  0.66151
  -2   7   4  651.33   23.76   0  0.66151
  -1   7   4    4.69   16.05   0  0.66151
   1  -7  -4    5.56   24.35   0  0.66151
  -1   7   4    1.95   24.68   0  0.66151
   0   7   4    4.28   16.34   0  0.66151
   0   7   4   -7.56   17.84   0  0.66151
   0  -7  -4   -4.26   17.51   0  0.66151
   1   7   4  975.04   34.63   0  0.66151
   1   7   4  825.24   27.19   0  0.66151
  -1  -7  -4  934.30   34.26   0  0.66151
   2   7   4   91.52   18.24   0  0.66151
   2   7   4   92.30   25.66   0  0.66151
  -2  -7  -4  110.35   26.20   0  0.66151
   3   7   4   55.64   23.59   0  0.66151
   3   7   4   55.96   23.17   0  0.66151
   4   7   4  213.09   27.90   0  0.66151
   4   7   4  219.50   30.38   0  0.66151
   5   7   4   53.52   36.58   0  0.66151
   5   7   4   64.89   38.15   0  0.66151
  -7   8   4   14.24   29.36   0  0.66151
   7  -8  -4  -15.79   30.19   0  0.66151
  -6   8   4   32.91   37.95   0  0.66151
   6  -8  -4   40.07   27.64   0  0.66151
  -6   8   4   28.50   27.51   0  0.66151
   5  -8  -4   15.80   22.73   0  0.66151
  -5   8   4   46.39   21.68   0  0.66151
  -5   8   4   37.67   22.36   0  0.66151
  -4   8   4   33.45   28.43   0  0.66151
   4  -8  -4   26.99   19.14   0  0.66151
  -4   8   4   29.36   19.45   0  0.66151
  -3   8   4  104.97   20.47   0  0.66151
  -3   8   4   85.45   18.89   0  0.66151
   3  -8  -4  101.39   19.88   0  0.66151
  -2   8   4  168.22   27.43   0  0.66151
  -2   8   4  178.13   30.52   0  0.66151
   2  -8  -4  165.27   21.95   0  0.66151
  -1   8   4  320.08   19.55   0  0.66151
   1  -8  -4  342.86   26.78   0  0.66151
  -1   8   4  347.79   27.48   0  0.66151
   0   8   4   33.56   15.07   0  0.66151
   0   8   4   36.79   17.08   0  0.66151
   0  -8  -4   30.81   17.62   0  0.66151
   1   8   4   35.12   24.12   0  0.66151
   1   8   4   40.76   15.79   0  0.66151
  -1  -8  -4   53.56   24.87   0  0.66151
   2   8   4  397.64   28.17   0  0.66151
   2   8   4  436.68   29.90   0  0.66151
  -2  -8  -4  422.35   30.33   0  0.66151
   3   8   4   13.80   25.26   0  0.66151
   3   8   4    4.82   26.31   0  0.66151
  -6   9   4    3.78   30.56   0  0.66151
  -6   9   4   19.65   44.25   0  0.66151
   6  -9  -4    9.00   31.27   0  0.66151
  -5   9   4   39.59   37.81   0  0.66151
  -5   9   4   77.62   28.48   0  0.66151
   5  -9  -4   64.25   27.88   0  0.66151
  -4   9   4   -1.43   31.28   0  0.66151
   4  -9  -4   20.17   32.34   0  0.66151
  -4   9   4   21.88   32.64   0  0.66151
  -3   9   4    7.50   21.69   0  0.66151
  -3   9   4  -12.00   32.63   0  0.66151
   3  -9  -4   15.52   32.03   0  0.66151
  -2   9   4  146.16   19.84   0  0.66151
   2  -9  -4  171.74   21.33   0  0.66151
  -2   9   4  191.56   21.83   0  0.66151
  -1   9   4  100.15   21.21   0  0.66151
  -1   9   4   81.90   26.10   0  0.66151
   1  -9  -4   78.49   20.83   0  0.66151
   0   9   4  133.57   20.16   0  0.66151
   0   9   4  148.63   29.84   0  0.66151
   0  -9  -4  162.30   29.52   0  0.66151
   1   9   4  160.36   27.72   0  0.66151
   1   9   4  190.34   30.76   0  0.66151
  -1  -9  -4  180.08   30.73   0  0.66151
   2   9   4   13.88   25.05   0  0.66151
   2   9   4   32.15   27.42   0  0.66151
  -2  -9  -4   35.66   28.09   0  0.66151
   3   9   4   97.26   32.83   0  0.66151
   3   9   4  106.65   33.92   0  0.66151
  -5  10   4  119.00   41.15   0  0.66151
   5 -10  -4   22.75   31.91   0  0.66151
  -5  10   4   -0.14   31.63   0  0.66151
  -4  10   4  104.17   28.57   0  0.66151
  -4  10   4   62.22   38.34   0  0.66151
   4 -10  -4  108.43   28.48   0  0.66151
  -3  10   4   20.43   30.17   0  0.66151
  -3  10   4    2.05   23.03   0  0.66151
   3 -10  -4   13.07   22.62   0  0.66151
  -2  10   4    2.64   20.99   0  0.66151
   2 -10  -4   -2.46   32.46   0  0.66151
  -2  10   4    4.20   31.85   0  0.66151
  -1  10   4   94.22   30.95   0  0.66151
  -1  10   4  131.73   24.59   0  0.66151
   1 -10  -4  121.06   23.90   0  0.66151
   0  10   4   25.30   21.49   0  0.66151
   0 -10  -4    8.75   23.91   0  0.66151
   0  10   4   23.02   23.57   0  0.66151
   1  10   4   -1.91   29.81   0  0.66151
   1  10   4   -4.54   32.45   0  0.66151
  -1 -10  -4    9.93   32.34   0  0.66151
   2  10   4   68.13   32.74   0  0.66151
  -2 -10  -4   57.31   33.76   0  0.66151
   2  10   4   51.34   30.43   0  0.66151
  -4  11   4    4.51   32.36   0  0.66151
   4 -11  -4   18.73   31.66   0  0.66151
  -4  11   4   28.13   41.56   0  0.66151
   3 -11  -4   53.77   27.83   0  0.66151
  -3  11   4   39.43   28.35   0  0.66151
  -3  11   4   40.97   26.17   0  0.66151
  -2  11   4    5.07   27.26   0  0.66151
   2 -11  -4  -10.41   38.70   0  0.66151
  -2  11   4  -29.62   26.04   0  0.66151
  -1  11   4   40.28   38.84   0  0.66151
   1 -11  -4   15.50   38.88   0  0.66151
  -1  11   4   18.41   25.80   0  0.66151
   0 -11  -4  103.30   39.48   0  0.66151
   0  11   4   92.02   36.33   0  0.66151
   0  11   4   63.48   36.36   0  0.66151
   1  11   4   10.48   38.41   0  0.66151
  -1 -11  -4    2.62   38.95   0  0.66151
   1  11   4    0.84   35.69   0  0.66151
   2  11   4    2.55   52.71   0  0.66151
   2  11   4    0.75   44.06   0  0.66151
  -3  12   4   -5.71   35.00   0  0.66151
  -2  12   4   18.19   31.50   0  0.66151
   2 -12  -4    8.63   31.52   0  0.66151
  -2  12   4  -21.53   30.31   0  0.66151
  -1  12   4   31.58   31.93   0  0.66151
   1 -12  -4   24.40   31.68   0  0.66151
  -1  12   4   22.52   41.82   0  0.66151
   0  12   4   10.95   43.97   0  0.66151
   0 -12  -4   -7.97   45.93   0  0.66151
   0  12   4   -2.25   42.14   0  0.66151
   1  12   4   10.56   45.13   0  0.66151
   1  12   4    0.62   42.68   0  0.66151
  -1 -12  -4   -2.53   45.33   0  0.66151
   0  -8   5   18.55   41.09   0  0.66151
   0   8  -5   -1.93   45.18   0  0.66151
   0  -8   5   -8.79   45.06   0  0.66151
   1  -8   5   84.54   42.36   0  0.66151
   1  -8   5   89.27   31.52   0  0.66151
  -1   8  -5   87.52   41.52   0  0.66151
   2  -8   5   29.49   36.42   0  0.66151
  -2   8  -5   30.98   38.21   0  0.66151
   2  -8   5   37.32   38.00   0  0.66151
   3  -8   5    0.54   36.09   0  0.66151
   3  -8   5    3.11   37.13   0  0.66151
  -3   8  -5  -27.15   36.74   0  0.66151
   4  -8   5   36.79   36.55   0  0.66151
  -4   8  -5   66.89   25.81   0  0.66151
   5  -8   5    3.77   39.46   0  0.66151
  -5   8  -5   17.67   29.70   0  0.66151
   6  -8   5   15.29   29.52   0  0.66151
  -6   8  -5    4.29   30.12   0  0.66151
  -2  -7   5    5.07   50.74   0  0.66151
  -2  -7   5   -0.42   62.85   0  0.66151
   1   7  -5   10.21   47.90   0  0.66151
  -1  -7   5   -0.90   48.10   0  0.66151
  -1  -7   5    2.83   35.46   0  0.66151
   0   7  -5  160.52   40.26   0  0.66151
   0  -7   5  143.55   39.85   0  0.66151
   0  -7   5  110.27   27.22   0  0.66151
  -1   7  -5    8.58   22.45   0  0.66151
   1  -7   5   12.79   22.52   0  0.66151
   1  -7   5    7.38   29.32   0  0.66151
  -2   7  -5   68.29   22.64   0  0.66151
   2  -7   5   55.40   22.46   0  0.66151
   2  -7   5   43.04   30.40   0  0.66151
  -3   7  -5    7.84   21.43   0  0.66151
   3  -7   5    8.07   29.60   0  0.66151
   4  -7   5   38.66   21.16   0  0.66151
  -4   7  -5   29.38   30.49   0  0.66151
   5  -7   5   77.71   32.99   0  0.66151
  -5   7  -5   73.50   22.17   0  0.66151
   6  -7   5   67.13   26.27   0  0.66151
  -6   7  -5   83.26   25.82   0  0.66151
   7  -7   5   22.72   39.00   0  0.66151
  -7   7  -5   29.04   39.64   0  0.66151
   8  -7   5   73.50   28.84   0  0.66151
  -3  -6   5   -1.71   54.54   0  0.66151
  -3  -6   5    7.07   50.29   0  0.66151
  -2  -6   5   42.10   39.89   0  0.66151
  -2  -6   5   41.41   35.65   0  0.66151
  -1  -6   5   -3.98   32.27   0  0.66151
  -1  -6   5    8.52   28.65   0  0.66151
   1   6  -5   -9.56   32.28   0  0.66151
   0  -6   5    0.50   32.21   0  0.66151
   0  -6   5   -1.61   29.59   0  0.66151
   0   6  -5  -10.67   32.19   0  0.66151
  -1   6  -5  142.79   30.60   0  0.66151
   1  -6   5  135.15   30.87   0  0.66151
   1  -6   5  115.33   22.22   0  0.66151
  -2   6  -5    4.37   17.98   0  0.66151
   2  -6   5   14.38   18.47   0  0.66151
   2  -6   5   -8.10   24.15   0  0.66151
  -3   6  -5    6.19   17.71   0  0.66151
   3  -6   5  -12.22   24.32   0  0.66151
  -4   6  -5  308.78   27.14   0  0.66151
   4  -6   5  268.12   20.79   0  0.66151
  -5   6  -5   42.70   22.00   0  0.66151
   5  -6   5   41.49   21.45   0  0.66151
   6  -6   5   40.67   21.17   0  0.66151
  -6   6  -5   52.62   21.46   0  0.66151
   7  -6   5  153.21   26.39   0  0.66151
  -7   6  -5  164.11   26.68   0  0.66151
   8  -6   5   61.72   29.91   0  0.66151
  -8   6  -5   47.53   30.45   0  0.66151
  -4  -5   5   71.47   45.13   0  0.66151
  -4  -5   5   90.07   42.66   0  0.66151
  -3  -5   5   33.45   39.36   0  0.66151
  -3  -5   5   21.52   35.94   0  0.66151
  -2  -5   5    5.94   33.24   0  0.66151
  -2  -5   5    7.87   29.77   0  0.66151
   2   5  -5   20.34   32.90   0  0.66151
   1   5  -5  256.45   24.14   0  0.66151
  -1  -5   5  223.74   20.91   0  0.66151
  -1  -5   5  242.24   23.23   0  0.66151
   0   5  -5   45.87   19.39   0  0.66151
   0  -5   5   29.06   25.01   0  0.66151
   0  -5   5   60.76   19.51   0  0.66151
  -1   5  -5   -7.67   19.14   0  0.66151
   1  -5   5   -3.21   24.74   0  0.66151
   1  -5   5   -2.05   19.02   0  0.66151
  -2   5  -5  256.81   21.95   0  0.66151
   2  -5   5  241.25   21.74   0  0.66151
   2  -5   5  241.25   20.79   0  0.66151
  -3   5  -5   10.17   25.19   0  0.66151
   3  -5   5   -2.81   17.51   0  0.66151
  -4   5  -5   77.13   18.32   0  0.66151
   4  -5   5   91.89   25.16   0  0.66151
  -5   5  -5  429.40   28.77   0  0.66151
   5  -5   5  394.66   21.20   0  0.66151
   6  -5   5   35.30   17.19   0  0.66151
  -6   5  -5   13.29   24.90   0  0.66151
   7  -5   5   26.50   20.73   0  0.66151
  -7   5  -5  -23.89   21.84   0  0.66151
   8  -5   5  100.39   36.66   0  0.66151
  -8   5  -5   93.63   36.79   0  0.66151
   9  -5   5  -55.90   42.65   0  0.66151
  -9   5  -5   20.55   30.43   0  0.66151
  -5  -4   5   19.39   43.65   0  0.66151
  -5  -4   5   -4.31   42.65   0  0.66151
  -4  -4   5    7.97   36.26   0  0.66151
  -4  -4   5   14.75   38.30   0  0.66151
  -3  -4   5   54.26   30.78   0  0.66151
  -3  -4   5   58.27   33.72   0  0.66151
   2   4  -5  279.55   24.20   0  0.66151
  -2  -4   5  246.53   28.37   0  0.66151
  -2  -4   5  243.02   23.41   0  0.66151
   1   4  -5   22.15   19.29   0  0.66151
  -1  -4   5   23.00   18.11   0  0.66151
  -1  -4   5   21.19   27.84   0  0.66151
   0   4  -5   82.04   25.32   0  0.66151
   0  -4   5   50.45   19.33   0  0.66151
   0  -4   5   44.96   29.23   0  0.66151
   1  -4   5  233.45   18.38   0  0.66151
  -1   4  -5  279.80   25.35   0  0.66151
   1  -4   5  277.71   25.41   0  0.66151
   2  -4   5  143.25   17.18   0  0.66151
   2  -4   5  155.15   18.01   0  0.66151
  -2   4  -5  149.54   17.74   0  0.66151
  -3   4  -5  550.45   21.35   0  0.66151
   3  -4   5  507.03   20.47   0  0.66151
   4  -4   5  129.86   16.54   0  0.66151
  -4   4  -5  130.32   22.62   0  0.66151
  -5   4  -5  114.11   19.75   0  0.66151
   5  -4   5  136.25   18.32   0  0.66151
  -6   4  -5  366.18   21.67   0  0.66151
   6  -4   5  340.24   27.18   0  0.66151
   7  -4   5    8.36   16.87   0  0.66151
  -7   4  -5    8.52   17.44   0  0.66151
   8  -4   5    7.97   30.05   0  0.66151
  -8   4  -5  -17.84   21.51   0  0.66151
   9  -4   5   52.10   26.57   0  0.66151
  -9   4  -5   63.92   26.84   0  0.66151
  10  -4   5  -33.70   33.53   0  0.66151
 -10   4  -5  -12.42   33.95   0  0.66151
  -5  -3   5   11.09   26.78   0  0.66151
  -5  -3   5  -10.57   37.23   0  0.66151
   5   3  -5   -0.20   36.62   0  0.66151
  -4  -3   5  230.24   34.98   0  0.66151
   4   3  -5  193.85   33.00   0  0.66151
  -4  -3   5  218.18   33.21   0  0.66151
  -3  -3   5   39.86   27.89   0  0.66151
   3   3  -5   36.21   18.39   0  0.66151
  -3  -3   5   35.70   18.49   0  0.66151
  -2  -3   5   12.03   26.28   0  0.66151
  -2  -3   5   -5.49   28.13   0  0.66151
   2   3  -5    7.77   27.72   0  0.66151
  -1  -3   5   48.04   22.64   0  0.66151
   1   3  -5   60.45   17.22   0  0.66151
  -1  -3   5   67.12   17.18   0  0.66151
   0   3  -5    6.06   17.20   0  0.66151
   0  -3   5   23.54   16.29   0  0.66151
   0  -3   5   18.24   17.13   0  0.66151
   1  -3   5   75.89   16.92   0  0.66151
  -1   3  -5   82.55   17.76   0  0.66151
   1  -3   5   79.13   17.74   0  0.66151
   2  -3   5 1629.17   30.74   0  0.66151
  -2   3  -5 1569.79   30.27   0  0.66151
   2  -3   5 1504.86   33.37   0  0.66151
  -3   3  -5   90.07   17.13   0  0.66151
   3  -3   5   84.87   16.96   0  0.66151
  -4   3  -5  165.12   23.89   0  0.66151
   4  -3   5  164.69   22.95   0  0.66151
  -5   3  -5  266.78   18.62   0  0.66151
   5  -3   5  250.58   17.67   0  0.66151
  -6   3  -5  155.93   19.06   0  0.66151
   6  -3   5  126.48   19.16   0  0.66151
  -7   3  -5  138.14   19.63   0  0.66151
   7  -3   5  175.75   25.76   0  0.66151
   8  -3   5   62.21   30.43   0  0.66151
  -8   3  -5   84.05   21.55   0  0.66151
   9  -3   5   18.89   25.36   0  0.66151
  -9   3  -5   -5.13   26.09   0  0.66151
 -10   3  -5   84.98   31.42   0  0.66151
  10  -3   5   30.05   43.55   0  0.66151
  -6  -2   5   25.08   31.58   0  0.66151
  -6  -2   5   21.45   44.18   0  0.66151
   6   2  -5   -2.14   43.65   0  0.66151
  -5  -2   5   24.18   38.84   0  0.66151
  -5  -2   5    3.62   27.22   0  0.66151
   5   2  -5   16.93   25.92   0  0.66151
  -4  -2   5   50.00   24.19   0  0.66151
  -4  -2   5   31.05   23.05   0  0.66151
   4   2  -5   30.57   22.69   0  0.66151
  -3  -2   5   59.50   28.37   0  0.66151
  -3  -2   5   73.34   19.46   0  0.66151
   3   2  -5   69.60   19.42   0  0.66151
  -2  -2   5   21.80   23.42   0  0.66151
   2   2  -5   31.02   17.27   0  0.66151
  -2  -2   5   42.87   22.79   0  0.66151
   2   2  -5   38.39   22.07   0  0.66151
  -1  -2   5  133.97   24.43   0  0.66151
   1   2  -5  145.84   25.60   0  0.66151
  -1  -2   5  125.12   25.23   0  0.66151
   0   2  -5 1169.43   33.81   0  0.66151
   0  -2   5 1095.81   31.93   0  0.66151
   0  -2   5 1097.65   33.28   0  0.66151
   1  -2   5   -0.28   22.97   0  0.66151
  -1   2  -5   -1.20   23.61   0  0.66151
   1  -2   5    2.79   23.84   0  0.66151
   2  -2   5   32.64   21.21   0  0.66151
   2  -2   5   49.26   13.22   0  0.66151
  -2   2  -5   40.21   20.97   0  0.66151
  -3   2  -5 1241.51   26.84   0  0.66151
   3  -2   5 1253.18   27.02   0  0.66151
   4  -2   5  256.47   18.30   0  0.66151
  -4   2  -5  249.03   18.05   0  0.66151
  -5   2  -5   11.91   15.73   0  0.66151
   5  -2   5   13.36   15.06   0  0.66151
  -6   2  -5  406.58   19.07   0  0.66151
   6  -2   5  370.40   23.76   0  0.66151
  -7   2  -5   10.83   17.53   0  0.66151
   7  -2   5  -10.98   24.78   0  0.66151
   8  -2   5   86.82   25.37   0  0.66151
  -8   2  -5   74.36   25.62   0  0.66151
   9  -2   5   44.48   30.38   0  0.66151
  -9   2  -5   36.00   22.18   0  0.66151
  10  -2   5  -22.27   30.70   0  0.66151
 -10   2  -5   -9.65   42.67   0  0.66151
  -6  -1   5   23.94   38.68   0  0.66151
  -6  -1   5   20.42   38.16   0  0.66151
   6   1  -5   12.30   37.70   0  0.66151
  -5  -1   5   39.20   32.72   0  0.66151
  -5  -1   5   59.76   22.57   0  0.66151
   5   1  -5   39.60   22.44   0  0.66151
  -4  -1   5  199.43   28.87   0  0.66151
  -4  -1   5  186.51   21.54   0  0.66151
   4   1  -5  195.87   20.61   0  0.66151
  -3  -1   5    6.21   27.78   0  0.66151
  -3  -1   5   10.69   27.43   0  0.66151
   3   1  -5    2.55   26.99   0  0.66151
  -2  -1   5  144.85   25.46   0  0.66151
   2   1  -5  160.64   25.98   0  0.66151
  -2  -1   5  155.37   18.74   0  0.66151
   2   1  -5  159.65   24.72   0  0.66151
   1   1  -5  332.46   21.05   0  0.66151
  -1  -1   5  288.32   20.77   0  0.66151
   1   1  -5  314.74   20.18   0  0.66151
  -1  -1   5  318.28   20.27   0  0.66151
   0  -1   5  493.50   24.52   0  0.66151
   0   1  -5  508.93   20.00   0  0.66151
   0   1  -5  520.67   24.70   0  0.66151
   0  -1   5  499.01   20.23   0  0.66151
   1  -1   5  728.29   25.81   0  0.66151
  -1   1  -5  743.35   22.43   0  0.66151
   1  -1   5  734.68   22.43   0  0.66151
   2  -1   5  115.29   19.51   0  0.66151
  -2   1  -5  130.10   14.65   0  0.66151
   2  -1   5  128.99   14.81   0  0.66151
  -3   1  -5  479.49   22.29   0  0.66151
   3  -1   5  482.47   22.54   0  0.66151
  -4   1  -5  705.92   20.84   0  0.66151
   4  -1   5  715.89   20.57   0  0.66151
  -5   1  -5   57.70   16.37   0  0.66151
   5  -1   5   57.27   16.23   0  0.66151
  -6   1  -5   83.84   16.67   0  0.66151
   6  -1   5  100.76   16.38   0  0.66151
  -7   1  -5  520.09   29.23   0  0.66151
   7  -1   5  481.76   22.53   0  0.66151
   8  -1   5   21.46   17.85   0  0.66151
  -8   1  -5   34.62   17.82   0  0.66151
   9  -1   5    0.53   21.59   0  0.66151
  -9   1  -5   38.03   29.48   0  0.66151
  10  -1   5   36.17   25.47   0  0.66151
 -10   1  -5    9.84   26.06   0  0.66151
  -6   0   5   64.60   39.10   0  0.66151
  -6   0   5   87.42   28.06   0  0.66151
   6   0  -5   89.06   37.88   0  0.66151
  -5   0   5   21.83   31.52   0  0.66151
  -5   0   5   16.26   22.93   0  0.66151
   5   0  -5   10.27   31.33   0  0.66151
  -4   0   5   19.07   18.59   0  0.66151
  -4   0   5   -7.49   27.28   0  0.66151
   4   0  -5    5.13   18.49   0  0.66151
  -3   0   5  550.62   28.06   0  0.66151
  -3   0   5  486.62   28.17   0  0.66151
   3   0  -5  491.84   27.62   0  0.66151
   2   0  -5   46.18   25.02   0  0.66151
  -2   0   5   44.36   17.81   0  0.66151
  -2   0   5   49.73   24.39   0  0.66151
   2   0  -5   44.94   17.29   0  0.66151
  -1   0   5   75.05   24.85   0  0.66151
  -1   0   5   80.11   18.75   0  0.66151
   1   0  -5   80.96   17.76   0  0.66151
   1   0  -5   88.57   25.12   0  0.66151
   0   0   5 1176.12   26.72   0  0.66151
   0   0  -5 1188.51   26.80   0  0.66151
   0   0   5 1147.04   26.58   0  0.66151
   0   0  -5 1173.43   26.38   0  0.66151
   1   0   5  751.15   22.59   0  0.66151
  -1   0  -5  763.54   26.03   0  0.66151
   1   0   5  746.37   26.23   0  0.66151
   2   0   5  819.09   22.80   0  0.66151
   2   0   5  861.07   26.86   0  0.66151
  -2   0  -5  856.10   26.68   0  0.66151
   3   0   5  611.40   24.02   0  0.66151
   3   0   5  590.61   19.96   0  0.66151
  -3   0  -5  584.69   20.00   0  0.66151
  -4   0  -5  254.05   15.86   0  0.66151
   4   0   5  230.43   15.67   0  0.66151
  -5   0  -5  178.00   17.59   0  0.66151
   5   0   5  183.97   23.57   0  0.66151
   6   0   5   52.65   15.76   0  0.66151
  -6   0  -5   41.98   16.36   0  0.66151
   7   0   5   15.78   14.46   0  0.66151
  -7   0  -5   24.15   20.75   0  0.66151
   8   0   5  124.76   19.12   0  0.66151
  -8   0  -5  117.95   18.75   0  0.66151
   9   0   5   66.81   22.14   0  0.66151
  -9   0  -5   54.51   30.46   0  0.66151
  10   0   5   24.90   36.71   0  0.66151
 -10   0  -5   35.96   25.74   0  0.66151
  -7   1   5   -7.08   31.46   0  0.66151
  -7   1   5    6.01   31.05   0  0.66151
   7  -1  -5   -3.29   30.59   0  0.66151
  -6   1   5  -20.36   39.33   0  0.66151
   6  -1  -5   37.38   38.05   0  0.66151
  -6   1   5   67.29   38.43   0  0.66151
  -5   1   5   20.33   23.50   0  0.66151
   5  -1  -5   68.96   31.44   0  0.66151
  -5   1   5   29.36   32.78   0  0.66151
  -4   1   5   83.75   19.95   0  0.66151
   4  -1  -5   85.49   19.82   0  0.66151
  -4   1   5   65.60   20.88   0  0.66151
  -3   1   5   52.40   24.14   0  0.66151
   3  -1  -5   55.28   24.07   0  0.66151
  -3   1   5   40.73   24.56   0  0.66151
  -2   1   5 1066.22   32.49   0  0.66151
   2  -1  -5 1136.38   33.14   0  0.66151
   2  -1  -5 1056.64   31.93   0  0.66151
  -2   1   5 1003.91   32.21   0  0.66151
  -1   1   5   19.57   19.62   0  0.66151
  -1   1   5   -1.54   13.56   0  0.66151
   1  -1  -5    3.21   13.40   0  0.66151
   1  -1  -5   -1.46   19.31   0  0.66151
   0   1   5  178.73   21.36   0  0.66151
   0  -1  -5  168.04   15.93   0  0.66151
   0   1   5  159.46   15.51   0  0.66151
   0  -1  -5  172.89   20.89   0  0.66151
  -1  -1  -5 2276.70   34.32   0  0.66151
   1   1   5 2261.22   37.41   0  0.66151
   1   1   5 2168.26   33.64   0  0.66151
  -1  -1  -5 2216.64   34.19   0  0.66151
   2   1   5   24.72   13.31   0  0.66151
  -2  -1  -5   21.93   13.42   0  0.66151
   2   1   5   20.34   13.05   0  0.66151
   3   1   5   11.78   12.98   0  0.66151
  -3  -1  -5   12.36   17.98   0  0.66151
   3   1   5   28.34   17.94   0  0.66151
  -4  -1  -5 2138.83   32.36   0  0.66151
   4   1   5 2134.16   32.30   0  0.66151
  -5  -1  -5   56.18   22.51   0  0.66151
   5   1   5   40.19   22.67   0  0.66151
  -6  -1  -5  178.94   23.69   0  0.66151
   6   1   5  168.14   17.51   0  0.66151
  -7  -1  -5  130.60   16.26   0  0.66151
   7   1   5  127.23   21.54   0  0.66151
   8   1   5    9.37   24.26   0  0.66151
  -8  -1  -5    5.34   17.64   0  0.66151
   9   1   5  -13.47   30.45   0  0.66151
  -9  -1  -5  -19.89   21.50   0  0.66151
  10   1   5    8.36   26.07   0  0.66151
 -10  -1  -5   -2.39   25.93   0  0.66151
  -7   2   5   41.20   44.61   0  0.66151
   7  -2  -5  -28.30   44.38   0  0.66151
  -7   2   5   -3.87   32.37   0  0.66151
  -6   2   5   28.46   36.73   0  0.66151
  -6   2   5   47.51   36.50   0  0.66151
   6  -2  -5   67.69   35.55   0  0.66151
  -5   2   5   74.17   19.55   0  0.66151
  -5   2   5   59.54   27.56   0  0.66151
   5  -2  -5   48.25   26.62   0  0.66151
  -4   2   5  181.88   28.94   0  0.66151
  -4   2   5  167.43   21.68   0  0.66151
   4  -2  -5  171.78   21.05   0  0.66151
  -3   2   5  140.56   25.14   0  0.66151
   3  -2  -5  151.49   18.94   0  0.66151
  -3   2   5  151.91   19.07   0  0.66151
   2  -2  -5  423.51   27.08   0  0.66151
  -2   2   5  400.85   21.29   0  0.66151
  -2   2   5  440.15   28.04   0  0.66151
   1  -2  -5  857.61   23.44   0  0.66151
  -1   2   5  823.83   27.34   0  0.66151
  -1   2   5  738.57   22.53   0  0.66151
   1  -2  -5  762.97   26.76   0  0.66151
   0   2   5   19.23   18.84   0  0.66151
   0  -2  -5   27.02   19.08   0  0.66151
   0   2   5   25.51   14.19   0  0.66151
   0  -2  -5   28.32   13.97   0  0.66151
   1   2   5  228.81   21.04   0  0.66151
   1   2   5  207.28   17.01   0  0.66151
  -1  -2  -5  202.76   16.93   0  0.66151
  -1  -2  -5  216.10   21.40   0  0.66151
  -2  -2  -5 2563.25   39.28   0  0.66151
   2   2   5 2568.94   39.09   0  0.66151
  -2  -2  -5 2574.81   37.12   0  0.66151
   2   2   5 2572.07   36.53   0  0.66151
   3   2   5  642.08   21.50   0  0.66151
  -3  -2  -5  634.28   21.29   0  0.66151
   3   2   5  670.99   21.63   0  0.66151
   4   2   5   10.54   12.92   0  0.66151
   4   2   5    9.36   17.82   0  0.66151
  -4  -2  -5    4.50   17.86   0  0.66151
  -5  -2  -5  671.12   22.69   0  0.66151
   5   2   5  653.46   27.74   0  0.66151
  -6  -2  -5   29.71   22.34   0  0.66151
   6   2   5   29.76   15.67   0  0.66151
  -7  -2  -5   30.49   18.01   0  0.66151
   7   2   5   30.35   22.62   0  0.66151
   8   2   5   77.19   18.69   0  0.66151
  -8  -2  -5   81.16   18.67   0  0.66151
   9   2   5   84.91   22.06   0  0.66151
  -9  -2  -5   67.55   30.24   0  0.66151
  10   2   5   32.09   39.63   0  0.66151
 -10  -2  -5   30.40   30.36   0  0.66151
  -7   3   5    8.88   31.71   0  0.66151
  -7   3   5    3.74   31.56   0  0.66151
   7  -3  -5  -26.22   31.35   0  0.66151
  -6   3   5   16.24   22.45   0  0.66151
  -6   3   5    2.80   32.65   0  0.66151
   6  -3  -5   -2.21   31.58   0  0.66151
  -5   3   5  154.38   28.24   0  0.66151
  -5   3   5  190.60   28.50   0  0.66151
   5  -3  -5  155.74   28.27   0  0.66151
   4  -3  -5   37.14   19.55   0  0.66151
  -4   3   5   52.98   19.35   0  0.66151
  -4   3   5   34.91   20.26   0  0.66151
  -3   3   5   -4.67   23.53   0  0.66151
  -3   3   5   -1.53   17.33   0  0.66151
   3  -3  -5    0.96   16.89   0  0.66151
  -2   3   5  618.01   28.44   0  0.66151
   2  -3  -5  619.78   29.16   0  0.66151
  -2   3   5  644.57   29.68   0  0.66151
   1  -3  -5  698.05   21.75   0  0.66151
  -1   3   5  638.22   21.07   0  0.66151
   1  -3  -5  659.22   21.73   0  0.66151
  -1   3   5  681.62   22.15   0  0.66151
   0   3   5  314.09   22.65   0  0.66151
   0   3   5  273.79   17.00   0  0.66151
   0  -3  -5  295.35   22.85   0  0.66151
   0  -3  -5  287.09   17.30   0  0.66151
   1   3   5 1363.46   32.07   0  0.66151
  -1  -3  -5 1317.03   27.98   0  0.66151
   1   3   5 1252.33   27.03   0  0.66151
  -1  -3  -5 1312.29   31.89   0  0.66151
  -2  -3  -5 1045.98   26.04   0  0.66151
  -2  -3  -5 1060.56   26.70   0  0.66151
   2   3   5  890.21   24.01   0  0.66151
   2   3   5  996.60   25.79   0  0.66151
   3   3   5  505.09   19.90   0  0.66151
  -3  -3  -5  540.17   20.55   0  0.66151
   3   3   5  496.12   19.66   0  0.66151
   4   3   5    3.93   12.73   0  0.66151
  -4  -3  -5    8.61   12.75   0  0.66151
   4   3   5    5.30   12.73   0  0.66151
   5   3   5   34.83   22.76   0  0.66151
   5   3   5   36.78   16.70   0  0.66151
  -5  -3  -5   42.94   16.36   0  0.66151
  -6  -3  -5   74.83   22.73   0  0.66151
   6   3   5   65.98   22.17   0  0.66151
  -7  -3  -5  458.67   29.54   0  0.66151
   7   3   5  449.25   22.70   0  0.66151
   8   3   5   50.85   18.52   0  0.66151
  -8  -3  -5   45.76   25.63   0  0.66151
   9   3   5   64.18   21.89   0  0.66151
  -9  -3  -5   82.68   22.41   0  0.66151
  10   3   5   57.00   31.01   0  0.66151
 -10  -3  -5   25.00   30.41   0  0.66151
  -7   4   5   65.97   44.95   0  0.66151
  -7   4   5    4.38   32.58   0  0.66151
   7  -4  -5  -22.77   44.51   0  0.66151
  -6   4   5   -7.55   22.31   0  0.66151
   6  -4  -5  -21.03   22.69   0  0.66151
  -6   4   5   16.37   22.53   0  0.66151
  -5   4   5   92.61   27.50   0  0.66151
   5  -4  -5   88.88   19.69   0  0.66151
  -5   4   5   86.10   20.44   0  0.66151
  -4   4   5  390.86   31.50   0  0.66151
  -4   4   5  397.56   23.30   0  0.66151
   4  -4  -5  393.88   30.47   0  0.66151
  -3   4   5   15.23   17.58   0  0.66151
  -3   4   5   24.07   16.77   0  0.66151
   3  -4  -5   18.20   17.41   0  0.66151
  -2   4   5   25.21   23.95   0  0.66151
  -2   4   5   11.27   17.84   0  0.66151
   2  -4  -5   21.35   17.72   0  0.66151
  -1   4   5 1282.72   29.70   0  0.66151
  -1   4   5 1369.80   27.77   0  0.66151
   1  -4  -5 1362.57   27.95   0  0.66151
   0   4   5  354.47   23.72   0  0.66151
   0  -4  -5  367.95   17.93   0  0.66151
   0  -4  -5  359.83   23.29   0  0.66151
   0   4   5  323.24   17.50   0  0.66151
  -1  -4  -5  160.77   20.22   0  0.66151
   1   4   5  161.83   21.41   0  0.66151
   1   4   5  117.03   19.91   0  0.66151
  -1  -4  -5  154.72   21.58   0  0.66151
  -2  -4  -5  890.47   28.05   0  0.66151
  -2  -4  -5  922.60   29.54   0  0.66151
   2   4   5  848.44   23.94   0  0.66151
   2   4   5  920.49   28.73   0  0.66151
   3   4   5  168.78   16.06   0  0.66151
  -3  -4  -5  176.77   16.05   0  0.66151
   3   4   5  166.35   15.53   0  0.66151
   4   4   5  177.59   18.68   0  0.66151
   4   4   5  179.50   24.64   0  0.66151
  -4  -4  -5  180.04   25.13   0  0.66151
   5   4   5  842.33   30.63   0  0.66151
  -5  -4  -5  922.67   31.40   0  0.66151
   5   4   5  909.20   31.06   0  0.66151
   6   4   5   -2.52   14.85   0  0.66151
   6   4   5   -4.95   21.77   0  0.66151
  -6  -4  -5    4.50   21.71   0  0.66151
  -7  -4  -5    0.21   17.79   0  0.66151
   7   4   5   -4.61   17.35   0  0.66151
  -8  -4  -5   24.66   21.86   0  0.66151
   8   4   5   37.75   21.91   0  0.66151
  -9  -4  -5   11.03   36.25   0  0.66151
   9   4   5   24.97   36.28   0  0.66151
 -10  -4  -5  -22.55   41.42   0  0.66151
  10   4   5  -19.69   30.51   0  0.66151
  -7   5   5   57.67   44.21   0  0.66151
  -7   5   5  -70.93   46.36   0  0.66151
   7  -5  -5   58.22   43.12   0  0.66151
  -6   5   5   27.11   26.65   0  0.66151
   6  -5  -5   23.47   27.13   0  0.66151
  -6   5   5   18.82   27.37   0  0.66151
  -5   5   5   40.31   32.20   0  0.66151
   5  -5  -5   45.75   22.96   0  0.66151
  -5   5   5   59.17   23.49   0  0.66151
  -4   5   5   99.51   27.01   0  0.66151
   4  -5  -5   48.05   20.15   0  0.66151
  -4   5   5   94.36   28.66   0  0.66151
  -3   5   5  527.26   22.25   0  0.66151
  -3   5   5  483.92   26.79   0  0.66151
   3  -5  -5  491.96   21.62   0  0.66151
  -2   5   5   28.35   24.86   0  0.66151
  -2   5   5   62.66   23.46   0  0.66151
   2  -5  -5   35.54   24.89   0  0.66151
  -1   5   5  227.61   18.92   0  0.66151
  -1   5   5  278.85   20.07   0  0.66151
   1  -5  -5  245.90   19.96   0  0.66151
   0   5   5 1369.64   30.76   0  0.66151
   0  -5  -5 1371.16   29.11   0  0.66151
   0  -5  -5 1510.92   32.67   0  0.66151
   0   5   5 1483.37   29.68   0  0.66151
   1   5   5   -3.79   14.08   0  0.66151
  -1  -5  -5   -1.76   13.35   0  0.66151
   1   5   5  -11.13   18.56   0  0.66151
  -1  -5  -5    5.50   14.25   0  0.66151
  -2  -5  -5   46.78   14.30   0  0.66151
   2   5   5   41.95   13.62   0  0.66151
   2   5   5   50.83   14.34   0  0.66151
  -2  -5  -5   41.09   14.94   0  0.66151
   3   5   5  828.38   26.63   0  0.66151
   3   5   5  818.76   26.18   0  0.66151
  -3  -5  -5  802.84   26.62   0  0.66151
  -4  -5  -5   33.14   23.87   0  0.66151
   4   5   5   30.99   23.21   0  0.66151
   4   5   5   28.42   23.41   0  0.66151
  -5  -5  -5   69.89   23.36   0  0.66151
   5   5   5   67.27   23.43   0  0.66151
   5   5   5   70.60   22.58   0  0.66151
  -6  -5  -5   22.83   26.92   0  0.66151
   6   5   5   25.56   26.73   0  0.66151
   6   5   5   26.37   17.82   0  0.66151
  -7  -5  -5   13.56   24.88   0  0.66151
   7   5   5   20.21   24.88   0  0.66151
   7   5   5    6.67   24.84   0  0.66151
   8   5   5    9.59   30.22   0  0.66151
  -8  -5  -5   10.35   30.11   0  0.66151
   8   5   5   21.41   29.93   0  0.66151
   9   5   5   86.57   38.73   0  0.66151
   9   5   5  116.64   37.11   0  0.66151
  -9  -5  -5  115.22   36.94   0  0.66151
  -7   6   5   44.15   30.68   0  0.66151
   7  -6  -5   43.82   30.79   0  0.66151
  -7   6   5   50.86   32.20   0  0.66151
  -6   6   5   16.89   26.90   0  0.66151
   6  -6  -5   11.07   38.07   0  0.66151
  -6   6   5    5.71   38.58   0  0.66151
  -5   6   5   -8.33   31.50   0  0.66151
  -5   6   5   -5.92   32.58   0  0.66151
   5  -6  -5    0.18   22.68   0  0.66151
  -4   6   5  138.14   19.64   0  0.66151
   4  -6  -5  136.16   27.70   0  0.66151
  -4   6   5  136.02   28.60   0  0.66151
  -3   6   5  249.20   28.82   0  0.66151
   3  -6  -5  213.90   22.05   0  0.66151
  -3   6   5  193.04   27.80   0  0.66151
  -2   6   5  256.88   20.13   0  0.66151
  -2   6   5  251.18   18.96   0  0.66151
   2  -6  -5  233.93   26.27   0  0.66151
  -1   6   5  499.09   21.64   0  0.66151
  -1   6   5  576.29   23.16   0  0.66151
   1  -6  -5  508.39   22.61   0  0.66151
   0   6   5  413.34   22.46   0  0.66151
   0   6   5  375.41   20.85   0  0.66151
   0  -6  -5  411.94   22.25   0  0.66151
   1   6   5  347.37   21.75   0  0.66151
  -1  -6  -5  346.58   27.45   0  0.66151
  -1  -6  -5  320.08   21.83   0  0.66151
   1   6   5  308.71   26.26   0  0.66151
  -2  -6  -5   55.52   18.00   0  0.66151
   2   6   5   59.67   18.46   0  0.66151
  -2  -6  -5   68.38   18.72   0  0.66151
   2   6   5   52.19   17.21   0  0.66151
  -3  -6  -5  131.07   18.89   0  0.66151
   3   6   5  128.20   18.88   0  0.66151
   3   6   5  136.31   18.54   0  0.66151
  -4  -6  -5  271.15   20.89   0  0.66151
   4   6   5  260.34   26.02   0  0.66151
   4   6   5  236.27   20.45   0  0.66151
   5   6   5  526.17   24.17   0  0.66151
   5   6   5  471.39   28.27   0  0.66151
  -5  -6  -5  524.06   30.29   0  0.66151
  -6  -6  -5   -4.40   26.26   0  0.66151
   6   6   5   12.13   25.08   0  0.66151
   6   6   5    2.48   24.00   0  0.66151
   7   6   5  113.10   31.43   0  0.66151
  -7  -6  -5  118.23   32.58   0  0.66151
   7   6   5  142.57   31.81   0  0.66151
   8   6   5   44.30   26.49   0  0.66151
  -8  -6  -5   67.91   36.63   0  0.66151
   8   6   5   76.03   36.03   0  0.66151
  -9  -6  -5   11.98   42.67   0  0.66151
   9   6   5   31.57   43.51   0  0.66151
   9   6   5   23.62   41.56   0  0.66151
  -6   7   5   96.18   27.15   0  0.66151
   6  -7  -5   38.80   28.21   0  0.66151
  -6   7   5   41.61   28.10   0  0.66151
  -5   7   5   52.30   22.08   0  0.66151
  -5   7   5   40.07   23.18   0  0.66151
   5  -7  -5   33.42   22.90   0  0.66151
  -4   7   5   26.54   25.50   0  0.66151
   4  -7  -5  -12.49   19.04   0  0.66151
  -4   7   5  -16.17   19.01   0  0.66151
  -3   7   5  337.33   28.65   0  0.66151
   3  -7  -5  315.04   22.57   0  0.66151
  -3   7   5  359.42   24.03   0  0.66151
  -2   7   5  221.71   19.70   0  0.66151
  -2   7   5  234.53   18.57   0  0.66151
   2  -7  -5  224.24   19.21   0  0.66151
  -1   7   5   34.58   15.97   0  0.66151
  -1   7   5   25.31   23.94   0  0.66151
   1  -7  -5    5.26   24.39   0  0.66151
   0   7   5   91.38   24.10   0  0.66151
   0  -7  -5   68.01   25.56   0  0.66151
   0   7   5   84.88   25.29   0  0.66151
   1   7   5   82.99   18.66   0  0.66151
   1   7   5   80.66   17.46   0  0.66151
  -1  -7  -5   80.84   18.76   0  0.66151
   2   7   5   93.94   17.77   0  0.66151
  -2  -7  -5   98.07   25.99   0  0.66151
   2   7   5  105.61   25.44   0  0.66151
   3   7   5  717.37   31.68   0  0.66151
   3   7   5  690.94   31.34   0  0.66151
  -3  -7  -5  744.83   32.69   0  0.66151
  -4  -7  -5   39.51   26.14   0  0.66151
   4   7   5   40.78   21.37   0  0.66151
   4   7   5   37.99   22.34   0  0.66151
  -5  -7  -5   21.31   27.25   0  0.66151
   5   7   5   21.17   26.02   0  0.66151
   5   7   5   26.69   24.73   0  0.66151
  -6  -7  -5  142.84   29.21   0  0.66151
   6   7   5  144.55   27.63   0  0.66151
   6   7   5  125.16   31.75   0  0.66151
   7   7   5   13.72   31.02   0  0.66151
   7   7   5   15.19   37.05   0  0.66151
  -7  -7  -5    8.38   31.59   0  0.66151
   8   7   5    7.70   45.52   0  0.66151
   8   7   5    7.38   44.24   0  0.66151
  -8  -7  -5   -3.93   46.02   0  0.66151
  -6   8   5   44.62   30.38   0  0.66151
  -6   8   5   28.59   31.41   0  0.66151
   6  -8  -5   -0.94   31.98   0  0.66151
  -5   8   5   95.02   27.24   0  0.66151
  -5   8   5   86.55   28.10   0  0.66151
   5  -8  -5   68.86   27.49   0  0.66151
  -4   8   5  -14.87   30.92   0  0.66151
   4  -8  -5    1.96   22.56   0  0.66151
  -4   8   5    4.86   22.71   0  0.66151
  -3   8   5   41.39   26.69   0  0.66151
   3  -8  -5  103.67   20.03   0  0.66151
  -3   8   5   72.17   20.79   0  0.66151
  -2   8   5  327.37   23.75   0  0.66151
  -2   8   5  316.53   28.77   0  0.66151
   2  -8  -5  308.58   22.53   0  0.66151
  -1   8   5   16.49   18.36   0  0.66151
  -1   8   5   -3.39   28.28   0  0.66151
   1  -8  -5    7.07   28.14   0  0.66151
   0   8   5    8.58   14.97   0  0.66151
   0   8   5   13.63   23.24   0  0.66151
   0  -8  -5   20.24   23.34   0  0.66151
   1   8   5  470.34   23.10   0  0.66151
   1   8   5  426.22   21.55   0  0.66151
  -1  -8  -5  435.46   23.12   0  0.66151
  -2  -8  -5    9.48   27.02   0  0.66151
   2   8   5   -1.99   24.28   0  0.66151
   2   8   5    1.08   22.52   0  0.66151
   3   8   5  115.43   27.48   0  0.66151
   3   8   5  112.54   20.05   0  0.66151
   4   8   5   29.74   31.82   0  0.66151
   4   8   5   25.50   25.70   0  0.66151
   5   8   5    2.14   29.45   0  0.66151
   5   8   5    0.65   33.57   0  0.66151
  -6   9   5   39.93   33.01   0  0.66151
  -5   9   5   46.26   27.29   0  0.66151
  -5   9   5   66.90   28.07   0  0.66151
   5  -9  -5   55.95   27.84   0  0.66151
  -4   9   5   83.94   23.11   0  0.66151
  -4   9   5   84.94   24.43   0  0.66151
   4  -9  -5  104.24   23.73   0  0.66151
  -3   9   5   37.82   31.05   0  0.66151
   3  -9  -5   62.87   22.56   0  0.66151
  -3   9   5   33.65   23.31   0  0.66151
  -2   9   5   16.92   26.78   0  0.66151
  -2   9   5   12.56   18.15   0  0.66151
   2  -9  -5   17.32   26.72   0  0.66151
  -1   9   5  155.60   20.28   0  0.66151
   1  -9  -5  183.59   29.53   0  0.66151
  -1   9   5  233.79   29.12   0  0.66151
   0   9   5    2.22   25.53   0  0.66151
   0  -9  -5   -0.74   19.58   0  0.66151
   0   9   5   -3.48   19.70   0  0.66151
   1   9   5  121.91   29.59   0  0.66151
   1   9   5  114.75   26.50   0  0.66151
  -1  -9  -5  111.10   29.72   0  0.66151
   2   9   5    1.88   25.76   0  0.66151
   2   9   5   -9.67   27.31   0  0.66151
  -2  -9  -5   -6.61   28.00   0  0.66151
   3   9   5   67.67   26.50   0  0.66151
   3   9   5   53.86   26.26   0  0.66151
   4   9   5   12.87   30.23   0  0.66151
   4   9   5   11.27   36.39   0  0.66151
  -5  10   5    0.57   42.99   0  0.66151
  -5  10   5   30.95   31.51   0  0.66151
   5 -10  -5   16.42   31.36   0  0.66151
   4 -10  -5   71.26   37.75   0  0.66151
  -4  10   5    8.19   27.31   0  0.66151
  -4  10   5   16.15   39.71   0  0.66151
  -3  10   5    0.62   26.05   0  0.66151
   3 -10  -5   21.92   38.53   0  0.66151
  -3  10   5   32.16   38.06   0  0.66151
  -2  10   5   -2.67   21.83   0  0.66151
  -2  10   5    9.27   23.20   0  0.66151
   2 -10  -5   -3.74   23.22   0  0.66151
  -1  10   5   38.23   21.52   0  0.66151
  -1  10   5    9.07   32.64   0  0.66151
   1 -10  -5   40.84   23.77   0  0.66151
   0  10   5   12.24   30.66   0  0.66151
   0  10   5   28.07   32.98   0  0.66151
   0 -10  -5   34.78   33.18   0  0.66151
   1  10   5  117.10   32.19   0  0.66151
   1  10   5  200.40   34.22   0  0.66151
  -1 -10  -5  152.86   35.11   0  0.66151
   2  10   5    4.88   21.24   0  0.66151
  -2 -10  -5    3.05   32.72   0  0.66151
   2  10   5   19.53   31.92   0  0.66151
   3  10   5   22.98   30.91   0  0.66151
   3  10   5   32.85   31.15   0  0.66151
  -4  11   5    5.99   30.10   0  0.66151
  -4  11   5  146.94   45.30   0  0.66151
  -3  11   5   21.70   29.85   0  0.66151
  -3  11   5   -0.11   45.54   0  0.66151
   3 -11  -5   31.64   31.35   0  0.66151
  -2  11   5   -5.55   35.81   0  0.66151
  -2  11   5   -6.13   27.20   0  0.66151
   2 -11  -5  -22.71   28.16   0  0.66151
  -1  11   5   85.19   27.00   0  0.66151
   1 -11  -5  118.47   28.65   0  0.66151
  -1  11   5  122.83   39.21   0  0.66151
   0  11   5   -1.67   36.09   0  0.66151
   0 -11  -5   23.04   39.00   0  0.66151
   0  11   5   19.99   38.46   0  0.66151
   1  11   5  -14.99   25.82   0  0.66151
   1  11   5    8.44   38.40   0  0.66151
  -1 -11  -5   -3.15   39.17   0  0.66151
   2  11   5   39.43   35.54   0  0.66151
   2  11   5   36.38   38.60   0  0.66151
  -2 -11  -5   32.70   39.10   0  0.66151
   3  11   5    2.52   44.45   0  0.66151
   3  11   5   -6.54   50.87   0  0.66151
  -2  12   5   16.31   41.19   0  0.66151
  -2  12   5  -21.42   30.87   0  0.66151
   2 -12  -5    0.10   30.45   0  0.66151
  -1  12   5   10.77   41.80   0  0.66151
  -1  12   5   16.70   44.63   0  0.66151
   1 -12  -5   -1.11   45.64   0  0.66151
   0  12   5  -16.34   45.33   0  0.66151
   0 -12  -5    8.65   45.00   0  0.66151
   0  12   5    6.24   41.49   0  0.66151
   1  12   5    8.14   45.25   0  0.66151
  -1 -12  -5    6.99   45.01   0  0.66151
   1  12   5   -0.79   30.13   0  0.66151
   2  12   5    7.67   52.82   0  0.66151
   2  12   5   12.91   41.44   0  0.66151
   2  -8   6  -14.67   33.36   0  0.66151
  -2   8  -6   -9.60   45.67   0  0.66151
   2  -8   6    5.85   45.21   0  0.66151
   3  -8   6   72.26   42.48   0  0.66151
   3  -8   6   96.13   43.84   0  0.66151
  -3   8  -6   96.93   43.66   0  0.66151
   4  -8   6   52.07   28.32   0  0.66151
   4  -8   6    2.27   30.03   0  0.66151
  -4   8  -6   31.25   29.32   0  0.66151
   0   7  -6   13.22   45.13   0  0.66151
   0  -7   6  -14.71   44.76   0  0.66151
   0  -7   6   17.50   40.37   0  0.66151
  -1   7  -6  178.63   29.87   0  0.66151
   1  -7   6  185.74   29.79   0  0.66151
   1  -7   6  156.64   27.03   0  0.66151
  -2   7  -6   36.62   27.52   0  0.66151
   2  -7   6   56.60   27.17   0  0.66151
   2  -7   6   35.71   35.76   0  0.66151
  -3   7  -6   56.31   37.42   0  0.66151
   3  -7   6   69.42   37.70   0  0.66151
   3  -7   6   87.06   25.29   0  0.66151
  -4   7  -6  253.68   37.97   0  0.66151
   4  -7   6  210.48   37.65   0  0.66151
   5  -7   6   20.53   35.09   0  0.66151
  -5   7  -6    6.87   25.81   0  0.66151
   6  -7   6   19.32   28.97   0  0.66151
  -6   7  -6    4.00   42.63   0  0.66151
   7  -7   6   62.73   29.78   0  0.66151
  -7   7  -6   46.73   30.74   0  0.66151
  -2  -6   6   11.52   48.94   0  0.66151
  -2  -6   6    7.00   43.86   0  0.66151
  -1  -6   6   41.32   39.30   0  0.66151
   1   6  -6   55.52   39.78   0  0.66151
  -1  -6   6   30.40   36.09   0  0.66151
   0  -6   6  205.18   30.07   0  0.66151
   0  -6   6  215.94   37.42   0  0.66151
   0   6  -6  257.82   30.29   0  0.66151
   1  -6   6   64.96   31.90   0  0.66151
  -1   6  -6   51.98   31.67   0  0.66151
   1  -6   6   45.88   29.35   0  0.66151
  -2   6  -6  181.25   23.86   0  0.66151
   2  -6   6  171.43   24.06   0  0.66151
   2  -6   6  139.96   22.44   0  0.66151
  -3   6  -6    4.23   31.06   0  0.66151
   3  -6   6   17.40   31.70   0  0.66151
   3  -6   6   22.19   29.93   0  0.66151
  -4   6  -6   95.12   22.05   0  0.66151
   4  -6   6   65.13   30.16   0  0.66151
  -5   6  -6   68.63   22.37   0  0.66151
   5  -6   6   68.27   21.86   0  0.66151
   6  -6   6   41.63   26.03   0  0.66151
  -6   6  -6   28.99   26.58   0  0.66151
   7  -6   6   47.38   25.34   0  0.66151
  -7   6  -6   57.10   25.74   0  0.66151
   8  -6   6   89.15   30.02   0  0.66151
  -8   6  -6   55.93   30.57   0  0.66151
  -3  -5   6   20.02   44.78   0  0.66151
  -3  -5   6   -3.42   41.19   0  0.66151
  -2  -5   6   26.02   40.73   0  0.66151
  -2  -5   6   31.66   36.05   0  0.66151
   1   5  -6   -1.40   23.61   0  0.66151
  -1  -5   6  -18.76   30.04   0  0.66151
  -1  -5   6   -2.86   23.11   0  0.66151
   0  -5   6   10.25   30.01   0  0.66151
   0  -5   6   21.50   23.01   0  0.66151
   0   5  -6   25.08   22.82   0  0.66151
  -1   5  -6  575.20   34.82   0  0.66151
   1  -5   6  506.46   26.50   0  0.66151
   1  -5   6  559.05   28.38   0  0.66151
   2  -5   6  190.45   26.64   0  0.66151
  -2   5  -6  211.04   27.67   0  0.66151
   2  -5   6  215.01   28.63   0  0.66151
   3  -5   6   28.72   25.46   0  0.66151
   3  -5   6    1.45   24.31   0  0.66151
  -3   5  -6    1.93   24.83   0  0.66151
  -4   5  -6  309.95   21.13   0  0.66151
   4  -5   6  290.84   26.82   0  0.66151
   5  -5   6   74.21   21.54   0  0.66151
  -5   5  -6   74.57   22.04   0  0.66151
  -6   5  -6  162.53   21.95   0  0.66151
   6  -5   6  106.60   21.83   0  0.66151
   7  -5   6  113.22   33.74   0  0.66151
  -7   5  -6  138.58   34.29   0  0.66151
   8  -5   6   10.91   35.42   0  0.66151
  -8   5  -6    1.10   36.67   0  0.66151
   9  -5   6   36.59   29.02   0  0.66151
  -9   5  -6   19.04   29.09   0  0.66151
  -4  -4   6   12.05   41.28   0  0.66151
  -4  -4   6   17.10   31.16   0  0.66151
  -3  -4   6   -3.88   36.52   0  0.66151
  -3  -4   6   20.27   39.32   0  0.66151
   2   4  -6  111.54   34.18   0  0.66151
  -2  -4   6   89.13   30.94   0  0.66151
  -2  -4   6   89.32   24.64   0  0.66151
   1   4  -6  344.27   26.42   0  0.66151
  -1  -4   6  255.51   24.68   0  0.66151
  -1  -4   6  290.78   26.66   0  0.66151
   0  -4   6   21.33   24.94   0  0.66151
   0  -4   6   10.03   26.72   0  0.66151
   0   4  -6   22.85   26.21   0  0.66151
  -1   4  -6   31.00   26.55   0  0.66151
   1  -4   6   13.59   17.94   0  0.66151
   1  -4   6   -1.71   27.33   0  0.66151
   2  -4   6  491.42   23.82   0  0.66151
   2  -4   6  488.03   28.80   0  0.66151
  -2   4  -6  470.66   24.29   0  0.66151
   3  -4   6    8.96   26.10   0  0.66151
   3  -4   6    8.10   24.73   0  0.66151
  -3   4  -6   10.23   25.47   0  0.66151
  -4   4  -6   57.21   17.96   0  0.66151
   4  -4   6   37.61   18.57   0  0.66151
  -5   4  -6  581.73   23.45   0  0.66151
   5  -4   6  544.59   29.01   0  0.66151
  -6   4  -6   36.57   17.62   0  0.66151
   6  -4   6   21.33   17.36   0  0.66151
  -7   4  -6   34.95   21.19   0  0.66151
   7  -4   6    9.28   21.21   0  0.66151
   8  -4   6   76.56   25.90   0  0.66151
  -8   4  -6   62.47   26.36   0  0.66151
   9  -4   6  -18.46   30.30   0  0.66151
  -9   4  -6   36.29   29.32   0  0.66151
  -4  -3   6   11.22   36.94   0  0.66151
  -4  -3   6   17.47   27.31   0  0.66151
  -3  -3   6   39.36   30.52   0  0.66151
  -3  -3   6   38.70   23.32   0  0.66151
  -2  -3   6  292.23   24.88   0  0.66151
   2   3  -6  344.87   28.08   0  0.66151
  -2  -3   6  316.84   27.24   0  0.66151
   1   3  -6  279.49   30.31   0  0.66151
  -1  -3   6  242.98   28.36   0  0.66151
  -1  -3   6  281.53   29.78   0  0.66151
   0  -3   6  362.80   22.90   0  0.66151
   0  -3   6  412.10   31.15   0  0.66151
   0   3  -6  414.11   31.88   0  0.66151
  -1   3  -6  214.04   24.89   0  0.66151
   1  -3   6  201.08   17.98   0  0.66151
   1  -3   6  219.44   24.50   0  0.66151
   2  -3   6  188.09   17.53   0  0.66151
  -2   3  -6  217.74   18.47   0  0.66151
   2  -3   6  195.65   18.37   0  0.66151
   3  -3   6  554.56   27.18   0  0.66151
  -3   3  -6  583.97   26.60   0  0.66151
   3  -3   6  564.03   25.92   0  0.66151
  -4   3  -6   17.03   21.54   0  0.66151
   4  -3   6   -9.30   20.58   0  0.66151
  -5   3  -6  168.75   19.92   0  0.66151
   5  -3   6  176.00   26.43   0  0.66151
  -6   3  -6  311.19   27.51   0  0.66151
   6  -3   6  323.67   26.90   0  0.66151
  -7   3  -6    3.05   17.94   0  0.66151
   7  -3   6   13.84   24.50   0  0.66151
   8  -3   6    4.45   21.05   0  0.66151
  -8   3  -6   -3.37   21.19   0  0.66151
   9  -3   6   15.05   26.06   0  0.66151
  -9   3  -6   21.30   25.63   0  0.66151
  10  -3   6   53.96   40.70   0  0.66151
 -10   3  -6   -8.19   41.57   0  0.66151
  -5  -2   6    5.75   44.67   0  0.66151
   5   2  -6   -0.86   42.07   0  0.66151
  -5  -2   6    6.07   43.43   0  0.66151
  -4  -2   6  251.67   29.18   0  0.66151
  -4  -2   6  257.75   41.96   0  0.66151
   4   2  -6  252.32   29.18   0  0.66151
   3   2  -6   29.59   31.09   0  0.66151
  -3  -2   6   19.21   33.31   0  0.66151
  -3  -2   6   16.22   31.39   0  0.66151
   2   2  -6    2.59   27.16   0  0.66151
  -2  -2   6   -0.83   27.27   0  0.66151
   2   2  -6    0.63   25.53   0  0.66151
  -2  -2   6   13.87   25.75   0  0.66151
  -1  -2   6  257.91   22.19   0  0.66151
   1   2  -6  309.42   29.78   0  0.66151
  -1  -2   6  280.23   29.90   0  0.66151
   0  -2   6  142.53   17.58   0  0.66151
   0  -2   6  166.29   24.40   0  0.66151
   0   2  -6  187.50   24.65   0  0.66151
   1  -2   6  115.33   17.47   0  0.66151
  -1   2  -6  126.86   18.13   0  0.66151
   1  -2   6  117.08   18.06   0  0.66151
  -2   2  -6 1567.48   33.98   0  0.66151
   2  -2   6 1453.49   27.97   0  0.66151
   2  -2   6 1483.02   33.59   0  0.66151
   3  -2   6  328.96   19.62   0  0.66151
   3  -2   6  300.31   24.29   0  0.66151
  -3   2  -6  338.65   19.57   0  0.66151
  -4   2  -6  315.00   18.74   0  0.66151
   4  -2   6  277.21   18.01   0  0.66151
  -5   2  -6   45.57   15.99   0  0.66151
   5  -2   6   65.60   21.52   0  0.66151
  -6   2  -6   69.38   18.89   0  0.66151
   6  -2   6   56.50   18.77   0  0.66151
  -7   2  -6  149.20   25.70   0  0.66151
   7  -2   6  118.21   18.77   0  0.66151
  -8   2  -6   52.21   30.98   0  0.66151
   8  -2   6   95.95   21.90   0  0.66151
   9  -2   6   10.98   25.14   0  0.66151
  -9   2  -6   10.08   25.33   0  0.66151
  10  -2   6   18.13   30.79   0  0.66151
 -10   2  -6   35.28   30.49   0  0.66151
  -5  -1   6   41.14   39.51   0  0.66151
  -5  -1   6   10.33   38.12   0  0.66151
   5   1  -6   -0.89   37.37   0  0.66151
  -4  -1   6  150.31   25.05   0  0.66151
  -4  -1   6  132.25   24.06   0  0.66151
   4   1  -6  160.03   23.60   0  0.66151
  -3  -1   6  286.83   22.59   0  0.66151
  -3  -1   6  274.21   29.30   0  0.66151
   3   1  -6  283.75   29.02   0  0.66151
   2   1  -6   73.36   19.95   0  0.66151
  -2  -1   6   85.94   19.99   0  0.66151
   2   1  -6   69.06   28.67   0  0.66151
  -2  -1   6   67.59   20.28   0  0.66151
   1   1  -6   77.77   17.78   0  0.66151
  -1  -1   6   70.79   17.15   0  0.66151
  -1  -1   6   67.34   17.20   0  0.66151
   1   1  -6   79.73   23.58   0  0.66151
   0  -1   6 1248.08   27.67   0  0.66151
   0  -1   6 1298.31   33.53   0  0.66151
   0   1  -6 1341.38   33.71   0  0.66151
   1  -1   6    0.23   23.16   0  0.66151
  -1   1  -6    4.95   23.64   0  0.66151
   1  -1   6   12.06   23.49   0  0.66151
  -2   1  -6   50.26   17.16   0  0.66151
   2  -1   6   62.39   23.31   0  0.66151
   2  -1   6   47.40   17.38   0  0.66151
   3  -1   6 1144.03   31.15   0  0.66151
   3  -1   6 1067.47   25.11   0  0.66151
  -3   1  -6 1145.93   30.54   0  0.66151
  -4   1  -6  215.18   17.97   0  0.66151
   4  -1   6  222.81   18.34   0  0.66151
  -5   1  -6   44.20   16.45   0  0.66151
   5  -1   6   58.03   16.07   0  0.66151
  -6   1  -6  235.89   23.15   0  0.66151
   6  -1   6  222.45   22.76   0  0.66151
  -7   1  -6   25.58   17.97   0  0.66151
   7  -1   6   28.44   17.37   0  0.66151
  -8   1  -6   53.61   17.61   0  0.66151
   8  -1   6   37.07   27.28   0  0.66151
   9  -1   6   61.50   30.29   0  0.66151
  -9   1  -6   29.72   30.81   0  0.66151
 -10   1  -6   20.90   39.16   0  0.66151
  10  -1   6   24.10   39.65   0  0.66151
  -6   0   6   14.72   31.79   0  0.66151
  -6   0   6   20.76   32.77   0  0.66151
   6   0  -6   50.55   42.31   0  0.66151
  -5   0   6   35.86   27.22   0  0.66151
  -5   0   6   13.66   27.42   0  0.66151
   5   0  -6   -5.56   26.81   0  0.66151
  -4   0   6  105.33   32.52   0  0.66151
  -4   0   6  125.20   23.64   0  0.66151
   4   0  -6   94.00   32.14   0  0.66151
  -3   0   6   31.74   19.89   0  0.66151
  -3   0   6   58.96   19.65   0  0.66151
   3   0  -6   58.85   18.45   0  0.66151
   2   0  -6  257.04   25.87   0  0.66151
   2   0  -6  254.76   25.06   0  0.66151
  -2   0   6  270.09   25.31   0  0.66151
  -2   0   6  278.83   25.20   0  0.66151
   1   0  -6  234.20   18.97   0  0.66151
   1   0  -6  236.34   19.50   0  0.66151
  -1   0   6  231.92   19.18   0  0.66151
  -1   0   6  235.40   19.25   0  0.66151
   0   0   6  889.83   30.25   0  0.66151
   0   0  -6  918.65   30.55   0  0.66151
   0   0   6  906.15   30.44   0  0.66151
   0   0  -6  875.75   29.94   0  0.66151
   1   0   6 1042.16   26.23   0  0.66151
  -1   0  -6 1133.91   26.69   0  0.66151
   1   0   6 1032.36   26.11   0  0.66151
   2   0   6    7.45   18.48   0  0.66151
  -2   0  -6    5.52   20.97   0  0.66151
   2   0   6    4.50   21.21   0  0.66151
   3   0   6   82.58   17.04   0  0.66151
  -3   0  -6   80.62   17.01   0  0.66151
   3   0   6   70.02   17.06   0  0.66151
   4   0   6  692.18   27.06   0  0.66151
   4   0   6  732.93   22.49   0  0.66151
  -4   0  -6  694.80   22.26   0  0.66151
  -5   0  -6    2.97   15.71   0  0.66151
   5   0   6   -2.39   15.46   0  0.66151
  -6   0  -6   10.51   21.59   0  0.66151
   6   0   6   -7.75   15.30   0  0.66151
  -7   0  -6  212.55   19.99   0  0.66151
   7   0   6  190.14   19.88   0  0.66151
  -8   0  -6   11.38   17.53   0  0.66151
   8   0   6   -0.15   17.68   0  0.66151
  -9   0  -6   27.67   29.75   0  0.66151
   9   0   6   -4.54   21.39   0  0.66151
  10   0   6   29.56   39.94   0  0.66151
 -10   0  -6   18.25   25.90   0  0.66151
  -6   1   6  129.47   32.85   0  0.66151
  -6   1   6  147.93   33.55   0  0.66151
   6  -1  -6  152.30   31.91   0  0.66151
  -5   1   6   19.27   22.65   0  0.66151
  -5   1   6   21.13   22.91   0  0.66151
   5  -1  -6   17.19   21.77   0  0.66151
  -4   1   6   46.47   30.03   0  0.66151
  -4   1   6   39.68   19.64   0  0.66151
   4  -1  -6   47.94   29.63   0  0.66151
  -3   1   6  509.02   24.02   0  0.66151
  -3   1   6  508.89   24.66   0  0.66151
   3  -1  -6  528.63   23.71   0  0.66151
  -2   1   6  289.59   26.38   0  0.66151
  -2   1   6  292.39   19.78   0  0.66151
   2  -1  -6  299.55   20.50   0  0.66151
   2  -1  -6  281.91   25.84   0  0.66151
  -1   1   6   38.86   17.02   0  0.66151
  -1   1   6   47.24   17.76   0  0.66151
   1  -1  -6   40.31   17.35   0  0.66151
   1  -1  -6   40.35   16.98   0  0.66151
   0  -1  -6  204.65   18.85   0  0.66151
   0  -1  -6  182.20   19.09   0  0.66151
   0   1   6  198.01   18.97   0  0.66151
   0   1   6  187.97   19.26   0  0.66151
  -1  -1  -6  648.62   24.55   0  0.66151
  -1  -1  -6  598.01   20.82   0  0.66151
   1   1   6  613.24   24.36   0  0.66151
   1   1   6  631.25   20.68   0  0.66151
  -2  -1  -6  735.27   25.04   0  0.66151
   2   1   6  715.36   21.41   0  0.66151
   2   1   6  737.99   25.10   0  0.66151
   3   1   6  125.48   19.45   0  0.66151
  -3  -1  -6  101.30   19.27   0  0.66151
   3   1   6  120.15   19.52   0  0.66151
   4   1   6    4.47   22.83   0  0.66151
   4   1   6   11.87   22.53   0  0.66151
  -4  -1  -6    4.90   22.73   0  0.66151
  -5  -1  -6   12.20   22.11   0  0.66151
   5   1   6    9.39   22.49   0  0.66151
  -6  -1  -6  142.87   16.95   0  0.66151
   6   1   6  148.25   17.20   0  0.66151
  -7  -1  -6   13.80   18.70   0  0.66151
   7   1   6   27.10   25.02   0  0.66151
  -8  -1  -6  172.32   19.32   0  0.66151
   8   1   6  152.03   25.89   0  0.66151
   9   1   6   29.71   21.84   0  0.66151
  -9  -1  -6   40.06   31.04   0  0.66151
  10   1   6    8.22   36.40   0  0.66151
 -10  -1  -6  -10.46   36.53   0  0.66151
   6  -2  -6   16.25   41.31   0  0.66151
  -6   2   6   43.72   31.95   0  0.66151
  -6   2   6    1.89   43.06   0  0.66151
  -5   2   6   89.99   23.98   0  0.66151
   5  -2  -6   77.46   23.04   0  0.66151
  -5   2   6   85.68   23.74   0  0.66151
  -4   2   6   -1.69   19.00   0  0.66151
  -4   2   6    7.02   26.70   0  0.66151
   4  -2  -6    7.65   18.84   0  0.66151
  -3   2   6   24.39   20.58   0  0.66151
  -3   2   6   63.23   27.53   0  0.66151
   3  -2  -6   24.42   19.39   0  0.66151
  -2   2   6 1081.60   26.44   0  0.66151
  -2   2   6 1048.74   31.31   0  0.66151
   2  -2  -6 1006.86   25.91   0  0.66151
   2  -2  -6 1159.08   27.31   0  0.66151
   1  -2  -6  142.89   25.08   0  0.66151
  -1   2   6  128.94   18.84   0  0.66151
  -1   2   6  124.61   24.87   0  0.66151
   1  -2  -6  119.15   18.53   0  0.66151
   0  -2  -6   -1.24   23.95   0  0.66151
   0  -2  -6    2.93   24.40   0  0.66151
   0   2   6    3.09   16.65   0  0.66151
   0   2   6    1.54   24.87   0  0.66151
  -1  -2  -6  811.33   26.87   0  0.66151
   1   2   6  787.40   22.08   0  0.66151
   1   2   6  847.01   27.04   0  0.66151
  -1  -2  -6  814.43   22.44   0  0.66151
  -2  -2  -6   46.17   18.90   0  0.66151
  -2  -2  -6   19.89   13.73   0  0.66151
   2   2   6   29.70   18.47   0  0.66151
   2   2   6   25.93   13.80   0  0.66151
   3   2   6  308.18   21.33   0  0.66151
  -3  -2  -6  302.47   17.12   0  0.66151
   3   2   6  307.81   17.02   0  0.66151
   4   2   6  467.79   20.62   0  0.66151
  -4  -2  -6  450.29   21.08   0  0.66151
   4   2   6  455.45   20.35   0  0.66151
   5   2   6   18.80   16.54   0  0.66151
   5   2   6   37.84   22.89   0  0.66151
  -5  -2  -6   47.34   22.80   0  0.66151
  -6  -2  -6   14.64   15.63   0  0.66151
   6   2   6    2.40   21.70   0  0.66151
  -7  -2  -6   34.92   17.37   0  0.66151
   7   2   6    5.08   17.57   0  0.66151
  -8  -2  -6   37.08   17.75   0  0.66151
   8   2   6   22.55   25.01   0  0.66151
   9   2   6    5.02   30.04   0  0.66151
  -9  -2  -6   -1.61   21.44   0  0.66151
  10   2   6  150.85   27.38   0  0.66151
 -10  -2  -6  159.59   31.65   0  0.66151
   6  -3  -6    2.92   27.16   0  0.66151
  -6   3   6   16.55   27.77   0  0.66151
  -6   3   6   23.96   27.70   0  0.66151
  -5   3   6   27.63   33.60   0  0.66151
   5  -3  -6   54.19   23.21   0  0.66151
  -5   3   6  102.34   23.69   0  0.66151
  -4   3   6  212.07   21.51   0  0.66151
   4  -3  -6  180.68   21.06   0  0.66151
  -4   3   6  210.02   28.56   0  0.66151
  -3   3   6  124.33   28.26   0  0.66151
   3  -3  -6  107.06   21.41   0  0.66151
  -3   3   6  134.63   20.43   0  0.66151
  -2   3   6  124.19   18.41   0  0.66151
  -2   3   6  143.54   24.49   0  0.66151
   2  -3  -6  143.97   24.94   0  0.66151
   1  -3  -6  662.99   23.02   0  0.66151
  -1   3   6  686.24   23.72   0  0.66151
   1  -3  -6  684.71   29.17   0  0.66151
  -1   3   6  636.77   28.39   0  0.66151
   0   3   6   30.00   17.92   0  0.66151
   0   3   6   24.04   17.16   0  0.66151
   0  -3  -6   27.10   17.82   0  0.66151
   0  -3  -6   29.89   17.08   0  0.66151
  -1  -3  -6    4.68   13.30   0  0.66151
   1   3   6   14.91   13.13   0  0.66151
   1   3   6   26.18   13.80   0  0.66151
  -1  -3  -6   13.32   13.95   0  0.66151
  -2  -3  -6  679.02   25.06   0  0.66151
   2   3   6  657.42   24.42   0  0.66151
  -2  -3  -6  630.10   21.86   0  0.66151
   2   3   6  691.03   21.51   0  0.66151
   3   3   6  533.23   23.98   0  0.66151
   3   3   6  507.30   19.47   0  0.66151
  -3  -3  -6  516.53   19.81   0  0.66151
   4   3   6   15.03   23.15   0  0.66151
  -4  -3  -6   -3.63   22.98   0  0.66151
   4   3   6    5.95   22.71   0  0.66151
   5   3   6  190.84   18.04   0  0.66151
   5   3   6  186.67   17.98   0  0.66151
  -5  -3  -6  198.37   18.49   0  0.66151
   6   3   6    5.24   21.81   0  0.66151
   6   3   6    8.23   15.27   0  0.66151
  -6  -3  -6   12.49   21.43   0  0.66151
  -7  -3  -6    4.24   25.39   0  0.66151
   7   3   6    2.34   17.47   0  0.66151
  -8  -3  -6  109.13   18.98   0  0.66151
   8   3   6  112.14   25.81   0  0.66151
   9   3   6   25.78   21.43   0  0.66151
  -9  -3  -6   20.50   33.04   0  0.66151
  10   3   6    4.94   30.25   0  0.66151
 -10  -3  -6   32.09   30.05   0  0.66151
  -6   4   6  -37.11   39.23   0  0.66151
   6  -4  -6   40.41   37.03   0  0.66151
  -6   4   6  -16.59   27.11   0  0.66151
  -5   4   6  140.09   24.08   0  0.66151
  -5   4   6  112.14   34.01   0  0.66151
   5  -4  -6   98.53   33.26   0  0.66151
  -4   4   6  226.91   21.84   0  0.66151
  -4   4   6  224.51   21.29   0  0.66151
   4  -4  -6  227.59   28.77   0  0.66151
  -3   4   6  111.97   28.92   0  0.66151
  -3   4   6  112.69   20.00   0  0.66151
   3  -4  -6  104.80   28.49   0  0.66151
  -2   4   6  118.05   17.71   0  0.66151
   2  -4  -6  131.60   18.40   0  0.66151
  -2   4   6  124.30   18.68   0  0.66151
  -1   4   6  169.27   19.28   0  0.66151
   1  -4  -6  174.22   25.54   0  0.66151
   1  -4  -6  166.32   19.07   0  0.66151
  -1   4   6  168.48   24.89   0  0.66151
   0   4   6  289.07   20.50   0  0.66151
   0  -4  -6  278.68   19.44   0  0.66151
   0   4   6  254.00   25.68   0  0.66151
   0  -4  -6  281.62   20.46   0  0.66151
   1   4   6   70.55   14.87   0  0.66151
   1   4   6   67.11   13.84   0  0.66151
  -1  -4  -6   71.89   14.31   0  0.66151
  -1  -4  -6   91.94   14.87   0  0.66151
   2   4   6   -0.32   13.78   0  0.66151
   2   4   6    1.96   18.46   0  0.66151
  -2  -4  -6   -1.84   18.81   0  0.66151
  -2  -4  -6    6.94   13.91   0  0.66151
   3   4   6  242.16   19.34   0  0.66151
  -3  -4  -6  223.63   19.08   0  0.66151
   3   4   6  236.36   18.87   0  0.66151
   4   4   6  119.09   17.91   0  0.66151
   4   4   6  125.28   17.75   0  0.66151
  -4  -4  -6  119.09   17.71   0  0.66151
   5   4   6   12.54   22.42   0  0.66151
   5   4   6   23.94   22.24   0  0.66151
  -5  -4  -6    9.88   23.00   0  0.66151
   6   4   6   21.29   20.26   0  0.66151
   6   4   6    6.11   21.58   0  0.66151
  -6  -4  -6    1.30   21.35   0  0.66151
   7   4   6  174.16   27.12   0  0.66151
  -7  -4  -6  164.12   27.08   0  0.66151
   7   4   6  145.39   19.91   0  0.66151
   8   4   6    1.60   21.32   0  0.66151
   8   4   6   -3.09   29.61   0  0.66151
  -8  -4  -6   13.79   21.00   0  0.66151
  -9  -4  -6  182.41   27.50   0  0.66151
   9   4   6  161.41   27.46   0  0.66151
 -10  -4  -6   48.30   29.79   0  0.66151
  10   4   6   33.14   43.27   0  0.66151
  -6   5   6    3.60   31.70   0  0.66151
  -6   5   6    3.21   42.05   0  0.66151
   6  -5  -6   10.31   26.82   0  0.66151
   5  -5  -6   48.71   22.44   0  0.66151
  -5   5   6   25.42   22.81   0  0.66151
  -5   5   6   24.29   23.25   0  0.66151
  -4   5   6  147.56   20.25   0  0.66151
  -4   5   6  141.84   28.81   0  0.66151
   4  -5  -6  178.61   27.63   0  0.66151
  -3   5   6   14.94   19.13   0  0.66151
  -3   5   6   14.07   28.53   0  0.66151
   3  -5  -6   23.87   19.74   0  0.66151
  -2   5   6   22.12   16.58   0  0.66151
   2  -5  -6   39.64   24.00   0  0.66151
  -2   5   6   40.93   17.79   0  0.66151
  -1   5   6  192.82   18.43   0  0.66151
   1  -5  -6  185.48   19.16   0  0.66151
  -1   5   6  201.38   19.40   0  0.66151
   0   5   6   11.02   24.79   0  0.66151
   0  -5  -6    2.32   17.02   0  0.66151
   0   5   6   11.03   16.98   0  0.66151
   0  -5  -6    5.58   24.94   0  0.66151
  -1  -5  -6  134.20   18.12   0  0.66151
   1   5   6  115.20   17.57   0  0.66151
  -1  -5  -6  134.63   26.07   0  0.66151
   1   5   6  131.16   25.83   0  0.66151
  -2  -5  -6  190.19   18.67   0  0.66151
   2   5   6  165.90   18.47   0  0.66151
   2   5   6  218.34   26.40   0  0.66151
  -2  -5  -6  191.47   26.78   0  0.66151
   3   5   6    6.42   23.70   0  0.66151
   3   5   6    4.83   16.28   0  0.66151
  -3  -5  -6    0.75   16.68   0  0.66151
  -4  -5  -6   60.20   17.06   0  0.66151
   4   5   6   58.10   23.18   0  0.66151
   4   5   6   48.41   16.75   0  0.66151
  -5  -5  -6  153.58   24.11   0  0.66151
   5   5   6  142.38   17.09   0  0.66151
   5   5   6  156.01   23.35   0  0.66151
  -6  -5  -6  109.97   26.95   0  0.66151
   6   5   6  116.91   27.19   0  0.66151
   6   5   6   98.41   19.03   0  0.66151
  -7  -5  -6   15.66   25.10   0  0.66151
   7   5   6   10.78   24.95   0  0.66151
   7   5   6   -2.29   17.32   0  0.66151
   8   5   6  304.10   33.01   0  0.66151
  -8  -5  -6  277.35   25.38   0  0.66151
   8   5   6  251.22   32.54   0  0.66151
   9   5   6   21.48   25.80   0  0.66151
  -9  -5  -6   20.41   25.31   0  0.66151
   9   5   6   18.59   25.40   0  0.66151
  -6   6   6   44.71   46.05   0  0.66151
   6  -6  -6   73.16   44.32   0  0.66151
  -6   6   6   86.34   44.38   0  0.66151
  -5   6   6   10.64   27.09   0  0.66151
  -5   6   6   26.48   35.59   0  0.66151
   5  -6  -6    6.88   22.43   0  0.66151
  -4   6   6    6.71   32.08   0  0.66151
  -4   6   6   36.88   23.52   0  0.66151
   4  -6  -6   38.46   32.74   0  0.66151
  -3   6   6  261.44   21.77   0  0.66151
  -3   6   6  275.20   30.37   0  0.66151
   3  -6  -6  251.00   29.83   0  0.66151
  -2   6   6   -7.51   19.25   0  0.66151
   2  -6  -6    6.83   19.95   0  0.66151
  -2   6   6  -13.83   20.48   0  0.66151
  -1   6   6   -9.14   16.31   0  0.66151
  -1   6   6    6.31   17.19   0  0.66151
   1  -6  -6    3.20   17.23   0  0.66151
   0   6   6   83.39   25.08   0  0.66151
   0   6   6   81.10   17.06   0  0.66151
   0  -6  -6   86.92   25.32   0  0.66151
   1   6   6  -11.32   24.72   0  0.66151
  -1  -6  -6   -6.96   23.96   0  0.66151
   1   6   6   -7.31   23.39   0  0.66151
  -1  -6  -6   -5.59   24.94   0  0.66151
   2   6   6   -8.57   16.27   0  0.66151
  -2  -6  -6    0.91   16.59   0  0.66151
  -2  -6  -6   10.63   24.78   0  0.66151
   2   6   6    1.97   24.22   0  0.66151
  -3  -6  -6   54.78   23.64   0  0.66151
   3   6   6   61.50   23.43   0  0.66151
  -3  -6  -6   61.79   24.95   0  0.66151
   3   6   6   65.87   24.22   0  0.66151
   4   6   6  461.48   22.43   0  0.66151
   4   6   6  461.28   22.21   0  0.66151
  -4  -6  -6  469.05   22.73   0  0.66151
  -5  -6  -6   22.75   27.19   0  0.66151
   5   6   6   39.45   25.60   0  0.66151
   5   6   6   45.42   26.53   0  0.66151
  -6  -6  -6  136.11   27.63   0  0.66151
   6   6   6  123.13   26.13   0  0.66151
   6   6   6  133.32   26.34   0  0.66151
   7   6   6   10.45   30.55   0  0.66151
  -7  -6  -6   11.89   30.46   0  0.66151
   7   6   6   -0.57   30.06   0  0.66151
   8   6   6   62.01   25.81   0  0.66151
  -8  -6  -6   61.70   37.37   0  0.66151
   8   6   6   88.64   36.69   0  0.66151
  -9  -6  -6  142.50   44.04   0  0.66151
   9   6   6  124.56   44.18   0  0.66151
   9   6   6  159.29   44.34   0  0.66151
  -6   7   6  -32.93   43.45   0  0.66151
  -6   7   6   20.04   31.64   0  0.66151
   6  -7  -6   21.70   30.65   0  0.66151
  -5   7   6   12.94   27.29   0  0.66151
  -5   7   6   47.37   37.60   0  0.66151
   5  -7  -6    5.28   27.54   0  0.66151
  -4   7   6   28.77   22.86   0  0.66151
  -4   7   6   13.60   22.16   0  0.66151
   4  -7  -6   12.25   22.21   0  0.66151
  -3   7   6   -4.37   26.00   0  0.66151
  -3   7   6   19.33   19.15   0  0.66151
   3  -7  -6    4.04   18.90   0  0.66151
   2  -7  -6   16.01   19.96   0  0.66151
  -2   7   6   38.34   18.71   0  0.66151
  -2   7   6   64.27   19.70   0  0.66151
  -1   7   6  164.76   25.75   0  0.66151
  -1   7   6  155.91   18.12   0  0.66151
   1  -7  -6  124.26   18.41   0  0.66151
   0   7   6   12.45   16.98   0  0.66151
   0   7   6    0.85   15.96   0  0.66151
   0  -7  -6    1.93   17.48   0  0.66151
   1   7   6   31.17   16.32   0  0.66151
   1   7   6   33.30   17.72   0  0.66151
  -1  -7  -6   29.01   17.86   0  0.66151
   2   7   6  127.73   23.53   0  0.66151
  -2  -7  -6  126.58   19.17   0  0.66151
   2   7   6  144.44   18.34   0  0.66151
  -2  -7  -6  116.24   24.68   0  0.66151
  -3  -7  -6   21.37   24.08   0  0.66151
   3   7   6   14.11   22.37   0  0.66151
  -3  -7  -6    4.81   22.87   0  0.66151
   3   7   6   11.64   23.35   0  0.66151
   4   7   6  -12.26   18.83   0  0.66151
  -4  -7  -6   -8.66   27.38   0  0.66151
   4   7   6   -4.53   26.52   0  0.66151
   5   7   6  140.66   19.95   0  0.66151
  -5  -7  -6  160.91   28.39   0  0.66151
   5   7   6  134.81   27.50   0  0.66151
   6   7   6   80.64   29.14   0  0.66151
  -6  -7  -6   77.09   23.60   0  0.66151
   6   7   6   61.72   28.64   0  0.66151
   7   7   6   20.94   30.83   0  0.66151
  -7  -7  -6   28.39   31.45   0  0.66151
   7   7   6   26.61   29.87   0  0.66151
  -8  -7  -6   35.78   37.14   0  0.66151
   8   7   6   34.18   36.47   0  0.66151
   8   7   6   42.95   37.04   0  0.66151
  -5   8   6   16.11   38.76   0  0.66151
  -5   8   6   22.65   25.98   0  0.66151
   5  -8  -6    3.75   41.65   0  0.66151
  -4   8   6   -5.32   22.90   0  0.66151
  -4   8   6   -1.12   31.25   0  0.66151
   4  -8  -6   17.87   22.56   0  0.66151
   3  -8  -6   48.49   32.39   0  0.66151
  -3   8   6   78.55   31.02   0  0.66151
  -3   8   6   36.28   32.93   0  0.66151
  -2   8   6    3.09   18.98   0  0.66151
   2  -8  -6  -10.14   19.53   0  0.66151
  -2   8   6   -9.84   25.38   0  0.66151
  -1   8   6    7.52   18.31   0  0.66151
   1  -8  -6   -2.69   19.81   0  0.66151
  -1   8   6   11.44   19.24   0  0.66151
   0   8   6   70.78   19.01   0  0.66151
   0  -8  -6   92.61   28.91   0  0.66151
   0   8   6   90.77   28.75   0  0.66151
   1   8   6   26.23   19.00   0  0.66151
  -1  -8  -6   -9.59   30.32   0  0.66151
   1   8   6   47.26   28.90   0  0.66151
  -2  -8  -6  110.13   30.54   0  0.66151
   2   8   6   98.67   20.55   0  0.66151
   2   8   6  105.73   29.58   0  0.66151
   3   8   6  244.34   29.24   0  0.66151
  -3  -8  -6  247.31   31.12   0  0.66151
   3   8   6  253.79   30.16   0  0.66151
   4   8   6   44.16   26.04   0  0.66151
   4   8   6   52.26   25.79   0  0.66151
  -4  -8  -6   42.51   27.45   0  0.66151
   5   8   6   14.76   27.10   0  0.66151
   5   8   6    4.05   28.67   0  0.66151
  -5  -8  -6    8.48   29.38   0  0.66151
  -6  -8  -6  374.53   44.41   0  0.66151
   6   8   6  346.25   43.24   0  0.66151
   6   8   6  305.93   35.22   0  0.66151
   7   8   6   19.90   36.49   0  0.66151
  -7  -8  -6   23.67   46.86   0  0.66151
   7   8   6   26.30   45.44   0  0.66151
   8   8   6    7.80   52.27   0  0.66151
   8   8   6   14.59   59.72   0  0.66151
  -8  -8  -6    8.06   61.08   0  0.66151
  -5   9   6   57.89   43.80   0  0.66151
  -5   9   6   53.56   30.10   0  0.66151
   5  -9  -6   55.37   43.68   0  0.66151
  -4   9   6   23.86   36.65   0  0.66151
  -4   9   6   21.86   27.12   0  0.66151
   4  -9  -6   22.03   26.85   0  0.66151
  -3   9   6   -9.08   31.43   0  0.66151
  -3   9   6   -7.44   32.51   0  0.66151
   3  -9  -6  -12.38   32.80   0  0.66151
  -2   9   6   11.04   22.62   0  0.66151
  -2   9   6   33.58   23.11   0  0.66151
   2  -9  -6   28.23   23.42   0  0.66151
  -1   9   6   32.34   17.56   0  0.66151
   1  -9  -6    6.25   19.75   0  0.66151
  -1   9   6   -7.87   19.79   0  0.66151
   0   9   6   14.34   19.03   0  0.66151
   0   9   6   -5.50   25.76   0  0.66151
   0  -9  -6   -9.04   19.59   0  0.66151
   1   9   6   -1.49   27.48   0  0.66151
   1   9   6    5.70   18.26   0  0.66151
  -1  -9  -6   19.00   27.71   0  0.66151
   2   9   6  177.50   28.10   0  0.66151
   2   9   6  185.60   22.07   0  0.66151
  -2  -9  -6  183.52   22.61   0  0.66151
  -3  -9  -6   34.13   19.94   0  0.66151
   3   9   6   31.93   26.11   0  0.66151
   3   9   6   39.10   19.03   0  0.66151
   4   9   6  151.33   24.63   0  0.66151
   4   9   6  154.78   33.68   0  0.66151
   5   9   6   21.57   36.27   0  0.66151
   5   9   6   13.17   30.88   0  0.66151
   6   9   6    7.07   51.01   0  0.66151
   6   9   6    6.69   52.59   0  0.66151
   4 -10  -6   12.73   30.83   0  0.66151
  -4  10   6   -3.34   30.48   0  0.66151
  -4  10   6    5.89   31.29   0  0.66151
  -3  10   6    9.47   26.06   0  0.66151
  -3  10   6   23.55   27.46   0  0.66151
   3 -10  -6    8.25   27.74   0  0.66151
  -2  10   6    9.95   33.77   0  0.66151
  -2  10   6  -12.11   35.63   0  0.66151
   2 -10  -6   13.96   22.51   0  0.66151
  -1  10   6    6.57   21.44   0  0.66151
   1 -10  -6   -9.18   32.91   0  0.66151
  -1  10   6    4.09   32.29   0  0.66151
   0  10   6  204.26   34.94   0  0.66151
   0  10   6  183.10   24.05   0  0.66151
   0 -10  -6  191.21   34.49   0  0.66151
   1  10   6   39.18   32.89   0  0.66151
  -1 -10  -6    1.43   33.93   0  0.66151
   1  10   6   12.42   22.04   0  0.66151
   2  10   6   24.08   30.70   0  0.66151
  -2 -10  -6   13.13   23.20   0  0.66151
   2  10   6   12.57   23.14   0  0.66151
   3  10   6   57.36   31.62   0  0.66151
   3  10   6   37.31   31.53   0  0.66151
   4  10   6   66.32   38.15   0  0.66151
   4  10   6   70.93   37.64   0  0.66151
   5  10   6   41.55   63.59   0  0.66151
  -3  11   6   -6.42   30.18   0  0.66151
  -3  11   6   15.25   44.33   0  0.66151
   3 -11  -6   33.12   43.81   0  0.66151
  -2  11   6   11.33   26.08   0  0.66151
   2 -11  -6   43.65   26.91   0  0.66151
  -2  11   6   13.15   27.40   0  0.66151
  -1  11   6  -17.33   25.91   0  0.66151
  -1  11   6   -5.19   27.63   0  0.66151
   1 -11  -6    3.24   27.40   0  0.66151
   0  11   6   44.08   28.91   0  0.66151
   0  11   6   33.47   37.31   0  0.66151
   0 -11  -6   50.05   28.58   0  0.66151
   1  11   6   51.88   36.94   0  0.66151
  -1 -11  -6   39.49   40.32   0  0.66151
   1  11   6   53.03   39.59   0  0.66151
   2  11   6    1.12   35.96   0  0.66151
  -2 -11  -6    4.39   38.86   0  0.66151
   2  11   6   18.93   37.54   0  0.66151
   3  11   6    4.44   37.38   0  0.66151
   3  11   6  -15.94   36.55   0  0.66151
   4  11   6  125.04   62.72   0  0.66151
   4  11   6  128.89   63.03   0  0.66151
  -1  12   6  -11.56   30.33   0  0.66151
   1 -12  -6  -10.16   31.91   0  0.66151
  -1  12   6   34.24   31.14   0  0.66151
   0  12   6   70.23   30.63   0  0.66151
   0 -12  -6   54.80   45.79   0  0.66151
   0  12   6   50.58   45.12   0  0.66151
  -1 -12  -6    3.43   45.51   0  0.66151
   1  12   6   -3.16   42.52   0  0.66151
   1  12   6   14.52   44.70   0  0.66151
   2  12   6   34.52   43.70   0  0.66151
  -2 -12  -6   64.04   45.95   0  0.66151
   2  12   6   65.20   45.39   0  0.66151
   3  12   6   -3.30   54.98   0  0.66151
  -2   7  -7   10.23   29.93   0  0.66151
   2  -7   7    8.33   29.51   0  0.66151
   2  -7   7  -42.15   28.84   0  0.66151
   3  -7   7   76.81   31.69   0  0.66151
  -3   7  -7   65.54   31.67   0  0.66151
   3  -7   7   78.08   29.91   0  0.66151
   4  -7   7   21.07   42.27   0  0.66151
  -4   7  -7  -21.56   42.66   0  0.66151
   4  -7   7   12.05   28.80   0  0.66151
   5  -7   7  -18.62   44.95   0  0.66151
  -5   7  -7   25.35   44.50   0  0.66151
   5  -7   7   37.76   40.13   0  0.66151
   0   6  -7   26.34   45.04   0  0.66151
   0  -6   7   10.32   41.18   0  0.66151
   0  -6   7   21.20   31.99   0  0.66151
  -1   6  -7  163.12   33.55   0  0.66151
   1  -6   7  157.18   40.01   0  0.66151
   1  -6   7  161.13   33.39   0  0.66151
   2  -6   7   53.47   37.84   0  0.66151
   2  -6   7   26.80   25.15   0  0.66151
  -2   6  -7   14.41   37.89   0  0.66151
   3  -6   7   61.09   26.87   0  0.66151
  -3   6  -7   63.77   26.54   0  0.66151
   3  -6   7   53.65   35.77   0  0.66151
  -4   6  -7  122.76   37.63   0  0.66151
   4  -6   7  101.25   26.34   0  0.66151
   4  -6   7   83.16   38.00   0  0.66151
  -5   6  -7   13.39   36.60   0  0.66151
   5  -6   7   24.98   25.11   0  0.66151
   6  -6   7   -4.28   29.84   0  0.66151
  -6   6  -7   20.37   30.11   0  0.66151
  -7   6  -7  -20.04   41.82   0  0.66151
   7  -6   7   15.42   41.44   0  0.66151
  -1  -5   7   71.18   42.63   0  0.66151
  -1  -5   7   89.95   33.15   0  0.66151
   1   5  -7   81.70   47.77   0  0.66151
   0  -5   7  297.56   41.24   0  0.66151
   0   5  -7  376.78   41.30   0  0.66151
   0  -5   7  290.44   27.79   0  0.66151
  -1   5  -7   67.64   22.98   0  0.66151
   1  -5   7   57.83   27.36   0  0.66151
   1  -5   7   41.91   32.88   0  0.66151
  -2   5  -7   90.08   23.00   0  0.66151
   2  -5   7  107.67   22.91   0  0.66151
   2  -5   7   60.37   30.70   0  0.66151
  -3   5  -7   10.99   30.96   0  0.66151
   3  -5   7   21.42   29.16   0  0.66151
   3  -5   7   32.20   30.87   0  0.66151
   4  -5   7   13.11   29.53   0  0.66151
  -4   5  -7   33.47   21.94   0  0.66151
   4  -5   7   31.70   22.18   0  0.66151
  -5   5  -7   71.07   21.95   0  0.66151
   5  -5   7   76.64   30.02   0  0.66151
  -6   5  -7   45.74   37.42   0  0.66151
   6  -5   7   58.56   35.90   0  0.66151
  -7   5  -7  -13.34   25.79   0  0.66151
   7  -5   7    8.61   24.82   0  0.66151
   8  -5   7   -2.31   29.89   0  0.66151
  -8   5  -7    8.75   42.20   0  0.66151
   2   4  -7  250.41   34.70   0  0.66151
  -2  -4   7  197.57   40.19   0  0.66151
  -2  -4   7  203.44   30.42   0  0.66151
  -1  -4   7   15.91   35.82   0  0.66151
  -1  -4   7   10.04   27.88   0  0.66151
   1   4  -7   21.77   38.27   0  0.66151
   0   4  -7   12.79   22.47   0  0.66151
   0  -4   7   12.53   22.50   0  0.66151
   0  -4   7    5.68   29.39   0  0.66151
  -1   4  -7  478.59   35.52   0  0.66151
   1  -4   7  379.53   33.15   0  0.66151
   1  -4   7  455.47   35.63   0  0.66151
  -2   4  -7   89.19   29.99   0  0.66151
   2  -4   7  119.68   30.07   0  0.66151
   2  -4   7  100.28   18.42   0  0.66151
  -3   4  -7   96.56   19.53   0  0.66151
   3  -4   7   87.22   25.31   0  0.66151
   3  -4   7  111.66   19.62   0  0.66151
   4  -4   7   62.75   17.75   0  0.66151
   4  -4   7   26.02   26.06   0  0.66151
  -4   4  -7   29.02   25.80   0  0.66151
  -5   4  -7   25.62   29.66   0  0.66151
   5  -4   7    5.37   20.41   0  0.66151
  -6   4  -7    7.75   21.20   0  0.66151
   6  -4   7   -8.05   29.19   0  0.66151
  -7   4  -7   24.20   33.79   0  0.66151
   7  -4   7   45.89   21.06   0  0.66151
  -8   4  -7   -4.27   36.08   0  0.66151
   8  -4   7   43.80   35.33   0  0.66151
   9  -4   7   13.72   29.72   0  0.66151
  -9   4  -7   24.62   41.98   0  0.66151
  -3  -3   7   12.81   29.51   0  0.66151
  -3  -3   7  -11.82   46.07   0  0.66151
   2   3  -7  211.26   29.62   0  0.66151
  -2  -3   7  170.05   37.64   0  0.66151
  -2  -3   7  183.96   28.94   0  0.66151
   1   3  -7  239.72   25.62   0  0.66151
  -1  -3   7  179.65   31.93   0  0.66151
  -1  -3   7  182.64   25.34   0  0.66151
   0  -3   7    1.20   25.20   0  0.66151
   0   3  -7   18.66   26.47   0  0.66151
   0  -3   7    4.51   26.59   0  0.66151
  -1   3  -7   80.97   27.42   0  0.66151
   1  -3   7   59.42   18.23   0  0.66151
   1  -3   7   52.89   27.26   0  0.66151
  -2   3  -7  350.30   29.62   0  0.66151
   2  -3   7  373.11   27.59   0  0.66151
   2  -3   7  344.37   29.62   0  0.66151
   3  -3   7   10.06   18.60   0  0.66151
   3  -3   7    7.33   24.64   0  0.66151
  -3   3  -7   -3.89   18.38   0  0.66151
   4  -3   7   69.10   25.89   0  0.66151
   4  -3   7   39.20   18.34   0  0.66151
  -4   3  -7   33.83   25.92   0  0.66151
  -5   3  -7  284.11   26.80   0  0.66151
   5  -3   7  247.08   19.75   0  0.66151
  -6   3  -7   51.64   18.15   0  0.66151
   6  -3   7   52.03   18.13   0  0.66151
  -7   3  -7   20.02   30.06   0  0.66151
   7  -3   7   34.82   29.68   0  0.66151
  -8   3  -7   42.44   25.54   0  0.66151
   8  -3   7   53.23   25.70   0  0.66151
   9  -3   7    6.80   30.21   0  0.66151
  -9   3  -7   79.08   39.02   0  0.66151
   4   2  -7   60.69   42.85   0  0.66151
  -4  -2   7   59.24   32.45   0  0.66151
  -4  -2   7   82.62   43.00   0  0.66151
  -3  -2   7   42.20   39.73   0  0.66151
   3   2  -7   38.62   36.90   0  0.66151
  -3  -2   7   44.46   37.42   0  0.66151
  -2  -2   7  209.49   34.47   0  0.66151
  -2  -2   7  164.58   32.61   0  0.66151
   2   2  -7  247.63   34.78   0  0.66151
  -1  -2   7  411.34   22.84   0  0.66151
   1   2  -7  462.80   24.36   0  0.66151
  -1  -2   7  422.74   24.49   0  0.66151
   0  -2   7  355.34   28.59   0  0.66151
   0  -2   7  333.61   29.89   0  0.66151
   0   2  -7  366.22   30.34   0  0.66151
  -1   2  -7   23.92   26.68   0  0.66151
   1  -2   7    7.67   25.94   0  0.66151
   1  -2   7   12.35   27.24   0  0.66151
  -2   2  -7   -0.74   24.47   0  0.66151
   2  -2   7   -4.43   23.73   0  0.66151
   2  -2   7    9.97   24.67   0  0.66151
   3  -2   7  152.65   23.65   0  0.66151
  -3   2  -7  138.45   17.60   0  0.66151
   3  -2   7  160.85   22.31   0  0.66151
   4  -2   7  229.02   25.92   0  0.66151
   4  -2   7  199.05   20.07   0  0.66151
  -4   2  -7  220.49   25.69   0  0.66151
  -5   2  -7   17.41   18.10   0  0.66151
   5  -2   7   32.99   17.66   0  0.66151
   6  -2   7   28.45   17.38   0  0.66151
  -6   2  -7   24.55   25.60   0  0.66151
   7  -2   7   32.03   17.60   0  0.66151
  -7   2  -7    8.13   27.73   0  0.66151
  -8   2  -7   -3.12   29.91   0  0.66151
   8  -2   7   11.12   20.74   0  0.66151
   9  -2   7   -7.02   25.80   0  0.66151
  -9   2  -7    7.66   25.78   0  0.66151
  10  -2   7   25.90   29.09   0  0.66151
 -10   2  -7   17.31   41.94   0  0.66151
  -4  -1   7  269.71   31.56   0  0.66151
  -4  -1   7  284.60   29.40   0  0.66151
   4   1  -7  313.54   28.83   0  0.66151
  -3  -1   7   27.23   32.97   0  0.66151
   3   1  -7   39.62   22.25   0  0.66151
  -3  -1   7   37.26   22.47   0  0.66151
   2   1  -7  -11.86   32.98   0  0.66151
  -2  -1   7   -9.28   32.90   0  0.66151
  -2  -1   7    2.79   28.50   0  0.66151
   2   1  -7   17.58   28.35   0  0.66151
  -1  -1   7  277.48   22.56   0  0.66151
   1   1  -7  310.76   23.53   0  0.66151
   1   1  -7  338.44   28.90   0  0.66151
  -1  -1   7  289.75   29.09   0  0.66151
   0  -1   7   51.53   19.66   0  0.66151
   0  -1   7   46.65   20.04   0  0.66151
   0   1  -7   72.45   19.75   0  0.66151
  -1   1  -7   66.89   17.11   0  0.66151
   1  -1   7   73.34   16.74   0  0.66151
   1  -1   7   66.96   16.78   0  0.66151
   2  -1   7  863.62   23.68   0  0.66151
   2  -1   7  829.13   28.19   0  0.66151
  -2   1  -7  826.65   23.82   0  0.66151
  -3   1  -7  119.95   17.49   0  0.66151
   3  -1   7  110.11   16.85   0  0.66151
   3  -1   7  115.52   17.43   0  0.66151
  -4   1  -7   24.52   16.11   0  0.66151
   4  -1   7   32.36   21.73   0  0.66151
   4  -1   7   20.97   16.07   0  0.66151
  -5   1  -7    9.81   15.04   0  0.66151
   5  -1   7   15.28   14.85   0  0.66151
   6  -1   7   -8.48   24.79   0  0.66151
  -6   1  -7   -3.85   18.16   0  0.66151
  -7   1  -7   -4.84   17.47   0  0.66151
   7  -1   7    0.27   17.30   0  0.66151
  -8   1  -7  223.33   23.00   0  0.66151
   8  -1   7  216.44   22.41   0  0.66151
  -9   1  -7   -0.95   25.41   0  0.66151
   9  -1   7    3.29   24.79   0  0.66151
  10  -1   7   -5.72   29.58   0  0.66151
 -10   1  -7   16.13   30.14   0  0.66151
  -5   0   7    4.53   31.17   0  0.66151
  -5   0   7  -17.70   31.57   0  0.66151
   5   0  -7  -14.44   29.84   0  0.66151
  -4   0   7  139.43   39.88   0  0.66151
  -4   0   7  150.97   38.97   0  0.66151
   4   0  -7  117.16   38.86   0  0.66151
  -3   0   7  464.81   35.80   0  0.66151
  -3   0   7  489.38   34.99   0  0.66151
   3   0  -7  479.02   34.49   0  0.66151
   2   0  -7   42.05   27.58   0  0.66151
   2   0  -7   53.62   18.85   0  0.66151
  -2   0   7   58.11   27.25   0  0.66151
  -2   0   7   27.60   19.79   0  0.66151
   1   0  -7    0.17   19.37   0  0.66151
   1   0  -7   -3.64   19.06   0  0.66151
  -1   0   7   -7.02   18.98   0  0.66151
  -1   0   7    9.39   18.80   0  0.66151
   0   0  -7  447.76   20.94   0  0.66151
   0   0  -7  468.77   20.69   0  0.66151
   0   0   7  449.48   21.06   0  0.66151
   0   0   7  472.60   20.72   0  0.66151
  -1   0  -7   -5.40   16.89   0  0.66151
   1   0   7   18.43   16.15   0  0.66151
   1   0   7   16.01   16.38   0  0.66151
  -2   0  -7   72.71   17.45   0  0.66151
   2   0   7   64.48   23.29   0  0.66151
   2   0   7   74.90   17.17   0  0.66151
   3   0   7  417.86   25.62   0  0.66151
  -3   0  -7  454.08   20.11   0  0.66151
   3   0   7  420.21   20.33   0  0.66151
  -4   0  -7   -4.58   15.98   0  0.66151
   4   0   7   -6.52   15.92   0  0.66151
   4   0   7   14.82   15.81   0  0.66151
   5   0   7   -0.96   15.76   0  0.66151
   5   0   7    7.49   15.37   0  0.66151
  -5   0  -7   -0.85   15.62   0  0.66151
  -6   0  -7  276.14   20.29   0  0.66151
   6   0   7  262.48   20.67   0  0.66151
  -7   0  -7  140.20   19.25   0  0.66151
   7   0   7  143.79   18.73   0  0.66151
   8   0   7   25.25   21.71   0  0.66151
  -8   0  -7   41.79   21.45   0  0.66151
  -9   0  -7  292.26   27.67   0  0.66151
   9   0   7  273.90   34.51   0  0.66151
  10   0   7   57.99   30.56   0  0.66151
 -10   0  -7  -10.49   43.46   0  0.66151
  -5   1   7   56.60   44.59   0  0.66151
   5  -1  -7   31.39   43.97   0  0.66151
  -5   1   7   25.70   45.81   0  0.66151
  -4   1   7   62.43   23.72   0  0.66151
  -4   1   7   76.49   23.13   0  0.66151
   4  -1  -7   57.13   23.18   0  0.66151
  -3   1   7  107.83   24.81   0  0.66151
  -3   1   7  172.45   33.44   0  0.66151
   3  -1  -7  144.44   30.57   0  0.66151
   2  -1  -7  261.57   21.73   0  0.66151
  -2   1   7  232.98   28.57   0  0.66151
   2  -1  -7  217.40   21.34   0  0.66151
  -2   1   7  196.42   21.60   0  0.66151
   1  -1  -7   47.20   22.63   0  0.66151
  -1   1   7   42.35   22.84   0  0.66151
   1  -1  -7   45.26   16.76   0  0.66151
  -1   1   7   60.97   16.15   0  0.66151
   0  -1  -7  227.92   18.88   0  0.66151
   0   1   7  230.32   18.93   0  0.66151
   0   1   7  247.48   19.07   0  0.66151
   0  -1  -7  252.29   19.09   0  0.66151
  -1  -1  -7  482.56   20.57   0  0.66151
  -1  -1  -7  462.78   20.73   0  0.66151
   1   1   7  453.24   20.74   0  0.66151
   1   1   7  454.70   20.86   0  0.66151
   2   1   7  278.52   19.28   0  0.66151
  -2  -1  -7  297.51   24.91   0  0.66151
   2   1   7  275.35   25.49   0  0.66151
  -3  -1  -7    6.82   23.42   0  0.66151
   3   1   7   10.80   16.48   0  0.66151
   3   1   7    2.52   23.32   0  0.66151
   4   1   7  224.03   18.33   0  0.66151
   4   1   7  229.94   24.50   0  0.66151
  -4  -1  -7  203.49   24.43   0  0.66151
   5   1   7  305.59   24.68   0  0.66151
   5   1   7  295.14   24.25   0  0.66151
  -5  -1  -7  274.49   24.74   0  0.66151
  -6  -1  -7   23.52   15.54   0  0.66151
   6   1   7   47.61   14.82   0  0.66151
  -7  -1  -7   83.21   18.85   0  0.66151
   7   1   7   79.77   18.27   0  0.66151
  -8  -1  -7   81.07   21.71   0  0.66151
   8   1   7   49.93   27.95   0  0.66151
   9   1   7   62.64   30.71   0  0.66151
  -9  -1  -7   95.78   22.10   0  0.66151
  10   1   7  133.42   31.30   0  0.66151
 -10  -1  -7  143.34   31.03   0  0.66151
  -5   2   7   83.60   28.53   0  0.66151
   5  -2  -7  100.92   27.57   0  0.66151
  -5   2   7   96.87   28.11   0  0.66151
  -4   2   7   60.01   32.52   0  0.66151
   4  -2  -7   28.65   31.90   0  0.66151
  -4   2   7   48.21   23.19   0  0.66151
  -3   2   7  141.29   27.72   0  0.66151
  -3   2   7  117.29   20.73   0  0.66151
   3  -2  -7  126.30   20.01   0  0.66151
   2  -2  -7   43.70   19.94   0  0.66151
  -2   2   7   15.94   20.42   0  0.66151
  -2   2   7   57.89   19.59   0  0.66151
   2  -2  -7   42.02   19.80   0  0.66151
   1  -2  -7   -6.14   16.47   0  0.66151
  -1   2   7    4.29   16.36   0  0.66151
  -1   2   7   10.38   16.51   0  0.66151
   1  -2  -7   10.51   16.32   0  0.66151
   0  -2  -7  387.59   26.61   0  0.66151
   0  -2  -7  376.21   26.35   0  0.66151
   0   2   7  365.66   26.15   0  0.66151
   0   2   7  378.83   26.57   0  0.66151
   1   2   7  269.81   25.92   0  0.66151
   1   2   7  243.83   18.83   0  0.66151
  -1  -2  -7  228.72   18.72   0  0.66151
  -1  -2  -7  247.71   25.46   0  0.66151
   2   2   7   22.24   23.63   0  0.66151
  -2  -2  -7   21.31   23.80   0  0.66151
   2   2   7   16.80   23.56   0  0.66151
   3   2   7  347.60   19.67   0  0.66151
   3   2   7  358.56   19.81   0  0.66151
  -3  -2  -7  353.90   19.82   0  0.66151
   4   2   7  -12.87   22.81   0  0.66151
  -4  -2  -7   11.72   22.54   0  0.66151
   4   2   7    6.94   22.86   0  0.66151
  -5  -2  -7   48.33   22.29   0  0.66151
   5   2   7   28.76   15.68   0  0.66151
   5   2   7   14.01   22.88   0  0.66151
   6   2   7  474.48   19.95   0  0.66151
   6   2   7  440.15   19.53   0  0.66151
  -6  -2  -7  484.93   19.96   0  0.66151
   7   2   7  154.88   19.30   0  0.66151
  -7  -2  -7  158.30   19.24   0  0.66151
  -8  -2  -7  165.63   31.95   0  0.66151
   8   2   7  155.31   31.31   0  0.66151
  -9  -2  -7  220.65   34.80   0  0.66151
   9   2   7  194.95   23.21   0  0.66151
  10   2   7   -6.72   30.98   0  0.66151
 -10  -2  -7   19.04   42.63   0  0.66151
   5  -3  -7  121.18   28.62   0  0.66151
  -5   3   7  150.75   28.83   0  0.66151
  -5   3   7  130.42   28.59   0  0.66151
  -4   3   7   -9.13   32.31   0  0.66151
  -4   3   7   17.90   31.88   0  0.66151
   4  -3  -7    4.76   32.07   0  0.66151
  -3   3   7   21.65   19.05   0  0.66151
  -3   3   7    7.53   19.05   0  0.66151
   3  -3  -7   18.05   18.52   0  0.66151
  -2   3   7  430.32   30.40   0  0.66151
  -2   3   7  392.93   22.82   0  0.66151
   2  -3  -7  352.54   30.83   0  0.66151
   1  -3  -7  124.90   18.58   0  0.66151
  -1   3   7  125.87   23.96   0  0.66151
  -1   3   7  148.04   24.96   0  0.66151
   1  -3  -7  148.45   24.57   0  0.66151
   0   3   7   55.22   17.80   0  0.66151
   0  -3  -7   41.58   17.39   0  0.66151
   0   3   7   47.68   16.74   0  0.66151
   0  -3  -7   50.80   17.07   0  0.66151
  -1  -3  -7  129.07   17.75   0  0.66151
   1   3   7  140.73   17.43   0  0.66151
   1   3   7  129.69   25.19   0  0.66151
  -1  -3  -7  130.39   25.20   0  0.66151
   2   3   7   -3.67   23.49   0  0.66151
  -2  -3  -7   -2.30   24.24   0  0.66151
   2   3   7    0.36   24.03   0  0.66151
  -2  -3  -7   10.70   23.47   0  0.66151
   3   3   7    4.17   16.63   0  0.66151
  -3  -3  -7   14.21   23.23   0  0.66151
   3   3   7   14.96   22.99   0  0.66151
   4   3   7  340.51   19.56   0  0.66151
  -4  -3  -7  347.36   19.62   0  0.66151
   4   3   7  326.70   19.21   0  0.66151
   5   3   7   27.33   22.56   0  0.66151
   5   3   7   36.37   15.95   0  0.66151
  -5  -3  -7   27.43   22.56   0  0.66151
  -6  -3  -7   86.15   15.91   0  0.66151
   6   3   7   86.88   16.22   0  0.66151
   6   3   7   90.37   15.77   0  0.66151
   7   3   7  543.76   29.91   0  0.66151
   7   3   7  588.68   23.48   0  0.66151
  -7  -3  -7  547.26   23.72   0  0.66151
  -8  -3  -7   30.11   30.30   0  0.66151
   8   3   7   34.13   21.75   0  0.66151
  -9  -3  -7   18.23   35.32   0  0.66151
   9   3   7   -7.18   35.74   0  0.66151
  10   3   7  196.38   45.20   0  0.66151
 -10  -3  -7  220.09   32.38   0  0.66151
   6  -4  -7   18.52   34.01   0  0.66151
  -6   4   7   21.64   30.24   0  0.66151
  -5   4   7   62.21   38.59   0  0.66151
   5  -4  -7   40.32   37.98   0  0.66151
  -5   4   7   53.53   38.74   0  0.66151
  -4   4   7   33.48   33.06   0  0.66151
   4  -4  -7   57.46   22.83   0  0.66151
  -4   4   7   57.90   23.29   0  0.66151
   3  -4  -7  -12.55   27.39   0  0.66151
  -3   4   7   21.03   18.75   0  0.66151
  -3   4   7   12.84   27.65   0  0.66151
  -2   4   7   80.63   27.07   0  0.66151
   2  -4  -7   48.91   20.27   0  0.66151
  -2   4   7   81.52   20.58   0  0.66151
  -1   4   7  261.86   19.41   0  0.66151
   1  -4  -7  236.81   18.98   0  0.66151
   1  -4  -7  257.13   19.36   0  0.66151
  -1   4   7  240.79   18.89   0  0.66151
   0  -4  -7  128.25   17.61   0  0.66151
   0   4   7  127.49   25.46   0  0.66151
   0   4   7  113.35   17.80   0  0.66151
   0  -4  -7  104.60   25.04   0  0.66151
   1   4   7    6.48   16.37   0  0.66151
  -1  -4  -7   -6.20   16.82   0  0.66151
   1   4   7   14.45   24.41   0  0.66151
  -1  -4  -7   -2.20   24.30   0  0.66151
   2   4   7  189.33   18.96   0  0.66151
  -2  -4  -7  204.00   18.62   0  0.66151
   2   4   7  189.39   18.35   0  0.66151
  -2  -4  -7  197.22   18.88   0  0.66151
   3   4   7  713.28   28.60   0  0.66151
  -3  -4  -7  728.07   22.95   0  0.66151
   3   4   7  651.16   22.29   0  0.66151
   4   4   7  290.18   25.06   0  0.66151
  -4  -4  -7  285.31   25.14   0  0.66151
   4   4   7  290.07   25.62   0  0.66151
   5   4   7  329.77   19.48   0  0.66151
  -5  -4  -7  370.89   25.32   0  0.66151
   5   4   7  387.60   24.94   0  0.66151
   6   4   7   30.78   18.48   0  0.66151
   6   4   7   13.23   25.40   0  0.66151
  -6  -4  -7   17.80   18.61   0  0.66151
  -7  -4  -7  134.53   26.47   0  0.66151
   7   4   7  135.59   26.11   0  0.66151
   7   4   7  135.64   25.51   0  0.66151
  -8  -4  -7  250.42   23.83   0  0.66151
   8   4   7  237.80   23.80   0  0.66151
   8   4   7  232.49   31.59   0  0.66151
   9   4   7    9.12   26.50   0  0.66151
  -9  -4  -7   27.93   25.92   0  0.66151
   9   4   7   19.06   25.96   0  0.66151
  10   4   7   -1.14   42.47   0  0.66151
 -10  -4  -7   -3.83   41.58   0  0.66151
  10   4   7   40.95   41.68   0  0.66151
  -5   5   7   -6.49   28.11   0  0.66151
   5  -5  -7   11.29   27.49   0  0.66151
  -5   5   7    9.21   38.67   0  0.66151
  -4   5   7   57.62   33.05   0  0.66151
  -4   5   7   21.80   32.81   0  0.66151
   4  -5  -7   28.22   32.44   0  0.66151
   3  -5  -7   90.74   19.79   0  0.66151
  -3   5   7   37.56   19.88   0  0.66151
  -3   5   7   86.42   26.55   0  0.66151
  -2   5   7  152.91   20.34   0  0.66151
   2  -5  -7  183.36   28.75   0  0.66151
  -2   5   7  179.47   29.37   0  0.66151
  -1   5   7   14.47   23.13   0  0.66151
   1  -5  -7    9.44   22.94   0  0.66151
  -1   5   7   16.95   15.53   0  0.66151
   0   5   7   38.48   17.62   0  0.66151
   0   5   7   28.44   23.44   0  0.66151
   0  -5  -7   48.87   23.68   0  0.66151
   0  -5  -7   42.79   17.32   0  0.66151
   1   5   7  220.64   18.56   0  0.66151
   1   5   7  241.84   19.64   0  0.66151
  -1  -5  -7  258.59   25.15   0  0.66151
  -1  -5  -7  225.91   19.69   0  0.66151
   2   5   7   -8.69   24.16   0  0.66151
  -2  -5  -7   10.96   24.46   0  0.66151
   2   5   7   11.18   15.81   0  0.66151
  -2  -5  -7   15.17   16.46   0  0.66151
   3   5   7   -0.07   22.59   0  0.66151
  -3  -5  -7   10.32   23.21   0  0.66151
  -3  -5  -7    0.20   17.30   0  0.66151
   3   5   7    6.69   16.88   0  0.66151
  -4  -5  -7  455.01   20.76   0  0.66151
   4   5   7  452.88   26.82   0  0.66151
   4   5   7  438.58   20.80   0  0.66151
   5   5   7  186.72   17.63   0  0.66151
  -5  -5  -7  179.01   17.60   0  0.66151
   5   5   7  225.74   23.38   0  0.66151
  -6  -5  -7  135.34   20.12   0  0.66151
   6   5   7  157.34   19.54   0  0.66151
   6   5   7  123.51   26.19   0  0.66151
  -7  -5  -7  344.82   23.69   0  0.66151
   7   5   7  346.39   22.04   0  0.66151
   7   5   7  379.14   22.73   0  0.66151
  -8  -5  -7  158.56   31.89   0  0.66151
   8   5   7  169.24   31.83   0  0.66151
   8   5   7  136.86   31.08   0  0.66151
   9   5   7  138.21   37.37   0  0.66151
  -9  -5  -7  164.42   37.81   0  0.66151
   9   5   7  111.44   38.68   0  0.66151
   5  -6  -7   -3.72   26.95   0  0.66151
  -5   6   7    5.35   27.42   0  0.66151
  -5   6   7   12.68   27.18   0  0.66151
  -4   6   7   79.46   33.34   0  0.66151
   4  -6  -7   65.86   32.73   0  0.66151
  -4   6   7   90.13   31.61   0  0.66151
  -3   6   7    4.90   23.22   0  0.66151
  -3   6   7   30.20   23.92   0  0.66151
   3  -6  -7   36.71   23.39   0  0.66151
  -2   6   7   -7.95   27.67   0  0.66151
  -2   6   7   -2.44   18.17   0  0.66151
   2  -6  -7    2.09   27.12   0  0.66151
  -1   6   7   55.65   28.47   0  0.66151
  -1   6   7   39.72   18.98   0  0.66151
   1  -6  -7   46.18   28.12   0  0.66151
   0   6   7   17.01   16.54   0  0.66151
   0  -6  -7   -3.36   17.11   0  0.66151
   0   6   7    7.66   15.37   0  0.66151
   0  -6  -7    7.93   16.18   0  0.66151
   1   6   7  239.52   19.49   0  0.66151
  -1  -6  -7  225.60   19.52   0  0.66151
   1   6   7  217.30   24.45   0  0.66151
  -1  -6  -7  229.80   24.58   0  0.66151
   2   6   7  330.25   19.65   0  0.66151
  -2  -6  -7  346.66   20.06   0  0.66151
   2   6   7  375.34   20.81   0  0.66151
  -2  -6  -7  370.35   21.04   0  0.66151
  -3  -6  -7    4.21   15.73   0  0.66151
  -3  -6  -7   12.73   23.89   0  0.66151
   3   6   7    5.71   15.62   0  0.66151
   3   6   7  -16.81   23.32   0  0.66151
   4   6   7   80.09   16.35   0  0.66151
  -4  -6  -7   66.46   23.01   0  0.66151
   4   6   7   75.82   22.26   0  0.66151
   5   6   7  610.61   25.98   0  0.66151
   5   6   7  649.21   32.24   0  0.66151
  -5  -6  -7  616.03   26.07   0  0.66151
   6   6   7   11.28   18.06   0  0.66151
  -6  -6  -7   -1.57   18.74   0  0.66151
   6   6   7   22.42   24.50   0  0.66151
   7   6   7   -5.39   29.90   0  0.66151
  -7  -6  -7    5.35   21.76   0  0.66151
   7   6   7    5.65   21.06   0  0.66151
  -8  -6  -7  310.02   39.51   0  0.66151
   8   6   7  326.43   39.00   0  0.66151
   8   6   7  300.83   38.07   0  0.66151
  -9  -6  -7   47.98   43.92   0  0.66151
   9   6   7   84.83   43.15   0  0.66151
   9   6   7   58.32   31.45   0  0.66151
  -5   7   7  -55.55   46.27   0  0.66151
   5  -7  -7  -38.91   45.00   0  0.66151
  -5   7   7   80.86   43.66   0  0.66151
  -4   7   7   -2.65   26.73   0  0.66151
   4  -7  -7   16.42   26.78   0  0.66151
  -4   7   7   -7.76   27.85   0  0.66151
  -3   7   7   -0.09   31.66   0  0.66151
   3  -7  -7    9.69   31.98   0  0.66151
  -3   7   7   14.41   32.30   0  0.66151
  -2   7   7   45.78   18.39   0  0.66151
   2  -7  -7   33.15   19.22   0  0.66151
  -2   7   7   11.35   19.34   0  0.66151
   1  -7  -7   47.47   27.31   0  0.66151
  -1   7   7   28.45   18.74   0  0.66151
  -1   7   7  -20.11   28.55   0  0.66151
   0   7   7   14.21   20.24   0  0.66151
   0   7   7   17.85   26.34   0  0.66151
   0  -7  -7   22.33   20.35   0  0.66151
  -1  -7  -7  167.92   27.94   0  0.66151
   1   7   7  157.09   27.68   0  0.66151
   1   7   7  166.70   25.88   0  0.66151
  -1  -7  -7  165.30   27.15   0  0.66151
  -2  -7  -7  121.75   24.65   0  0.66151
   2   7   7  112.59   24.72   0  0.66151
   2   7   7   96.75   20.43   0  0.66151
  -2  -7  -7  110.51   26.32   0  0.66151
  -3  -7  -7  332.07   23.33   0  0.66151
  -3  -7  -7  312.23   23.67   0  0.66151
   3   7   7  301.85   21.79   0  0.66151
   3   7   7  324.49   23.25   0  0.66151
  -4  -7  -7   27.98   19.58   0  0.66151
   4   7   7   40.79   18.70   0  0.66151
   4   7   7   22.44   18.80   0  0.66151
   5   7   7  131.51   26.84   0  0.66151
   5   7   7  153.29   26.56   0  0.66151
  -5  -7  -7  162.81   27.57   0  0.66151
   6   7   7  344.69   34.25   0  0.66151
   6   7   7  362.74   26.46   0  0.66151
  -6  -7  -7  386.69   26.96   0  0.66151
   7   7   7    0.37   21.02   0  0.66151
   7   7   7    5.35   21.29   0  0.66151
  -7  -7  -7    3.71   21.77   0  0.66151
  -8  -7  -7   -3.91   36.97   0  0.66151
   8   7   7   19.57   36.42   0  0.66151
   8   7   7   35.50   35.63   0  0.66151
  -5   8   7  -40.11   43.27   0  0.66151
  -5   8   7   -4.52   32.07   0  0.66151
   5  -8  -7   15.77   30.40   0  0.66151
   4  -8  -7    8.47   38.08   0  0.66151
  -4   8   7   -5.01   38.93   0  0.66151
  -4   8   7   -0.87   37.11   0  0.66151
  -3   8   7   17.99   22.63   0  0.66151
   3  -8  -7    8.55   22.54   0  0.66151
  -3   8   7  -15.58   22.28   0  0.66151
  -2   8   7    8.52   22.12   0  0.66151
   2  -8  -7   11.64   32.20   0  0.66151
  -2   8   7   13.79   32.52   0  0.66151
  -1   8   7  165.29   26.80   0  0.66151
   1  -8  -7  146.88   20.60   0  0.66151
  -1   8   7  159.12   21.24   0  0.66151
   0   8   7   13.24   19.91   0  0.66151
   0   8   7    2.98   18.58   0  0.66151
   0  -8  -7   25.13   19.82   0  0.66151
   1   8   7   -7.27   18.53   0  0.66151
   1   8   7    7.27   20.03   0  0.66151
  -1  -8  -7    0.98   20.30   0  0.66151
  -2  -8  -7   69.93   28.70   0  0.66151
   2   8   7   32.89   26.79   0  0.66151
   2   8   7   64.68   28.25   0  0.66151
  -3  -8  -7   52.95   28.83   0  0.66151
  -3  -8  -7   73.94   27.16   0  0.66151
   3   8   7   55.60   19.05   0  0.66151
   3   8   7   60.69   27.76   0  0.66151
  -4  -8  -7   48.90   19.37   0  0.66151
   4   8   7   44.09   18.88   0  0.66151
   4   8   7   51.36   18.94   0  0.66151
   5   8   7  187.63   32.98   0  0.66151
  -5  -8  -7  217.65   34.30   0  0.66151
   5   8   7  214.67   32.86   0  0.66151
  -6  -8  -7  263.69   34.41   0  0.66151
   6   8   7  231.66   34.21   0  0.66151
   6   8   7  212.18   32.76   0  0.66151
  -7  -8  -7  174.90   39.97   0  0.66151
   7   8   7  166.82   38.88   0  0.66151
   7   8   7  144.78   37.80   0  0.66151
   8   8   7  -16.14   42.50   0  0.66151
  -8  -8  -7    3.57   42.49   0  0.66151
   8   8   7  -12.92   42.47   0  0.66151
  -4   9   7   12.85   30.79   0  0.66151
   4  -9  -7   28.35   30.28   0  0.66151
  -4   9   7  -34.59   45.20   0  0.66151
  -3   9   7   -0.04   27.45   0  0.66151
  -3   9   7  -20.65   26.33   0  0.66151
   3  -9  -7  -24.55   27.22   0  0.66151
  -2   9   7   -1.50   33.09   0  0.66151
  -2   9   7   40.82   21.78   0  0.66151
   2  -9  -7   24.40   23.19   0  0.66151
   1  -9  -7   51.74   23.58   0  0.66151
  -1   9   7   32.80   23.89   0  0.66151
  -1   9   7   33.36   22.44   0  0.66151
   0   9   7  104.88   34.45   0  0.66151
   0   9   7  122.53   22.84   0  0.66151
   0  -9  -7   91.27   34.35   0  0.66151
   1   9   7    5.81   28.07   0  0.66151
   1   9   7  -18.22   19.69   0  0.66151
  -1  -9  -7   -7.48   19.48   0  0.66151
  -2  -9  -7   18.26   27.57   0  0.66151
   2   9   7  -14.97   25.99   0  0.66151
   2   9   7   11.77   26.50   0  0.66151
   3   9   7  297.22   33.79   0  0.66151
  -3  -9  -7  303.52   26.66   0  0.66151
   3   9   7  284.33   26.49   0  0.66151
   4   9   7   65.57   31.93   0  0.66151
   4   9   7   66.34   31.71   0  0.66151
  -5  -9  -7   -1.69   22.55   0  0.66151
   5   9   7    7.19   22.02   0  0.66151
   5   9   7    9.88   30.38   0  0.66151
  -6  -9  -7  124.54   39.47   0  0.66151
   6   9   7  100.31   38.80   0  0.66151
   6   9   7  123.98   37.60   0  0.66151
  -7  -9  -7   81.77   45.31   0  0.66151
   7   9   7   67.74   44.78   0  0.66151
   7   9   7   64.98   52.60   0  0.66151
  -4  10   7   43.99   34.30   0  0.66151
  -3  10   7   31.06   30.67   0  0.66151
   3 -10  -7    0.26   32.41   0  0.66151
  -3  10   7   13.08   32.23   0  0.66151
  -2  10   7   -8.50   37.64   0  0.66151
  -2  10   7   -7.60   39.17   0  0.66151
   2 -10  -7   41.55   39.08   0  0.66151
  -1  10   7   40.86   26.30   0  0.66151
   1 -10  -7   27.69   36.33   0  0.66151
  -1  10   7   22.59   36.40   0  0.66151
   0  10   7    3.44   30.46   0  0.66151
   0  10   7   12.23   22.73   0  0.66151
   0 -10  -7   15.46   23.10   0  0.66151
   1  10   7   27.28   22.80   0  0.66151
  -1 -10  -7   33.62   33.32   0  0.66151
   1  10   7   43.00   32.99   0  0.66151
  -2 -10  -7   17.35   23.42   0  0.66151
   2  10   7   20.95   30.98   0  0.66151
   2  10   7   11.90   22.83   0  0.66151
   3  10   7   91.80   31.66   0  0.66151
  -3 -10  -7   78.06   33.67   0  0.66151
   3  10   7   79.90   32.51   0  0.66151
   4  10   7  272.35   40.30   0  0.66151
   4  10   7  254.57   40.25   0  0.66151
   5  10   7    2.75   36.94   0  0.66151
   5  10   7   -3.13   36.80   0  0.66151
   6  10   7    9.01   52.45   0  0.66151
   6  10   7   15.52   50.40   0  0.66151
  -2  11   7  -13.78   30.58   0  0.66151
  -2  11   7   13.44   31.35   0  0.66151
   2 -11  -7   -2.33   31.79   0  0.66151
  -1  11   7   -8.39   27.81   0  0.66151
   1 -11  -7   -2.30   27.83   0  0.66151
  -1  11   7  -20.67   40.42   0  0.66151
   0 -11  -7   35.33   39.36   0  0.66151
   0  11   7   26.57   37.13   0  0.66151
   0  11   7   32.39   39.19   0  0.66151
   1  11   7   25.75   37.08   0  0.66151
   1  11   7   39.77   28.02   0  0.66151
  -1 -11  -7   33.51   28.69   0  0.66151
   2  11   7   30.76   26.98   0  0.66151
  -2 -11  -7   22.84   28.34   0  0.66151
   2  11   7   35.25   27.96   0  0.66151
   3  11   7   28.64   38.57   0  0.66151
   3  11   7   26.43   37.81   0  0.66151
   4  11   7   20.46   43.83   0  0.66151
   4  11   7   20.51   43.96   0  0.66151
   5  11   7   72.53   62.79   0  0.66151
   5  11   7   74.08   52.72   0  0.66151
   0  12   7   18.90   28.87   0  0.66151
   0  12   7    5.95   43.52   0  0.66151
   0 -12  -7  -17.39   44.39   0  0.66151
   1  12   7   41.74   43.14   0  0.66151
   1  12   7   67.26   44.97   0  0.66151
  -1 -12  -7   56.94   45.30   0  0.66151
   2  12   7   34.89   43.75   0  0.66151
  -2 -12  -7   12.25   44.75   0  0.66151
   2  12   7   30.03   29.40   0  0.66151
  -2   6  -8   22.89   34.22   0  0.66151
  -3   6  -8   20.94   42.83   0  0.66151
   3  -6   8   27.90   29.29   0  0.66151
   3  -6   8    2.96   43.67   0  0.66151
  -4   6  -8  -10.01   29.61   0  0.66151
   4  -6   8   -8.38   40.98   0  0.66151
   4  -6   8  -39.58   30.54   0  0.66151
   5  -6   8    7.55   29.26   0  0.66151
  -5   6  -8   -8.27   29.85   0  0.66151
   5  -6   8  -13.65   29.05   0  0.66151
   0   5  -8   -0.33   31.68   0  0.66151
   0  -5   8   -1.87   31.49   0  0.66151
   0  -5   8   28.17   42.77   0  0.66151
  -1   5  -8   91.56   33.11   0  0.66151
   1  -5   8   84.23   33.34   0  0.66151
   1  -5   8  110.55   41.78   0  0.66151
  -2   5  -8  -18.30   26.90   0  0.66151
   2  -5   8   -5.23   26.77   0  0.66151
   2  -5   8    7.06   25.14   0  0.66151
  -3   5  -8   -3.51   26.22   0  0.66151
   3  -5   8    6.17   24.63   0  0.66151
   3  -5   8   -4.12   26.53   0  0.66151
  -4   5  -8   52.75   37.72   0  0.66151
   4  -5   8   76.28   37.32   0  0.66151
   4  -5   8   80.71   35.48   0  0.66151
  -5   5  -8    1.79   26.23   0  0.66151
   5  -5   8   39.21   36.34   0  0.66151
   5  -5   8   -3.02   35.53   0  0.66151
   6  -5   8   11.99   30.17   0  0.66151
   6  -5   8  -12.04   38.23   0  0.66151
  -6   5  -8  -18.63   30.44   0  0.66151
  -7   5  -8   -0.24   29.08   0  0.66151
   7  -5   8   -9.00   40.82   0  0.66151
  -1  -4   8   87.71   45.75   0  0.66151
   1   4  -8   66.75   46.42   0  0.66151
  -1  -4   8   93.49   41.88   0  0.66151
   0   4  -8   95.94   28.10   0  0.66151
   0  -4   8   67.38   26.31   0  0.66151
   0  -4   8   63.59   28.27   0  0.66151
   1  -4   8   -4.79   26.90   0  0.66151
  -1   4  -8   13.65   26.57   0  0.66151
   1  -4   8  -41.82   35.92   0  0.66151
  -2   4  -8   -2.09   34.53   0  0.66151
   2  -4   8    6.37   29.45   0  0.66151
   2  -4   8   -5.27   34.85   0  0.66151
  -3   4  -8   21.37   30.96   0  0.66151
   3  -4   8    9.03   29.18   0  0.66151
   3  -4   8   14.82   30.94   0  0.66151
  -4   4  -8   26.15   21.73   0  0.66151
   4  -4   8   32.18   21.70   0  0.66151
   4  -4   8   14.17   21.08   0  0.66151
   5  -4   8   20.59   22.08   0  0.66151
  -5   4  -8   29.48   21.95   0  0.66151
   5  -4   8   31.89   21.02   0  0.66151
  -6   4  -8   42.75   36.18   0  0.66151
   6  -4   8   83.00   35.37   0  0.66151
  -7   4  -8    2.10   36.35   0  0.66151
   7  -4   8   21.18   24.51   0  0.66151
  -8   4  -8   27.70   30.08   0  0.66151
   8  -4   8   50.48   29.64   0  0.66151
   2   3  -8  145.38   34.71   0  0.66151
  -2  -3   8  122.18   31.49   0  0.66151
  -2  -3   8   84.44   34.25   0  0.66151
  -1  -3   8  -25.38   36.78   0  0.66151
  -1  -3   8   -9.18   27.65   0  0.66151
   1   3  -8  -10.01   39.02   0  0.66151
   0   3  -8  -13.93   35.45   0  0.66151
   0  -3   8   17.66   21.19   0  0.66151
   0  -3   8  -16.13   35.79   0  0.66151
   1  -3   8   94.88   22.26   0  0.66151
  -1   3  -8  126.88   23.60   0  0.66151
   1  -3   8  108.74   23.75   0  0.66151
   2  -3   8   22.88   32.37   0  0.66151
  -2   3  -8   47.06   31.95   0  0.66151
   2  -3   8   75.88   29.61   0  0.66151
   3  -3   8   50.77   22.63   0  0.66151
   3  -3   8   41.52   21.27   0  0.66151
  -3   3  -8   53.38   21.71   0  0.66151
   4  -3   8   58.96   22.04   0  0.66151
  -4   3  -8   31.96   22.26   0  0.66151
   4  -3   8   48.58   30.09   0  0.66151
   5  -3   8   83.63   22.27   0  0.66151
   5  -3   8  103.67   21.18   0  0.66151
  -5   3  -8   68.22   22.56   0  0.66151
  -6   3  -8   -3.19   29.99   0  0.66151
   6  -3   8   15.30   28.76   0  0.66151
  -7   3  -8   27.38   33.91   0  0.66151
   7  -3   8   42.61   25.90   0  0.66151
  -8   3  -8   13.34   26.58   0  0.66151
   8  -3   8   36.95   26.40   0  0.66151
  -9   3  -8    9.11   29.61   0  0.66151
   9  -3   8    3.52   29.28   0  0.66151
  -3  -2   8   22.11   28.69   0  0.66151
  -3  -2   8  -33.62   44.92   0  0.66151
   2   2  -8   62.28   39.39   0  0.66151
  -2  -2   8   59.43   39.46   0  0.66151
  -2  -2   8   51.45   26.08   0  0.66151
   1   2  -8   58.45   32.57   0  0.66151
  -1  -2   8   40.44   33.06   0  0.66151
  -1  -2   8   60.97   31.06   0  0.66151
   0  -2   8   28.43   30.12   0  0.66151
   0  -2   8   -5.37   32.05   0  0.66151
   0   2  -8   20.54   31.64   0  0.66151
   1  -2   8   -1.28   17.56   0  0.66151
   1  -2   8  -11.71   18.62   0  0.66151
  -1   2  -8   13.64   18.16   0  0.66151
   2  -2   8  160.51   27.40   0  0.66151
   2  -2   8  181.15   26.30   0  0.66151
  -2   2  -8  147.81   27.63   0  0.66151
   3  -2   8    4.65   26.93   0  0.66151
   3  -2   8   46.91   18.09   0  0.66151
  -3   2  -8   33.16   26.22   0  0.66151
  -4   2  -8   13.54   17.87   0  0.66151
   4  -2   8    5.48   17.34   0  0.66151
   4  -2   8  -10.44   18.16   0  0.66151
  -5   2  -8   14.53   18.08   0  0.66151
   5  -2   8   -0.42   17.35   0  0.66151
   5  -2   8   16.67   17.85   0  0.66151
  -6   2  -8    1.57   30.10   0  0.66151
   6  -2   8   27.52   20.39   0  0.66151
   7  -2   8   -4.29   29.73   0  0.66151
  -7   2  -8  -13.34   21.24   0  0.66151
  -8   2  -8  145.71   37.66   0  0.66151
   8  -2   8  163.52   36.89   0  0.66151
  -9   2  -8   -2.04   42.34   0  0.66151
   9  -2   8   21.68   29.99   0  0.66151
  -3  -1   8   -8.08   32.48   0  0.66151
   3   1  -8   32.29   42.87   0  0.66151
  -3  -1   8    0.78   43.35   0  0.66151
   2   1  -8   32.07   27.89   0  0.66151
  -2  -1   8   55.42   38.80   0  0.66151
   2   1  -8   32.69   36.65   0  0.66151
  -2  -1   8   43.76   36.84   0  0.66151
  -1  -1   8   39.83   32.43   0  0.66151
  -1  -1   8   38.10   22.20   0  0.66151
   1   1  -8   24.06   32.35   0  0.66151
   0   1  -8   55.68   27.23   0  0.66151
   0  -1   8   43.83   26.24   0  0.66151
   0  -1   8   54.85   19.79   0  0.66151
   1  -1   8   31.08   18.88   0  0.66151
  -1   1  -8   21.61   18.61   0  0.66151
   1  -1   8   35.33   17.97   0  0.66151
   2  -1   8    9.07   18.63   0  0.66151
   2  -1   8    1.65   25.59   0  0.66151
  -2   1  -8   -5.51   18.53   0  0.66151
   3  -1   8   56.50   25.66   0  0.66151
  -3   1  -8   47.19   19.11   0  0.66151
   3  -1   8   49.00   19.42   0  0.66151
   4  -1   8  380.14   28.44   0  0.66151
   4  -1   8  302.57   27.83   0  0.66151
  -4   1  -8  322.31   28.75   0  0.66151
   5  -1   8   18.76   17.64   0  0.66151
  -5   1  -8    5.79   25.51   0  0.66151
   5  -1   8   37.39   25.38   0  0.66151
   6  -1   8  278.18   20.03   0  0.66151
   6  -1   8  264.06   20.56   0  0.66151
  -6   1  -8  218.24   20.72   0  0.66151
  -7   1  -8  133.66   22.55   0  0.66151
   7  -1   8  149.37   22.32   0  0.66151
  -8   1  -8   41.79   21.70   0  0.66151
   8  -1   8   65.86   21.25   0  0.66151
  -9   1  -8   57.48   25.79   0  0.66151
   9  -1   8   16.22   26.21   0  0.66151
  10  -1   8   38.41   28.21   0  0.66151
 -10   1  -8  -31.30   29.54   0  0.66151
   4   0  -8   75.60   43.32   0  0.66151
  -4   0   8   52.89   43.81   0  0.66151
  -4   0   8   81.16   32.06   0  0.66151
  -3   0   8   22.75   26.71   0  0.66151
   3   0  -8   25.58   26.28   0  0.66151
  -3   0   8   22.68   38.59   0  0.66151
  -2   0   8   -1.68   32.56   0  0.66151
  -2   0   8   28.27   31.14   0  0.66151
   2   0  -8   -1.05   31.03   0  0.66151
   2   0  -8    9.82   22.75   0  0.66151
  -1   0   8   93.47   19.10   0  0.66151
   1   0  -8   89.73   19.07   0  0.66151
   1   0  -8   89.77   23.52   0  0.66151
  -1   0   8  104.89   19.40   0  0.66151
   0   0   8   17.85   25.78   0  0.66151
   0   0   8    8.08   26.56   0  0.66151
   0   0  -8   23.77   18.76   0  0.66151
   0   0  -8   23.95   19.42   0  0.66151
   1   0   8   32.13   18.36   0  0.66151
  -1   0  -8   14.41   18.69   0  0.66151
   1   0   8   26.18   19.23   0  0.66151
  -2   0  -8  129.88   28.71   0  0.66151
   2   0   8  145.31   20.09   0  0.66151
   2   0   8  152.90   28.43   0  0.66151
  -3   0  -8   80.69   20.09   0  0.66151
   3   0   8   86.18   19.88   0  0.66151
   3   0   8   84.43   15.53   0  0.66151
  -4   0  -8   18.12   19.17   0  0.66151
   4   0   8   -2.46   19.40   0  0.66151
   4   0   8    2.27   23.71   0  0.66151
   5   0   8  110.34   18.98   0  0.66151
   5   0   8  101.09   19.12   0  0.66151
  -5   0  -8   87.14   19.57   0  0.66151
   6   0   8   79.37   18.78   0  0.66151
   6   0   8   64.18   25.65   0  0.66151
  -6   0  -8   76.93   18.33   0  0.66151
  -7   0  -8    4.14   17.37   0  0.66151
   7   0   8    9.70   17.11   0  0.66151
  -8   0  -8  222.71   30.59   0  0.66151
   8   0   8  171.22   22.84   0  0.66151
   9   0   8    8.22   36.40   0  0.66151
  -9   0  -8   17.64   36.53   0  0.66151
  10   0   8   -4.64   30.04   0  0.66151
 -10   0  -8    6.38   30.27   0  0.66151
  -4   1   8   31.96   45.08   0  0.66151
   4  -1  -8   -7.61   44.22   0  0.66151
  -4   1   8   -4.02   32.71   0  0.66151
   3  -1  -8   57.39   37.80   0  0.66151
  -3   1   8   42.94   38.45   0  0.66151
  -3   1   8   62.55   27.22   0  0.66151
  -2   1   8   -8.44   22.96   0  0.66151
  -2   1   8   26.06   31.71   0  0.66151
   2  -1  -8  -23.34   23.20   0  0.66151
   2  -1  -8  -29.54   31.83   0  0.66151
  -1   1   8   16.96   26.30   0  0.66151
   1  -1  -8    3.57   26.43   0  0.66151
   1  -1  -8   13.57   26.88   0  0.66151
  -1   1   8   14.75   26.70   0  0.66151
   0  -1  -8   69.69   27.19   0  0.66151
   0  -1  -8   74.77   19.29   0  0.66151
   0   1   8   54.18   27.51   0  0.66151
   0   1   8   72.62   18.85   0  0.66151
  -1  -1  -8  557.30   21.25   0  0.66151
   1   1   8  584.19   24.56   0  0.66151
  -1  -1  -8  588.03   24.78   0  0.66151
   1   1   8  551.77   20.66   0  0.66151
   2   1   8  325.83   24.78   0  0.66151
   2   1   8  316.41   18.81   0  0.66151
  -2  -1  -8  324.82   19.19   0  0.66151
   3   1   8    1.98   16.24   0  0.66151
  -3  -1  -8   23.01   15.85   0  0.66151
   3   1   8   15.76   15.86   0  0.66151
   4   1   8   21.25   22.23   0  0.66151
  -4  -1  -8   -5.70   22.43   0  0.66151
   4   1   8   39.87   21.86   0  0.66151
   5   1   8   97.74   20.20   0  0.66151
   5   1   8  137.39   27.46   0  0.66151
  -5  -1  -8  123.90   27.27   0  0.66151
   6   1   8  445.69   21.95   0  0.66151
  -6  -1  -8  423.21   22.37   0  0.66151
   6   1   8  464.76   22.59   0  0.66151
  -7  -1  -8   36.74   18.42   0  0.66151
   7   1   8   43.03   18.02   0  0.66151
   7   1   8   42.93   17.96   0  0.66151
  -8  -1  -8   19.32   29.38   0  0.66151
   8   1   8  -15.19   29.73   0  0.66151
  -9  -1  -8  296.68   37.96   0  0.66151
   9   1   8  222.01   27.68   0  0.66151
 -10  -1  -8   41.07   30.02   0  0.66151
  10   1   8   49.28   42.50   0  0.66151
  -4   2   8   34.21   38.75   0  0.66151
   4  -2  -8   56.74   41.37   0  0.66151
  -4   2   8   41.80   28.42   0  0.66151
  -3   2   8   16.90   22.30   0  0.66151
  -3   2   8  -10.49   23.42   0  0.66151
   3  -2  -8    6.58   22.30   0  0.66151
   2  -2  -8   56.35   22.87   0  0.66151
  -2   2   8   -0.58   33.23   0  0.66151
  -2   2   8   57.60   32.57   0  0.66151
   2  -2  -8   38.39   23.93   0  0.66151
  -1   2   8   74.10   27.87   0  0.66151
   1  -2  -8   88.77   20.16   0  0.66151
  -1   2   8   89.62   20.35   0  0.66151
   1  -2  -8   96.36   27.70   0  0.66151
   0  -2  -8   38.43   19.78   0  0.66151
   0   2   8   33.77   20.28   0  0.66151
   0   2   8   64.13   19.24   0  0.66151
   0  -2  -8   41.23   20.05   0  0.66151
  -1  -2  -8   41.79   15.95   0  0.66151
   1   2   8   30.66   16.18   0  0.66151
  -1  -2  -8   35.64   16.58   0  0.66151
   1   2   8   37.29   15.56   0  0.66151
   2   2   8  237.90   18.63   0  0.66151
  -2  -2  -8  245.20   18.56   0  0.66151
   2   2   8  272.19   18.36   0  0.66151
   3   2   8    0.31   22.69   0  0.66151
   3   2   8   14.48   16.07   0  0.66151
  -3  -2  -8   25.19   22.70   0  0.66151
   4   2   8  295.89   18.59   0  0.66151
  -4  -2  -8  312.44   19.00   0  0.66151
   4   2   8  304.66   18.94   0  0.66151
   5   2   8  467.96   19.49   0  0.66151
  -5  -2  -8  469.27   19.82   0  0.66151
   5   2   8  440.56   19.80   0  0.66151
  -6  -2  -8   83.03   26.27   0  0.66151
   6   2   8   72.07   18.58   0  0.66151
   6   2   8   60.02   26.21   0  0.66151
   7   2   8  185.25   26.27   0  0.66151
   7   2   8  177.07   19.34   0  0.66151
  -7  -2  -8  200.87   26.14   0  0.66151
   8   2   8   18.29   21.78   0  0.66151
  -8  -2  -8   18.52   21.29   0  0.66151
   8   2   8   16.01   21.14   0  0.66151
  -9  -2  -8  175.95   27.03   0  0.66151
   9   2   8  164.11   37.06   0  0.66151
 -10  -2  -8  142.43   42.94   0  0.66151
  10   2   8   85.81   43.88   0  0.66151
  -5   3   8   49.31   33.62   0  0.66151
  -4   3   8    6.26   38.39   0  0.66151
  -4   3   8  -36.06   39.23   0  0.66151
   4  -3  -8   11.08   37.93   0  0.66151
   3  -3  -8    2.60   22.66   0  0.66151
  -3   3   8   31.80   22.79   0  0.66151
  -3   3   8    5.38   22.87   0  0.66151
  -2   3   8  -13.01   29.39   0  0.66151
   2  -3  -8  -11.18   18.70   0  0.66151
  -2   3   8    0.23   19.02   0  0.66151
   1  -3  -8  235.62   21.34   0  0.66151
  -1   3   8  248.63   28.13   0  0.66151
   1  -3  -8  245.68   28.86   0  0.66151
  -1   3   8  219.66   21.84   0  0.66151
   0  -3  -8  491.53   30.78   0  0.66151
   0   3   8  445.12   23.38   0  0.66151
   0  -3  -8  434.52   23.56   0  0.66151
   0   3   8  458.97   30.06   0  0.66151
   1   3   8   84.06   16.96   0  0.66151
   1   3   8   66.85   17.48   0  0.66151
  -1  -3  -8   96.56   16.76   0  0.66151
  -1  -3  -8   61.42   17.15   0  0.66151
  -2  -3  -8   23.68   16.64   0  0.66151
   2   3   8   37.72   16.47   0  0.66151
  -2  -3  -8   12.74   17.23   0  0.66151
   2   3   8   40.32   16.42   0  0.66151
  -3  -3  -8  635.95   22.29   0  0.66151
   3   3   8  620.59   21.48   0  0.66151
   3   3   8  658.21   21.81   0  0.66151
  -4  -3  -8   54.31   16.20   0  0.66151
   4   3   8   44.57   16.07   0  0.66151
   4   3   8   34.83   16.57   0  0.66151
  -5  -3  -8    9.50   15.42   0  0.66151
   5   3   8    5.57   19.33   0  0.66151
   5   3   8   40.77   20.98   0  0.66151
   6   3   8  403.66   28.43   0  0.66151
   6   3   8  360.97   21.25   0  0.66151
  -6  -3  -8  418.21   29.03   0  0.66151
  -7  -3  -8  239.37   27.22   0  0.66151
   7   3   8  239.96   26.88   0  0.66151
   7   3   8  234.28   27.31   0  0.66151
   8   3   8  145.18   30.89   0  0.66151
   8   3   8  154.67   22.99   0  0.66151
  -8  -3  -8  156.55   22.55   0  0.66151
   9   3   8   23.32   36.85   0  0.66151
   9   3   8  101.69   26.18   0  0.66151
  -9  -3  -8   69.13   26.37   0  0.66151
  10   3   8   43.59   29.43   0  0.66151
 -10  -3  -8    5.55   29.78   0  0.66151
  10   3   8   -1.32   42.20   0  0.66151
  -5   4   8   24.65   31.31   0  0.66151
   4  -4  -8    1.38   37.74   0  0.66151
  -4   4   8  -19.50   27.66   0  0.66151
  -4   4   8  -11.68   27.22   0  0.66151
  -3   4   8   30.20   32.18   0  0.66151
  -3   4   8    9.96   22.48   0  0.66151
   3  -4  -8   19.41   31.85   0  0.66151
  -2   4   8   24.65   27.57   0  0.66151
  -2   4   8   46.41   26.78   0  0.66151
   2  -4  -8   49.68   26.90   0  0.66151
  -1   4   8  199.03   22.22   0  0.66151
   1  -4  -8  226.97   21.30   0  0.66151
  -1   4   8  196.95   21.06   0  0.66151
   1  -4  -8  261.97   21.60   0  0.66151
   0   4   8  188.97   30.55   0  0.66151
   0   4   8  172.03   29.42   0  0.66151
   0  -4  -8  191.61   21.65   0  0.66151
   0  -4  -8  225.45   29.96   0  0.66151
   1   4   8   90.04   23.35   0  0.66151
  -1  -4  -8  100.34   17.52   0  0.66151
  -1  -4  -8  136.80   23.60   0  0.66151
   1   4   8  118.02   17.47   0  0.66151
   2   4   8   -3.28   16.03   0  0.66151
  -2  -4  -8    0.32   23.53   0  0.66151
  -2  -4  -8   20.51   16.25   0  0.66151
   2   4   8   33.02   23.11   0  0.66151
   3   4   8  367.63   26.08   0  0.66151
   3   4   8  394.29   25.33   0  0.66151
  -3  -4  -8  348.67   25.56   0  0.66151
   4   4   8  408.08   20.09   0  0.66151
   4   4   8  416.37   19.74   0  0.66151
  -4  -4  -8  424.73   20.16   0  0.66151
   5   4   8   -1.18   26.18   0  0.66151
   5   4   8   -6.62   18.82   0  0.66151
  -5  -4  -8    2.72   18.32   0  0.66151
  -6  -4  -8   48.68   25.94   0  0.66151
   6   4   8   21.54   19.08   0  0.66151
   6   4   8   60.43   25.89   0  0.66151
   7   4   8  782.65   25.42   0  0.66151
  -7  -4  -8  800.70   32.19   0  0.66151
   7   4   8  790.40   31.63   0  0.66151
  -8  -4  -8   39.31   21.87   0  0.66151
   8   4   8   52.24   30.21   0  0.66151
   8   4   8   42.02   21.86   0  0.66151
   9   4   8   13.31   26.54   0  0.66151
  -9  -4  -8   11.89   26.60   0  0.66151
   9   4   8   38.52   26.38   0  0.66151
  10   4   8   72.16   30.17   0  0.66151
   5  -5  -8   12.32   34.30   0  0.66151
  -5   5   8   13.74   30.22   0  0.66151
  -4   5   8  -30.27   39.06   0  0.66151
  -4   5   8   16.18   26.68   0  0.66151
   4  -5  -8  -15.56   38.77   0  0.66151
   3  -5  -8  156.32   23.80   0  0.66151
  -3   5   8  117.51   24.43   0  0.66151
  -3   5   8  156.23   24.36   0  0.66151
  -2   5   8  157.42   21.04   0  0.66151
  -2   5   8  148.26   23.80   0  0.66151
   2  -5  -8  144.28   20.62   0  0.66151
  -1   5   8   27.18   26.55   0  0.66151
   1  -5  -8   27.90   19.35   0  0.66151
  -1   5   8   36.88   19.82   0  0.66151
   0  -5  -8   81.51   20.69   0  0.66151
   0   5   8   85.00   20.90   0  0.66151
   0  -5  -8   83.07   19.73   0  0.66151
   0   5   8   98.03   19.21   0  0.66151
   1   5   8   90.11   16.33   0  0.66151
   1   5   8  112.56   16.94   0  0.66151
  -1  -5  -8   89.56   17.57   0  0.66151
  -1  -5  -8   85.99   17.02   0  0.66151
   2   5   8   90.39   22.74   0  0.66151
   2   5   8   89.23   17.94   0  0.66151
  -2  -5  -8   97.57   23.46   0  0.66151
  -2  -5  -8  113.05   17.74   0  0.66151
   3   5   8  365.28   25.40   0  0.66151
  -3  -5  -8  324.86   19.32   0  0.66151
   3   5   8  327.89   19.22   0  0.66151
   4   5   8  326.52   21.80   0  0.66151
   4   5   8  319.90   22.28   0  0.66151
  -4  -5  -8  347.22   21.88   0  0.66151
  -5  -5  -8  374.98   23.07   0  0.66151
   5   5   8  397.60   22.37   0  0.66151
   5   5   8  382.84   21.73   0  0.66151
   6   5   8   -0.73   17.63   0  0.66151
   6   5   8   24.19   25.14   0  0.66151
  -6  -5  -8    7.72   24.83   0  0.66151
  -7  -5  -8   73.03   30.80   0  0.66151
   7   5   8   64.99   30.17   0  0.66151
   7   5   8   57.03   21.70   0  0.66151
   8   5   8  225.74   23.62   0  0.66151
   8   5   8  254.29   23.79   0  0.66151
  -8  -5  -8  249.20   23.72   0  0.66151
   9   5   8  -11.77   40.17   0  0.66151
  -9  -5  -8   22.31   29.61   0  0.66151
   9   5   8   12.80   29.94   0  0.66151
  -4   6   8  -52.22   39.43   0  0.66151
  -4   6   8   -4.71   27.19   0  0.66151
   4  -6  -8   17.82   26.77   0  0.66151
  -3   6   8   87.89   23.53   0  0.66151
   3  -6  -8   60.71   23.70   0  0.66151
  -3   6   8   43.47   23.26   0  0.66151
   2  -6  -8  217.28   24.69   0  0.66151
  -2   6   8  196.96   24.26   0  0.66151
  -2   6   8  214.01   24.78   0  0.66151
  -1   6   8  -22.71   26.29   0  0.66151
  -1   6   8   17.90   19.74   0  0.66151
   1  -6  -8    6.24   19.48   0  0.66151
   0  -6  -8    4.16   19.32   0  0.66151
   0  -6  -8  -19.54   20.01   0  0.66151
   0   6   8  -12.00   26.48   0  0.66151
   0   6   8   10.82   19.56   0  0.66151
  -1  -6  -8  736.29   26.16   0  0.66151
  -1  -6  -8  701.52   26.22   0  0.66151
   1   6   8  730.00   26.03   0  0.66151
   1   6   8  599.38   25.39   0  0.66151
  -2  -6  -8   59.24   21.53   0  0.66151
  -2  -6  -8   68.71   19.76   0  0.66151
   2   6   8   57.31   20.77   0  0.66151
   2   6   8   73.05   19.69   0  0.66151
   3   6   8    9.33   18.87   0  0.66151
  -3  -6  -8   17.09   18.91   0  0.66151
  -3  -6  -8    8.84   28.49   0  0.66151
   3   6   8   18.93   27.74   0  0.66151
   4   6   8  415.88   23.69   0  0.66151
  -4  -6  -8  454.88   23.99   0  0.66151
   4   6   8  443.23   23.31   0  0.66151
   5   6   8  579.68   30.72   0  0.66151
   5   6   8  603.79   30.53   0  0.66151
  -5  -6  -8  576.59   31.80   0  0.66151
   6   6   8  130.87   19.83   0  0.66151
   6   6   8  161.81   19.37   0  0.66151
  -6  -6  -8  156.47   20.34   0  0.66151
   7   6   8   54.38   21.72   0  0.66151
  -7  -6  -8   50.58   22.08   0  0.66151
   7   6   8   38.02   22.29   0  0.66151
   8   6   8   43.95   36.35   0  0.66151
  -8  -6  -8   31.45   37.48   0  0.66151
   8   6   8   39.54   36.66   0  0.66151
   9   6   8    7.25   42.76   0  0.66151
  -9  -6  -8   24.79   42.49   0  0.66151
   9   6   8   90.35   41.39   0  0.66151
  -4   7   8   74.15   31.92   0  0.66151
  -4   7   8   45.17   46.28   0  0.66151
   4  -7  -8   42.68   45.84   0  0.66151
   3  -7  -8   53.49   27.84   0  0.66151
  -3   7   8   94.20   37.69   0  0.66151
  -3   7   8   74.48   28.32   0  0.66151
   2  -7  -8   31.23   23.51   0  0.66151
  -2   7   8   38.49   33.12   0  0.66151
  -2   7   8   38.86   22.47   0  0.66151
  -1   7   8   92.42   19.54   0  0.66151
   1  -7  -8  129.59   19.60   0  0.66151
  -1   7   8  129.12   19.77   0  0.66151
   0  -7  -8  -13.07   19.63   0  0.66151
   0   7   8    2.62   25.69   0  0.66151
   0   7   8  -10.27   19.47   0  0.66151
  -1  -7  -8  248.04   21.68   0  0.66151
   1   7   8  222.67   21.07   0  0.66151
  -1  -7  -8  221.76   23.00   0  0.66151
   1   7   8  241.91   22.58   0  0.66151
  -2  -7  -8  497.03   32.14   0  0.66151
   2   7   8  451.25   22.65   0  0.66151
  -2  -7  -8  506.08   23.43   0  0.66151
   2   7   8  498.64   31.82   0  0.66151
   3   7   8   42.43   18.78   0  0.66151
   3   7   8   75.23   20.17   0  0.66151
  -3  -7  -8   67.64   19.90   0  0.66151
  -3  -7  -8   54.61   19.75   0  0.66151
   4   7   8   15.95   25.23   0  0.66151
  -4  -7  -8   -5.03   26.36   0  0.66151
   4   7   8    3.39   18.59   0  0.66151
  -5  -7  -8  376.31   23.44   0  0.66151
   5   7   8  401.09   29.30   0  0.66151
   5   7   8  394.16   22.86   0  0.66151
   6   7   8   11.69   22.46   0  0.66151
  -6  -7  -8   39.69   21.81   0  0.66151
   6   7   8   29.67   21.61   0  0.66151
   7   7   8   -5.35   25.53   0  0.66151
   7   7   8    3.88   25.32   0  0.66151
  -7  -7  -8    9.67   25.92   0  0.66151
   8   7   8  160.95   27.36   0  0.66151
  -8  -7  -8  200.66   41.80   0  0.66151
   8   7   8  215.86   41.37   0  0.66151
   4  -8  -8   44.40   31.24   0  0.66151
  -4   8   8   39.38   42.80   0  0.66151
  -4   8   8    7.28   32.55   0  0.66151
   3  -8  -8   35.90   38.29   0  0.66151
  -3   8   8   10.99   28.10   0  0.66151
  -3   8   8   27.87   26.83   0  0.66151
  -2   8   8   50.75   22.14   0  0.66151
  -2   8   8   32.71   23.10   0  0.66151
   2  -8  -8   27.45   22.83   0  0.66151
  -1   8   8  163.26   33.60   0  0.66151
  -1   8   8  137.29   32.66   0  0.66151
   1  -8  -8  185.91   33.34   0  0.66151
   0  -8  -8   40.34   29.89   0  0.66151
   0   8   8   35.78   30.54   0  0.66151
   0   8   8   13.66   21.93   0  0.66151
   1   8   8  157.94   28.77   0  0.66151
   1   8   8  150.61   27.18   0  0.66151
  -1  -8  -8  128.60   29.65   0  0.66151
  -2  -8  -8  189.84   21.44   0  0.66151
  -2  -8  -8  178.38   21.00   0  0.66151
   2   8   8  192.82   19.78   0  0.66151
   2   8   8  184.40   21.37   0  0.66151
   3   8   8  584.24   25.21   0  0.66151
  -3  -8  -8  654.44   33.99   0  0.66151
  -3  -8  -8  672.15   32.57   0  0.66151
   3   8   8  699.97   33.04   0  0.66151
   4   8   8    6.05   22.39   0  0.66151
   4   8   8  -11.41   30.94   0  0.66151
  -4  -8  -8    7.74   31.42   0  0.66151
   5   8   8   10.93   31.01   0  0.66151
   5   8   8    9.85   30.81   0  0.66151
  -5  -8  -8   39.95   30.94   0  0.66151
   6   8   8  187.49   35.21   0  0.66151
  -6  -8  -8  200.48   36.02   0  0.66151
   6   8   8  174.40   32.30   0  0.66151
   7   8   8    1.35   25.71   0  0.66151
   7   8   8   -4.65   36.66   0  0.66151
  -7  -8  -8   13.45   26.11   0  0.66151
   8   8   8  -12.85   42.26   0  0.66151
  -8  -8  -8   12.20   29.41   0  0.66151
   8   8   8   13.29   28.37   0  0.66151
  -3   9   8  -37.27   31.86   0  0.66151
   3  -9  -8   35.32   44.18   0  0.66151
  -3   9   8    9.26   44.80   0  0.66151
  -2   9   8    0.28   26.71   0  0.66151
   2  -9  -8  -20.62   39.26   0  0.66151
  -2   9   8   33.36   38.60   0  0.66151
  -1   9   8  230.33   25.84   0  0.66151
   1  -9  -8  199.83   25.56   0  0.66151
  -1   9   8  264.40   33.23   0  0.66151
   0   9   8  104.74   33.03   0  0.66151
   0   9   8   92.85   32.01   0  0.66151
   0  -9  -8  100.43   33.97   0  0.66151
   1   9   8   60.64   30.95   0  0.66151
   1   9   8   30.41   32.71   0  0.66151
  -1  -9  -8   49.37   33.52   0  0.66151
   2   9   8  139.91   24.06   0  0.66151
   2   9   8  111.14   31.98   0  0.66151
  -2  -9  -8  121.43   24.49   0  0.66151
  -3  -9  -8  158.31   34.01   0  0.66151
   3   9   8  161.54   32.29   0  0.66151
   3   9   8  193.10   32.99   0  0.66151
   4   9   8   50.46   22.80   0  0.66151
  -4  -9  -8   51.30   22.88   0  0.66151
   4   9   8   34.71   22.89   0  0.66151
   5   9   8   22.01   37.33   0  0.66151
   5   9   8   55.45   36.72   0  0.66151
  -5  -9  -8   49.89   37.97   0  0.66151
   6   9   8  120.19   27.67   0  0.66151
   6   9   8   97.23   38.51   0  0.66151
  -6  -9  -8  108.06   27.77   0  0.66151
  -7  -9  -8   83.92   31.95   0  0.66151
   7   9   8   69.30   44.25   0  0.66151
   7   9   8   80.06   43.40   0  0.66151
  -3  10   8   52.03   30.28   0  0.66151
   3 -10  -8   -2.51   31.64   0  0.66151
   2 -10  -8   54.34   44.65   0  0.66151
  -2  10   8  -16.58   31.24   0  0.66151
  -2  10   8   -7.44   45.40   0  0.66151
  -1  10   8   12.70   39.74   0  0.66151
  -1  10   8   79.35   26.20   0  0.66151
   1 -10  -8   27.04   28.44   0  0.66151
   0  10   8  161.94   40.95   0  0.66151
   0  10   8  175.93   38.36   0  0.66151
   0 -10  -8  129.00   40.54   0  0.66151
  -1 -10  -8  146.59   37.25   0  0.66151
   1  10   8  111.49   36.60   0  0.66151
   1  10   8  100.63   35.40   0  0.66151
  -2 -10  -8   -2.07   36.37   0  0.66151
   2  10   8   -6.21   26.54   0  0.66151
   2  10   8   22.84   35.12   0  0.66151
  -3 -10  -8   99.17   28.60   0  0.66151
   3  10   8   97.07   37.93   0  0.66151
   3  10   8  104.21   28.57   0  0.66151
   4  10   8   44.13   27.12   0  0.66151
   4  10   8   51.50   37.12   0  0.66151
   5  10   8    6.28   37.09   0  0.66151
   5  10   8   -5.81   37.04   0  0.66151
   6  10   8   68.23   43.00   0  0.66151
   6  10   8   58.38   43.04   0  0.66151
  -1  11   8    2.21   45.23   0  0.66151
   1 -11  -8  -31.54   45.32   0  0.66151
  -1  11   8   38.45   41.94   0  0.66151
   0 -11  -8   38.75   32.69   0  0.66151
   0  11   8   21.13   43.82   0  0.66151
   0  11   8   10.49   32.76   0  0.66151
   1  11   8   94.17   27.50   0  0.66151
   1  11   8  115.41   28.28   0  0.66151
  -1 -11  -8   76.81   29.68   0  0.66151
   2  11   8    4.44   25.90   0  0.66151
   2  11   8   -0.12   27.33   0  0.66151
  -2 -11  -8   14.67   27.83   0  0.66151
   3  11   8   20.27   43.35   0  0.66151
   3  11   8   19.75   31.52   0  0.66151
   4  11   8  126.09   32.87   0  0.66151
   4  11   8  122.75   46.06   0  0.66151
   4  -5   9    5.23   28.78   0  0.66151
   5  -5   9   23.10   31.92   0  0.66151
   1  -4   9   16.87   29.19   0  0.66151
  -1   4  -9    2.99   30.86   0  0.66151
   1  -4   9  -24.46   31.32   0  0.66151
  -2   4  -9   -4.06   44.27   0  0.66151
   2  -4   9   27.87   43.83   0  0.66151
   2  -4   9    9.81   42.04   0  0.66151
   3  -4   9   64.34   40.61   0  0.66151
  -3   4  -9   42.27   41.00   0  0.66151
   3  -4   9   23.41   39.34   0  0.66151
   4  -4   9   30.83   35.81   0  0.66151
  -4   4  -9   47.93   26.88   0  0.66151
   4  -4   9   26.90   26.72   0  0.66151
  -5   4  -9   44.67   26.46   0  0.66151
   5  -4   9   37.29   39.04   0  0.66151
   5  -4   9   48.49   26.70   0  0.66151
   6  -4   9    5.70   43.30   0  0.66151
   6  -4   9   19.38   41.72   0  0.66151
  -6   4  -9   68.87   42.56   0  0.66151
   7  -4   9   -4.21   43.43   0  0.66151
  -7   4  -9   58.58   41.47   0  0.66151
   7  -4   9   87.94   29.45   0  0.66151
   0   3  -9   83.60   45.71   0  0.66151
   0  -3   9  138.97   32.08   0  0.66151
   0  -3   9   85.52   30.51   0  0.66151
   1  -3   9    1.64   36.31   0  0.66151
   1  -3   9   15.56   27.64   0  0.66151
  -1   3  -9   29.14   26.54   0  0.66151
   2  -3   9   12.78   26.65   0  0.66151
  -2   3  -9  -12.37   26.73   0  0.66151
   2  -3   9   10.28   36.03   0  0.66151
   3  -3   9   54.62   36.33   0  0.66151
  -3   3  -9  110.77   26.41   0  0.66151
   3  -3   9   58.15   27.02   0  0.66151
  -4   3  -9   77.70   27.11   0  0.66151
   4  -3   9   67.35   25.75   0  0.66151
   4  -3   9   89.04   26.41   0  0.66151
   5  -3   9   76.52   25.61   0  0.66151
   5  -3   9   73.73   27.01   0  0.66151
  -5   3  -9   43.86   26.91   0  0.66151
   6  -3   9  118.70   36.54   0  0.66151
  -6   3  -9  131.49   37.48   0  0.66151
   6  -3   9  115.15   37.85   0  0.66151
   7  -3   9   33.39   40.11   0  0.66151
  -7   3  -9   61.38   39.65   0  0.66151
   7  -3   9   19.60   25.63   0  0.66151
   8  -3   9   66.97   41.13   0  0.66151
  -8   3  -9   41.40   29.86   0  0.66151
  -1  -2   9   -7.73   30.65   0  0.66151
   1   2  -9   23.60   31.17   0  0.66151
  -1  -2   9  -11.82   32.68   0  0.66151
   0   2  -9   -4.63   38.15   0  0.66151
   0  -2   9   56.83   37.67   0  0.66151
   0  -2   9   17.50   25.88   0  0.66151
  -1   2  -9   75.18   23.17   0  0.66151
   1  -2   9   96.61   33.30   0  0.66151
   1  -2   9   87.15   27.64   0  0.66151
  -2   2  -9  -11.50   22.37   0  0.66151
   2  -2   9    2.19   22.33   0  0.66151
   2  -2   9   11.15   30.22   0  0.66151
   3  -2   9   41.07   21.67   0  0.66151
   3  -2   9   48.80   31.57   0  0.66151
  -3   2  -9   57.90   22.74   0  0.66151
   4  -2   9  256.43   31.44   0  0.66151
  -4   2  -9  277.25   24.04   0  0.66151
   4  -2   9  273.95   24.13   0  0.66151
   5  -2   9   14.21   21.70   0  0.66151
   5  -2   9   -1.39   21.11   0  0.66151
  -5   2  -9    4.97   21.43   0  0.66151
  -6   2  -9    7.34   30.17   0  0.66151
   6  -2   9   32.68   30.23   0  0.66151
   6  -2   9   -1.13   20.96   0  0.66151
   7  -2   9  334.65   37.30   0  0.66151
   7  -2   9  317.31   38.35   0  0.66151
  -7   2  -9  321.72   38.13   0  0.66151
  -8   2  -9   94.94   27.34   0  0.66151
   8  -2   9  123.99   26.36   0  0.66151
  -9   2  -9   -3.89   28.35   0  0.66151
   9  -2   9   -9.58   33.01   0  0.66151
  -2  -1   9   56.22   42.73   0  0.66151
  -2  -1   9   29.40   44.92   0  0.66151
   2   1  -9   11.13   32.60   0  0.66151
  -1  -1   9   19.10   26.82   0  0.66151
  -1  -1   9   65.40   27.15   0  0.66151
   1   1  -9   29.66   27.91   0  0.66151
   0  -1   9   71.99   32.34   0  0.66151
   0   1  -9   52.50   32.73   0  0.66151
   0  -1   9   16.98   31.51   0  0.66151
   1  -1   9   40.31   30.86   0  0.66151
   1  -1   9   66.77   22.90   0  0.66151
  -1   1  -9   59.81   23.21   0  0.66151
   2  -1   9  240.11   32.97   0  0.66151
   2  -1   9  268.26   22.93   0  0.66151
  -2   1  -9  278.21   32.52   0  0.66151
  -3   1  -9  -10.44   28.50   0  0.66151
   3  -1   9   20.13   28.71   0  0.66151
   3  -1   9   10.95   27.78   0  0.66151
  -4   1  -9   60.84   18.57   0  0.66151
   4  -1   9   80.16   22.20   0  0.66151
   4  -1   9   44.07   18.12   0  0.66151
  -5   1  -9  253.06   32.08   0  0.66151
   5  -1   9  204.26   23.30   0  0.66151
   5  -1   9  270.11   32.68   0  0.66151
   6  -1   9    4.71   21.10   0  0.66151
   6  -1   9   14.25   21.29   0  0.66151
  -6   1  -9   12.82   21.09   0  0.66151
   7  -1   9  125.21   21.97   0  0.66151
   7  -1   9  141.15   22.53   0  0.66151
  -7   1  -9  126.45   22.33   0  0.66151
  -8   1  -9  254.30   37.70   0  0.66151
   8  -1   9  213.18   27.47   0  0.66151
   9  -1   9   38.36   29.21   0  0.66151
  -9   1  -9   37.94   41.19   0  0.66151
   2   0  -9   10.42   37.31   0  0.66151
   2   0  -9   31.77   27.93   0  0.66151
  -2   0   9    3.69   37.69   0  0.66151
  -2   0   9    5.64   28.11   0  0.66151
  -1   0   9    2.78   26.57   0  0.66151
  -1   0   9   26.02   27.76   0  0.66151
   1   0  -9   18.85   26.00   0  0.66151
   1   0  -9   20.51   27.33   0  0.66151
   0   0  -9   24.73   22.58   0  0.66151
   0   0   9   16.75   21.95   0  0.66151
   0   0   9   40.55   22.39   0  0.66151
   1   0   9  287.96   23.14   0  0.66151
   1   0   9  230.10   24.99   0  0.66151
  -1   0  -9  259.67   24.91   0  0.66151
  -2   0  -9   56.03   18.38   0  0.66151
   2   0   9   52.54   25.25   0  0.66151
   2   0   9   42.09   18.89   0  0.66151
  -3   0  -9   17.10   18.76   0  0.66151
   3   0   9    8.72   18.57   0  0.66151
   3   0   9   38.18   18.01   0  0.66151
   4   0   9  209.14   19.80   0  0.66151
   4   0   9  236.63   20.30   0  0.66151
  -4   0  -9  202.87   19.98   0  0.66151
   5   0   9  337.32   21.30   0  0.66151
  -5   0  -9  307.29   21.55   0  0.66151
   5   0   9  306.57   20.71   0  0.66151
   6   0   9  353.14   33.90   0  0.66151
  -6   0  -9  407.16   32.87   0  0.66151
   6   0   9  358.17   32.98   0  0.66151
   7   0   9  105.93   22.27   0  0.66151
   7   0   9   83.86   30.40   0  0.66151
  -7   0  -9   70.00   22.05   0  0.66151
   8   0   9   46.88   25.88   0  0.66151
  -8   0  -9   33.78   25.64   0  0.66151
   8   0   9   64.83   25.01   0  0.66151
   9   0   9  161.38   30.62   0  0.66151
  -9   0  -9  151.14   31.62   0  0.66151
  -3   1   9  -12.07   44.87   0  0.66151
   3  -1  -9    4.42   30.34   0  0.66151
  -3   1   9   -6.08   30.67   0  0.66151
   2  -1  -9   58.09   26.17   0  0.66151
  -2   1   9   41.25   39.10   0  0.66151
  -2   1   9   12.16   27.44   0  0.66151
  -1   1   9  100.79   33.06   0  0.66151
   1  -1  -9   71.98   32.36   0  0.66151
   1  -1  -9   95.70   33.06   0  0.66151
  -1   1   9  104.31   31.98   0  0.66151
   0   1   9   -4.25   32.39   0  0.66151
   0  -1  -9    2.00   32.22   0  0.66151
   0  -1  -9    6.98   22.55   0  0.66151
   0   1   9    8.35   22.11   0  0.66151
   1   1   9   14.85   26.03   0  0.66151
   1   1   9  -11.06   25.77   0  0.66151
  -1  -1  -9  -15.77   26.28   0  0.66151
   2   1   9  266.84   20.54   0  0.66151
   2   1   9  214.14   20.30   0  0.66151
  -2  -1  -9  248.86   20.42   0  0.66151
  -3  -1  -9   74.38   18.75   0  0.66151
   3   1   9   54.00   18.85   0  0.66151
   3   1   9   63.07   19.17   0  0.66151
   4   1   9   20.89   18.46   0  0.66151
   4   1   9   20.81   18.17   0  0.66151
  -4  -1  -9   26.00   18.49   0  0.66151
   5   1   9  746.59   24.36   0  0.66151
   5   1   9  754.18   30.15   0  0.66151
  -5  -1  -9  735.75   24.83   0  0.66151
   6   1   9  166.55   26.73   0  0.66151
   6   1   9  165.14   19.27   0  0.66151
  -6  -1  -9  161.75   26.47   0  0.66151
   7   1   9  139.74   30.62   0  0.66151
  -7  -1  -9  107.66   31.16   0  0.66151
   7   1   9  111.59   31.11   0  0.66151
   8   1   9  146.93   26.63   0  0.66151
   8   1   9  154.55   23.16   0  0.66151
  -8  -1  -9  131.03   22.93   0  0.66151
   9   1   9  132.65   26.51   0  0.66151
   9   1   9   72.40   26.60   0  0.66151
  -9  -1  -9  103.82   26.60   0  0.66151
  10   1   9   11.32   29.35   0  0.66151
 -10  -1  -9   24.40   32.36   0  0.66151
  -3   2   9  -36.33   42.36   0  0.66151
  -3   2   9   -5.51   45.95   0  0.66151
   3  -2  -9   -9.11   41.01   0  0.66151
  -2   2   9   -5.90   27.42   0  0.66151
  -2   2   9   23.68   27.03   0  0.66151
   2  -2  -9   37.89   37.38   0  0.66151
   1  -2  -9   65.13   23.02   0  0.66151
  -1   2   9   71.71   22.83   0  0.66151
   1  -2  -9   72.52   23.62   0  0.66151
  -1   2   9   87.30   23.07   0  0.66151
   0   2   9   76.73   19.60   0  0.66151
   0  -2  -9  112.82   19.68   0  0.66151
   0   2   9   97.52   19.71   0  0.66151
   0  -2  -9   83.36   19.83   0  0.66151
   1   2   9   57.91   26.71   0  0.66151
  -1  -2  -9   63.44   26.68   0  0.66151
  -1  -2  -9   64.51   26.51   0  0.66151
   1   2   9   49.79   26.66   0  0.66151
   2   2   9  182.36   20.14   0  0.66151
  -2  -2  -9  162.88   20.30   0  0.66151
   2   2   9  163.55   20.51   0  0.66151
   3   2   9  471.51   29.86   0  0.66151
  -3  -2  -9  527.64   30.34   0  0.66151
   3   2   9  498.13   22.72   0  0.66151
   4   2   9  164.65   27.29   0  0.66151
   4   2   9  157.54   20.15   0  0.66151
  -4  -2  -9  165.44   20.08   0  0.66151
  -5  -2  -9   88.83   26.15   0  0.66151
   5   2   9   45.62   19.31   0  0.66151
   5   2   9   89.87   26.14   0  0.66151
  -6  -2  -9  440.18   22.46   0  0.66151
   6   2   9  419.57   22.02   0  0.66151
   6   2   9  419.40   21.26   0  0.66151
  -7  -2  -9   24.22   21.20   0  0.66151
   7   2   9   14.97   21.50   0  0.66151
   7   2   9   42.87   29.88   0  0.66151
  -8  -2  -9    9.61   30.31   0  0.66151
   8   2   9    0.92   20.98   0  0.66151
   8   2   9   20.97   33.39   0  0.66151
   9   2   9  115.54   38.41   0  0.66151
  -9  -2  -9  117.91   37.82   0  0.66151
   9   2   9  115.58   37.70   0  0.66151
  10   2   9   -4.99   33.65   0  0.66151
  -4   3   9  116.60   33.89   0  0.66151
   3  -3  -9   28.06   38.08   0  0.66151
  -3   3   9   37.50   27.20   0  0.66151
  -3   3   9  -23.20   28.07   0  0.66151
  -2   3   9  -19.48   32.04   0  0.66151
  -2   3   9   -8.14   22.88   0  0.66151
   2  -3  -9    8.96   22.14   0  0.66151
  -1   3   9   65.83   23.25   0  0.66151
   1  -3  -9   75.55   23.35   0  0.66151
   1  -3  -9   62.29   23.06   0  0.66151
  -1   3   9   58.54   23.18   0  0.66151
   0  -3  -9   14.70   18.95   0  0.66151
   0   3   9   16.68   18.97   0  0.66151
   0  -3  -9   16.10   26.37   0  0.66151
   0   3   9   14.94   25.98   0  0.66151
   1   3   9   -9.92   27.15   0  0.66151
  -1  -3  -9    9.10   18.93   0  0.66151
   1   3   9   13.49   18.66   0  0.66151
  -1  -3  -9  -20.32   26.98   0  0.66151
   2   3   9  209.02   20.94   0  0.66151
   2   3   9  239.22   20.51   0  0.66151
  -2  -3  -9  196.16   20.88   0  0.66151
  -2  -3  -9  211.51   21.49   0  0.66151
  -3  -3  -9  617.93   24.42   0  0.66151
   3   3   9  673.05   30.85   0  0.66151
   3   3   9  623.99   24.03   0  0.66151
   4   3   9  349.32   21.25   0  0.66151
   4   3   9  309.50   21.09   0  0.66151
  -4  -3  -9  279.62   21.62   0  0.66151
   5   3   9   39.99   18.57   0  0.66151
  -5  -3  -9   58.28   18.64   0  0.66151
   5   3   9   65.23   18.46   0  0.66151
   6   3   9   91.44   25.69   0  0.66151
   6   3   9   83.77   26.12   0  0.66151
  -6  -3  -9   84.17   25.95   0  0.66151
   7   3   9  399.29   32.63   0  0.66151
  -7  -3  -9  381.87   32.94   0  0.66151
   7   3   9  384.00   33.00   0  0.66151
   8   3   9    1.67   21.25   0  0.66151
  -8  -3  -9  -11.03   21.34   0  0.66151
   8   3   9   -6.11   30.14   0  0.66151
   9   3   9   72.30   36.56   0  0.66151
  -9  -3  -9   54.63   26.34   0  0.66151
   9   3   9   85.50   26.12   0  0.66151
  -4   4   9   82.09   34.13   0  0.66151
   4  -4  -9  -39.65   30.11   0  0.66151
   3  -4  -9   31.16   27.30   0  0.66151
  -3   4   9   13.15   28.34   0  0.66151
  -3   4   9   25.90   27.48   0  0.66151
  -2   4   9   -5.53   31.78   0  0.66151
   2  -4  -9  -11.63   22.71   0  0.66151
  -2   4   9   -5.15   22.60   0  0.66151
  -1   4   9   96.41   23.41   0  0.66151
   1  -4  -9  121.89   23.32   0  0.66151
  -1   4   9  138.60   32.45   0  0.66151
   1  -4  -9   87.98   32.99   0  0.66151
   0   4   9  279.92   28.26   0  0.66151
   0  -4  -9  249.33   28.60   0  0.66151
   0  -4  -9  279.91   21.40   0  0.66151
   0   4   9  257.17   20.86   0  0.66151
   1   4   9  129.59   27.23   0  0.66151
  -1  -4  -9  120.74   20.25   0  0.66151
  -1  -4  -9  124.67   20.29   0  0.66151
   1   4   9  115.99   20.22   0  0.66151
   2   4   9  183.12   28.46   0  0.66151
  -2  -4  -9  175.63   28.46   0  0.66151
   2   4   9  154.76   20.21   0  0.66151
  -2  -4  -9  154.53   19.97   0  0.66151
   3   4   9  624.59   24.32   0  0.66151
  -3  -4  -9  605.94   24.14   0  0.66151
   3   4   9  591.65   24.09   0  0.66151
   4   4   9  160.94   19.92   0  0.66151
  -4  -4  -9  178.49   19.63   0  0.66151
   4   4   9  190.12   19.65   0  0.66151
   5   4   9   73.35   18.60   0  0.66151
  -5  -4  -9   81.68   19.19   0  0.66151
   5   4   9   81.50   19.00   0  0.66151
   6   4   9   74.34   26.14   0  0.66151
   6   4   9   73.67   18.86   0  0.66151
  -6  -4  -9   63.34   26.35   0  0.66151
  -7  -4  -9  217.13   31.40   0  0.66151
   7   4   9  160.33   23.19   0  0.66151
   7   4   9  152.59   31.89   0  0.66151
   8   4   9   42.67   36.09   0  0.66151
  -8  -4  -9   57.77   26.43   0  0.66151
   8   4   9   63.01   26.42   0  0.66151
  -9  -4  -9   53.80   30.53   0  0.66151
   9   4   9   26.24   40.21   0  0.66151
   9   4   9   70.69   30.45   0  0.66151
  -4   5   9  -15.00   35.59   0  0.66151
   4  -5  -9   -1.89   35.12   0  0.66151
   3  -5  -9   15.35   38.98   0  0.66151
  -3   5   9   18.41   27.80   0  0.66151
  -3   5   9  -27.57   39.86   0  0.66151
  -2   5   9   11.19   32.46   0  0.66151
   2  -5  -9   17.02   31.75   0  0.66151
  -2   5   9   49.43   31.36   0  0.66151
  -1   5   9   39.76   23.21   0  0.66151
   1  -5  -9   60.14   23.20   0  0.66151
  -1   5   9   34.24   31.79   0  0.66151
   0  -5  -9   72.81   19.55   0  0.66151
   0   5   9   42.39   27.24   0  0.66151
   0   5   9   63.57   20.37   0  0.66151
   0  -5  -9   48.20   27.62   0  0.66151
   1   5   9  635.97   32.11   0  0.66151
   1   5   9  571.84   23.71   0  0.66151
  -1  -5  -9  699.42   24.79   0  0.66151
  -1  -5  -9  652.99   31.91   0  0.66151
   2   5   9   14.37   27.14   0  0.66151
  -2  -5  -9   19.64   27.04   0  0.66151
   2   5   9   -5.21   18.51   0  0.66151
  -2  -5  -9   16.02   18.38   0  0.66151
   3   5   9    7.63   19.73   0  0.66151
  -3  -5  -9   48.15   18.61   0  0.66151
   3   5   9   51.66   18.57   0  0.66151
   4   5   9  236.96   20.53   0  0.66151
  -4  -5  -9  237.47   20.57   0  0.66151
   4   5   9  250.51   28.71   0  0.66151
   5   5   9  149.48   26.15   0  0.66151
  -5  -5  -9  123.32   26.83   0  0.66151
   5   5   9  149.96   20.05   0  0.66151
   6   5   9    4.86   21.40   0  0.66151
  -6  -5  -9   -6.20   22.22   0  0.66151
   6   5   9    7.19   21.36   0  0.66151
   7   5   9  428.67   24.94   0  0.66151
   7   5   9  363.82   24.86   0  0.66151
  -7  -5  -9  380.79   25.55   0  0.66151
  -8  -5  -9   11.60   36.32   0  0.66151
   8   5   9  -25.47   36.93   0  0.66151
   8   5   9   -5.57   36.41   0  0.66151
   9   5   9    4.67   42.79   0  0.66151
   9   5   9   16.25   41.99   0  0.66151
  -9  -5  -9  -12.92   42.87   0  0.66151
  -3   6   9   98.84   42.80   0  0.66151
  -3   6   9  141.49   31.89   0  0.66151
   3  -6  -9   96.78   42.61   0  0.66151
  -2   6   9   15.59   36.28   0  0.66151
  -2   6   9   37.46   27.11   0  0.66151
   2  -6  -9   17.35   35.58   0  0.66151
   1  -6  -9   36.19   22.75   0  0.66151
  -1   6   9   18.65   22.22   0  0.66151
  -1   6   9   17.84   22.95   0  0.66151
   0   6   9   10.73   22.49   0  0.66151
   0  -6  -9    7.62   22.97   0  0.66151
   0  -6  -9   47.31   23.59   0  0.66151
   0   6   9   31.28   23.20   0  0.66151
   1   6   9  299.69   21.29   0  0.66151
  -1  -6  -9  315.67   21.79   0  0.66151
  -1  -6  -9  294.93   29.72   0  0.66151
   1   6   9  294.85   29.61   0  0.66151
  -2  -6  -9  138.04   20.79   0  0.66151
   2   6   9  146.82   20.90   0  0.66151
   2   6   9  194.81   19.33   0  0.66151
  -2  -6  -9  157.25   20.89   0  0.66151
   3   6   9   23.35   18.83   0  0.66151
  -3  -6  -9   14.49   19.53   0  0.66151
   3   6   9   21.19   25.75   0  0.66151
  -3  -6  -9    9.37   18.36   0  0.66151
   4   6   9  110.56   19.55   0  0.66151
   4   6   9   80.28   26.48   0  0.66151
  -4  -6  -9  104.64   26.31   0  0.66151
  -5  -6  -9  331.10   22.05   0  0.66151
   5   6   9  357.06   28.89   0  0.66151
   5   6   9  355.99   21.36   0  0.66151
   6   6   9   14.88   21.20   0  0.66151
  -6  -6  -9  -10.19   21.62   0  0.66151
   6   6   9   -5.57   21.72   0  0.66151
   7   6   9   -0.31   21.80   0  0.66151
  -7  -6  -9   28.40   21.12   0  0.66151
   7   6   9   10.76   20.83   0  0.66151
   8   6   9  130.72   37.40   0  0.66151
  -8  -6  -9  118.76   37.96   0  0.66151
   8   6   9  121.87   37.72   0  0.66151
   9   6   9   32.98   44.52   0  0.66151
   9   6   9   32.07   44.65   0  0.66151
  -9  -6  -9   41.96   44.04   0  0.66151
  -3   7   9   24.81   32.66   0  0.66151
  -3   7   9   49.20   31.53   0  0.66151
   3  -7  -9    0.95   45.48   0  0.66151
  -2   7   9   75.76   28.22   0  0.66151
  -2   7   9   39.54   38.46   0  0.66151
   2  -7  -9   52.56   39.74   0  0.66151
  -1   7   9  128.44   24.21   0  0.66151
  -1   7   9  122.86   23.46   0  0.66151
   1  -7  -9  129.50   23.90   0  0.66151
   0   7   9    3.85   21.67   0  0.66151
   0  -7  -9   -6.88   22.88   0  0.66151
   0   7   9    0.59   22.98   0  0.66151
  -1  -7  -9  178.58   31.35   0  0.66151
   1   7   9  131.35   31.62   0  0.66151
   1   7   9  182.07   29.39   0  0.66151
  -1  -7  -9  188.62   33.37   0  0.66151
   2   7   9   63.41   27.06   0  0.66151
   2   7   9   34.57   26.44   0  0.66151
  -2  -7  -9   67.83   26.75   0  0.66151
  -2  -7  -9   94.63   27.69   0  0.66151
  -3  -7  -9  108.36   19.65   0  0.66151
   3   7   9  113.39   20.11   0  0.66151
   3   7   9   91.83   18.88   0  0.66151
  -3  -7  -9  103.64   20.82   0  0.66151
  -4  -7  -9   59.51   31.84   0  0.66151
   4   7   9   56.87   31.37   0  0.66151
   4   7   9   38.92   30.49   0  0.66151
   5   7   9  220.92   24.30   0  0.66151
   5   7   9  220.47   22.94   0  0.66151
  -5  -7  -9  196.38   24.52   0  0.66151
   6   7   9   84.01   22.51   0  0.66151
  -6  -7  -9   96.02   23.01   0  0.66151
   6   7   9   85.90   22.59   0  0.66151
   7   7   9   28.19   36.56   0  0.66151
   7   7   9   30.03   25.97   0  0.66151
  -7  -7  -9   31.15   36.99   0  0.66151
  -8  -7  -9   -2.60   30.28   0  0.66151
   8   7   9  -17.10   43.09   0  0.66151
   8   7   9    0.42   29.92   0  0.66151
  -3   8   9   24.20   31.13   0  0.66151
   3  -8  -9    6.09   31.26   0  0.66151
  -3   8   9   -3.34   43.26   0  0.66151
   2  -8  -9   35.33   26.72   0  0.66151
  -2   8   9   11.68   27.75   0  0.66151
  -2   8   9  -15.59   26.84   0  0.66151
  -1   8   9  177.28   39.64   0  0.66151
  -1   8   9  161.15   38.77   0  0.66151
   1  -8  -9  143.29   40.14   0  0.66151
   0  -8  -9    8.19   32.66   0  0.66151
   0   8   9    2.87   21.56   0  0.66151
   0   8   9  -10.95   32.66   0  0.66151
  -1  -8  -9   29.31   23.42   0  0.66151
   1   8   9   37.58   22.16   0  0.66151
   1   8   9   21.59   23.59   0  0.66151
   2   8   9  159.54   32.15   0  0.66151
  -2  -8  -9  150.21   25.40   0  0.66151
   2   8   9  201.00   24.38   0  0.66151
  -2  -8  -9  180.10   33.32   0  0.66151
   3   8   9   56.38   22.58   0  0.66151
  -3  -8  -9   53.84   22.70   0  0.66151
  -3  -8  -9   62.44   23.70   0  0.66151
   3   8   9   45.97   23.37   0  0.66151
   4   8   9    0.00   21.86   0  0.66151
  -4  -8  -9  -13.87   22.21   0  0.66151
   4   8   9   -0.82   22.54   0  0.66151
   5   8   9  133.31   23.43   0  0.66151
   5   8   9  128.15   31.05   0  0.66151
  -5  -8  -9  162.47   31.34   0  0.66151
  -6  -8  -9   18.11   26.39   0  0.66151
   6   8   9    6.56   37.11   0  0.66151
   6   8   9   31.74   25.86   0  0.66151
  -7  -8  -9   20.41   43.08   0  0.66151
   7   8   9   21.00   29.78   0  0.66151
   7   8   9   22.75   41.96   0  0.66151
  -2   9   9   21.45   32.27   0  0.66151
  -2   9   9   21.19   30.69   0  0.66151
   2  -9  -9   31.68   31.85   0  0.66151
  -1   9   9   93.16   27.16   0  0.66151
  -1   9   9   88.69   28.45   0  0.66151
   1  -9  -9   92.17   28.43   0  0.66151
   0  -9  -9   38.40   27.62   0  0.66151
   0   9   9   18.46   37.53   0  0.66151
   0   9   9   28.39   27.74   0  0.66151
  -1  -9  -9    4.77   23.38   0  0.66151
   1   9   9    2.29   22.56   0  0.66151
   1   9   9   -5.99   34.25   0  0.66151
   2   9   9   15.94   23.33   0  0.66151
   2   9   9   29.15   30.56   0  0.66151
  -2  -9  -9   11.04   23.70   0  0.66151
  -3  -9  -9  311.46   34.05   0  0.66151
  -3  -9  -9  301.80   26.49   0  0.66151
   3   9   9  296.92   25.80   0  0.66151
   3   9   9  269.46   33.58   0  0.66151
   4   9   9    8.37   36.78   0  0.66151
  -4  -9  -9  -12.07   37.79   0  0.66151
   4   9   9   17.64   37.19   0  0.66151
   5   9   9   10.59   36.48   0  0.66151
  -5  -9  -9   28.16   37.28   0  0.66151
   5   9   9    4.15   37.17   0  0.66151
   6   9   9   10.93   42.88   0  0.66151
   6   9   9   12.32   42.63   0  0.66151
  -6  -9  -9    0.20   43.36   0  0.66151
  -7  -9  -9   18.66   30.02   0  0.66151
   7   9   9   42.17   43.59   0  0.66151
  -1  10   9   11.19   32.21   0  0.66151
  -1  10   9   39.87   30.57   0  0.66151
   1 -10  -9   63.09   31.53   0  0.66151
   0  10   9   24.75   27.75   0  0.66151
   0 -10  -9   27.79   27.49   0  0.66151
   0  10   9   54.00   26.19   0  0.66151
   1  10   9   32.43   26.41   0  0.66151
   1  10   9   53.09   28.07   0  0.66151
  -1 -10  -9   36.75   27.96   0  0.66151
   2  10   9   11.44   28.26   0  0.66151
   2  10   9   37.41   37.12   0  0.66151
  -2 -10  -9   22.43   28.56   0  0.66151
   3  10   9   33.31   26.33   0  0.66151
   3  10   9   10.35   27.67   0  0.66151
  -3 -10  -9   16.44   28.32   0  0.66151
   4  10   9   35.07   26.93   0  0.66151
   4  10   9   24.39   37.45   0  0.66151
   5  10   9   44.87   43.13   0  0.66151
   5  10   9   42.52   43.78   0  0.66151
   0  11   9   17.17   45.71   0  0.66151
   0 -11  -9   36.17   47.17   0  0.66151
   0  11   9    9.41   47.58   0  0.66151
   1  11   9   31.70   33.16   0  0.66151
   1  11   9   49.31   31.03   0  0.66151
  -1 -11  -9   63.43   32.74   0  0.66151
   2  11   9    1.07   30.77   0  0.66151
   2  11   9   21.96   44.57   0  0.66151
  -2 -11  -9   -2.36   45.69   0  0.66151
  -3 -11  -9   15.31   31.65   0  0.66151
   3  11   9   13.55   44.15   0  0.66151
   3  11   9   -7.28   30.57   0  0.66151
   4  11   9   42.92   32.72   0  0.66151
   4  11   9    1.62   34.06   0  0.66151
   2  -3  10   71.13   29.69   0  0.66151
   2  -3  10    2.72   44.35   0  0.66151
  -2   3 -10   46.92   43.31   0  0.66151
  -3   3 -10   99.74   31.17   0  0.66151
   3  -3  10   99.53   30.23   0  0.66151
   3  -3  10   78.36   31.46   0  0.66151
  -4   3 -10   24.35   31.64   0  0.66151
   4  -3  10   48.67   29.82   0  0.66151
   4  -3  10   60.14   31.16   0  0.66151
  -5   3 -10   23.18   30.46   0  0.66151
   5  -3  10    4.91   30.01   0  0.66151
   5  -3  10    8.60   31.02   0  0.66151
   6  -3  10   41.42   30.31   0  0.66151
  -6   3 -10   51.52   42.44   0  0.66151
   6  -3  10   59.37   42.24   0  0.66151
  -7   3 -10   80.09   33.42   0  0.66151
   7  -3  10   75.95   32.80   0  0.66151
   1  -2  10   23.98   42.49   0  0.66151
   1  -2  10   -0.01   44.65   0  0.66151
  -1   2 -10    2.28   32.27   0  0.66151
  -2   2 -10   -5.31   41.71   0  0.66151
   2  -2  10   19.08   41.30   0  0.66151
   2  -2  10   34.31   25.42   0  0.66151
  -3   2 -10   99.54   27.70   0  0.66151
   3  -2  10   88.29   27.93   0  0.66151
   3  -2  10   52.49   26.58   0  0.66151
   4  -2  10  106.47   27.06   0  0.66151
   4  -2  10   82.03   36.65   0  0.66151
  -4   2 -10   79.53   27.57   0  0.66151
   5  -2  10  127.29   26.81   0  0.66151
  -5   2 -10  129.51   26.72   0  0.66151
   5  -2  10   47.74   26.27   0  0.66151
   6  -2  10  120.85   41.07   0  0.66151
  -6   2 -10   52.17   40.76   0  0.66151
   6  -2  10  117.06   26.87   0  0.66151
   7  -2  10   28.03   29.94   0  0.66151
  -7   2 -10  -11.87   43.38   0  0.66151
   7  -2  10   57.99   42.80   0  0.66151
   8  -2  10   -6.03   33.80   0  0.66151
   0   1 -10  113.95   33.24   0  0.66151
   0  -1  10   72.72   31.78   0  0.66151
   0  -1  10   83.59   32.55   0  0.66151
   1  -1  10  119.07   27.01   0  0.66151
   1  -1  10  107.27   28.56   0  0.66151
  -1   1 -10  133.96   27.95   0  0.66151
   2  -1  10   -6.24   35.89   0  0.66151
   2  -1  10   27.82   37.78   0  0.66151
  -2   1 -10   16.58   37.38   0  0.66151
  -3   1 -10   51.62   26.71   0  0.66151
   3  -1  10   41.28   26.50   0  0.66151
   3  -1  10   59.27   25.66   0  0.66151
   4  -1  10  385.78   24.40   0  0.66151
  -4   1 -10  450.66   25.35   0  0.66151
   4  -1  10  466.39   29.95   0  0.66151
   5  -1  10   61.13   24.51   0  0.66151
   5  -1  10   29.17   26.04   0  0.66151
  -5   1 -10   37.10   26.03   0  0.66151
   6  -1  10    2.50   25.85   0  0.66151
   6  -1  10   -9.32   35.93   0  0.66151
  -6   1 -10    5.85   25.91   0  0.66151
  -7   1 -10  128.30   26.08   0  0.66151
   7  -1  10  126.71   26.55   0  0.66151
   7  -1  10  117.58   26.48   0  0.66151
   8  -1  10   47.69   31.16   0  0.66151
  -8   1 -10   20.45   31.49   0  0.66151
   8  -1  10   83.27   30.11   0  0.66151
  -1   0  10   -1.53   45.05   0  0.66151
   1   0 -10   30.51   45.01   0  0.66151
  -1   0  10   17.31   30.57   0  0.66151
   0   0  10   53.52   39.63   0  0.66151
   0   0  10   69.79   38.00   0  0.66151
   0   0 -10   82.34   39.66   0  0.66151
  -1   0 -10  130.48   39.21   0  0.66151
   1   0  10  134.80   38.86   0  0.66151
   1   0  10  120.58   26.99   0  0.66151
   2   0  10  206.81   23.65   0  0.66151
   2   0  10  184.85   23.10   0  0.66151
  -2   0 -10  190.87   23.87   0  0.66151
   3   0  10   36.26   29.92   0  0.66151
   3   0  10    2.20   31.23   0  0.66151
  -3   0 -10  -34.80   31.47   0  0.66151
   4   0  10  189.06   22.77   0  0.66151
   4   0  10  154.90   32.63   0  0.66151
  -4   0 -10  175.03   32.12   0  0.66151
  -5   0 -10  137.85   23.86   0  0.66151
   5   0  10  165.59   22.59   0  0.66151
   5   0  10  160.29   22.93   0  0.66151
   6   0  10   16.28   21.17   0  0.66151
   6   0  10   33.91   33.42   0  0.66151
  -6   0 -10  -33.54   33.81   0  0.66151
   7   0  10   54.36   36.94   0  0.66151
   7   0  10   48.95   26.22   0  0.66151
  -7   0 -10    9.58   37.30   0  0.66151
  -8   0 -10  196.03   31.64   0  0.66151
   8   0  10  113.06   41.13   0  0.66151
   8   0  10  181.93   31.93   0  0.66151
   2  -1 -10   93.36   30.44   0  0.66151
  -2   1  10   63.32   30.95   0  0.66151
  -1   1  10   49.02   42.55   0  0.66151
   1  -1 -10   81.55   42.41   0  0.66151
  -1   1  10   83.16   40.73   0  0.66151
   1  -1 -10   42.92   40.66   0  0.66151
   0   1  10   -9.85   26.28   0  0.66151
   0   1  10  -10.84   27.35   0  0.66151
   0  -1 -10  -10.76   27.18   0  0.66151
   1   1  10  343.05   24.58   0  0.66151
   1   1  10  345.99   24.30   0  0.66151
  -1  -1 -10  315.04   25.35   0  0.66151
   2   1  10  332.96   33.16   0  0.66151
   2   1  10  314.82   23.91   0  0.66151
  -2  -1 -10  350.93   33.21   0  0.66151
   3   1  10   37.76   31.83   0  0.66151
  -3  -1 -10   95.18   31.20   0  0.66151
   3   1  10   73.17   31.22   0  0.66151
  -4  -1 -10   39.52   22.09   0  0.66151
   4   1  10   57.75   30.19   0  0.66151
   4   1  10   20.81   22.41   0  0.66151
  -5  -1 -10  129.00   31.65   0  0.66151
   5   1  10  184.23   31.96   0  0.66151
   5   1  10  194.31   22.65   0  0.66151
  -6  -1 -10  229.21   23.87   0  0.66151
   6   1  10  231.75   23.74   0  0.66151
   6   1  10  235.44   31.76   0  0.66151
   7   1  10   28.53   33.10   0  0.66151
   7   1  10    9.25   26.20   0  0.66151
  -7  -1 -10   28.23   25.82   0  0.66151
   8   1  10  -28.45   36.98   0  0.66151
  -8  -1 -10   -8.74   36.19   0  0.66151
   8   1  10  -48.52   37.17   0  0.66151
   9   1  10    9.28   29.42   0  0.66151
  -9  -1 -10   -2.41   41.85   0  0.66151
   9   1  10   12.73   42.20   0  0.66151
  -2   2  10   39.74   45.48   0  0.66151
  -2   2  10  110.06   31.65   0  0.66151
   2  -2 -10   68.66   32.00   0  0.66151
  -1   2  10  162.44   28.72   0  0.66151
  -1   2  10  242.46   28.41   0  0.66151
   1  -2 -10  256.50   29.43   0  0.66151
   1  -2 -10  206.17   28.39   0  0.66151
   0  -2 -10   34.03   35.50   0  0.66151
   0  -2 -10   30.13   22.20   0  0.66151
   0   2  10   29.94   35.28   0  0.66151
   0   2  10   19.43   22.45   0  0.66151
   1   2  10    0.91   21.90   0  0.66151
   1   2  10   13.01   21.72   0  0.66151
  -1  -2 -10    7.92   22.88   0  0.66151
   2   2  10  503.11   33.61   0  0.66151
   2   2  10  449.77   25.58   0  0.66151
  -2  -2 -10  481.41   33.85   0  0.66151
   3   2  10   53.13   31.30   0  0.66151
  -3  -2 -10   95.15   31.43   0  0.66151
   3   2  10   45.17   22.57   0  0.66151
   4   2  10   23.02   31.04   0  0.66151
  -4  -2 -10  -29.13   31.60   0  0.66151
   4   2  10   -9.76   28.07   0  0.66151
   5   2  10  397.94   33.92   0  0.66151
   5   2  10  377.23   24.54   0  0.66151
  -5  -2 -10  381.98   33.53   0  0.66151
  -6  -2 -10  100.67   22.83   0  0.66151
   6   2  10  117.98   22.73   0  0.66151
   6   2  10  133.13   22.10   0  0.66151
  -7  -2 -10   61.64   33.44   0  0.66151
   7   2  10   46.48   33.95   0  0.66151
   7   2  10   24.81   34.01   0  0.66151
  -8  -2 -10   76.27   26.17   0  0.66151
   8   2  10   62.15   25.80   0  0.66151
   8   2  10   39.99   26.25   0  0.66151
   9   2  10  -21.10   42.64   0  0.66151
   9   2  10  -12.14   30.00   0  0.66151
  -9  -2 -10   14.20   41.78   0  0.66151
  -2   3  10    2.53   32.09   0  0.66151
  -2   3  10   23.72   31.72   0  0.66151
   2  -3 -10   20.79   31.32   0  0.66151
   1  -3 -10  231.45   28.31   0  0.66151
   1  -3 -10  174.92   28.32   0  0.66151
  -1   3  10  180.03   28.31   0  0.66151
  -1   3  10  145.19   28.00   0  0.66151
   0  -3 -10  280.33   25.23   0  0.66151
   0   3  10  248.16   33.29   0  0.66151
   0  -3 -10  274.19   24.71   0  0.66151
   0   3  10  309.27   24.53   0  0.66151
  -1  -3 -10   -9.81   22.39   0  0.66151
  -1  -3 -10    3.98   22.00   0  0.66151
   1   3  10   27.77   21.76   0  0.66151
   1   3  10   -3.22   22.13   0  0.66151
   2   3  10  108.96   32.32   0  0.66151
   2   3  10  108.18   32.19   0  0.66151
  -2  -3 -10  149.51   32.37   0  0.66151
   3   3  10  340.35   30.38   0  0.66151
   3   3  10  346.08   21.42   0  0.66151
  -3  -3 -10  352.46   30.58   0  0.66151
   4   3  10   72.12   19.04   0  0.66151
  -4  -3 -10   91.62   28.74   0  0.66151
   4   3  10   79.25   29.13   0  0.66151
  -5  -3 -10   11.18   22.17   0  0.66151
   5   3  10    2.26   30.56   0  0.66151
   5   3  10   11.13   21.78   0  0.66151
   6   3  10  243.22   23.42   0  0.66151
  -6  -3 -10  262.45   31.75   0  0.66151
   6   3  10  250.49   23.53   0  0.66151
   7   3  10   -5.83   21.85   0  0.66151
  -7  -3 -10   11.13   21.47   0  0.66151
   7   3  10    1.05   30.78   0  0.66151
   8   3  10   45.01   24.94   0  0.66151
  -8  -3 -10   -9.03   26.07   0  0.66151
   8   3  10    9.66   25.74   0  0.66151
   9   3  10   34.75   29.94   0  0.66151
  -9  -3 -10   13.53   30.23   0  0.66151
   9   3  10   15.26   43.04   0  0.66151
   2  -4 -10  -65.71   45.11   0  0.66151
  -2   4  10   35.07   30.92   0  0.66151
  -2   4  10   23.69   44.48   0  0.66151
  -1   4  10   65.18   27.23   0  0.66151
   1  -4 -10   82.23   27.83   0  0.66151
  -1   4  10   18.31   39.07   0  0.66151
   1  -4 -10   27.67   38.85   0  0.66151
   0  -4 -10  277.99   24.76   0  0.66151
   0   4  10  224.41   33.61   0  0.66151
   0   4  10  272.73   24.81   0  0.66151
   0  -4 -10  278.88   33.39   0  0.66151
  -1  -4 -10   49.43   22.38   0  0.66151
  -1  -4 -10   63.45   22.99   0  0.66151
   1   4  10   52.85   22.06   0  0.66151
   1   4  10   21.50   22.81   0  0.66151
   2   4  10   45.41   22.68   0  0.66151
  -2  -4 -10   70.23   22.96   0  0.66151
  -2  -4 -10   63.42   22.77   0  0.66151
   2   4  10   73.58   22.96   0  0.66151
   3   4  10  294.21   20.85   0  0.66151
   3   4  10  280.02   28.23   0  0.66151
  -3  -4 -10  291.96   20.63   0  0.66151
  -4  -4 -10  277.94   21.04   0  0.66151
   4   4  10  294.47   20.75   0  0.66151
   4   4  10  289.49   20.68   0  0.66151
  -5  -4 -10    0.12   30.60   0  0.66151
   5   4  10   10.62   21.45   0  0.66151
   5   4  10    9.63   30.72   0  0.66151
   6   4  10    6.86   30.74   0  0.66151
   6   4  10   18.55   21.91   0  0.66151
  -6  -4 -10   50.21   30.06   0  0.66151
   7   4  10   22.94   33.96   0  0.66151
   7   4  10   48.74   22.21   0  0.66151
  -7  -4 -10   43.67   33.56   0  0.66151
   8   4  10    0.47   26.22   0  0.66151
  -8  -4 -10   14.71   26.13   0  0.66151
   8   4  10    6.33   36.84   0  0.66151
   9   4  10   -5.49   41.30   0  0.66151
  -9  -4 -10   -2.11   29.11   0  0.66151
   9   4  10    7.54   29.17   0  0.66151
   2  -5 -10   47.90   32.85   0  0.66151
  -2   5  10   57.52   32.52   0  0.66151
  -2   5  10   91.88   31.63   0  0.66151
   1  -5 -10   27.90   26.84   0  0.66151
  -1   5  10   -4.85   27.04   0  0.66151
  -1   5  10    9.73   27.28   0  0.66151
   0  -5 -10  191.03   24.44   0  0.66151
   0   5  10  196.16   24.30   0  0.66151
   0   5  10  171.01   24.07   0  0.66151
   0  -5 -10  177.75   24.11   0  0.66151
   1   5  10  103.12   23.93   0  0.66151
  -1  -5 -10   97.14   32.30   0  0.66151
  -1  -5 -10   86.93   24.06   0  0.66151
   1   5  10   85.42   22.99   0  0.66151
   2   5  10   56.57   32.26   0  0.66151
   2   5  10   81.01   21.95   0  0.66151
  -2  -5 -10   31.99   33.09   0  0.66151
  -2  -5 -10   52.25   22.88   0  0.66151
   3   5  10  213.20   23.28   0  0.66151
   3   5  10  127.26   30.24   0  0.66151
  -3  -5 -10  170.48   23.67   0  0.66151
  -4  -5 -10  114.31   22.72   0  0.66151
   4   5  10  104.78   22.88   0  0.66151
   4   5  10  110.26   22.55   0  0.66151
   5   5  10   -7.43   30.92   0  0.66151
   5   5  10    1.28   21.42   0  0.66151
  -5  -5 -10  -13.66   21.79   0  0.66151
  -6  -5 -10   73.23   30.62   0  0.66151
   6   5  10   51.23   31.01   0  0.66151
   6   5  10   78.41   30.50   0  0.66151
   7   5  10   12.57   36.20   0  0.66151
  -7  -5 -10  -26.34   36.56   0  0.66151
   7   5  10    3.57   36.30   0  0.66151
   8   5  10    3.78   25.80   0  0.66151
  -8  -5 -10   13.64   25.40   0  0.66151
   8   5  10   23.97   39.20   0  0.66151
   9   5  10   81.25   32.04   0  0.66151
  -9  -5 -10   85.39   32.03   0  0.66151
  -2   6  10   67.31   32.87   0  0.66151
   2  -6 -10  124.42   31.91   0  0.66151
  -2   6  10   77.95   32.45   0  0.66151
   1  -6 -10  -18.03   27.58   0  0.66151
  -1   6  10   23.64   26.81   0  0.66151
  -1   6  10   -4.77   27.06   0  0.66151
   0   6  10   78.37   23.17   0  0.66151
   0   6  10    7.94   32.36   0  0.66151
   0  -6 -10   63.05   23.29   0  0.66151
   0  -6 -10   52.53   22.95   0  0.66151
   1   6  10  438.82   26.49   0  0.66151
  -1  -6 -10  490.94   34.02   0  0.66151
  -1  -6 -10  409.45   26.53   0  0.66151
   1   6  10  399.25   33.82   0  0.66151
   2   6  10   85.90   31.15   0  0.66151
  -2  -6 -10   69.44   32.17   0  0.66151
  -2  -6 -10   80.50   32.90   0  0.66151
   2   6  10   60.50   32.74   0  0.66151
  -3  -6 -10  -15.70   22.40   0  0.66151
   3   6  10   10.54   21.65   0  0.66151
   3   6  10    0.35   31.56   0  0.66151
  -4  -6 -10   74.51   31.89   0  0.66151
   4   6  10   99.84   31.50   0  0.66151
   4   6  10   79.79   23.27   0  0.66151
   5   6  10    6.93   21.70   0  0.66151
  -5  -6 -10   -1.79   21.82   0  0.66151
   5   6  10    2.55   21.76   0  0.66151
   6   6  10   -3.22   21.77   0  0.66151
   6   6  10   12.46   21.35   0  0.66151
  -6  -6 -10   14.29   21.54   0  0.66151
  -7  -6 -10   34.39   26.37   0  0.66151
   7   6  10   36.78   26.62   0  0.66151
   7   6  10   42.41   25.88   0  0.66151
   8   6  10   16.87   42.89   0  0.66151
  -8  -6 -10   16.66   41.91   0  0.66151
   8   6  10  -17.43   42.29   0  0.66151
  -2   7  10   67.26   32.47   0  0.66151
   2  -7 -10   65.27   32.96   0  0.66151
  -2   7  10   -7.38   32.35   0  0.66151
   1  -7 -10   29.79   28.50   0  0.66151
  -1   7  10   19.36   28.31   0  0.66151
  -1   7  10   79.84   37.58   0  0.66151
   0  -7 -10   18.77   27.10   0  0.66151
   0   7  10   21.37   26.11   0  0.66151
   0   7  10    5.30   27.77   0  0.66151
  -1  -7 -10   85.10   31.63   0  0.66151
   1   7  10   65.93   23.49   0  0.66151
  -1  -7 -10   49.21   23.52   0  0.66151
   1   7  10   38.85   31.45   0  0.66151
  -2  -7 -10   33.40   33.38   0  0.66151
  -2  -7 -10  117.34   23.18   0  0.66151
   2   7  10  109.34   22.32   0  0.66151
   2   7  10   48.42   33.48   0  0.66151
   3   7  10    0.87   22.70   0  0.66151
   3   7  10    1.09   22.06   0  0.66151
  -3  -7 -10   28.79   22.62   0  0.66151
  -3  -7 -10   10.53   22.19   0  0.66151
  -4  -7 -10   14.18   22.10   0  0.66151
   4   7  10   14.76   21.67   0  0.66151
   4   7  10   26.75   31.70   0  0.66151
   5   7  10   53.02   31.04   0  0.66151
   5   7  10   50.42   29.86   0  0.66151
  -5  -7 -10   13.91   31.12   0  0.66151
  -6  -7 -10   77.23   26.55   0  0.66151
   6   7  10   34.06   37.27   0  0.66151
   6   7  10  106.26   37.05   0  0.66151
   7   7  10   34.53   39.15   0  0.66151
  -7  -7 -10   -9.00   26.38   0  0.66151
   7   7  10  -20.12   25.81   0  0.66151
   8   7  10   13.04   29.23   0  0.66151
  -8  -7 -10    5.67   41.51   0  0.66151
   8   7  10   23.42   40.96   0  0.66151
   2  -8 -10   27.60   31.58   0  0.66151
  -2   8  10   10.73   31.85   0  0.66151
  -1   8  10   11.49   45.42   0  0.66151
   1  -8 -10   78.91   46.38   0  0.66151
  -1   8  10   87.63   42.96   0  0.66151
   0   8  10   39.38   25.92   0  0.66151
   0   8  10   25.25   27.57   0  0.66151
   0  -8 -10   20.64   27.55   0  0.66151
   1   8  10  -35.04   37.85   0  0.66151
   1   8  10   21.70   38.77   0  0.66151
  -1  -8 -10   33.32   38.81   0  0.66151
   2   8  10   38.86   22.34   0  0.66151
   2   8  10   39.50   23.02   0  0.66151
  -2  -8 -10   51.15   22.57   0  0.66151
  -2  -8 -10   47.79   23.24   0  0.66151
  -3  -8 -10    2.87   26.91   0  0.66151
  -3  -8 -10   34.67   35.69   0  0.66151
   3   8  10   22.50   22.03   0  0.66151
   3   8  10   15.86   35.39   0  0.66151
   4   8  10   55.42   37.22   0  0.66151
   4   8  10   87.40   26.61   0  0.66151
  -4  -8 -10   90.19   37.11   0  0.66151
  -5  -8 -10  -20.66   37.24   0  0.66151
   5   8  10   22.11   37.35   0  0.66151
   5   8  10  -27.71   36.76   0  0.66151
  -6  -8 -10  -12.05   26.43   0  0.66151
   6   8  10   12.03   25.89   0  0.66151
   6   8  10   -4.90   26.38   0  0.66151
  -7  -8 -10   32.95   42.58   0  0.66151
   7   8  10   30.49   42.07   0  0.66151
   7   8  10   20.88   43.47   0  0.66151
  -1   9  10   35.23   31.07   0  0.66151
  -1   9  10   14.95   32.27   0  0.66151
   1  -9 -10   37.98   32.05   0  0.66151
   0  -9 -10   15.38   31.82   0  0.66151
   0   9  10   43.07   32.25   0  0.66151
   0   9  10   37.41   31.24   0  0.66151
   1   9  10  -10.42   27.63   0  0.66151
  -1  -9 -10   -3.51   27.99   0  0.66151
   1   9  10   -9.87   26.63   0  0.66151
  -2  -9 -10   12.28   28.43   0  0.66151
   2   9  10   25.97   26.61   0  0.66151
   2   9  10   50.64   27.79   0  0.66151
   3   9  10  -17.02   27.10   0  0.66151
   3   9  10   10.27   26.20   0  0.66151
  -3  -9 -10   -3.53   27.88   0  0.66151
  -3  -9 -10   -9.07   37.62   0  0.66151
  -4  -9 -10   39.86   26.19   0  0.66151
   4   9  10    4.38   27.63   0  0.66151
   4   9  10   30.40   25.47   0  0.66151
   5   9  10   33.72   30.18   0  0.66151
  -5  -9 -10   11.62   31.11   0  0.66151
   5   9  10   -4.46   41.93   0  0.66151
   6   9  10   23.91   42.82   0  0.66151
   6   9  10   -9.19   42.78   0  0.66151
  -6  -9 -10    7.18   43.10   0  0.66151
   0 -10 -10   -5.40   31.19   0  0.66151
   0  10  10  -25.07   31.14   0  0.66151
   0  10  10   20.90   29.95   0  0.66151
   1  10  10   17.62   31.23   0  0.66151
  -1 -10 -10   -3.05   32.84   0  0.66151
   1  10  10   -6.12   43.58   0  0.66151
   2  10  10    7.29   43.05   0  0.66151
   2  10  10   42.35   31.28   0  0.66151
  -2 -10 -10   17.97   32.65   0  0.66151
   3  10  10   14.26   30.26   0  0.66151
  -3 -10 -10    1.29   45.67   0  0.66151
   3  10  10  -21.59   44.88   0  0.66151
   4  10  10   51.10   44.75   0  0.66151
   4  10  10   55.22   42.09   0  0.66151
  -5 -10 -10  -19.40   35.30   0  0.66151
   5  10  10   -0.75   34.21   0  0.66151
   5  10  10   -5.36   30.88   0  0.66151
  -4   2 -11   85.40   31.14   0  0.66151
   4  -2  11   66.09   34.97   0  0.66151
   2  -1  11  -10.12   30.29   0  0.66151
   2  -1  11   53.18   40.27   0  0.66151
  -2   1 -11    4.14   30.24   0  0.66151
  -3   1 -11   56.91   43.00   0  0.66151
   3  -1  11  -14.92   44.53   0  0.66151
   3  -1  11   54.61   41.88   0  0.66151
   4  -1  11   70.41   44.77   0  0.66151
   4  -1  11   66.01   43.06   0  0.66151
  -4   1 -11   61.62   44.45   0  0.66151
  -5   1 -11   21.97   31.61   0  0.66151
   5  -1  11   53.43   29.88   0  0.66151
   5  -1  11   14.68   31.13   0  0.66151
   6  -1  11   46.40   29.36   0  0.66151
  -6   1 -11   47.75   42.08   0  0.66151
   6  -1  11   55.11   42.48   0  0.66151
   7  -1  11   11.27   29.37   0  0.66151
  -7   1 -11   11.74   29.33   0  0.66151
  -1   0 -11   39.34   44.30   0  0.66151
   1   0  11   85.69   42.29   0  0.66151
   1   0  11   16.62   44.42   0  0.66151
   2   0  11  100.57   31.96   0  0.66151
  -2   0 -11  149.56   31.81   0  0.66151
   2   0  11  110.09   30.94   0  0.66151
   3   0  11   23.64   25.60   0  0.66151
   3   0  11   13.07   26.18   0  0.66151
  -3   0 -11    3.63   26.73   0  0.66151
   4   0  11  236.22   37.96   0  0.66151
   4   0  11  261.62   27.89   0  0.66151
  -4   0 -11  274.21   28.65   0  0.66151
  -5   0 -11    9.01   25.88   0  0.66151
   5   0  11    5.83   25.91   0  0.66151
   5   0  11  -21.16   26.90   0  0.66151
   6   0  11   44.97   30.05   0  0.66151
   6   0  11   34.57   39.16   0  0.66151
  -6   0 -11   -2.14   30.60   0  0.66151
   7   0  11  107.69   29.30   0  0.66151
   7   0  11   63.99   29.84   0  0.66151
  -7   0 -11   27.88   30.60   0  0.66151
   0   1  11   29.35   30.88   0  0.66151
   0  -1 -11  -21.06   31.55   0  0.66151
   0   1  11    8.88   42.18   0  0.66151
   1   1  11   44.98   30.86   0  0.66151
  -1  -1 -11    5.87   41.64   0  0.66151
   1   1  11   45.90   31.52   0  0.66151
   2   1  11  148.80   27.40   0  0.66151
  -2  -1 -11  219.05   38.46   0  0.66151
   2   1  11  150.56   38.98   0  0.66151
   3   1  11   -8.97   25.61   0  0.66151
   3   1  11  -40.99   38.27   0  0.66151
  -3  -1 -11   -9.89   36.89   0  0.66151
  -4  -1 -11   64.41   36.47   0  0.66151
   4   1  11   23.71   37.56   0  0.66151
   4   1  11   -7.01   26.78   0  0.66151
   5   1  11   73.67   27.27   0  0.66151
   5   1  11   83.41   26.55   0  0.66151
  -5  -1 -11  104.62   26.75   0  0.66151
   6   1  11   -3.61   25.52   0  0.66151
  -6  -1 -11   20.43   36.96   0  0.66151
   6   1  11    2.06   37.19   0  0.66151
  -7  -1 -11   33.71   40.07   0  0.66151
   7   1  11  -30.08   39.92   0  0.66151
   7   1  11    5.01   30.14   0  0.66151
   8   1  11   13.54   29.47   0  0.66151
   8   1  11   42.14   29.21   0  0.66151
  -8  -1 -11   16.13   29.48   0  0.66151
   0  -2 -11   61.38   44.91   0  0.66151
   0   2  11   52.46   32.16   0  0.66151
   0   2  11   58.56   43.53   0  0.66151
   1   2  11   12.33   25.91   0  0.66151
   1   2  11  -21.86   38.33   0  0.66151
  -1  -2 -11    9.31   38.10   0  0.66151
   2   2  11  180.30   27.19   0  0.66151
   2   2  11  200.77   27.36   0  0.66151
  -2  -2 -11  173.15   27.96   0  0.66151
   3   2  11   22.16   34.32   0  0.66151
   3   2  11   15.53   26.83   0  0.66151
  -3  -2 -11   45.23   26.21   0  0.66151
   4   2  11    8.70   33.79   0  0.66151
   4   2  11  -10.86   21.76   0  0.66151
  -4  -2 -11  -34.93   34.12   0  0.66151
   5   2  11   49.41   27.12   0  0.66151
   5   2  11   71.21   26.23   0  0.66151
  -5  -2 -11  100.56   25.95   0  0.66151
   6   2  11    6.47   26.03   0  0.66151
  -6  -2 -11   13.47   36.60   0  0.66151
   6   2  11   54.84   36.39   0  0.66151
   7   2  11   22.05   26.40   0  0.66151
  -7  -2 -11   82.93   36.26   0  0.66151
   7   2  11   35.74   36.70   0  0.66151
   8   2  11  -17.02   30.31   0  0.66151
  -8  -2 -11   25.05   29.35   0  0.66151
   8   2  11    6.15   30.20   0  0.66151
  -1   3  11   57.09   35.11   0  0.66151
   1  -3 -11   43.61   47.17   0  0.66151
   1  -3 -11   10.73   31.13   0  0.66151
   0   3  11   58.57   31.04   0  0.66151
   0   3  11   -1.17   45.43   0  0.66151
   0  -3 -11   26.93   44.85   0  0.66151
   0  -3 -11   -9.64   41.53   0  0.66151
  -1  -3 -11    5.18   26.60   0  0.66151
   1   3  11   19.18   26.43   0  0.66151
   1   3  11   -7.35   37.28   0  0.66151
   2   3  11  134.41   26.59   0  0.66151
  -2  -3 -11  111.74   27.07   0  0.66151
   2   3  11   56.26   38.16   0  0.66151
   3   3  11   77.47   22.55   0  0.66151
   3   3  11   58.60   22.41   0  0.66151
  -3  -3 -11   66.73   22.05   0  0.66151
   4   3  11  -11.29   31.10   0  0.66151
   4   3  11   28.72   30.80   0  0.66151
  -4  -3 -11   11.15   30.86   0  0.66151
   5   3  11  141.24   26.86   0  0.66151
   5   3  11   98.65   34.79   0  0.66151
  -5  -3 -11  136.40   27.15   0  0.66151
   6   3  11   15.82   36.37   0  0.66151
   6   3  11  -12.81   25.92   0  0.66151
  -6  -3 -11   19.85   25.54   0  0.66151
  -7  -3 -11  -13.28   26.01   0  0.66151
   7   3  11  -35.74   26.12   0  0.66151
   7   3  11   -3.64   25.70   0  0.66151
   8   3  11   56.61   29.52   0  0.66151
   8   3  11   18.80   30.90   0  0.66151
  -8  -3 -11    5.34   31.05   0  0.66151
   1  -4 -11   15.06   43.51   0  0.66151
  -1   4  11  -10.28   44.00   0  0.66151
  -1   4  11  -23.58   44.51   0  0.66151
   0   4  11  120.48   28.57   0  0.66151
   0  -4 -11  143.05   28.42   0  0.66151
   0  -4 -11  133.70   28.08   0  0.66151
   0   4  11   83.13   42.85   0  0.66151
   1   4  11   17.25   26.42   0  0.66151
  -1  -4 -11   17.78   26.42   0  0.66151
  -1  -4 -11  -20.11   27.16   0  0.66151
   1   4  11    3.85   26.64   0  0.66151
  -2  -4 -11  -50.54   27.42   0  0.66151
   2   4  11    1.23   26.53   0  0.66151
   2   4  11    3.10   26.53   0  0.66151
   3   4  11   71.14   31.75   0  0.66151
  -3  -4 -11   97.40   31.81   0  0.66151
   3   4  11  112.38   31.21   0  0.66151
   4   4  11   14.58   22.34   0  0.66151
   4   4  11   10.79   21.80   0  0.66151
  -4  -4 -11   23.01   21.49   0  0.66151
  -5  -4 -11   12.33   33.47   0  0.66151
   5   4  11   18.24   33.46   0  0.66151
   5   4  11    9.17   33.77   0  0.66151
  -6  -4 -11   57.29   26.06   0  0.66151
   6   4  11   24.18   26.14   0  0.66151
   6   4  11   21.30   37.23   0  0.66151
   7   4  11   50.00   36.23   0  0.66151
   7   4  11   -7.60   26.48   0  0.66151
  -7  -4 -11   19.61   36.69   0  0.66151
  -8  -4 -11   33.79   30.15   0  0.66151
   8   4  11   38.35   30.42   0  0.66151
   8   4  11   56.80   43.18   0  0.66151
   1  -5 -11   16.89   31.19   0  0.66151
  -1   5  11    2.29   31.14   0  0.66151
  -1   5  11   32.49   42.85   0  0.66151
   0   5  11   38.09   28.03   0  0.66151
   0  -5 -11   28.98   38.94   0  0.66151
   0   5  11   81.11   40.79   0  0.66151
   0  -5 -11   59.67   41.34   0  0.66151
   1   5  11  -36.09   38.74   0  0.66151
  -1  -5 -11   56.76   38.19   0  0.66151
   1   5  11   22.15   38.11   0  0.66151
  -1  -5 -11    7.66   38.33   0  0.66151
  -2  -5 -11    2.38   27.02   0  0.66151
  -2  -5 -11  -18.03   34.17   0  0.66151
   2   5  11    0.33   26.92   0  0.66151
   2   5  11   28.92   34.09   0  0.66151
  -3  -5 -11   84.97   22.31   0  0.66151
   3   5  11   80.30   22.19   0  0.66151
   3   5  11   51.08   31.92   0  0.66151
  -4  -5 -11   22.10   33.81   0  0.66151
   4   5  11   -8.23   22.75   0  0.66151
   4   5  11   -2.97   33.94   0  0.66151
   5   5  11   57.12   34.35   0  0.66151
   5   5  11   55.88   26.04   0  0.66151
  -5  -5 -11   26.60   26.14   0  0.66151
  -6  -5 -11  -11.00   26.07   0  0.66151
   6   5  11  -18.67   25.99   0  0.66151
   6   5  11    0.46   26.42   0  0.66151
   7   5  11    9.57   40.34   0  0.66151
  -7  -5 -11    7.84   25.54   0  0.66151
   7   5  11  -13.69   26.04   0  0.66151
  -8  -5 -11   25.85   42.54   0  0.66151
   8   5  11    4.56   29.26   0  0.66151
   8   5  11   12.63   30.95   0  0.66151
   1  -6 -11   18.41   30.91   0  0.66151
  -1   6  11   -9.17   31.37   0  0.66151
  -1   6  11   48.18   42.61   0  0.66151
   0  -6 -11   15.28   42.14   0  0.66151
   0  -6 -11   43.96   31.26   0  0.66151
   0   6  11  -19.16   31.90   0  0.66151
   0   6  11   12.09   42.62   0  0.66151
  -1  -6 -11   41.45   26.64   0  0.66151
  -1  -6 -11   21.95   39.02   0  0.66151
   1   6  11   24.46   26.84   0  0.66151
   1   6  11   47.43   38.48   0  0.66151
  -2  -6 -11   -9.90   38.70   0  0.66151
  -2  -6 -11   16.54   25.88   0  0.66151
   2   6  11    9.22   26.58   0  0.66151
   2   6  11    0.86   36.93   0  0.66151
  -3  -6 -11   36.40   26.65   0  0.66151
   3   6  11   19.04   26.85   0  0.66151
   3   6  11   57.46   38.37   0  0.66151
   4   6  11   -3.24   36.68   0  0.66151
   4   6  11   -3.63   37.99   0  0.66151
  -4  -6 -11   -7.73   25.89   0  0.66151
   5   6  11   -8.04   26.83   0  0.66151
   5   6  11   11.92   26.42   0  0.66151
  -5  -6 -11   38.51   26.08   0  0.66151
  -6  -6 -11   93.59   26.56   0  0.66151
   6   6  11   90.35   26.23   0  0.66151
   6   6  11   74.57   26.94   0  0.66151
  -7  -6 -11   -9.22   42.46   0  0.66151
   7   6  11   26.70   42.25   0  0.66151
   7   6  11    7.52   30.11   0  0.66151
   1  -7 -11  -70.49   35.84   0  0.66151
  -1   7  11  -40.85   36.15   0  0.66151
   0  -7 -11  -16.19   32.02   0  0.66151
   0   7  11   22.99   31.14   0  0.66151
   0   7  11   22.07   31.11   0  0.66151
   1   7  11   43.37   27.22   0  0.66151
  -1  -7 -11   68.26   38.36   0  0.66151
   1   7  11    4.23   39.41   0  0.66151
  -1  -7 -11  -13.99   40.23   0  0.66151
   2   7  11   -5.35   26.58   0  0.66151
   2   7  11  -15.24   27.48   0  0.66151
  -2  -7 -11   -9.09   26.83   0  0.66151
  -2  -7 -11   -0.82   27.48   0  0.66151
  -3  -7 -11   -2.81   27.01   0  0.66151
   3   7  11   -8.58   38.43   0  0.66151
   3   7  11    4.55   26.63   0  0.66151
  -4  -7 -11  -29.71   37.72   0  0.66151
   4   7  11  -12.48   36.93   0  0.66151
   4   7  11    9.35   26.88   0  0.66151
   5   7  11   19.03   36.67   0  0.66151
  -5  -7 -11   45.42   36.78   0  0.66151
   5   7  11   25.69   26.74   0  0.66151
   6   7  11   61.75   30.73   0  0.66151
  -6  -7 -11   55.77   40.32   0  0.66151
   6   7  11   38.62   40.31   0  0.66151
   7   7  11   51.80   30.99   0  0.66151
  -7  -7 -11   60.97   30.32   0  0.66151
   7   7  11   38.20   30.41   0  0.66151
   0  -8 -11  -14.97   31.80   0  0.66151
   0   8  11    3.60   31.01   0  0.66151
   0   8  11   30.08   29.88   0  0.66151
  -1  -8 -11   34.84   32.89   0  0.66151
   1   8  11    9.19   31.99   0  0.66151
   1   8  11  -33.65   44.73   0  0.66151
  -2  -8 -11   -4.24   26.85   0  0.66151
   2   8  11   22.86   42.20   0  0.66151
   2   8  11    5.05   26.45   0  0.66151
  -2  -8 -11  -17.94   42.13   0  0.66151
   3   8  11   19.19   27.27   0  0.66151
  -3  -8 -11   38.07   26.70   0  0.66151
   3   8  11   26.08   26.80   0  0.66151
  -3  -8 -11   33.08   27.88   0  0.66151
  -4  -8 -11   20.21   26.75   0  0.66151
   4   8  11   29.23   37.94   0  0.66151
   4   8  11   12.75   26.22   0  0.66151
   5   8  11   15.62   30.10   0  0.66151
  -5  -8 -11   29.49   30.22   0  0.66151
   5   8  11   36.66   30.50   0  0.66151
   6   8  11   18.10   31.47   0  0.66151
   6   8  11   20.55   30.26   0  0.66151
  -6  -8 -11   58.32   30.73   0  0.66151
  -1  -9 -11   61.95   44.00   0  0.66151
   1   9  11  -11.21   44.15   0  0.66151
   1   9  11   22.29   41.63   0  0.66151
   2   9  11   32.70   43.13   0  0.66151
  -2  -9 -11   21.96   31.86   0  0.66151
   2   9  11   -0.22   31.85   0  0.66151
  -3  -9 -11   -5.43   43.59   0  0.66151
   3   9  11   12.50   43.89   0  0.66151
  -3  -9 -11   18.08   32.40   0  0.66151
   3   9  11   29.08   31.88   0  0.66151
   4   9  11   36.89   43.96   0  0.66151
   4   9  11   45.25   44.69   0  0.66151
  -4  -9 -11   15.03   44.08   0  0.66151
   5   9  11  -20.51   30.16   0  0.66151
  -5  -9 -11   -4.41   29.56   0  0.66151
   5   9  11  -14.93   29.84   0  0.66151
   3   1  12   -7.44   30.33   0  0.66151
  -3  -1 -12  -20.60   30.24   0  0.66151
   3   1  12    0.51   29.13   0  0.66151
  -4  -1 -12    0.33   43.09   0  0.66151
   4   1  12   17.59   30.42   0  0.66151
   4   1  12    5.37   42.68   0  0.66151
  -5  -1 -12   49.49   30.39   0  0.66151
   5   1  12   62.18   42.22   0  0.66151
   5   1  12  109.37   29.45   0  0.66151
  -6  -1 -12    3.77   33.85   0  0.66151
   6   1  12   52.14   33.18   0  0.66151
   6   1  12   20.74   29.23   0  0.66151
   2   2  12    1.63   42.74   0  0.66151
  -2  -2 -12   53.60   30.22   0  0.66151
   2   2  12    4.61   30.98   0  0.66151
  -3  -2 -12   29.01   30.79   0  0.66151
   3   2  12    5.22   43.53   0  0.66151
   3   2  12   50.98   30.63   0  0.66151
  -4  -2 -12   -7.44   31.10   0  0.66151
   4   2  12   25.71   30.77   0  0.66151
   4   2  12   20.78   42.69   0  0.66151
  -5  -2 -12   28.17   29.61   0  0.66151
   5   2  12   10.56   30.87   0  0.66151
   5   2  12   -7.12   30.68   0  0.66151
   6   2  12   12.99   42.34   0  0.66151
  -6  -2 -12  -22.18   43.38   0  0.66151
   6   2  12  -31.98   43.05   0  0.66151
   7   2  12   -7.01   29.09   0  0.66151
   1   3  12    9.24   33.76   0  0.66151
  -1  -3 -12   -0.43   30.78   0  0.66151
  -2  -3 -12   -3.18   43.86   0  0.66151
   2   3  12   35.00   30.22   0  0.66151
   2   3  12   14.24   43.49   0  0.66151
  -3  -3 -12   47.08   31.58   0  0.66151
   3   3  12   45.42   31.01   0  0.66151
   3   3  12   56.03   30.86   0  0.66151
  -4  -3 -12   45.77   30.90   0  0.66151
   4   3  12   49.74   31.39   0  0.66151
   4   3  12   55.57   30.94   0  0.66151
  -5  -3 -12  -37.90   31.10   0  0.66151
   5   3  12   32.07   29.92   0  0.66151
   5   3  12   14.60   30.20   0  0.66151
   6   3  12    2.65   43.10   0  0.66151
  -6  -3 -12  -11.69   42.78   0  0.66151
   6   3  12   21.02   42.15   0  0.66151
  -7  -3 -12   83.79   29.88   0  0.66151
   7   3  12    8.76   45.48   0  0.66151
   7   3  12   57.84   30.80   0  0.66151
   1   4  12   49.25   45.41   0  0.66151
   1   4  12   -5.76   45.70   0  0.66151
   2   4  12   23.82   43.87   0  0.66151
  -2  -4 -12    9.62   43.43   0  0.66151
   2   4  12  -58.59   44.02   0  0.66151
  -3  -4 -12   27.95   30.74   0  0.66151
   3   4  12   -7.10   30.75   0  0.66151
   3   4  12    5.04   41.12   0  0.66151
   4   4  12   36.79   26.37   0  0.66151
  -4  -4 -12   14.02   40.61   0  0.66151
   4   4  12   46.74   26.74   0  0.66151
  -5  -4 -12   93.49   30.66   0  0.66151
   5   4  12   60.75   30.81   0  0.66151
   5   4  12  -26.99   41.42   0  0.66151
   6   4  12   17.42   29.93   0  0.66151
  -6  -4 -12    3.41   30.15   0  0.66151
   6   4  12   19.74   42.79   0  0.66151
   7   4  12   19.08   42.57   0  0.66151
  -7  -4 -12   30.38   30.01   0  0.66151
   7   4  12   49.28   29.36   0  0.66151
  -1  -5 -12   19.43   31.32   0  0.66151
   1   5  12   36.86   30.68   0  0.66151
   1   5  12   11.98   46.33   0  0.66151
  -1  -5 -12   14.20   46.28   0  0.66151
   2   5  12   17.21   31.10   0  0.66151
   2   5  12   41.07   31.62   0  0.66151
  -2  -5 -12    9.63   31.26   0  0.66151
  -3  -5 -12  -20.56   31.42   0  0.66151
   3   5  12   15.56   29.94   0  0.66151
   3   5  12  -24.69   27.27   0  0.66151
   4   5  12   66.09   31.38   0  0.66151
   4   5  12   52.01   31.54   0  0.66151
  -4  -5 -12   24.03   31.54   0  0.66151
   5   5  12    5.79   44.08   0  0.66151
  -5  -5 -12   20.44   43.16   0  0.66151
   5   5  12  -24.02   42.03   0  0.66151
   6   5  12   41.55   43.20   0  0.66151
   6   5  12   19.97   43.47   0  0.66151
  -6  -5 -12   61.29   42.92   0  0.66151
   7   5  12   31.80   34.14   0  0.66151
  -1  -6 -12  -31.78   46.69   0  0.66151
  -1  -6 -12  -16.30   31.29   0  0.66151
   1   6  12   43.74   33.50   0  0.66151
   1   6  12    3.92   31.02   0  0.66151
  -2  -6 -12   40.02   31.84   0  0.66151
  -2  -6 -12   76.98   32.02   0  0.66151
   2   6  12   98.54   31.55   0  0.66151
   2   6  12   34.59   31.54   0  0.66151
   3   6  12   16.34   43.98   0  0.66151
   3   6  12  -18.11   43.35   0  0.66151
  -3  -6 -12   47.40   43.02   0  0.66151
   4   6  12    9.54   31.15   0  0.66151
   4   6  12  -25.77   43.31   0  0.66151
  -4  -6 -12  -23.23   43.27   0  0.66151
  -5  -6 -12  156.59   32.54   0  0.66151
   5   6  12  184.68   32.47   0  0.66151
   5   6  12  156.08   32.01   0  0.66151
  -6  -6 -12   23.92   42.32   0  0.66151
   6   6  12   60.19   31.01   0  0.66151
   6   6  12   36.72   42.48   0  0.66151
   2   7  12   41.20   31.51   0  0.66151
   2   7  12   55.87   30.22   0  0.66151
  -2  -7 -12   47.34   31.97   0  0.66151
  -2  -7 -12   -8.50   30.79   0  0.66151
   3   7  12   21.39   44.17   0  0.66151
   3   7  12   83.34   43.00   0  0.66151
  -3  -7 -12   72.12   43.61   0  0.66151
  -4  -7 -12   39.17   30.30   0  0.66151
   4   7  12  -11.14   44.82   0  0.66151
   4   7  12   28.38   30.28   0  0.66151
   5   7  12   -7.90   44.55   0  0.66151
   5   7  12   57.75   30.51   0  0.66151
  -5  -7 -12   54.31   30.56   0  0.66151
   6   7  12   78.31   33.83   0  0.66151
  -6  -7 -12   69.43   34.97   0  0.66151
   3   8  12   67.16   30.96   0  0.66151
  -3  -8 -12   41.49   30.69   0  0.66151
   4   8  12   14.71   35.18   0  0.66151
  -4  -8 -12   42.45   29.39   0  0.66151
   0   0   0    0.00    0.00   0
;
_shelx_hkl_checksum              92949
loop_
_space_group_symop_operation_xyz
'x, y, z'
'-x, -y, -z'
loop_
_atom_site_label
_atom_site_type_symbol
_atom_site_fract_x
_atom_site_fract_y
_atom_site_fract_z
_atom_site_U_iso_or_equiv
_atom_site_adp_type
_atom_site_occupancy
_atom_site_site_symmetry_order
_atom_site_calc_flag
_atom_site_refinement_flags_posn
_atom_site_refinement_flags_adp
_atom_site_refinement_flags_occupancy
_atom_site_disorder_assembly
_atom_site_disorder_group
Cu1 Cu 0.65739(15) 0.43788(14) 0.07937(12) 0.0244(4) Uani 1 1 d . . . . .
Cu2 Cu 0.000000 0.000000 0.500000 0.0386(5) Uani 1 2 d S . P . .
Cl1 Cl 0.6056(3) 0.3862(3) -0.1064(3) 0.0302(6) Uani 1 1 d . . . . .
O1 O 0.8613(9) 0.6171(8) -0.0749(7) 0.0280(15) Uani 1 1 d . . . . .
O2 O 0.4960(9) 0.2605(8) 0.2861(7) 0.0302(15) Uani 1 1 d . . . . .
O3 O 1.0533(11) 0.7831(10) -0.0741(9) 0.048(2) Uani 1 1 d . . . . .
O4 O 0.4169(11) 0.1640(9) 0.5561(8) 0.0404(19) Uani 1 1 d . . . . .
O5 O 0.1391(13) 0.2057(11) 0.3612(9) 0.055(2) Uani 1 1 d . . . . .
O6 O -0.1671(10) 0.0496(9) 0.3945(8) 0.0403(19) Uani 1 1 d . . . . .
N1 N 0.7308(10) 0.4724(9) 0.2325(8) 0.0211(16) Uani 1 1 d . . . . .
C1 C 0.5105(13) 0.2559(12) 0.4177(10) 0.028(2) Uani 1 1 d . . . . .
C2 C 0.6503(12) 0.3804(12) 0.3879(10) 0.026(2) Uani 1 1 d . . . . .
C3 C 0.6900(13) 0.4070(12) 0.5013(11) 0.030(2) Uani 1 1 d . . . . .
H3 H 0.635832 0.341706 0.609941 0.036 Uiso 1 1 calc R U . . .
C4 C 0.8133(14) 0.5339(14) 0.4515(12) 0.038(3) Uani 1 1 d . . . . .
H4 H 0.838835 0.555375 0.528011 0.045 Uiso 1 1 calc R U . . .
C5 C 0.9001(14) 0.6305(13) 0.2848(12) 0.033(2) Uani 1 1 d . . . . .
H5 H 0.983230 0.715125 0.249203 0.039 Uiso 1 1 calc R U . . .
C6 C 0.8549(13) 0.5926(12) 0.1783(11) 0.026(2) Uani 1 1 d . . . . .
C7 C 0.9315(13) 0.6758(12) -0.0061(10) 0.027(2) Uani 1 1 d . . . . .
O7 O 0.216(5) -0.0497(17) 0.257(2) 0.27(2) Uani 1 1 d . . . . .
loop_
_atom_site_aniso_label
_atom_site_aniso_U_11
_atom_site_aniso_U_22
_atom_site_aniso_U_33
_atom_site_aniso_U_23
_atom_site_aniso_U_13
_atom_site_aniso_U_12
Cu1 0.0260(6) 0.0300(7) 0.0152(5) -0.0056(5) -0.0090(4) -0.0058(5)
Cu2 0.0272(10) 0.0270(11) 0.0496(11) 0.0006(9) -0.0172(8) -0.0081(9)
Cl1 0.0381(13) 0.0365(15) 0.0251(10) -0.0175(10) -0.0170(10) 0.0067(11)
O1 0.029(3) 0.029(4) 0.017(3) -0.002(3) -0.006(3) -0.010(3)
O2 0.034(4) 0.033(4) 0.020(3) -0.004(3) -0.012(3) -0.008(3)
O3 0.045(5) 0.049(6) 0.029(4) -0.002(4) -0.006(3) -0.030(5)
O4 0.046(4) 0.041(5) 0.020(3) 0.004(3) -0.013(3) -0.019(4)
O5 0.057(5) 0.057(6) 0.035(4) 0.006(4) -0.022(4) -0.026(5)
O6 0.036(4) 0.042(5) 0.029(3) 0.003(3) -0.013(3) -0.010(4)
N1 0.022(4) 0.022(4) 0.019(3) -0.005(3) -0.010(3) -0.004(3)
C1 0.024(5) 0.036(6) 0.016(4) -0.004(4) -0.007(4) -0.003(5)
C2 0.024(5) 0.031(6) 0.017(4) -0.004(4) -0.008(4) -0.001(4)
C3 0.031(5) 0.038(6) 0.018(4) -0.007(4) -0.011(4) 0.000(5)
C4 0.034(6) 0.062(8) 0.025(5) -0.022(5) -0.015(4) 0.003(6)
C5 0.030(5) 0.039(7) 0.029(5) -0.014(5) -0.011(4) -0.005(5)
C6 0.028(5) 0.027(6) 0.027(4) -0.013(4) -0.013(4) 0.002(4)
C7 0.023(5) 0.031(6) 0.019(4) -0.004(4) -0.007(4) 0.000(5)
O7 0.71(6) 0.056(9) 0.133(15) -0.021(9) -0.26(3) 0.01(2)
loop_
_atom_type_symbol
_atom_type_description
_atom_type_scat_dispersion_real
_atom_type_scat_dispersion_imag
_atom_type_scat_source
C C 0.0033 0.0016 'International Tables Vol C Tables 4.2.6.8 and 6.1.1.4'
Cl Cl 0.1484 0.1585 'International Tables Vol C Tables 4.2.6.8 and 6.1.1.4'
Cu Cu 0.3201 1.2651 'International Tables Vol C Tables 4.2.6.8 and 6.1.1.4'
N N 0.0061 0.0033 'International Tables Vol C Tables 4.2.6.8 and 6.1.1.4'
O O 0.0106 0.0060 'International Tables Vol C Tables 4.2.6.8 and 6.1.1.4'
H H 0.0000 0.0000 'International Tables Vol C Tables 4.2.6.8 and 6.1.1.4'
loop_
_geom_angle_atom_site_label_1
_geom_angle_atom_site_label_2
_geom_angle_atom_site_label_3
_geom_angle
_geom_angle_site_symmetry_1
_geom_angle_site_symmetry_3
N1 Cu1 O2 80.6(3) . .
N1 Cu1 O1 79.6(3) . .
O2 Cu1 O1 159.7(2) . .
N1 Cu1 Cl1 172.7(2) . .
O2 Cu1 Cl1 100.9(2) . .
O1 Cu1 Cl1 98.13(19) . .
N1 Cu1 Cl1 96.9(2) . 2_665
O2 Cu1 Cl1 92.1(2) . 2_665
O1 Cu1 Cl1 94.7(2) . 2_665
Cl1 Cu1 Cl1 90.24(9) . 2_665
O6 Cu2 O6 180.0 . 2_556
O6 Cu2 O5 90.3(3) . 2_556
O6 Cu2 O5 89.7(3) 2_556 2_556
O6 Cu2 O5 89.7(3) . .
O6 Cu2 O5 90.3(3) 2_556 .
O5 Cu2 O5 180.0 2_556 .
Cu1 Cl1 Cu1 89.76(9) . 2_665
C7 O1 Cu1 115.8(6) . .
C1 O2 Cu1 114.2(6) . .
C2 N1 C6 123.0(8) . .
C2 N1 Cu1 118.5(7) . .
C6 N1 Cu1 118.5(6) . .
O4 C1 O2 124.4(9) . .
O4 C1 C2 121.4(8) . .
O2 C1 C2 114.1(8) . .
N1 C2 C3 120.3(9) . .
N1 C2 C1 112.5(7) . .
C3 C2 C1 127.2(8) . .
C2 C3 C4 118.8(9) . .
C2 C3 H3 120.6 . .
C4 C3 H3 120.6 . .
C3 C4 C5 120.4(9) . .
C3 C4 H4 119.8 . .
C5 C4 H4 119.8 . .
C6 C5 C4 116.7(10) . .
C6 C5 H5 121.7 . .
C4 C5 H5 121.7 . .
N1 C6 C5 120.8(9) . .
N1 C6 C7 112.5(8) . .
C5 C6 C7 126.7(10) . .
O3 C7 O1 126.7(8) . .
O3 C7 C6 119.9(9) . .
O1 C7 C6 113.3(9) . .
loop_
_geom_bond_atom_site_label_1
_geom_bond_atom_site_label_2
_geom_bond_distance
_geom_bond_site_symmetry_2
Cu1 N1 1.928(7) .
Cu1 O2 2.045(7) .
Cu1 O1 2.059(7) .
Cu1 Cl1 2.212(2) .
Cu1 Cl1 2.692(3) 2_665
Cu2 O6 1.965(7) .
Cu2 O6 1.965(7) 2_556
Cu2 O5 1.979(9) 2_556
Cu2 O5 1.979(9) .
O1 C7 1.289(12) .
O2 C1 1.311(10) .
O3 C7 1.227(13) .
O4 C1 1.235(11) .
N1 C2 1.328(11) .
N1 C6 1.343(13) .
C1 C2 1.528(15) .
C2 C3 1.362(12) .
C3 C4 1.397(16) .
C3 H3 0.9300 .
C4 C5 1.420(14) .
C4 H4 0.9300 .
C5 C6 1.377(13) .
C5 H5 0.9300 .
C6 C7 1.528(12) .
loop_
_geom_torsion_atom_site_label_1
_geom_torsion_atom_site_label_2
_geom_torsion_atom_site_label_3
_geom_torsion_atom_site_label_4
_geom_torsion
_geom_torsion_site_symmetry_1
_geom_torsion_site_symmetry_2
_geom_torsion_site_symmetry_3
_geom_torsion_site_symmetry_4
Cu1 O2 C1 O4 175.2(9) . . . .
Cu1 O2 C1 C2 -2.3(10) . . . .
C6 N1 C2 C3 1.1(14) . . . .
Cu1 N1 C2 C3 -175.7(7) . . . .
C6 N1 C2 C1 178.1(8) . . . .
Cu1 N1 C2 C1 1.3(11) . . . .
O4 C1 C2 N1 -176.8(9) . . . .
O2 C1 C2 N1 0.8(12) . . . .
O4 C1 C2 C3 0.0(16) . . . .
O2 C1 C2 C3 177.6(9) . . . .
N1 C2 C3 C4 1.3(14) . . . .
C1 C2 C3 C4 -175.2(10) . . . .
C2 C3 C4 C5 -2.1(16) . . . .
C3 C4 C5 C6 0.5(16) . . . .
C2 N1 C6 C5 -2.8(14) . . . .
Cu1 N1 C6 C5 174.0(7) . . . .
C2 N1 C6 C7 177.8(8) . . . .
Cu1 N1 C6 C7 -5.4(10) . . . .
C4 C5 C6 N1 1.9(15) . . . .
C4 C5 C6 C7 -178.7(10) . . . .
Cu1 O1 C7 O3 -179.7(9) . . . .
Cu1 O1 C7 C6 3.5(10) . . . .
N1 C6 C7 O3 -176.1(9) . . . .
C5 C6 C7 O3 4.5(16) . . . .
N1 C6 C7 O1 1.0(12) . . . .
C5 C6 C7 O1 -178.4(9) . . . .
