#------------------------------------------------------------------------------
#$Date: 2019-11-30 07:46:31 +0200 (Sat, 30 Nov 2019) $
#$Revision: 244834 $
#$URL: file:///home/coder/svn-repositories/cod/cif/1/55/64/1556407.cif $
#------------------------------------------------------------------------------
#
# This file is available in the Crystallography Open Database (COD),
# http://www.crystallography.net/. The original data for this entry
# were provided by IUCr Journals, http://journals.iucr.org/.
#
# The file may be used within the scientific community so long as
# proper attribution is given to the journal article from which the
# data were obtained.
#
data_1556407
loop_
_publ_author_name
'Campos Fernandez, Cristian Saul'
'Pineda, Leslie W.'
'Cabezas Pizarro, Jorge'
_publ_section_title
;
 1-Nitro-4-(1-propyn-1-yl)benzene
;
_journal_coeditor_code           HB4327
_journal_issue                   11
_journal_name_full               IUCrData
_journal_page_first              x191585
_journal_paper_doi               10.1107/S2414314619015852
_journal_volume                  4
_journal_year                    2019
_chemical_formula_iupac          'C9 H7 N O2'
_chemical_formula_moiety         'C9 H7 N O2'
_chemical_formula_sum            'C9 H7 N O2'
_chemical_formula_weight         161.16
_chemical_name_systematic
;
1-Nitro-4-(1-propyn-1-yl)benzene
;
_space_group_crystal_system      monoclinic
_space_group_IT_number           15
_space_group_name_Hall           '-I 2ya'
_space_group_name_H-M_alt        'I 1 2/a 1'
_atom_sites_solution_hydrogens   geom
_atom_sites_solution_primary     direct
_atom_sites_solution_secondary   difmap
_audit_creation_method           SHELXL-2018/3
_cell_angle_alpha                90
_cell_angle_beta                 103.738(13)
_cell_angle_gamma                90
_cell_formula_units_Z            4
_cell_length_a                   7.3633(13)
_cell_length_b                   12.0641(16)
_cell_length_c                   8.9185(19)
_cell_measurement_reflns_used    4037
_cell_measurement_temperature    100(2)
_cell_measurement_theta_max      68.3963
_cell_measurement_theta_min      6.2847
_cell_volume                     769.6(2)
_computing_cell_refinement
;
SAINT (Bruker, 2015)
;
_computing_data_collection
;
APEX3 (Bruker, 2015)
;
_computing_data_reduction
;
SAINT (Bruker, 2015)
;
_computing_molecular_graphics
;
<i>shelXle</i> (H\"ubschle, 2011)
;
_computing_publication_material
;
publCIF (Westrip, 2010)
;
_computing_structure_refinement
;
SHELXL2018 (Sheldrick, 2015b)
;
_computing_structure_solution
;
SHELXT (Sheldrick, 2015a)
;
_diffrn_ambient_temperature      100(2)
_diffrn_measured_fraction_theta_full 0.993
_diffrn_measured_fraction_theta_max 0.984
_diffrn_measurement_device_type  'Bruker D8 Venture'
_diffrn_measurement_method       'omega scans'
_diffrn_radiation_type           CuK\a
_diffrn_radiation_wavelength     1.54178
_diffrn_reflns_av_R_equivalents  0.1085
_diffrn_reflns_av_unetI/netI     0.0448
_diffrn_reflns_limit_h_max       8
_diffrn_reflns_limit_h_min       -8
_diffrn_reflns_limit_k_max       14
_diffrn_reflns_limit_k_min       -14
_diffrn_reflns_limit_l_max       10
_diffrn_reflns_limit_l_min       -10
_diffrn_reflns_number            7605
_diffrn_reflns_theta_full        67.679
_diffrn_reflns_theta_max         69.188
_diffrn_reflns_theta_min         6.289
_diffrn_source                   'Incoatec Microsource'
_exptl_absorpt_coefficient_mu    0.829
_exptl_absorpt_correction_T_max  0.7531
_exptl_absorpt_correction_T_min  0.5094
_exptl_absorpt_correction_type   multi-scan
_exptl_absorpt_process_details
;
(SADABS; Bruker, 2015)
;
_exptl_crystal_colour            'pale yellow'
_exptl_crystal_density_diffrn    1.391
_exptl_crystal_density_method    'not measured'
_exptl_crystal_description       block
_exptl_crystal_F_000             336
_exptl_crystal_size_max          0.150
_exptl_crystal_size_mid          0.130
_exptl_crystal_size_min          0.100
_refine_diff_density_max         0.257
_refine_diff_density_min         -0.372
_refine_ls_extinction_coef       0.0025(10)
_refine_ls_extinction_expression Fc^*^=kFc[1+0.001xFc^2^\l^3^/sin(2\q)]^-1/4^
_refine_ls_extinction_method
;
SHELXL2018 (Sheldrick, 2015b)
;
_refine_ls_goodness_of_fit_ref   1.130
_refine_ls_hydrogen_treatment    constr
_refine_ls_matrix_type           full
_refine_ls_number_parameters     60
_refine_ls_number_reflns         717
_refine_ls_number_restraints     0
_refine_ls_restrained_S_all      1.130
_refine_ls_R_factor_all          0.0733
_refine_ls_R_factor_gt           0.0569
_refine_ls_shift/su_max          0.000
_refine_ls_shift/su_mean         0.000
_refine_ls_structure_factor_coef Fsqd
_refine_ls_weighting_details
'w=1/[\s^2^(Fo^2^)+(0.1002P)^2^+0.5352P] where P=(Fo^2^+2Fc^2^)/3'
_refine_ls_weighting_scheme      calc
_refine_ls_wR_factor_gt          0.1599
_refine_ls_wR_factor_ref         0.1785
_reflns_number_gt                571
_reflns_number_total             717
_reflns_threshold_expression     'I > 2\s(I)'
_cod_data_source_file            hb4327sup1.cif
_cod_data_source_block           I
_cod_original_sg_symbol_H-M      'I 2/a'
_cod_database_code               1556407
_shelx_space_group_comment
;
The symmetry employed for this shelxl refinement is uniquely defined
by the following loop, which should always be used as a source of
symmetry information in preference to the above space-group names.
They are only intended as comments.
;
_shelx_hkl_file
;
  -1   0   0   -0.01    0.01
  -1   0   0    0.00    0.02
   1   0   0    0.02    0.02
   1   0   0    0.02    0.00
   1   0   0    0.01    0.02
   1   0   0    0.00    0.01
  -2   0   0  997.41   74.32
  -2   0   0  807.80   74.30
   2   0   0 1000.00   74.30
   2   0   0  958.23   74.30
   2   0   0  866.11   74.29
  -3   0   0   -0.02    0.06
  -3   0   0   -0.03    0.04
  -3   0   0    0.09    0.08
   3   0   0    0.09    0.09
   3   0   0    0.02    0.06
   3   0   0    0.00    0.02
   3   0   0    0.00    0.06
   3   0   0   -0.02    0.08
  -4   0   0  185.08   14.60
  -4   0   0  204.67   14.60
   4   0   0  162.60   14.59
   4   0   0  167.23   14.60
   4   0   0  200.78   14.61
   4   0   0  171.67   14.59
   4   0   0  180.19   14.59
  -5   0   0    0.23    0.23
  -5   0   0   -0.05    0.16
   5   0   0    0.23    0.22
   5   0   0    0.12    0.17
   5   0   0    0.01    0.07
   5   0   0   -0.02    0.11
   6   0   0   43.10    3.66
   6   0   0   36.60    3.05
   6   0   0   35.35    3.06
  -7   0   0    0.21    0.34
   7   0   0   -0.47    1.80
   7   0   0    0.23    0.51
   7  -1   0    1.52    1.66
   7  -1   0    4.65    0.51
   7  -1   0    3.86    0.67
   6  -1   0    4.16    2.31
   6  -1   0    4.46    0.51
   6  -1   0    4.22    0.43
   6  -1   0    3.98    0.49
   6  -1   0    4.48    0.59
  -6   1   0    5.03    0.54
  -6   1   0    4.32    0.49
   5  -1   0    3.36    0.29
   5  -1   0    2.88    0.33
   5  -1   0    3.09    0.65
   5  -1   0    3.37    0.46
   5  -1   0    3.10    0.48
   5  -1   0    3.30    0.32
  -5   1   0    3.50    0.37
   4  -1   0   26.51    2.04
   4  -1   0   23.20    2.06
   4  -1   0   26.18    2.03
  -4   1   0   25.02    2.04
   3  -1   0    4.95    0.40
   3  -1   0    4.84    0.40
   3  -1   0    4.37    0.40
   3  -1   0    5.65    0.41
   3  -1   0    5.58    0.41
  -3   1   0    4.30    0.41
   2  -1   0   71.28    5.37
   2  -1   0   65.66    5.37
   2  -1   0   73.38    5.37
   2  -1   0   65.59    5.37
  -2   1   0   58.38    5.37
   1  -1   0    8.55    0.73
   1  -1   0    9.63    0.73
   0   1   0   54.25    4.77
   0   1   0   64.70    4.77
  -1  -1   0   10.99    0.94
   1   1   0   12.01    0.94
   1   1   0   11.38    0.94
   1   1   0   12.28    0.94
  -2  -1   0   10.75    0.92
  -2  -1   0   12.44    0.92
   2   1   0   10.31    0.91
   2   1   0   11.54    0.92
   2   1   0    9.92    0.91
   2   1   0   11.59    0.92
   2   1   0   12.78    0.92
  -3  -1   0    9.38    0.76
  -3  -1   0    9.33    0.77
  -3  -1   0   10.30    0.78
   3   1   0    8.74    0.78
   3   1   0    7.87    0.78
   3   1   0   10.09    0.76
   3   1   0    9.71    0.76
  -4  -1   0    0.39    0.18
  -4  -1   0    0.42    0.10
   4   1   0    0.40    0.13
   4   1   0    0.52    0.17
   4   1   0    0.28    0.18
   4   1   0    0.34    0.09
   4   1   0    0.36    0.07
  -5  -1   0    2.98    0.35
  -5  -1   0    3.39    0.35
   5   1   0    3.50    0.39
   5   1   0    3.69    0.34
   5   1   0    4.16    0.41
   5   1   0    3.61    0.52
   5   1   0    2.94    1.88
  -6  -1   0   -0.27    0.23
  -6  -1   0    0.33    0.41
   6   1   0    0.04    0.17
   6   1   0   -0.33    1.75
   6   1   0    0.39    0.52
   6   1   0   -0.08    0.12
  -7  -1   0    0.70    0.35
   7   1   0    0.62    1.24
   7   1   0    0.89    0.15
   8  -2   0    0.01    0.32
   8  -2   0   -0.01    0.15
   7  -2   0    1.67    0.32
   7  -2   0    1.64    0.28
   7  -2   0    0.10    1.91
   7  -2   0    1.85    0.40
  -7   2   0    1.16    0.25
   6  -2   0    1.02    2.86
   6  -2   0    0.63    0.24
   6  -2   0    0.04    0.28
   6  -2   0    0.90    0.22
   6  -2   0    0.70    0.37
   6  -2   0    0.46    0.29
   6  -2   0    0.66    0.18
   6  -2   0    0.15    0.49
  -6   2   0    1.00    0.32
   5  -2   0    7.49    0.73
   5  -2   0    9.16    0.79
   5  -2   0    9.21    0.71
   5  -2   0    8.48    0.81
   5  -2   0    8.27    0.73
  -5   2   0    9.26    0.76
   4  -2   0    1.31    0.28
   4  -2   0    1.45    0.22
   4  -2   0    1.83    0.16
   4  -2   0    1.83    0.15
   4  -2   0    2.13    0.20
   4  -2   0    1.69    0.15
  -4   2   0    1.81    0.25
   3  -2   0   30.86    2.38
   3  -2   0   28.48    2.38
   3  -2   0   27.54    2.38
  -3   2   0   31.75    2.39
   2  -2   0    8.80    0.76
   2  -2   0    9.50    0.75
   2  -2   0    9.90    0.75
  -2   2   0   10.12    0.76
  -2   2   0    8.58    0.77
   1  -2   0   28.75    2.23
   1  -2   0   26.80    2.23
   0  -2   0   15.01    1.31
   0  -2   0   16.65    1.31
   0  -2   0   15.63    1.31
   0   2   0   17.96    1.31
  -1  -2   0    5.92    0.53
  -1  -2   0    6.18    0.53
  -1  -2   0    7.62    0.55
  -1  -2   0    6.21    0.54
   1   2   0    7.62    0.54
   1   2   0    6.25    0.54
   1   2   0    6.59    0.54
  -2  -2   0    8.79    0.76
  -2  -2   0    8.79    0.77
   2   2   0   10.05    0.76
   2   2   0    9.93    0.76
   2   2   0    8.35    0.77
   2   2   0    9.46    0.76
   2   2   0    9.70    0.76
  -3  -2   0    0.91    0.13
  -3  -2   0    1.01    0.17
  -3  -2   0    0.70    0.15
  -3  -2   0    0.83    0.17
   3   2   0    0.82    0.13
   3   2   0    0.78    0.15
   3   2   0    0.58    0.14
   3   2   0    0.83    0.12
   3   2   0    1.02    0.18
  -4  -2   0    3.08    0.49
  -4  -2   0    2.67    0.26
  -4  -2   0    2.63    0.26
   4   2   0    2.25    0.24
   4   2   0    2.63    0.25
   4   2   0    3.09    0.32
   4   2   0    2.42    0.37
   4   2   0    2.02    0.29
   4   2   0    1.54    1.85
  -5  -2   0    0.18    0.25
  -5  -2   0   -0.06    0.38
   5   2   0    1.21    0.52
   5   2   0    0.18    0.12
   5   2   0    0.21    0.15
   5   2   0    0.28    1.76
   5   2   0    0.50    0.30
  -6  -2   0    0.17    0.38
  -6  -2   0    0.41    0.48
   6   2   0    0.45    0.48
   6   2   0    0.99    1.55
   6   2   0    0.89    0.17
   8  -3   0    0.02    0.17
   8  -3   0   -0.23    0.32
   8  -3   0   -0.19    0.20
   7  -3   0    0.74    0.33
   7  -3   0    1.09    0.26
   7  -3   0    1.12    0.32
  -7   3   0    1.07    0.27
   6  -3   0    0.43    0.23
   6  -3   0    0.03    0.54
   6  -3   0    0.10    0.27
   6  -3   0    0.15    0.31
   6  -3   0   -0.01    0.18
   6  -3   0   -0.04    0.44
  -6   3   0    0.16    0.33
   5  -3   0    4.89    0.49
   5  -3   0    5.39    0.44
   5  -3   0    5.23    0.60
   5  -3   0    5.51    0.55
   5  -3   0    4.89    0.43
  -5   3   0    6.02    0.53
  -5   3   0    5.18    0.54
   4  -3   0    0.51    0.05
   4  -3   0    0.48    0.05
   4  -3   0    0.38    0.15
   4  -3   0    0.60    0.08
   4  -3   0    0.41    0.15
  -4   3   0    0.66    0.15
  -4   3   0    0.38    0.23
   3  -3   0   13.34    1.09
   3  -3   0   13.01    1.09
  -3   3   0   15.09    1.11
  -3   3   0   14.73    1.12
  -3   3   0   11.55    1.10
   2  -3   0   21.45    1.74
   2  -3   0   22.44    1.74
  -2   3   0   22.36    1.75
  -2   3   0   20.42    1.75
   1  -3   0   16.14    1.28
   1  -3   0   14.75    1.28
  -1   3   0   14.04    1.29
  -1   3   0   17.08    1.29
  -1   3   0   17.95    1.30
   0  -3   0   40.55    3.67
   0  -3   0   47.12    3.67
   0  -3   0   44.13    3.67
   0  -3   0   42.58    3.67
   0   3   0   47.25    3.67
   0   3   0   52.46    3.67
  -1  -3   0    4.83    0.44
  -1  -3   0    5.35    0.45
  -1  -3   0    5.44    0.45
   1   3   0    5.53    0.44
   1   3   0    4.86    0.44
   1   3   0    5.56    0.45
   1   3   0    5.60    0.44
  -2  -3   0   24.09    2.08
  -2  -3   0   25.65    2.08
  -2  -3   0   25.86    2.07
  -2  -3   0   26.72    2.07
  -2  -3   0   25.38    2.07
   2   3   0   25.16    2.08
   2   3   0   26.56    2.07
  -3  -3   0    1.62    0.33
  -3  -3   0    1.51    0.19
  -3  -3   0    1.39    0.19
  -3  -3   0    1.96    0.38
   3   3   0    1.37    0.17
   3   3   0    1.69    0.26
   3   3   0    1.46    0.20
   3   3   0    1.21    0.26
   3   3   0    1.87    0.20
   3   3   0    1.41    0.21
  -4  -3   0    7.55    0.97
  -4  -3   0    6.80    0.59
  -4  -3   0    7.30    0.59
  -4  -3   0    6.28    0.64
  -4  -3   0    6.97    0.67
   4   3   0    3.72    2.02
   4   3   0    6.15    0.61
   4   3   0    7.44    0.60
   4   3   0    6.27    0.57
  -5  -3   0    0.61    0.33
  -5  -3   0    0.44    0.37
  -5  -3   0    0.40    0.45
   5   3   0    0.87    1.50
   5   3   0    0.72    0.27
   5   3   0    0.90    0.18
  -6  -3   0    2.74    0.30
   6   3   0    1.44    1.55
   6   3   0    2.00    0.27
   8  -4   0   -0.03    0.09
   8  -4   0    0.22    0.27
   8  -4   0    0.10    0.16
  -8   4   0   -0.39    0.31
   7  -4   0    0.22    0.29
   7  -4   0   -0.21    0.34
   7  -4   0    0.37    0.16
   7  -4   0    0.40    0.29
   7  -4   0    0.03    0.36
   6  -4   0    0.09    0.34
   6  -4   0    0.01    0.58
   6  -4   0    0.56    0.48
   6  -4   0    0.41    0.27
   6  -4   0    0.59    0.24
  -6   4   0   -0.04    0.23
  -6   4   0   -0.51    0.38
   5  -4   0    0.14    0.10
   5  -4   0    0.26    0.19
   5  -4   0    0.07    0.69
   5  -4   0    0.00    0.03
   5  -4   0    0.05    0.04
  -5   4   0   -0.15    0.18
  -5   4   0   -0.27    0.35
  -5   4   0   -0.35    0.33
  -5   4   0    0.20    0.22
   4  -4   0    6.14    0.50
   4  -4   0    5.23    0.42
   4  -4   0    5.28    0.42
  -4   4   0    5.48    0.54
  -4   4   0    4.61    0.50
  -4   4   0    4.42    0.48
   3  -4   0    1.66    0.14
   3  -4   0    1.38    0.21
   3  -4   0    1.68    0.14
  -3   4   0    1.83    0.23
  -3   4   0    1.43    0.24
  -3   4   0    1.57    0.31
   2  -4   0   24.31    2.08
   2  -4   0   25.67    2.09
  -2   4   0   27.54    2.09
  -2   4   0   26.26    2.10
   1  -4   0    5.20    0.42
   1  -4   0    4.95    0.41
  -1   4   0    5.22    0.43
  -1   4   0    5.14    0.44
   0  -4   0   28.88    2.18
   0  -4   0   25.41    2.18
   0  -4   0   25.34    2.17
   0   4   0   29.71    2.19
   0   4   0   24.47    2.17
   0   4   0   28.23    2.18
  -1  -4   0    3.20    0.27
  -1  -4   0    2.32    0.29
  -1  -4   0    2.95    0.30
  -1  -4   0    2.88    0.29
   1   4   0    2.87    0.25
   1   4   0    2.59    0.29
   1   4   0    2.70    0.26
   1   4   0    2.34    0.27
  -2  -4   0    8.66    0.67
  -2  -4   0    8.27    0.72
  -2  -4   0    7.57    0.68
  -2  -4   0    8.02    0.70
   2   4   0    7.53    0.66
   2   4   0    7.30    0.68
   2   4   0    8.24    0.70
   2   4   0    8.87    0.69
  -3  -4   0    0.60    0.15
  -3  -4   0    0.42    0.48
  -3  -4   0    0.56    0.22
  -3  -4   0    0.67    0.28
  -3  -4   0    0.53    0.29
   3   4   0    0.28    0.11
   3   4   0    0.48    0.16
   3   4   0    0.50    0.37
   3   4   0    0.26    0.20
   3   4   0    0.53    1.83
  -4  -4   0    2.18    0.44
  -4  -4   0    1.33    0.36
  -4  -4   0    1.63    0.39
   4   4   0    1.50    0.23
   4   4   0    1.73    0.29
   4   4   0   -0.11    1.62
  -5  -4   0   -0.35    0.46
  -5  -4   0   -0.04    0.24
  -5  -4   0   -0.11    0.23
   5   4   0   -0.01    0.13
   5   4   0    0.36    0.43
   5   4   0   -0.75    1.80
   8  -5   0    0.04    0.09
   8  -5   0    0.25    0.25
   8  -5   0   -0.03    0.14
  -8   5   0   -0.13    0.33
   7  -5   0    0.04    0.27
   7  -5   0   -0.29    0.37
   7  -5   0    0.15    0.28
   7  -5   0    0.07    0.15
  -7   5   0   -0.16    0.38
  -7   5   0    0.83    0.42
   6  -5   0    0.25    0.24
   6  -5   0    0.08    0.29
   6  -5   0   -0.56    0.48
   6  -5   0    0.74    0.33
   6  -5   0    0.56    0.58
  -6   5   0    0.05    0.38
  -6   5   0    0.27    0.48
   5  -5   0    1.40    0.66
   5  -5   0    1.77    0.19
   5  -5   0    1.39    0.24
   5  -5   0    0.62    0.72
   5  -5   0    1.77    0.35
   5  -5   0    2.36    0.48
   5  -5   0    1.42    0.13
  -5   5   0    0.42    0.49
  -5   5   0    1.70    0.28
  -5   5   0    1.11    0.40
   4  -5   0    0.19    0.09
   4  -5   0    0.38    0.18
  -4   5   0    0.18    0.17
  -4   5   0   -0.32    0.31
  -4   5   0    0.33    0.58
  -4   5   0    0.19    0.22
  -4   5   0    0.12    0.31
   3  -5   0    6.85    0.62
   3  -5   0    7.31    0.55
   3  -5   0    6.98    0.57
   3  -5   0    7.01    0.55
  -3   5   0    6.34    0.62
  -3   5   0    6.47    0.61
  -3   5   0    7.24    0.56
  -3   5   0    6.00    0.62
   2  -5   0    0.45    0.15
   2  -5   0    0.45    0.06
   2  -5   0    0.50    0.05
  -2   5   0    0.47    0.14
  -2   5   0    0.25    0.15
  -2   5   0    0.25    0.18
  -2   5   0    0.59    0.14
   1  -5   0    6.23    0.46
   1  -5   0    5.61    0.46
  -1   5   0    5.63    0.49
  -1   5   0    5.37    0.49
   0  -5   0    0.25    0.14
   0  -5   0   -0.12    0.27
   0   5   0    0.19    0.12
   0   5   0   -0.07    0.13
   0   5   0    0.14    0.15
   0   5   0    0.08    0.10
   0   5   0    0.15    0.15
  -1  -5   0    0.85    0.17
  -1  -5   0    0.86    0.24
  -1  -5   0    0.95    0.58
   1   5   0    0.41    0.10
   1   5   0    0.46    0.16
   1   5   0    0.55    0.17
   1   5   0    0.48    0.16
   1   5   0    0.60    0.13
  -2  -5   0    0.32    0.56
  -2  -5   0    0.47    0.17
  -2  -5   0    0.27    0.27
  -2  -5   0    0.33    0.34
  -2  -5   0    0.03    0.34
   2   5   0   -0.04    0.10
   2   5   0    0.33    0.16
   2   5   0    0.22    0.46
   2   5   0    0.14    0.23
   2   5   0    0.09    0.20
   2   5   0   -0.25    0.48
  -3  -5   0   -0.01    0.28
  -3  -5   0    0.40    0.50
  -3  -5   0    0.05    0.31
   3   5   0   -0.09    0.12
   3   5   0   -2.26    2.25
   3   5   0    0.06    0.18
   3   5   0    0.66    0.46
   3   5   0    0.21    0.26
   3   5   0    0.23    0.46
  -4  -5   0    0.44    0.23
  -4  -5   0   -0.06    0.20
  -4  -5   0   -0.56    0.51
  -4  -5   0    0.30    0.25
   4   5   0   -0.31    0.44
   4   5   0   -0.18    0.25
   4   5   0    2.83    2.21
   4   5   0    0.12    0.14
   8  -6   0    1.21    0.15
   8  -6   0    0.96    0.22
  -8   6   0    0.81    0.35
  -8   6   0    0.48    0.30
   7  -6   0    1.06    0.29
   7  -6   0    0.43    0.28
   7  -6   0   -0.04    0.44
   7  -6   0    0.57    0.16
   7  -6   0    0.13    0.23
  -7   6   0    1.16    0.84
  -7   6   0    1.05    0.45
   6  -6   0    4.38    0.75
   6  -6   0    3.15    0.73
   6  -6   0    4.05    0.45
   6  -6   0    4.42    0.49
   6  -6   0    4.09    0.58
   6  -6   0    4.93    0.40
  -6   6   0    4.97    0.41
  -6   6   0    4.64    0.57
   5  -6   0    1.15    0.29
   5  -6   0    1.57    0.28
   5  -6   0    1.06    0.16
   5  -6   0    0.95    0.15
   5  -6   0    1.08    0.76
   5  -6   0    1.31    0.11
   5  -6   0    0.59    0.64
   5  -6   0    1.32    0.31
  -5   6   0    1.21    0.17
  -5   6   0    0.88    0.32
  -5   6   0    1.25    0.26
   4  -6   0    8.12    1.28
   4  -6   0   10.16    0.83
   4  -6   0    8.46    0.87
   4  -6   0   10.70    0.81
   4  -6   0    9.66    0.90
   4  -6   0    9.55    0.82
   4  -6   0    8.84    0.96
  -4   6   0   10.82    0.87
  -4   6   0   10.44    0.83
  -4   6   0   11.33    0.95
  -4   6   0   10.89    0.83
   3  -6   0    1.32    0.81
   3  -6   0    0.83    0.08
   3  -6   0    0.94    0.24
   3  -6   0    0.91    0.14
   3  -6   0    0.66    0.09
  -3   6   0    1.24    0.19
  -3   6   0    0.25    0.23
  -3   6   0    1.01    0.14
   2  -6   0   10.39    0.83
   2  -6   0    9.14    1.22
   2  -6   0    9.63    0.84
   2  -6   0   10.68    0.82
  -2   6   0   10.39    0.84
   1  -6   0   -0.11    0.66
   1  -6   0   -0.04    0.09
   1  -6   0   -0.05    0.03
  -1   6   0    0.03    0.11
  -1   6   0    0.03    0.13
  -1   6   0   -0.02    0.17
  -1   6   0   -0.14    0.24
   0  -6   0    3.26    0.80
   0  -6   0    2.04    0.47
   0   6   0    2.74    0.27
   0   6   0    2.80    0.29
   0   6   0    2.51    0.30
   0   6   0    3.41    0.66
  -1  -6   0    0.59    0.56
  -1  -6   0    0.04    0.28
   1   6   0    0.34    0.12
   1   6   0    0.04    0.26
   1   6   0    0.27    0.15
   1   6   0    0.23    0.43
   1   6   0    0.28    0.25
  -2  -6   0    0.18    0.49
  -2  -6   0    0.05    0.32
   2   6   0    0.69    0.26
   2   6   0   -0.17    0.14
   2   6   0    0.10    0.16
   2   6   0    0.21    0.32
  -3  -6   0    1.44    0.54
  -3  -6   0    0.50    0.25
   3   6   0    0.54    0.13
   7  -7   0    2.45    0.28
   7  -7   0    1.91    0.26
   7  -7   0    1.80    0.37
   7  -7   0    2.70    0.44
  -7   7   0    1.40    0.30
  -7   7   0    2.92    0.47
   6  -7   0    4.45    0.37
   6  -7   0    3.79    0.43
   6  -7   0    3.85    0.34
   6  -7   0    2.66    0.51
   6  -7   0    5.15    0.68
  -6   7   0    4.27    0.54
  -6   7   0    3.61    0.37
  -6   7   0    3.55    0.48
  -6   7   0    3.30    0.40
   5  -7   0    4.84    0.43
   5  -7   0    3.81    0.87
   5  -7   0    3.89    0.93
   5  -7   0    4.33    0.52
   5  -7   0    4.55    0.39
   5  -7   0    4.88    0.40
   5  -7   0    3.42    0.60
  -5   7   0    4.44    0.49
  -5   7   0    5.38    0.41
  -5   7   0    3.76    0.46
  -5   7   0    5.03    0.40
   4  -7   0    4.01    0.42
   4  -7   0    4.52    0.37
   4  -7   0    4.37    0.36
   4  -7   0    4.29    0.92
   4  -7   0    4.30    0.95
   4  -7   0    4.15    0.38
  -4   7   0    4.62    0.38
  -4   7   0    5.13    0.68
  -4   7   0    4.38    0.52
  -4   7   0    3.69    0.48
  -4   7   0    4.83    0.39
   3  -7   0    5.68    0.48
   3  -7   0    5.55    0.47
   3  -7   0    5.34    0.53
   3  -7   0    5.79    1.09
   3  -7   0    5.58    0.49
  -3   7   0    4.42    0.76
  -3   7   0    6.57    0.60
  -3   7   0    6.58    0.70
  -3   7   0    5.88    0.49
  -3   7   0    6.15    0.50
   2  -7   0    2.51    0.81
   2  -7   0    1.87    0.17
   2  -7   0    1.02    0.80
   2  -7   0    1.95    0.19
  -2   7   0    1.77    0.47
  -2   7   0    2.18    0.25
  -2   7   0    2.11    0.21
   1  -7   0    4.43    0.85
  -1   7   0    2.89    0.56
  -1   7   0    3.87    0.34
   0  -7   0    0.59    0.59
   0   7   0    0.46    0.12
   0   7   0    0.28    0.40
  -1  -7   0    0.05    0.61
   1   7   0    0.81    0.31
  -2  -7   0   -0.38    0.47
   7  -8   0   -0.16    0.31
  -7   8   0    0.04    0.20
   6  -8   0   -0.15    0.45
   6  -8   0    0.02    0.13
   6  -8   0   -0.59    0.44
   6  -8   0   -0.01    0.17
  -6   8   0    0.09    0.28
  -6   8   0   -0.05    0.32
  -6   8   0    0.05    0.11
  -6   8   0   -0.05    0.10
   5  -8   0    1.49    0.21
   5  -8   0    1.74    0.69
   5  -8   0    1.49    0.57
  -5   8   0    1.75    0.39
  -5   8   0    1.64    0.18
  -5   8   0    1.71    0.31
  -5   8   0    1.42    0.20
   4  -8   0    0.42    0.52
   4  -8   0    0.48    0.67
  -4   8   0    0.42    0.29
   3  -8   0    3.55    0.92
  -3   8   0    4.12    0.35
  -3   8   0    4.41    0.38
  -3   8   0    2.95    0.52
   2  -8   0   -0.33    0.61
  -2   8   0    0.16    0.09
  -2   8   0   -0.05    0.33
   1  -8   0    3.71    0.90
  -1   8   0    4.29    0.38
   0  -8   0    0.05    0.56
   0   8   0    0.11    0.26
   5  -9   0   -0.41    0.41
   5  -9   0    0.28    0.35
   5  -9   0    0.10    0.11
  -5   9   0   -0.12    0.11
  -5   9   0   -0.03    0.07
  -5   9   0    0.01    0.19
   4  -9   0    0.90    0.50
  -4   9   0    0.59    0.09
  -4   9   0    0.72    0.29
   3  -9   0   -0.11    0.52
  -3   9   0   -0.04    0.08
  -3   9   0    0.46    0.26
   2  -9   0    1.41    0.49
  -2   9   0    0.58    0.11
  -1   9  -1    5.05    0.40
  -1   9  -1    3.95    0.44
   1  -9   1    4.85    0.66
  -2   9  -1    0.50    0.10
  -2   9  -1    0.37    0.23
   2  -9   1    0.97    0.52
  -3   9  -1    7.69    0.61
  -3   9  -1    6.34    0.63
   3  -9   1    8.37    0.89
  -4   9  -1    1.57    0.22
  -4   9  -1    1.84    0.19
  -4   9  -1    1.40    0.28
   4  -9   1    1.97    0.20
   4  -9   1    1.83    0.52
  -5   9  -1    5.32    0.47
  -5   9  -1    5.95    0.50
  -5   9  -1    5.51    0.48
   5  -9   1    5.34    0.65
   1   8  -1   -0.04    0.23
  -1  -8   1    0.71    0.44
   0   8  -1    0.27    0.13
   0   8  -1   -0.12    0.25
   0  -8   1    0.12    0.63
  -1   8  -1    1.56    0.33
  -1   8  -1    1.48    0.19
   1  -8   1    2.07    0.70
  -2   8  -1    0.44    0.29
  -2   8  -1    0.08    0.16
   2  -8   1    0.42    0.66
  -3   8  -1    5.93    0.66
  -3   8  -1    6.97    0.54
  -3   8  -1    7.02    0.56
  -3   8  -1    5.81    0.60
   3  -8   1    5.91    0.56
   3  -8   1    6.36    0.98
  -4   8  -1   -0.16    0.23
  -4   8  -1   -0.17    0.26
  -4   8  -1    0.07    0.08
  -4   8  -1    0.12    0.12
   4  -8   1    0.22    0.50
   4  -8   1   -0.09    0.11
   4  -8   1    0.09    0.60
  -5   8  -1   14.12    1.06
  -5   8  -1   12.59    1.06
  -5   8  -1   10.89    1.03
  -5   8  -1   11.77    1.04
   5  -8   1   12.54    1.31
   5  -8   1   14.26    1.03
   5  -8   1   11.81    1.22
  -6   8  -1    0.20    0.33
  -6   8  -1    0.20    0.26
  -6   8  -1    0.23    0.13
  -6   8  -1    0.16    0.16
   6  -8   1    0.22    0.37
   6  -8   1    0.22    0.33
   6  -8   1    0.09    0.12
   6  -8   1    0.28    0.10
  -2  -7   1    1.64    0.59
  -2  -7   1    1.37    0.31
   1   7  -1    0.03    0.30
   1   7  -1    0.08    0.12
  -1  -7   1    0.20    0.57
  -1  -7   1   -0.10    0.35
   0   7  -1    3.02    0.30
   0   7  -1    2.67    0.30
   0   7  -1    3.63    0.48
   0  -7   1    3.71    0.53
   0  -7   1    3.15    0.74
  -1   7  -1    1.91    0.24
  -1   7  -1    2.32    0.47
  -1   7  -1    1.75    0.27
  -1   7  -1    2.12    0.22
  -1   7  -1    1.35    0.31
   1  -7   1    2.50    0.70
   1  -7   1    3.04    0.51
  -2   7  -1    3.87    0.65
  -2   7  -1    4.74    0.41
  -2   7  -1    4.64    0.43
  -2   7  -1    5.81    0.58
  -2   7  -1    4.28    0.43
   2  -7   1    4.15    0.84
   2  -7   1    4.37    0.67
   2  -7   1    5.35    0.50
   2  -7   1    4.71    0.39
  -3   7  -1    6.05    0.64
  -3   7  -1    6.53    0.54
  -3   7  -1    5.47    0.74
  -3   7  -1    6.36    0.53
   3  -7   1    5.72    0.57
   3  -7   1    6.84    0.53
   3  -7   1    7.37    0.76
   3  -7   1    6.18    0.52
  -4   7  -1    3.89    0.46
  -4   7  -1    4.73    0.49
  -4   7  -1    4.86    0.42
  -4   7  -1    4.40    0.40
   4  -7   1    4.80    0.45
   4  -7   1    3.71    0.93
   4  -7   1    4.92    0.40
   4  -7   1    5.08    0.39
   4  -7   1    4.50    0.38
   4  -7   1    4.80    0.59
   4  -7   1    5.07    0.91
  -5   7  -1    4.97    0.55
  -5   7  -1    4.71    0.48
   5  -7   1    6.09    0.49
   5  -7   1    5.65    0.67
   5  -7   1    3.80    0.82
   5  -7   1    6.67    0.87
   5  -7   1    5.55    0.54
  -6   7  -1    3.66    0.53
  -6   7  -1    4.39    0.42
  -6   7  -1    4.17    0.42
   6  -7   1    4.72    0.62
   6  -7   1    3.38    0.55
   6  -7   1    4.73    0.41
   6  -7   1    4.16    0.66
   6  -7   1    4.08    0.39
  -7   7  -1    2.09    0.41
  -7   7  -1    1.70    0.33
   7  -7   1    2.33    0.25
   7  -7   1    2.31    0.41
   7  -7   1    2.44    0.38
   3   6  -1    0.95    0.28
   3   6  -1   -0.26    4.70
   3   6  -1    0.25    0.31
   3   6  -1    0.65    0.15
  -3  -6   1    0.97    0.66
  -3  -6   1    0.21    0.27
  -3  -6   1    0.35    0.27
  -3  -6   1    0.39    0.18
   2   6  -1   -0.46    0.27
   2   6  -1   -0.12    0.10
   2   6  -1    0.17    0.14
   2   6  -1    0.17    0.33
  -2  -6   1   -0.04    0.23
  -2  -6   1    0.50    0.61
  -2  -6   1   -0.08    0.22
  -2  -6   1   -0.09    0.28
   1   6  -1    1.77    0.21
   1   6  -1    2.06    0.25
   1   6  -1    1.85    0.25
   1   6  -1    2.62    0.45
  -1  -6   1    1.65    0.29
  -1  -6   1    1.52    0.31
  -1  -6   1    2.09    0.63
   0   6  -1    0.14    0.16
   0   6  -1    0.24    0.48
   0   6  -1    0.30    0.13
   0   6  -1    0.25    0.12
   0   6  -1    0.35    0.10
   0  -6   1   -0.11    0.29
   0  -6   1    0.11    0.64
   0  -6   1   -0.14    0.33
  -1   6  -1    3.76    0.37
  -1   6  -1    3.99    0.38
  -1   6  -1    4.23    0.37
   1  -6   1    3.22    0.53
   1  -6   1    3.49    0.89
   1  -6   1    4.15    0.33
  -2   6  -1    1.54    0.55
  -2   6  -1    1.27    0.23
  -2   6  -1    0.75    0.13
   2  -6   1    1.08    0.11
   2  -6   1    1.81    0.78
   2  -6   1    1.13    0.15
   2  -6   1    1.11    0.10
  -3   6  -1    3.82    0.46
  -3   6  -1    3.59    0.42
  -3   6  -1    3.98    0.38
  -3   6  -1    4.08    0.35
   3  -6   1    4.22    0.54
   3  -6   1    3.60    0.32
   3  -6   1    3.82    0.84
   3  -6   1    3.92    0.34
   3  -6   1    3.96    0.32
  -4   6  -1    0.24    0.23
  -4   6  -1    1.19    0.79
  -4   6  -1    0.27    0.24
  -4   6  -1    0.08    0.09
  -4   6  -1    0.25    0.33
  -4   6  -1    1.00    0.43
   4  -6   1   -0.05    0.30
   4  -6   1    0.21    0.30
   4  -6   1   -0.14    0.21
   4  -6   1    1.18    0.66
   4  -6   1   -0.03    0.07
   4  -6   1    0.04    0.78
   4  -6   1    0.13    0.08
  -5   6  -1    1.87    0.30
  -5   6  -1    1.45    0.34
  -5   6  -1    1.78    0.22
  -5   6  -1    2.26    0.51
  -5   6  -1    0.16    0.74
  -5   6  -1    2.01    0.31
   5  -6   1    1.71    0.30
   5  -6   1    1.16    0.66
   5  -6   1    1.66    0.15
   5  -6   1    1.62    0.19
   5  -6   1    1.48    0.35
   5  -6   1    1.13    0.33
   5  -6   1    1.94    0.66
   5  -6   1    1.74    0.29
  -6   6  -1    0.78    0.38
  -6   6  -1    1.09    0.29
  -6   6  -1   -0.14    0.63
   6  -6   1    0.53    0.32
   6  -6   1    0.26    0.35
   6  -6   1    0.69    0.40
   6  -6   1    1.01    0.20
   6  -6   1    1.22    0.41
  -7   6  -1    0.09    0.44
  -7   6  -1    0.67    0.43
   7  -6   1    0.44    0.15
   7  -6   1    0.70    0.25
   7  -6   1    0.22    0.28
   7  -6   1    0.59    0.31
   4   5  -1    0.81    0.28
   4   5  -1   -0.39    2.24
  -4  -5   1    0.72    0.27
  -4  -5   1    0.78    0.66
  -4  -5   1    0.67    0.25
  -4  -5   1    0.74    0.23
   3   5  -1   -1.02    2.28
   3   5  -1    0.58    0.43
   3   5  -1    1.51    0.24
   3   5  -1    1.30    0.29
  -3  -5   1    1.43    0.26
  -3  -5   1    1.93    0.65
  -3  -5   1    1.60    0.26
  -3  -5   1    1.65    0.37
  -3  -5   1    0.76    0.34
   2   5  -1   -2.10    3.14
   2   5  -1    4.74    0.41
   2   5  -1    3.33    0.69
   2   5  -1    4.31    0.48
  -2  -5   1    4.00    0.78
  -2  -5   1    3.91    0.44
  -2  -5   1    4.64    0.42
  -2  -5   1    4.18    0.41
  -2  -5   1    4.58    0.41
  -2  -5   1    4.21    0.52
   1   5  -1    5.39    0.54
   1   5  -1    5.83    0.50
   1   5  -1    5.16    0.48
  -1  -5   1    5.99    0.50
   0   5  -1   15.46    1.19
   0   5  -1   13.99    1.19
   0  -5   1   15.19    1.18
   0  -5   1   13.87    1.25
  -1   5  -1   15.67    1.21
  -1   5  -1   14.71    1.21
   1  -5   1   13.86    1.19
   1  -5   1   15.03    1.19
  -2   5  -1   17.13    1.32
  -2   5  -1   15.34    1.30
  -2   5  -1   15.55    1.31
   2  -5   1   15.89    1.29
   2  -5   1   16.15    1.29
  -3   5  -1    6.81    0.69
  -3   5  -1    9.14    0.70
  -3   5  -1    7.49    0.64
  -3   5  -1    7.12    0.64
   3  -5   1    7.52    0.63
   3  -5   1    8.45    0.70
   3  -5   1    7.57    0.62
   3  -5   1    7.89    0.65
  -4   5  -1    4.85    0.44
  -4   5  -1    4.22    0.46
  -4   5  -1    3.65    0.37
  -4   5  -1    4.75    0.38
  -4   5  -1    4.25    0.50
   4  -5   1    3.99    0.93
   4  -5   1    3.67    0.37
   4  -5   1    4.59    0.48
   4  -5   1    3.83    0.34
   4  -5   1    4.10    0.34
  -5   5  -1    1.19    0.24
  -5   5  -1    1.07    0.34
  -5   5  -1    0.12    0.56
  -5   5  -1    0.65    0.38
  -5   5  -1    1.10    0.18
   5  -5   1    0.83    0.09
   5  -5   1    0.56    0.62
   5  -5   1    1.33    0.30
   5  -5   1    0.39    0.27
   5  -5   1    0.52    0.27
   5  -5   1    0.89    0.56
   5  -5   1    0.88    0.15
  -6   5  -1   -0.37    0.51
  -6   5  -1    0.16    0.24
  -6   5  -1    0.31    0.37
   6  -5   1    0.25    0.19
   6  -5   1    0.22    0.31
   6  -5   1    0.27    0.39
   6  -5   1   -0.32    0.33
  -7   5  -1   -0.40    0.44
   7  -5   1    0.14    0.38
   7  -5   1    0.40    0.29
   7  -5   1   -0.12    0.25
   7  -5   1   -0.02    0.20
   7  -5   1   -0.10    0.12
   5   4  -1    0.35    0.14
   5   4  -1    0.89    2.02
   5   4  -1    0.46    0.26
  -5  -4   1   -0.63    0.66
  -5  -4   1    0.41    0.32
  -5  -4   1   -0.15    0.26
  -5  -4   1    0.26    0.26
   4   4  -1   -0.19    0.53
   4   4  -1    0.01    0.24
   4   4  -1    0.13    0.09
   4   4  -1   -1.69    2.03
   4   4  -1    0.07    0.14
  -4  -4   1   -0.14    0.64
  -4  -4   1    0.19    0.25
  -4  -4   1    0.46    0.42
  -4  -4   1    0.14    0.20
  -4  -4   1   -0.08    0.25
   3   4  -1    2.49    0.28
   3   4  -1    2.75    0.35
   3   4  -1    1.59    0.41
   3   4  -1    0.70    2.02
  -3  -4   1    2.01    0.57
  -3  -4   1    2.62    0.27
  -3  -4   1    2.17    0.29
  -3  -4   1    2.28    0.25
  -3  -4   1    2.17    0.35
   2   4  -1   -0.03    0.10
   2   4  -1    0.06    0.08
   2   4  -1    0.14    0.13
   2   4  -1    0.05    0.14
   2   4  -1    0.02    0.09
  -2  -4   1    0.14    0.18
  -2  -4   1    0.32    0.11
  -2  -4   1   -0.14    0.19
  -2  -4   1   -0.03    0.15
   1   4  -1    6.05    0.49
   1   4  -1    5.50    0.50
   1   4  -1    5.50    0.52
   1   4  -1    6.36    0.49
  -1  -4   1    5.89    0.51
  -1  -4   1    6.47    0.50
  -1  -4   1    5.71    0.50
  -1  -4   1    5.70    0.48
  -1  -4   1    5.64    0.51
   0   4  -1    0.55    0.11
   0   4  -1    0.68    0.14
   0   4  -1    0.62    0.09
   0  -4   1    0.47    0.05
   0  -4   1    0.55    0.06
   0  -4   1    0.68    0.19
  -1   4  -1    1.73    0.19
  -1   4  -1    1.85    0.21
  -1   4  -1    1.79    0.21
   1  -4   1    1.67    0.14
   1  -4   1    1.66    0.14
  -2   4  -1   -0.01    0.11
  -2   4  -1    0.29    0.16
  -2   4  -1    0.17    0.43
  -2   4  -1    0.24    0.09
   2  -4   1    0.28    0.03
   2  -4   1    0.23    0.03
  -3   4  -1    1.11    0.25
  -3   4  -1    0.61    0.46
  -3   4  -1    1.52    0.23
  -3   4  -1    1.30    0.14
   3  -4   1    1.28    0.11
   3  -4   1    1.25    0.11
  -4   4  -1   -0.17    0.44
   4  -4   1    0.16    0.19
  -5   4  -1    3.75    0.50
  -5   4  -1    4.20    0.44
   5  -4   1    3.96    0.47
   5  -4   1    3.37    0.48
   5  -4   1    3.02    0.50
   5  -4   1    5.27    0.78
   5  -4   1    4.23    0.70
  -6   4  -1    0.25    0.24
  -6   4  -1   -0.16    0.44
  -6   4  -1    0.82    0.37
   6  -4   1    0.38    0.38
   6  -4   1    0.25    0.41
   6  -4   1   -0.07    0.31
   6  -4   1   -0.07    0.19
   6  -4   1    0.41    0.29
  -7   4  -1    2.28    0.52
   7  -4   1    2.84    0.38
   7  -4   1    2.43    0.44
   7  -4   1    2.13    0.41
   7  -4   1    3.07    0.28
  -8   4  -1    0.13    0.27
   8  -4   1   -0.05    0.12
   8  -4   1   -0.21    0.24
   8  -4   1    0.01    0.06
   6   3  -1    1.00    1.95
   6   3  -1    0.89    0.15
  -6  -3   1    0.34    0.28
  -6  -3   1   -0.25    0.60
  -6  -3   1    0.92    0.36
   5   3  -1    0.58    0.28
   5   3  -1   -0.53    1.54
   5   3  -1    0.43    0.10
   5   3  -1    0.35    0.14
  -5  -3   1    0.50    0.38
  -5  -3   1    0.41    0.20
   4   3  -1   -0.72    1.96
   4   3  -1    1.68    0.25
   4   3  -1    1.12    0.25
   4   3  -1    1.00    0.24
   4   3  -1    1.28    0.17
  -4  -3   1    1.80    0.19
  -4  -3   1    2.08    0.40
   3   3  -1    0.89    0.20
   3   3  -1    0.64    0.13
   3   3  -1    0.73    0.15
   3   3  -1    0.93    0.12
   3   3  -1    0.82    0.17
  -3  -3   1    0.77    0.32
  -3  -3   1    1.05    0.15
  -3  -3   1    0.93    0.17
   2   3  -1    1.12    0.13
   2   3  -1    1.41    0.14
   2   3  -1    1.39    0.13
   2   3  -1    1.21    0.15
   2   3  -1    0.90    0.15
   2   3  -1    1.02    0.13
  -2  -3   1    1.22    0.17
  -2  -3   1    1.31    0.17
  -2  -3   1    1.13    0.16
   1   3  -1    0.42    0.06
   1   3  -1    0.52    0.08
   1   3  -1    0.37    0.08
   1   3  -1    0.48    0.07
   1   3  -1    0.34    0.07
  -1  -3   1    0.47    0.09
  -1  -3   1    0.32    0.04
  -1  -3   1    0.39    0.09
  -1  -3   1    0.34    0.04
   0   3  -1    3.68    0.33
   0   3  -1    4.08    0.33
   0  -3   1    3.87    0.32
   0  -3   1    4.07    0.32
  -1   3  -1    1.11    0.15
  -1   3  -1    1.17    0.16
  -1   3  -1    1.08    0.15
   1  -3   1    1.35    0.11
   1  -3   1    1.42    0.11
  -2   3  -1   17.76    1.49
  -2   3  -1   19.41    1.49
  -2   3  -1   16.37    1.48
   2  -3   1   18.34    1.48
   2  -3   1   19.95    1.48
  -3   3  -1    2.89    0.31
  -3   3  -1    3.14    0.30
   3  -3   1    3.11    0.29
   3  -3   1    3.18    0.25
   3  -3   1    3.03    0.26
   3  -3   1    3.07    0.25
  -4   3  -1    7.90    0.68
  -4   3  -1    7.63    0.69
   4  -3   1    7.96    0.65
   4  -3   1    8.13    0.65
   4  -3   1    7.94    0.67
   4  -3   1    8.41    0.72
  -5   3  -1    1.65    0.36
  -5   3  -1    1.74    0.29
   5  -3   1    1.18    0.29
   5  -3   1    2.92    0.68
   5  -3   1    1.57    0.25
   5  -3   1    1.61    0.28
   5  -3   1    1.52    0.18
  -6   3  -1    2.78    0.53
  -6   3  -1    2.42    0.47
  -6   3  -1    2.32    0.40
   6  -3   1    2.05    0.51
   6  -3   1    2.36    0.44
   6  -3   1    2.43    0.47
   6  -3   1    2.35    0.31
   6  -3   1    2.01    0.32
   6  -3   1    1.43    2.47
  -7   3  -1    0.57    0.37
  -7   3  -1    0.38    0.19
   7  -3   1    0.66    0.29
   7  -3   1    0.33    0.29
   7  -3   1    0.61    0.27
   7  -3   1    0.49    0.12
   7  -3   1    2.68    2.06
   7  -3   1    0.64    0.20
   7   2  -1    0.02    0.12
  -7  -2   1    0.16    0.26
   6   2  -1    0.11    0.32
   6   2  -1    0.23    1.57
   6   2  -1    0.48    0.17
  -6  -2   1    0.05    0.42
   5   2  -1    0.10    0.26
   5   2  -1    0.83    0.62
   5   2  -1   -0.42    1.88
   5   2  -1    0.32    0.15
   5   2  -1    0.14    0.11
   5   2  -1    0.34    0.19
  -5  -2   1    0.07    0.39
  -5  -2   1    0.29    0.16
  -5  -2   1    0.36    0.15
   4   2  -1   -0.04    0.20
   4   2  -1    0.12    0.17
   4   2  -1    0.07    0.07
   4   2  -1    0.35    0.15
   4   2  -1    0.10    0.13
  -4  -2   1    0.02    0.11
  -4  -2   1   -0.12    0.20
   3   2  -1    2.16    0.18
   3   2  -1    2.08    0.18
   3   2  -1    2.21    0.18
   3   2  -1    1.64    0.25
   3   2  -1    1.63    0.20
  -3  -2   1    1.89    0.19
  -3  -2   1    1.78    0.22
   2   2  -1    5.33    0.40
   2   2  -1    5.04    0.40
   2   2  -1    4.53    0.40
   2   2  -1    5.52    0.40
  -2  -2   1    4.50    0.39
  -2  -2   1    4.81    0.40
  -2  -2   1    4.69    0.41
  -2  -2   1    4.52    0.39
   1   2  -1   15.30    1.15
   1   2  -1   12.36    1.15
   1   2  -1   13.81    1.15
   1   2  -1   14.68    1.15
  -1  -2   1   14.42    1.15
  -1  -2   1   15.13    1.15
  -1  -2   1   14.03    1.15
   0   2  -1   39.21    3.24
   0   2  -1   37.50    3.24
   0   2  -1   38.76    3.24
   0  -2   1   40.58    3.24
   0  -2   1   45.78    3.24
  -1   2  -1   33.49    2.68
  -1   2  -1   30.58    2.68
   1  -2   1   31.22    2.68
   1  -2   1   34.42    2.68
   1  -2   1   37.06    2.68
  -2   2  -1   43.51    3.75
  -2   2  -1   49.04    3.75
  -2   2  -1   47.96    3.75
   2  -2   1   40.79    3.74
   2  -2   1   53.56    3.75
   2  -2   1   43.40    3.74
   2  -2   1   48.10    3.74
  -3   2  -1    8.81    0.75
  -3   2  -1    8.92    0.75
   3  -2   1    9.90    0.74
   3  -2   1    9.51    0.75
   3  -2   1    9.13    0.74
   3  -2   1    8.55    0.74
  -4   2  -1   14.50    1.25
  -4   2  -1   16.54    1.26
   4  -2   1   15.96    1.24
   4  -2   1   14.54    1.25
  -5   2  -1    1.23    0.27
   5  -2   1    1.21    0.20
   5  -2   1    1.35    0.25
   5  -2   1    1.40    0.16
   5  -2   1    1.14    0.27
  -6   2  -1    2.65    0.51
  -6   2  -1    2.75    0.43
  -6   2  -1    1.90    0.47
   6  -2   1    2.60    0.31
   6  -2   1    2.99    0.45
   6  -2   1    2.84    0.43
   6  -2   1    3.40    0.47
   6  -2   1    2.36    2.14
   6  -2   1    2.67    0.32
  -7   2  -1    0.36    0.17
  -7   2  -1    0.00    0.33
   7  -2   1    0.14    0.23
   7  -2   1    0.19    0.10
   7  -2   1    0.24    0.30
   7  -2   1    0.17    0.21
   7  -2   1    0.75    0.37
   7  -2   1    0.23    1.69
   7   1  -1    0.45    0.14
   7   1  -1    0.46    1.58
   6   1  -1    0.57    0.36
   6   1  -1    0.41    0.18
   6   1  -1   -0.56    1.84
   6   1  -1    0.15    0.14
   6   1  -1    1.49    0.61
   5   1  -1   -0.78    0.55
   5   1  -1    0.13    0.10
   5   1  -1    0.14    0.22
   5   1  -1   -1.55    2.14
   5   1  -1   -0.08    0.17
  -5  -1   1    0.18    0.14
   4   1  -1    0.77    0.13
   4   1  -1    0.66    0.17
   4   1  -1    0.44    0.10
   4   1  -1    0.65    0.15
   4   1  -1    0.58    0.17
   4   1  -1    0.65    0.10
  -4  -1   1    0.77    0.18
  -4  -1   1    0.72    0.14
   3   1  -1    1.14    0.10
   3   1  -1    1.14    0.12
   3   1  -1    1.00    0.14
   3   1  -1    0.88    0.11
   3   1  -1    1.28    0.12
  -3  -1   1    0.87    0.14
   2   1  -1    1.20    0.11
   2   1  -1    1.18    0.11
   2   1  -1    1.27    0.11
   2   1  -1    1.14    0.10
  -2  -1   1    1.04    0.10
  -2  -1   1    1.22    0.12
  -2  -1   1    1.04    0.10
   1   1  -1    2.12    0.17
   1   1  -1    2.03    0.17
   1   1  -1    2.25    0.17
  -1  -1   1    1.88    0.17
  -1  -1   1    2.07    0.18
  -1  -1   1    1.83    0.17
   0   1  -1    2.68    0.22
  -1   1  -1    2.05    0.18
  -1   1  -1    1.85    0.18
   1  -1   1    2.35    0.17
   1  -1   1    1.96    0.17
  -2   1  -1    1.16    0.13
   2  -1   1    1.26    0.11
   2  -1   1    1.49    0.13
   2  -1   1    1.20    0.11
   2  -1   1    1.46    0.13
   2  -1   1    1.31    0.11
  -3   1  -1    0.83    0.13
   3  -1   1    0.77    0.14
   3  -1   1    1.06    0.08
   3  -1   1    0.98    0.09
   3  -1   1    1.14    0.12
  -4   1  -1    0.48    0.14
   4  -1   1    0.60    0.11
   4  -1   1    0.79    0.14
   4  -1   1    0.70    0.09
   4  -1   1    0.71    0.21
   4  -1   1    0.95    0.30
  -5   1  -1    0.38    0.26
   5  -1   1   -0.02    0.24
   5  -1   1    0.08    0.33
   5  -1   1    0.66    0.38
   5  -1   1   -0.11    2.09
   5  -1   1    0.15    0.28
   5  -1   1    0.04    0.11
   5  -1   1    0.23    0.20
  -6   1  -1    0.60    0.35
   6  -1   1   -0.56    1.90
   6  -1   1    0.66    0.16
   6  -1   1    0.95    0.24
   6  -1   1    1.01    0.38
   6  -1   1    0.78    0.30
   6  -1   1    0.18    0.35
  -7   1  -1    0.00    0.32
   7  -1   1   -0.20    1.51
   7  -1   1    0.36    0.17
   7  -1   1    0.88    0.25
   7  -1   1    1.18    0.42
   7   0  -1    2.12    0.28
   7   0  -1    2.72    1.85
   6   0  -1    4.06    0.37
   6   0  -1    3.07    0.41
   6   0  -1    4.95    2.26
   6   0  -1    3.97    0.44
   5   0  -1    2.79    0.41
   5   0  -1    2.90    0.30
   5   0  -1    2.64    0.32
   5   0  -1    3.48    0.28
   5   0  -1    2.52    0.47
  -5   0   1    3.46    0.31
   4   0  -1   22.56    1.94
   4   0  -1   27.55    1.94
   4   0  -1   22.06    1.95
   4   0  -1   23.63    1.95
  -4   0   1   23.63    1.95
  -4   0   1   26.70    1.95
  -4   0   1   22.38    1.94
   3   0  -1    4.09    0.35
   3   0  -1    4.82    0.36
   3   0  -1    4.14    0.35
   3   0  -1    4.31    0.36
   3   0  -1    4.79    0.36
  -3   0   1    4.09    0.37
   2   0  -1   57.48    4.68
   2   0  -1   52.34    4.68
   2   0  -1   60.31    4.68
   2   0  -1   65.67    4.68
   2   0  -1   54.61    4.68
   2   0  -1   62.93    4.68
   2   0  -1   57.12    4.67
  -2   0   1   55.60    4.68
   1   0  -1    7.98    0.67
   1   0  -1    7.79    0.67
   1   0  -1    8.73    0.67
  -1   0   1    8.74    0.67
   0   0  -1   43.08    3.79
   0   0   1   51.90    3.79
   0   0   1   46.60    3.79
  -1   0  -1   13.35    1.04
  -1   0  -1   12.49    1.04
  -2   0  -1   10.31    0.85
  -2   0  -1   10.16    0.85
   2   0   1   10.14    0.85
   2   0   1   11.49    0.85
  -3   0  -1    7.65    0.71
  -3   0  -1   10.01    0.71
  -3   0  -1    8.08    0.70
   3   0   1    9.12    0.70
   3   0   1    8.99    0.71
   3   0   1    8.05    0.71
  -4   0  -1    0.37    0.12
  -4   0  -1    0.46    0.16
  -4   0  -1    0.52    0.21
   4   0   1    0.46    0.18
   4   0   1    0.42    0.13
   4   0   1    0.44    0.11
   4   0   1    0.41    0.07
  -5   0  -1    4.28    0.42
  -5   0  -1    4.22    0.54
   5   0   1    3.49    0.44
   5   0   1    5.37    0.62
   5   0   1    3.44    0.37
   5   0   1    4.77    0.48
   5   0   1    5.28    2.08
  -6   0  -1   -0.11    0.40
  -6   0  -1    0.19    0.34
   6   0   1    0.30    1.45
   6   0   1   -0.04    0.13
   6   0   1    0.25    0.20
   6   0   1    0.00    0.28
   6   0   1    0.49    0.44
  -7   0  -1    1.72    0.39
   7   0   1    1.06    1.28
   8  -1  -1   10.19    1.05
   8  -1  -1   11.00    0.89
   7  -1  -1    0.40    0.19
   7  -1  -1    0.12    2.01
   7  -1  -1   -0.23    0.44
   7  -1  -1    0.26    0.24
   6  -1  -1   49.64    4.48
   6  -1  -1   55.00    4.48
   6  -1  -1   61.55    4.52
   6  -1  -1   51.96    4.49
  -6   1   1   59.87    4.49
   5  -1  -1    0.31    0.14
   5  -1  -1   -0.06    0.13
   5  -1  -1   -0.14    0.25
   5  -1  -1    0.06    0.06
   5  -1  -1   -0.27    0.27
  -5   1   1    0.10    0.16
   4  -1  -1  190.25   15.07
   4  -1  -1  173.13   15.07
   4  -1  -1  206.29   15.08
   4  -1  -1  187.21   15.07
  -4   1   1  182.08   15.07
   3  -1  -1    0.00    0.02
   3  -1  -1    0.00    0.01
   3  -1  -1    0.04    0.07
   3  -1  -1    0.03    0.06
   2  -1  -1  417.89   33.67
   2  -1  -1  393.71   33.67
   2  -1  -1  418.42   33.67
  -2   1   1  448.45   33.68
   1  -1  -1    0.00    0.01
   1  -1  -1    0.01    0.00
   1  -1  -1    0.01    0.01
  -1   1   1    0.02    0.02
  -1   1   1    0.06    0.04
   0  -1  -1  315.50   27.86
   0  -1  -1  378.62   27.88
   0   1   1  347.76   27.87
  -1  -1  -1    0.01    0.02
  -1  -1  -1   -0.04    0.03
  -1  -1  -1   -0.02    0.06
  -1  -1  -1   -0.02    0.06
   1   1   1    0.02    0.04
   1   1   1    0.01    0.04
  -2  -1  -1   41.37    3.74
  -2  -1  -1   50.93    3.74
  -2  -1  -1   45.49    3.74
  -2  -1  -1   46.73    3.74
   2   1   1   43.65    3.74
   2   1   1   52.82    3.74
   2   1   1   44.75    3.74
  -3  -1  -1    0.04    0.07
  -3  -1  -1    0.10    0.13
  -3  -1  -1    0.08    0.12
  -3  -1  -1    0.02    0.07
  -3  -1  -1    0.19    0.09
   3   1   1    0.00    0.08
   3   1   1    0.06    0.05
   3   1   1    0.05    0.11
   3   1   1    0.01    0.10
   3   1   1   -0.01    0.23
  -4  -1  -1    5.16    0.49
  -4  -1  -1    5.75    0.47
  -4  -1  -1    5.66    0.50
  -4  -1  -1    6.00    0.63
  -4  -1  -1    5.15    0.54
   4   1   1    5.73    0.47
   4   1   1    5.03    0.47
   4   1   1    6.07    0.54
   4   1   1    5.03    0.49
  -5  -1  -1    0.41    0.27
  -5  -1  -1   -0.19    0.36
   5   1   1    0.12    0.12
   5   1   1    0.00    0.34
   5   1   1    0.13    0.24
   5   1   1    0.06    0.31
   5   1   1    1.13    1.85
   5   1   1   -0.02    0.47
   5   1   1    0.25    0.18
  -6  -1  -1    0.90    0.42
  -6  -1  -1    1.51    0.51
   6   1   1    2.20    1.65
   6   1   1    1.76    0.28
   8  -2  -1   -0.37    0.45
   7  -2  -1    0.37    0.29
   7  -2  -1    0.60    0.26
   7  -2  -1    0.00    0.39
  -7   2   1    0.12    0.24
   6  -2  -1    0.29    0.22
   6  -2  -1    0.05    0.53
   6  -2  -1    0.16    0.30
   6  -2  -1    0.18    0.18
   6  -2  -1    0.07    0.27
   6  -2  -1    0.59    0.49
   6  -2  -1    0.46    0.26
  -6   2   1    0.20    0.29
   5  -2  -1    2.57    0.22
   5  -2  -1    2.09    0.28
   5  -2  -1    2.01    0.28
   5  -2  -1    2.28    0.37
   5  -2  -1    2.25    0.19
  -5   2   1    2.75    0.33
   4  -2  -1    3.51    0.35
   4  -2  -1    3.17    0.34
   4  -2  -1    3.64    0.31
   4  -2  -1    4.15    0.31
   4  -2  -1    3.64    0.31
   4  -2  -1    3.79    0.39
  -4   2   1    4.26    0.35
  -4   2   1    4.00    0.38
   3  -2  -1    5.07    0.41
   3  -2  -1    4.66    0.39
   3  -2  -1    4.54    0.39
  -3   2   1    4.86    0.43
  -3   2   1    5.35    0.41
   2  -2  -1   42.83    3.13
   2  -2  -1   39.89    3.13
  -2   2   1   34.36    3.14
   1  -2  -1    1.05    0.09
   1  -2  -1    1.05    0.09
  -1   2   1    1.09    0.13
   0  -2  -1   59.74    5.15
   0  -2  -1   71.10    5.15
   0  -2  -1   58.65    5.15
   0   2   1   67.08    5.15
  -1  -2  -1    0.50    0.09
  -1  -2  -1    0.57    0.09
  -1  -2  -1    0.56    0.11
  -1  -2  -1    0.66    0.10
   1   2   1    0.87    0.15
   1   2   1    0.60    0.08
   1   2   1    0.62    0.10
   1   2   1    0.67    0.10
  -2  -2  -1   30.56    2.28
  -2  -2  -1   30.25    2.28
  -2  -2  -1   27.02    2.28
  -2  -2  -1   29.16    2.27
   2   2   1   27.89    2.27
   2   2   1   26.53    2.28
   2   2   1   28.26    2.28
   2   2   1   26.20    2.28
  -3  -2  -1    0.14    0.34
  -3  -2  -1    0.37    0.18
  -3  -2  -1    0.42    0.10
  -3  -2  -1    0.02    0.23
  -3  -2  -1    0.45    0.19
   3   2   1    0.21    0.13
   3   2   1    0.28    0.35
   3   2   1    0.31    0.08
   3   2   1    0.04    0.17
   3   2   1    0.38    0.14
   3   2   1    0.25    0.11
  -4  -2  -1    6.82    0.63
  -4  -2  -1    8.45    0.70
  -4  -2  -1    6.81    0.60
   4   2   1    6.43    0.63
   4   2   1    8.25    0.64
   4   2   1    6.42    0.60
   4   2   1    6.43    2.12
  -5  -2  -1    0.22    0.44
  -5  -2  -1    0.19    0.37
  -5  -2  -1   -0.06    0.32
  -5  -2  -1    0.05    0.48
   5   2   1    0.16    0.12
   5   2   1    0.23    0.19
   5   2   1    0.04    0.29
   5   2   1    0.76    1.61
   5   2   1   -0.26    0.37
   5   2   1    0.21    0.49
  -6  -2  -1    1.35    0.33
  -6  -2  -1    1.97    0.36
   6   2   1    1.92    0.25
   6   2   1    1.80    1.22
   8  -3  -1    0.17    0.40
   7  -3  -1    6.50    0.82
   7  -3  -1    8.45    0.81
   7  -3  -1    9.12    0.70
   7  -3  -1    6.87    0.82
   6  -3  -1    2.08    0.64
   6  -3  -1    3.32    0.67
   6  -3  -1    3.28    0.44
   6  -3  -1    3.13    0.46
  -6   3   1    2.33    0.40
   5  -3  -1   14.91    1.22
   5  -3  -1   16.41    1.27
   5  -3  -1   13.63    1.31
   5  -3  -1   16.19    1.22
  -5   3   1   15.01    1.28
  -5   3   1   14.61    1.27
   4  -3  -1   11.44    0.94
   4  -3  -1   10.48    0.90
   4  -3  -1   10.89    0.90
  -4   3   1   12.28    0.93
  -4   3   1   11.12    0.96
   3  -3  -1   17.64    1.31
   3  -3  -1   17.24    1.31
  -3   3   1   15.26    1.32
  -3   3   1   14.78    1.32
   2  -3  -1   27.47    2.22
   2  -3  -1   27.80    2.22
  -2   3   1   27.52    2.23
   1  -3  -1    9.04    0.75
   1  -3  -1    8.95    0.75
  -1   3   1    9.87    0.76
   0  -3  -1   23.88    1.87
   0  -3  -1   23.03    1.87
   0   3   1   24.82    1.88
   0   3   1   23.31    1.87
   0   3   1   20.92    1.87
  -1  -3  -1    4.38    0.40
  -1  -3  -1    3.41    0.41
  -1  -3  -1    4.50    0.37
  -1  -3  -1    4.25    0.37
  -1  -3  -1    4.13    0.38
   1   3   1    4.12    0.38
   1   3   1    4.20    0.37
   1   3   1    4.60    0.38
   1   3   1    4.46    0.36
  -2  -3  -1    8.06    0.69
  -2  -3  -1    8.81    0.69
  -2  -3  -1    7.40    0.72
  -2  -3  -1    8.52    0.65
  -2  -3  -1    8.06    0.67
   2   3   1    7.51    0.66
   2   3   1    6.58    0.66
   2   3   1    8.54    0.68
   2   3   1    7.57    0.69
  -3  -3  -1    2.81    0.67
  -3  -3  -1    3.14    0.45
  -3  -3  -1    2.90    0.31
  -3  -3  -1    2.80    0.33
   3   3   1    4.67    2.43
   3   3   1    3.62    0.64
   3   3   1    3.11    0.37
   3   3   1    3.34    0.36
   3   3   1    2.74    0.29
  -4  -3  -1    2.17    0.38
  -4  -3  -1    3.06    0.57
   4   3   1    2.05    0.32
   4   3   1    0.85    1.95
   4   3   1    2.14    0.33
  -5  -3  -1    2.45    0.41
   5   3   1    2.17    0.33
   5   3   1    0.51    1.60
   5   3   1    1.89    0.29
   8  -4  -1    0.21    0.28
   8  -4  -1    0.70    0.36
   7  -4  -1    1.47    0.33
   7  -4  -1    1.93    0.32
   7  -4  -1    1.21    0.51
   7  -4  -1    2.24    0.42
   6  -4  -1    9.12    0.81
   6  -4  -1    9.90    0.86
   6  -4  -1    8.89    1.08
   6  -4  -1    8.43    0.84
   6  -4  -1    9.25    1.06
   5  -4  -1    3.48    0.38
   5  -4  -1    2.93    0.30
   5  -4  -1    2.91    0.25
   5  -4  -1    3.05    0.25
   4  -4  -1   33.81    2.85
   4  -4  -1   34.66    2.85
   4  -4  -1   38.93    2.88
  -4   4   1   34.56    2.87
   3  -4  -1    3.84    0.33
   3  -4  -1    3.87    0.34
   3  -4  -1    4.36    0.40
  -3   4   1    4.80    0.39
   2  -4  -1   58.03    4.55
   2  -4  -1   59.27    4.55
   2  -4  -1   56.72    4.57
  -2   4   1   58.11    4.55
  -2   4   1   51.37    4.57
   1  -4  -1    3.68    0.37
   1  -4  -1    3.65    0.31
   1  -4  -1    3.90    0.31
  -1   4   1    3.76    0.35
   0  -4  -1   29.08    2.13
   0  -4  -1   24.36    2.13
   0   4   1   25.21    2.13
   0   4   1   24.71    2.12
   0   4   1   28.06    2.13
   0   4   1   26.24    2.12
  -1  -4  -1    1.64    0.34
  -1  -4  -1    2.01    0.33
   1   4   1    1.97    0.24
   1   4   1    2.36    0.22
   1   4   1    2.35    0.26
   1   4   1    1.93    0.24
  -2  -4  -1    5.70    0.53
  -2  -4  -1    4.58    0.71
  -2  -4  -1    5.86    0.50
  -2  -4  -1    5.61    0.57
  -2  -4  -1    5.45    0.58
   2   4   1    5.80    0.52
   2   4   1    5.80    0.73
  -3  -4  -1    0.57    0.45
  -3  -4  -1    1.55    0.43
  -3  -4  -1    1.22    0.37
  -3  -4  -1    0.67    0.35
  -3  -4  -1    0.81    0.62
   3   4   1    0.80    0.19
   3   4   1    1.39    0.24
   3   4   1    0.68    0.16
   3   4   1   -0.11    1.81
  -4  -4  -1   -0.08    0.33
  -4  -4  -1    1.07    0.30
  -4  -4  -1    0.59    0.36
  -4  -4  -1    0.17    0.53
   4   4   1    0.68    0.18
   4   4   1   -0.61    2.21
   4   4   1    1.39    0.24
   8  -5  -1    0.63    0.40
   8  -5  -1    1.29    0.24
   8  -5  -1    1.02    0.16
   7  -5  -1    0.47    0.20
   7  -5  -1    0.96    0.30
   7  -5  -1    0.66    0.39
   7  -5  -1    0.62    0.54
   7  -5  -1    0.48    0.27
  -7   5   1    1.19    0.49
   6  -5  -1    4.18    0.52
   6  -5  -1    4.28    0.37
   6  -5  -1    3.76    0.33
   6  -5  -1    3.93    0.49
   6  -5  -1    3.94    0.53
   6  -5  -1    4.42    0.79
   5  -5  -1    1.28    0.38
   5  -5  -1    1.84    0.33
   5  -5  -1    1.31    0.12
   5  -5  -1    0.20    0.77
   5  -5  -1    0.74    0.70
   5  -5  -1    1.42    0.19
   5  -5  -1    1.99    0.33
  -5   5   1    0.67    0.41
   4  -5  -1    8.75    0.75
   4  -5  -1    7.79    0.70
   4  -5  -1    8.32    0.68
   4  -5  -1    8.61    0.68
   3  -5  -1    2.61    0.22
   3  -5  -1    2.60    0.22
   3  -5  -1    2.59    0.33
   3  -5  -1    2.31    0.26
  -3   5   1    3.31    0.38
  -3   5   1    2.61    0.24
   2  -5  -1    4.24    0.48
   2  -5  -1    5.86    0.42
   2  -5  -1    4.58    0.45
   2  -5  -1    5.49    0.42
   1  -5  -1    0.88    0.08
   1  -5  -1    0.58    0.18
  -1   5   1    0.71    0.16
   0  -5  -1    0.76    0.72
   0  -5  -1    0.48    0.17
   0   5   1    0.58    0.15
   0   5   1    0.92    0.36
   0   5   1    0.31    0.13
  -1  -5  -1   -0.30    0.62
  -1  -5  -1    1.37    0.73
  -1  -5  -1    0.34    0.35
   1   5   1    0.88    0.57
   1   5   1   -0.16    0.17
  -2  -5  -1    0.34    0.32
  -2  -5  -1    0.44    0.33
  -2  -5  -1    0.70    0.69
  -2  -5  -1    1.45    0.55
   2   5   1    0.61    0.20
   2   5   1    0.33    0.23
   2   5   1   -0.13    0.40
  -3  -5  -1    0.49    0.48
  -3  -5  -1    0.38    0.56
   3   5   1    0.66    0.44
   3   5   1    0.22    0.24
   8  -6  -1    0.07    0.12
   8  -6  -1    0.02    0.33
   7  -6  -1   -0.48    0.56
   7  -6  -1    0.03    0.36
   7  -6  -1   -0.08    0.17
   7  -6  -1    0.20    0.20
   7  -6  -1   -0.39    0.25
   7  -6  -1    0.12    0.11
  -7   6   1   -0.03    0.13
  -7   6   1    0.37    0.46
   6  -6  -1   -0.20    0.72
   6  -6  -1    0.45    0.26
   6  -6  -1    0.03    0.07
   6  -6  -1    0.22    0.26
   6  -6  -1    0.61    0.55
   6  -6  -1    0.17    0.10
   6  -6  -1    0.54    0.23
  -6   6   1    0.68    0.57
  -6   6   1   -0.24    0.42
   5  -6  -1   -0.01    0.08
   5  -6  -1    0.87    0.33
   5  -6  -1    1.04    0.84
   5  -6  -1    0.16    0.23
   5  -6  -1    0.11    0.62
   5  -6  -1    0.15    0.04
   5  -6  -1   -0.01    0.24
   5  -6  -1    0.28    0.07
  -5   6   1   -0.17    0.65
  -5   6   1    0.07    0.19
  -5   6   1    0.53    0.35
   4  -6  -1   -0.65    0.87
   4  -6  -1    0.51    0.37
   4  -6  -1    0.03    0.03
   4  -6  -1    0.11    0.08
   4  -6  -1    0.18    0.07
   4  -6  -1   -0.01    0.29
   4  -6  -1   -0.02    0.21
   4  -6  -1    0.45    0.65
   4  -6  -1    0.23    0.25
  -4   6   1   -0.45    0.72
  -4   6   1    0.28    0.30
  -4   6   1   -0.09    0.15
  -4   6   1   -0.61    0.43
  -4   6   1   -0.08    0.43
   3  -6  -1   -0.43    0.43
   3  -6  -1    0.21    0.04
   3  -6  -1    0.37    0.09
   3  -6  -1    0.25    0.05
   3  -6  -1    0.31    0.07
   3  -6  -1    0.60    0.28
   3  -6  -1    1.67    0.87
   3  -6  -1    0.18    0.20
  -3   6   1    0.18    0.62
  -3   6   1    0.18    0.38
  -3   6   1   -0.16    0.17
  -3   6   1    0.09    0.29
   2  -6  -1    0.10    0.08
   2  -6  -1   -0.45    0.26
   2  -6  -1   -0.13    0.73
   2  -6  -1    0.01    0.03
   2  -6  -1   -0.20    0.84
   2  -6  -1    0.34    0.20
   2  -6  -1   -0.07    0.09
  -2   6   1   -0.17    0.10
  -2   6   1   -0.29    0.38
  -2   6   1    0.53    0.49
  -2   6   1   -0.11    0.09
   1  -6  -1    2.29    0.83
   1  -6  -1    2.52    0.24
  -1   6   1    2.57    0.57
  -1   6   1    2.78    0.27
   0  -6  -1    0.84    0.67
   0  -6  -1    0.55    0.64
   0   6   1    0.50    0.51
   1   6   1    1.44    0.43
  -2  -6  -1    0.32    0.56
   2   6   1    0.57    0.26
   7  -7  -1    1.40    0.32
   7  -7  -1    1.80    0.25
   7  -7  -1    2.27    0.30
   7  -7  -1    2.37    0.42
   7  -7  -1    2.05    0.20
  -7   7   1    1.73    0.23
  -7   7   1    2.05    0.43
  -7   7   1    2.61    0.39
  -7   7   1    1.41    0.31
   6  -7  -1    3.29    0.43
   6  -7  -1    3.63    0.61
   6  -7  -1    3.39    0.30
   6  -7  -1    2.52    0.48
   6  -7  -1    3.49    0.29
  -6   7   1    3.70    0.30
  -6   7   1    3.38    0.32
  -6   7   1    3.07    0.46
  -6   7   1    2.81    0.37
  -6   7   1    3.23    0.51
   5  -7  -1    4.68    0.56
   5  -7  -1    4.21    0.55
   5  -7  -1    4.95    0.44
   5  -7  -1    4.56    0.39
   5  -7  -1    4.11    0.84
   5  -7  -1    4.32    1.02
   5  -7  -1    3.63    0.49
   5  -7  -1    4.47    0.40
  -5   7   1    4.71    0.49
  -5   7   1    5.37    0.41
  -5   7   1    5.34    0.54
   4  -7  -1    2.17    0.21
   4  -7  -1    2.07    0.29
   4  -7  -1    2.11    0.20
   4  -7  -1    2.03    0.68
   4  -7  -1    2.32    0.31
   4  -7  -1    1.70    0.35
  -4   7   1    1.81    0.42
  -4   7   1    2.38    0.21
  -4   7   1    2.25    0.23
  -4   7   1    2.18    0.44
  -4   7   1    2.98    0.52
  -4   7   1    1.74    0.37
   3  -7  -1    9.07    0.75
   3  -7  -1    7.29    0.90
   3  -7  -1    8.28    0.73
   3  -7  -1    9.89    0.78
   3  -7  -1    8.32    0.74
  -3   7   1   10.21    0.89
  -3   7   1    8.66    0.82
  -3   7   1    9.54    0.75
  -3   7   1    9.73    0.76
   2  -7  -1    0.61    0.09
   2  -7  -1    0.72    0.78
   2  -7  -1    0.54    0.63
  -2   7   1    0.73    0.11
  -2   7   1    0.15    0.44
   1  -7  -1    6.42    1.01
  -1   7   1    8.93    0.67
  -1   7   1    7.68    0.85
   0  -7  -1    0.57    0.64
   0  -7  -1    0.21    0.60
   0   7   1    0.85    0.39
   7  -8  -1    2.36    0.38
  -7   8   1    1.98    0.28
  -7   8   1    1.87    0.35
   6  -8  -1    1.50    0.15
   6  -8  -1    1.48    0.49
   6  -8  -1    1.47    0.21
   6  -8  -1    1.38    0.29
   6  -8  -1    1.53    0.14
  -6   8   1    1.44    0.32
  -6   8   1    1.40    0.19
  -6   8   1    1.46    0.32
  -6   8   1    1.40    0.17
   5  -8  -1    3.03    0.33
   5  -8  -1    3.06    0.27
   5  -8  -1    3.44    0.46
   5  -8  -1    3.31    0.28
   5  -8  -1    4.03    0.78
  -5   8   1    3.24    0.30
  -5   8   1    3.53    0.52
  -5   8   1    2.73    0.47
  -5   8   1    2.84    0.28
  -5   8   1    3.19    0.39
   4  -8  -1    0.36    0.82
   4  -8  -1    0.67    0.55
   4  -8  -1   -0.16    0.22
   4  -8  -1    0.36    0.06
  -4   8   1    0.80    0.31
  -4   8   1    0.42    0.08
  -4   8   1    0.34    0.13
   3  -8  -1    1.57    0.84
  -3   8   1    2.29    0.30
  -3   8   1    2.80    0.24
  -3   8   1    2.05    0.47
   2  -8  -1    0.24    0.72
  -2   8   1    0.07    0.09
  -2   8   1   -0.26    0.35
   1  -8  -1    1.61    0.64
  -1   8   1    0.87    0.34
   0  -8  -1    0.27    0.48
   0   8   1    0.02    0.23
   5  -9  -1    0.40    0.41
  -5   9   1    1.21    0.19
   4  -9  -1    2.44    0.46
  -4   9   1    1.92    0.19
   3  -9  -1    1.66    0.49
  -3   9   1    1.46    0.16
  -1   9  -2    0.12    0.10
  -1   9  -2   -0.02    0.20
   1  -9   2    0.83    0.43
  -2   9  -2    2.85    0.31
  -2   9  -2    2.75    0.26
   2  -9   2    2.63    0.62
  -3   9  -2    0.26    0.25
  -3   9  -2   -0.06    0.12
  -3   9  -2    0.04    0.09
   3  -9   2    0.22    0.48
  -4   9  -2    3.20    0.38
  -4   9  -2    3.73    0.33
  -4   9  -2    3.82    0.34
   4  -9   2    3.48    0.60
  -5   9  -2    0.03    0.12
  -5   9  -2    0.10    0.14
   5  -9   2   -0.17    0.31
   1   8  -2    0.79    0.26
   1   8  -2    0.57    0.14
  -1  -8   2    0.75    0.50
  -1  -8   2    0.92    0.23
   0   8  -2    0.60    0.13
   0   8  -2    0.74    0.24
   0  -8   2    1.18    0.59
   0  -8   2    0.24    0.33
  -1   8  -2    0.74    0.12
  -1   8  -2    0.58    0.19
  -1   8  -2    0.68    0.27
   1  -8   2    0.10    0.41
   1  -8   2    1.07    0.63
  -2   8  -2    1.98    0.30
  -2   8  -2    2.36    0.24
  -2   8  -2    1.97    0.40
  -2   8  -2    2.53    0.39
   2  -8   2    3.43    0.62
   2  -8   2    2.96    0.69
  -3   8  -2    0.15    0.13
  -3   8  -2    0.22    0.09
  -3   8  -2    0.02    0.22
  -3   8  -2   -0.02    0.16
   3  -8   2    0.23    0.33
   3  -8   2    0.02    0.16
   3  -8   2    0.43    0.64
  -4   8  -2    2.33    0.32
  -4   8  -2    2.40    0.29
  -4   8  -2    2.48    0.27
   4  -8   2    2.99    0.26
   4  -8   2    2.61    0.54
   4  -8   2    3.81    0.73
  -5   8  -2   -0.12    0.16
  -5   8  -2   -0.06    0.28
  -5   8  -2    0.07    0.14
   5  -8   2   -0.09    0.38
   5  -8   2   -0.11    0.48
   5  -8   2    0.09    0.09
  -6   8  -2    1.11    0.20
  -6   8  -2    0.72    0.28
  -6   8  -2    0.21    0.62
   6  -8   2    1.19    0.25
   6  -8   2    1.39    0.32
   6  -8   2    0.94    0.16
   3   7  -2    4.64    0.47
   2   7  -2    0.55    0.28
  -2  -7   2    0.43    0.25
  -2  -7   2    0.45    0.72
   1   7  -2   37.26    3.37
   1   7  -2   45.62    3.39
  -1  -7   2   44.72    3.49
  -1  -7   2   39.27    3.39
   0   7  -2    1.87    0.21
   0   7  -2    1.50    0.38
   0   7  -2    1.41    0.23
   0   7  -2    2.09    0.23
  -1   7  -2   81.20    7.04
  -1   7  -2   79.84    7.04
  -1   7  -2   93.43    7.03
  -1   7  -2   81.57    7.05
   1  -7   2   87.69    7.03
   1  -7   2   91.50    7.12
   1  -7   2   97.39    7.06
  -2   7  -2    3.24    0.29
  -2   7  -2    3.04    0.31
  -2   7  -2    2.26    0.45
  -2   7  -2    2.99    0.32
  -2   7  -2    3.19    0.39
   2  -7   2    2.66    0.33
   2  -7   2    2.54    0.54
   2  -7   2    3.13    0.25
   2  -7   2    3.75    0.69
  -3   7  -2  100.13    7.89
  -3   7  -2   96.89    7.89
  -3   7  -2   96.53    7.88
  -3   7  -2  108.75    7.89
  -3   7  -2   88.04    7.89
   3  -7   2   95.93    7.87
   3  -7   2   91.59    7.88
   3  -7   2   93.81    7.97
   3  -7   2  110.88    7.91
  -4   7  -2    2.50    0.43
  -4   7  -2    1.95    0.28
  -4   7  -2    2.08    0.26
  -4   7  -2    3.12    0.42
   4  -7   2    2.26    0.50
   4  -7   2    2.80    0.64
   4  -7   2    2.76    0.29
  -5   7  -2   62.45    5.08
  -5   7  -2   59.15    5.08
  -5   7  -2   68.47    5.08
   5  -7   2   59.92    5.07
   5  -7   2   67.37    5.15
   5  -7   2   68.10    5.07
   5  -7   2   62.34    5.12
   5  -7   2   61.55    5.09
   5  -7   2   57.17    5.10
  -6   7  -2    1.02    0.31
  -6   7  -2    1.42    0.43
  -6   7  -2    0.66    0.31
  -6   7  -2    0.02    0.33
   6  -7   2    0.14    0.29
   6  -7   2    0.55    0.38
   6  -7   2    1.06    0.32
   6  -7   2    0.73    0.14
   6  -7   2    0.96    0.35
  -7   7  -2   10.00    0.86
  -4  -6   2    3.53    0.37
  -4  -6   2    3.75    0.39
  -4  -6   2    3.59    0.33
   3   6  -2    2.37    2.33
   3   6  -2    3.91    0.38
   3   6  -2    3.53    0.54
  -3  -6   2    4.39    0.41
  -3  -6   2    3.39    0.88
  -3  -6   2    3.71    0.48
  -3  -6   2    3.85    0.36
   2   6  -2   10.99    0.81
   2   6  -2    9.00    0.81
   2   6  -2    7.95    0.90
   2   6  -2    8.20    0.90
  -2  -6   2   10.66    0.82
  -2  -6   2   10.03    0.81
  -2  -6   2    9.23    1.11
   1   6  -2   15.51    1.10
   1   6  -2   13.15    1.11
   1   6  -2   12.15    1.12
  -1  -6   2   12.18    1.12
  -1  -6   2   12.50    1.15
  -1  -6   2   15.45    1.16
   0   6  -2   15.77    1.48
   0   6  -2   18.60    1.49
   0   6  -2   16.63    1.50
   0   6  -2   20.95    1.48
   0  -6   2   19.91    1.47
   0  -6   2   17.19    1.53
  -1   6  -2   23.42    2.02
  -1   6  -2   25.02    2.02
  -1   6  -2   27.48    2.02
   1  -6   2   27.02    2.00
   1  -6   2   24.29    2.00
   1  -6   2   23.40    2.25
   1  -6   2   23.04    2.05
  -2   6  -2   30.48    2.27
  -2   6  -2   31.12    2.26
  -2   6  -2   29.10    2.26
   2  -6   2   27.84    2.45
   2  -6   2   24.71    2.24
   2  -6   2   27.57    2.24
   2  -6   2   24.26    2.28
  -3   6  -2   15.03    1.24
  -3   6  -2   16.84    1.28
  -3   6  -2   16.97    1.26
  -3   6  -2   14.69    1.24
   3  -6   2   14.56    1.22
   3  -6   2   13.34    1.26
   3  -6   2   14.68    1.49
   3  -6   2   14.90    1.29
  -4   6  -2   20.42    1.82
  -4   6  -2   21.35    1.79
  -4   6  -2   23.90    1.79
  -4   6  -2   22.55    1.80
  -4   6  -2   23.18    1.81
   4  -6   2   20.81    2.02
   4  -6   2   22.90    1.80
   4  -6   2   20.47    1.83
   4  -6   2   22.63    1.96
   4  -6   2   22.58    1.77
   4  -6   2   20.63    1.82
  -5   6  -2    3.56    0.38
  -5   6  -2    3.47    0.47
  -5   6  -2    3.90    0.46
  -5   6  -2    3.78    0.40
  -5   6  -2    4.77    0.54
   5  -6   2    3.50    0.40
   5  -6   2    3.58    0.40
   5  -6   2    4.30    0.52
   5  -6   2    4.15    0.70
   5  -6   2    3.83    0.62
   5  -6   2    2.92    0.63
  -6   6  -2   14.87    1.18
  -6   6  -2   14.78    1.23
  -6   6  -2   15.39    1.24
   6  -6   2   14.81    1.23
   6  -6   2   13.11    1.26
   6  -6   2   13.13    1.26
   6  -6   2   12.01    1.23
   6  -6   2   14.91    1.17
  -7   6  -2    0.40    0.34
   7  -6   2    0.84    0.26
   7  -6   2    0.98    0.15
   7  -6   2    0.91    0.27
   7  -6   2    1.02    0.21
   5   5  -2   -0.15    0.34
   5   5  -2    0.50    1.79
   5   5  -2    0.25    0.12
  -5  -5   2    0.20    0.16
  -5  -5   2    0.38    0.18
  -5  -5   2   -0.02    0.18
   4   5  -2    0.17    0.26
   4   5  -2    0.27    0.33
   4   5  -2   -0.07    0.14
   4   5  -2    0.69    0.45
   4   5  -2   -0.25    1.92
  -4  -5   2   -0.15    0.23
  -4  -5   2    1.08    0.82
  -4  -5   2   -0.12    0.25
   3   5  -2    1.15    0.20
   3   5  -2   -0.14    2.56
   3   5  -2    1.13    0.28
   3   5  -2    0.52    0.42
   3   5  -2    0.66    0.13
   3   5  -2    0.35    0.18
  -3  -5   2    0.71    0.27
  -3  -5   2    0.52    0.72
  -3  -5   2    1.05    0.20
  -3  -5   2    1.39    0.32
  -3  -5   2    0.39    0.17
   2   5  -2    0.09    0.08
   2   5  -2    0.13    0.14
   2   5  -2    0.31    0.16
   2   5  -2   -0.55    0.54
   2   5  -2    0.07    0.19
   2   5  -2   -4.00    3.30
   2   5  -2   -0.06    0.12
   2   5  -2   -0.15    0.35
  -2  -5   2    0.22    0.21
  -2  -5   2   -0.40    0.33
  -2  -5   2   -0.12    0.19
  -2  -5   2    0.16    0.16
  -2  -5   2   -0.11    0.16
   1   5  -2    2.32    0.28
   1   5  -2    3.17    0.31
   1   5  -2    2.82    0.31
   1   5  -2    2.29    0.39
   1   5  -2    2.92    0.26
   1   5  -2    3.07    0.27
  -1  -5   2    2.75    0.38
  -1  -5   2    3.32    0.24
  -1  -5   2    3.13    0.31
  -1  -5   2    2.51    0.30
  -1  -5   2    2.50    0.30
  -1  -5   2    2.57    0.32
   0   5  -2    0.03    0.09
   0   5  -2    0.13    0.10
   0   5  -2    0.01    0.09
   0   5  -2   -0.16    0.12
   0  -5   2    0.01    0.02
   0  -5   2    0.28    0.22
   0  -5   2    0.06    0.03
  -1   5  -2    6.20    0.56
  -1   5  -2    6.77    0.57
   1  -5   2    6.67    0.54
   1  -5   2    6.72    0.53
  -2   5  -2    1.32    0.21
  -2   5  -2    1.74    0.19
  -2   5  -2    2.03    0.26
   2  -5   2    2.09    0.18
   2  -5   2    1.60    0.15
   2  -5   2    1.65    0.14
   2  -5   2    1.71    0.31
  -3   5  -2    3.57    0.33
  -3   5  -2    4.04    0.37
  -3   5  -2    3.26    0.33
  -3   5  -2    3.78    0.40
  -3   5  -2    3.33    0.39
   3  -5   2    3.82    0.32
   3  -5   2    3.41    0.29
   3  -5   2    3.21    0.42
   3  -5   2    3.41    0.29
  -4   5  -2    4.03    0.50
  -4   5  -2    4.32    0.42
  -4   5  -2    4.51    0.39
  -4   5  -2    4.28    0.43
   4  -5   2    4.05    0.34
   4  -5   2    3.74    0.35
   4  -5   2    3.29    0.78
   4  -5   2    3.99    0.49
   4  -5   2    5.34    0.54
  -5   5  -2    1.43    0.32
  -5   5  -2    0.04    0.66
  -5   5  -2    0.68    0.52
  -5   5  -2    1.53    0.32
  -5   5  -2    1.90    0.26
   5  -5   2    1.12    0.51
   5  -5   2    1.04    0.33
   5  -5   2    2.11    0.40
   5  -5   2    1.53    0.24
   5  -5   2    2.05    0.47
   5  -5   2    1.24    0.37
  -6   5  -2    1.63    0.32
  -6   5  -2    2.10    0.31
  -6   5  -2    1.54    0.48
  -6   5  -2    2.89    0.55
   6  -5   2    2.45    0.39
   6  -5   2    2.30    0.26
   6  -5   2    2.12    0.40
   6  -5   2    1.96    0.46
   6  -5   2    1.64    0.36
  -7   5  -2    0.66    0.36
  -7   5  -2   -0.03    0.41
  -7   5  -2    0.66    0.22
   7  -5   2    0.86    0.12
   7  -5   2    0.39    0.26
   7  -5   2    0.81    0.19
   7  -5   2    0.81    0.24
   6   4  -2    0.70    0.14
  -6  -4   2    0.83    0.17
  -6  -4   2    0.77    0.18
   5   4  -2   -0.98    1.80
   5   4  -2    0.28    0.14
   5   4  -2    0.39    0.25
  -5  -4   2   -0.12    0.25
  -5  -4   2    0.36    0.34
  -5  -4   2    0.03    0.25
   4   4  -2    0.20    2.28
   4   4  -2    1.73    0.31
   4   4  -2    1.94    0.41
   4   4  -2    2.50    0.28
   4   4  -2    2.62    0.71
   4   4  -2    1.31    0.55
   4   4  -2    2.84    0.45
  -4  -4   2    2.46    0.27
  -4  -4   2    4.10    0.99
  -4  -4   2    2.46    0.29
  -4  -4   2    2.20    0.32
   3   4  -2   -0.18    2.47
   3   4  -2    0.21    0.13
   3   4  -2    0.08    0.15
   3   4  -2   -0.02    0.16
   3   4  -2    0.12    0.26
   3   4  -2    0.68    0.83
   3   4  -2    0.21    0.07
   3   4  -2    0.50    0.35
  -3  -4   2    0.20    0.15
  -3  -4   2    0.38    0.17
  -3  -4   2    0.67    0.84
  -3  -4   2    0.10    0.21
  -3  -4   2    0.41    0.14
   2   4  -2    5.73    0.45
   2   4  -2    5.88    0.49
   2   4  -2    5.77    0.51
   2   4  -2    4.64    0.45
   2   4  -2    5.49    0.45
   2   4  -2    5.25    0.46
  -2  -4   2    4.96    0.49
  -2  -4   2    5.59    0.47
  -2  -4   2    5.48    0.47
   1   4  -2    0.10    0.07
   1   4  -2    0.18    0.06
   1   4  -2    0.15    0.15
   1   4  -2    0.32    0.09
   1   4  -2    0.32    0.07
  -1  -4   2    0.12    0.09
  -1  -4   2    0.27    0.12
  -1  -4   2   -0.04    0.13
  -1  -4   2    0.15    0.10
  -1  -4   2    0.23    0.03
  -1  -4   2    0.24    0.03
   0   4  -2    5.98    0.52
   0   4  -2    6.33    0.52
   0   4  -2    6.53    0.53
   0  -4   2    6.08    0.51
   0  -4   2    6.59    0.51
  -1   4  -2    6.42    0.60
  -1   4  -2    6.84    0.60
   1  -4   2    7.45    0.58
   1  -4   2    7.74    0.58
  -2   4  -2    1.47    0.22
  -2   4  -2    1.39    0.21
  -2   4  -2    1.37    0.17
   2  -4   2    1.50    0.12
   2  -4   2    1.31    0.12
  -3   4  -2   15.16    1.36
  -3   4  -2   17.82    1.35
  -3   4  -2   16.37    1.36
   3  -4   2   16.77    1.34
   3  -4   2   17.01    1.34
  -4   4  -2    0.38    0.18
  -4   4  -2    0.09    0.47
  -4   4  -2    0.38    0.24
  -4   4  -2    0.38    0.20
  -4   4  -2    0.08    0.13
   4  -4   2    0.55    0.25
   4  -4   2   -0.13    0.20
   4  -4   2   -0.25    0.53
   4  -4   2    0.12    0.06
   4  -4   2    0.12    0.05
  -5   4  -2   10.69    0.89
  -5   4  -2   11.66    0.85
  -5   4  -2    8.68    0.93
   5  -4   2    9.52    0.92
   5  -4   2   10.21    0.89
   5  -4   2   10.16    1.04
   5  -4   2   10.12    1.01
   5  -4   2   11.26    0.95
  -6   4  -2   -0.13    0.43
  -6   4  -2   -0.18    0.28
  -6   4  -2    0.49    0.27
  -6   4  -2   -0.12    0.50
   6  -4   2    0.38    0.31
   6  -4   2    0.48    0.25
   6  -4   2    0.17    0.29
   6  -4   2    0.38    0.27
   6  -4   2    0.08    1.82
   6  -4   2    0.39    0.13
  -7   4  -2    2.57    0.37
  -7   4  -2    2.54    0.42
   7  -4   2    2.44    0.46
   7  -4   2    3.09    0.38
   7  -4   2    2.64    2.00
   6   3  -2   -0.13    0.26
   6   3  -2   -0.84    2.03
   6   3  -2    0.19    0.15
  -6  -3   2   -0.13    0.30
   5   3  -2    0.42    0.15
   5   3  -2    0.63    0.27
   5   3  -2    0.41    0.12
   5   3  -2    0.51    1.92
  -5  -3   2    0.22    0.35
  -5  -3   2    0.57    0.18
   4   3  -2    0.23    0.15
   4   3  -2    0.27    0.15
   4   3  -2    0.15    0.19
   4   3  -2   -1.12    1.96
   4   3  -2    0.33    0.09
  -4  -3   2    0.38    0.15
  -4  -3   2    0.50    0.34
   3   3  -2    5.94    0.49
   3   3  -2    4.88    0.44
   3   3  -2    5.18    0.42
   3   3  -2    4.90    0.47
  -3  -3   2    5.00    0.43
  -3  -3   2    5.06    0.44
   2   3  -2    0.69    0.15
   2   3  -2    0.81    0.12
   2   3  -2    0.67    0.10
   2   3  -2    0.80    0.11
   2   3  -2    0.79    0.11
  -2  -3   2    0.89    0.13
  -2  -3   2    0.91    0.16
  -2  -3   2    0.74    0.08
  -2  -3   2    0.84    0.08
   1   3  -2   54.87    4.34
   1   3  -2   55.72    4.34
   1   3  -2   53.55    4.34
  -1  -3   2   51.74    4.34
  -1  -3   2   55.85    4.34
  -1  -3   2   52.57    4.34
   0   3  -2    4.62    0.38
   0   3  -2    4.39    0.38
   0   3  -2    4.34    0.38
   0  -3   2    5.07    0.37
   0  -3   2    4.27    0.39
  -1   3  -2  129.14   10.35
  -1   3  -2  124.88   10.33
  -1   3  -2  119.99   10.33
  -1   3  -2  129.83   10.34
   1  -3   2  139.74   10.33
  -2   3  -2    1.79    0.17
  -2   3  -2    1.63    0.19
  -2   3  -2    2.21    0.31
  -2   3  -2    1.68    0.20
   2  -3   2    1.75    0.15
   2  -3   2    1.92    0.15
   2  -3   2    1.58    0.15
  -3   3  -2   66.34    4.75
  -3   3  -2   55.25    4.75
  -3   3  -2   54.96    4.76
  -3   3  -2   58.38    4.75
   3  -3   2   61.73    4.74
   3  -3   2   57.79    4.75
  -4   3  -2    0.32    0.18
  -4   3  -2    0.14    0.41
  -4   3  -2    0.37    0.13
  -4   3  -2    0.30    0.27
   4  -3   2    0.16    0.13
   4  -3   2    0.22    0.06
   4  -3   2    0.30    0.18
   4  -3   2    0.20    0.23
  -5   3  -2   12.87    1.20
  -5   3  -2   12.58    1.21
  -5   3  -2   15.69    1.18
   5  -3   2   13.23    1.16
   5  -3   2   14.98    1.23
   5  -3   2   15.57    1.25
   5  -3   2   14.19    1.21
   5  -3   2   13.86    1.18
  -6   3  -2    0.23    0.46
  -6   3  -2    0.24    0.19
  -6   3  -2    0.87    0.29
  -6   3  -2    0.15    0.38
   6  -3   2    0.30    0.13
   6  -3   2    0.37    0.24
   6  -3   2    0.17    0.28
   6  -3   2   -0.12    0.16
   6  -3   2    0.21    0.28
   6  -3   2    0.43    1.75
   6  -3   2    0.68    0.23
   7  -3   2    2.85    1.70
   7  -3   2    3.47    0.29
   7  -3   2    2.61    0.38
   7   2  -2    1.24    1.81
   7   2  -2    0.13    0.12
  -7  -2   2    0.32    0.27
   6   2  -2   -0.17    0.31
   6   2  -2   -0.02    0.14
   6   2  -2   -0.39    1.81
   6   2  -2    0.17    0.18
  -6  -2   2   -0.46    0.45
   5   2  -2    0.01    0.11
   5   2  -2    0.37    0.16
   5   2  -2    0.00    0.23
   5   2  -2    0.13    0.18
   5   2  -2   -0.08    2.24
  -5  -2   2    0.20    0.16
   4   2  -2    1.36    0.23
   4   2  -2    1.60    0.22
   4   2  -2    2.56    0.58
   4   2  -2    1.43    0.18
   4   2  -2    1.28    0.20
   4   2  -2    1.84    0.16
   4   2  -2    1.32    0.20
  -4  -2   2    1.87    0.19
   3   2  -2    1.61    0.26
   3   2  -2    2.22    0.19
   3   2  -2    1.98    0.18
   3   2  -2    1.89    0.20
   3   2  -2    2.25    0.19
  -3  -2   2    1.93    0.17
  -3  -2   2    1.71    0.23
   2   2  -2   23.11    1.74
   2   2  -2   20.05    1.74
   2   2  -2   18.85    1.74
   2   2  -2   22.36    1.74
   2   2  -2   22.81    1.75
  -2  -2   2   21.26    1.74
  -2  -2   2   20.24    1.74
  -2  -2   2   24.81    1.76
  -2  -2   2   21.47    1.74
   1   2  -2   13.24    1.09
   1   2  -2   13.45    1.09
   1   2  -2   12.86    1.09
   1   2  -2   13.51    1.09
  -1  -2   2   13.96    1.09
  -1  -2   2   13.93    1.09
  -1  -2   2   13.37    1.10
  -1  -2   2   13.57    1.09
   0   2  -2   66.52    5.91
   0   2  -2   63.86    5.90
   0  -2   2   83.66    5.90
   0  -2   2   79.91    5.90
  -1   2  -2   13.70    1.10
  -1   2  -2   12.65    1.10
  -1   2  -2   13.45    1.09
   1  -2   2   12.83    1.09
   1  -2   2   14.27    1.09
   1  -2   2   14.36    1.09
  -2   2  -2   22.54    1.83
  -2   2  -2   22.62    1.83
  -2   2  -2   23.86    1.84
  -2   2  -2   21.22    1.83
   2  -2   2   23.24    1.82
   2  -2   2   22.47    1.82
   2  -2   2   22.91    1.83
  -3   2  -2    1.80    0.22
  -3   2  -2    2.30    0.23
   3  -2   2    1.92    0.20
   3  -2   2    2.05    0.18
   3  -2   2    1.74    0.22
   3  -2   2    2.18    0.17
  -4   2  -2    2.09    0.26
  -4   2  -2    1.64    0.28
  -4   2  -2    2.09    0.33
   4  -2   2    1.92    0.36
   4  -2   2    1.74    0.17
   4  -2   2    2.35    0.34
   4  -2   2    1.37    0.21
  -5   2  -2   -0.38    0.30
  -5   2  -2   -0.29    0.40
  -5   2  -2   -0.14    0.19
  -5   2  -2    0.44    0.32
   5  -2   2   -0.29    0.36
   5  -2   2    0.05    0.27
   5  -2   2    0.15    0.23
   5  -2   2    0.43    0.26
   5  -2   2    0.24    0.15
   5  -2   2    0.22    0.13
   5  -2   2    0.39    2.05
  -6   2  -2   -0.38    0.44
  -6   2  -2   -0.23    0.17
  -6   2  -2    0.12    0.38
  -6   2  -2   -0.25    0.29
   6  -2   2    0.06    0.11
   6  -2   2   -0.08    0.24
   6  -2   2    0.05    0.28
   6  -2   2    0.32    0.14
   6  -2   2   -0.08    0.28
   6  -2   2    0.23    0.22
   6  -2   2   -0.25    1.71
  -7   2  -2    0.55    0.30
  -7   2  -2    0.08    0.29
  -7   2  -2   -0.06    0.34
   7  -2   2    0.10    0.07
   7  -2   2    0.44    0.32
   7  -2   2   -0.16    0.18
   7  -2   2    0.03    1.16
   7  -2   2   -0.10    0.17
   7   1  -2    0.18    0.18
   7   1  -2   -1.95    2.28
   6   1  -2    0.79    2.23
   6   1  -2    2.31    0.28
   6   1  -2    1.85    0.32
   6   1  -2    1.95    0.40
  -6  -1   2    2.63    0.39
   5   1  -2    1.03    0.17
   5   1  -2    0.94    0.19
   5   1  -2    0.96    0.19
   5   1  -2    1.36    0.26
   5   1  -2    1.03    0.18
  -5  -1   2    1.08    0.20
  -5  -1   2    0.81    0.25
   4   1  -2   13.19    1.14
   4   1  -2   15.61    1.14
   4   1  -2   12.92    1.17
   4   1  -2   15.03    1.13
   4   1  -2   14.98    1.15
  -4  -1   2   12.13    1.16
   3   1  -2    7.99    0.66
   3   1  -2    7.76    0.67
   3   1  -2    9.02    0.67
   3   1  -2    8.12    0.67
   3   1  -2    8.40    0.67
  -3  -1   2    7.71    0.67
  -3  -1   2    8.69    0.67
   2   1  -2   49.18    3.51
   2   1  -2   40.98    3.50
   2   1  -2   45.20    3.51
   2   1  -2   41.14    3.50
   2   1  -2   43.83    3.51
  -2  -1   2   43.09    3.51
  -2  -1   2   42.05    3.50
   1   1  -2   31.03    2.60
   1   1  -2   31.21    2.60
   1   1  -2   34.70    2.60
   1   1  -2   32.45    2.60
   0   1  -2   31.84    2.84
   0   1  -2   35.66    2.84
   0   1  -2   38.93    2.84
   0   1  -2   36.69    2.84
   0  -1   2   36.38    2.84
   0  -1   2   32.81    2.84
  -1   1  -2   14.15    1.19
  -1   1  -2   15.26    1.19
   1  -1   2   15.54    1.19
   1  -1   2   14.30    1.19
   1  -1   2   14.54    1.19
  -2   1  -2    5.08    0.45
  -2   1  -2    4.98    0.44
  -2   1  -2    5.90    0.45
   2  -1   2    5.78    0.45
   2  -1   2    4.68    0.43
   2  -1   2    4.83    0.44
   2  -1   2    6.19    0.44
  -3   1  -2    1.97    0.21
  -3   1  -2    1.88    0.22
   3  -1   2    1.96    0.17
   3  -1   2    2.01    0.20
   3  -1   2    1.95    0.20
  -4   1  -2    0.29    0.26
  -4   1  -2    0.62    0.30
  -4   1  -2    0.11    0.17
  -4   1  -2   -0.10    0.11
  -4   1  -2   -0.02    0.18
   4  -1   2    0.13    0.15
   4  -1   2    0.28    0.36
   4  -1   2    0.48    0.21
   4  -1   2    0.14    0.23
  -5   1  -2    0.20    0.40
  -5   1  -2    0.15    0.32
  -5   1  -2    0.34    0.16
  -5   1  -2    0.71    0.34
   5  -1   2    0.81    0.23
   5  -1   2   -0.37    1.69
   5  -1   2    0.16    0.30
   5  -1   2    0.63    0.29
   5  -1   2    0.30    0.14
   5  -1   2    0.37    0.34
  -6   1  -2    0.11    0.40
  -6   1  -2    0.20    0.37
  -6   1  -2    0.77    0.44
  -6   1  -2    0.15    0.45
  -6   1  -2    0.36    0.18
   6  -1   2    0.35    0.11
   6  -1   2    0.46    0.23
   6  -1   2    0.48    0.19
   6  -1   2    0.70    0.39
   6  -1   2    0.83    1.64
  -7   1  -2    0.30    0.27
   7  -1   2    0.00    0.14
   7  -1   2    0.32    0.18
   7  -1   2    0.74    0.29
   7  -1   2    0.15    1.03
   8   0  -2    1.59    2.07
   7   0  -2    1.39    1.90
   6   0  -2    0.34    0.17
   6   0  -2    0.24    0.20
   6   0  -2    0.63    0.21
   6   0  -2    1.59    2.41
   5   0  -2    6.33    0.58
   5   0  -2    6.03    0.63
   5   0  -2    6.58    0.64
   5   0  -2    7.15    0.56
   5   0  -2    7.73    0.68
   5   0  -2    7.10    0.59
  -5   0   2    6.28    0.61
  -5   0   2    7.41    0.58
   4   0  -2    1.44    0.14
   4   0  -2    1.78    0.21
   4   0  -2    1.68    0.17
   4   0  -2    2.04    0.18
   4   0  -2    2.04    0.20
   4   0  -2    1.20    0.23
   4   0  -2    1.86    0.15
  -4   0   2    1.28    0.22
   3   0  -2   30.82    2.19
   3   0  -2   26.10    2.19
   3   0  -2   25.58    2.19
   3   0  -2   26.20    2.19
   3   0  -2   27.57    2.19
   3   0  -2   26.86    2.19
   3   0  -2   27.54    2.19
   2   0  -2    8.83    0.72
   2   0  -2    9.09    0.73
   2   0  -2    8.38    0.72
   2   0  -2   10.26    0.73
   2   0  -2    8.84    0.72
  -2   0   2    8.52    0.73
   1   0  -2   27.46    2.09
   1   0  -2   28.37    2.08
   1   0  -2   22.55    2.09
  -1   0   2   25.48    2.09
   0   0  -2   14.96    1.24
   0   0  -2   15.38    1.25
   0   0   2   16.79    1.24
   0   0   2   14.66    1.24
  -1   0  -2    6.68    0.54
  -1   0  -2    7.52    0.55
  -1   0  -2    7.00    0.55
   1   0   2    6.10    0.54
   1   0   2    6.16    0.54
  -2   0  -2    9.86    0.80
  -2   0  -2    7.96    0.77
  -2   0  -2   10.06    0.78
  -2   0  -2   10.77    0.78
   2   0   2    9.45    0.78
   2   0   2   10.74    0.84
   2   0   2    8.76    0.78
   2   0   2    9.25    0.78
  -3   0  -2    0.65    0.15
  -3   0  -2    0.71    0.14
  -3   0  -2    0.78    0.18
  -3   0  -2    0.83    0.16
  -3   0  -2    0.73    0.12
   3   0   2    0.85    0.15
   3   0   2    0.77    0.14
   3   0   2    0.49    0.11
   3   0   2    0.79    0.10
  -4   0  -2    2.95    0.29
  -4   0  -2    2.57    0.44
   4   0   2    3.73    0.47
   4   0   2    2.26    0.27
   4   0   2    3.05    1.65
   4   0   2    2.96    0.32
   4   0   2    2.32    0.50
  -5   0  -2    0.71    0.71
  -5   0  -2    0.15    0.41
  -5   0  -2    0.41    0.34
  -5   0  -2    0.37    0.18
   5   0   2    0.15    0.21
   5   0   2    0.29    0.14
   5   0   2    0.42    1.59
   5   0   2    0.77    0.42
   6   0   2    1.64    1.30
   6   0   2    3.19    0.60
   6   0   2    2.44    0.49
   7  -1  -2   -0.20    0.25
   6  -1  -2   -0.23    0.27
   5  -1  -2    2.19    0.25
   5  -1  -2    2.08    0.19
   5  -1  -2    2.20    0.26
   5  -1  -2    1.98    0.17
   4  -1  -2    3.52    0.28
   4  -1  -2    3.36    0.28
   4  -1  -2    3.56    0.29
   4  -1  -2    3.40    0.32
  -4   1   2    3.49    0.33
   3  -1  -2    4.50    0.35
   3  -1  -2    4.10    0.34
   3  -1  -2    3.98    0.35
   3  -1  -2    4.13    0.35
  -3   1   2    4.71    0.37
   2  -1  -2   40.65    3.29
   2  -1  -2   40.68    3.29
   2  -1  -2   37.41    3.29
   2  -1  -2   43.60    3.29
  -2   1   2   42.62    3.30
   1  -1  -2    1.06    0.08
   1  -1  -2    0.99    0.08
   1  -1  -2    1.00    0.09
  -1   1   2    0.82    0.10
   0  -1  -2   66.46    5.00
   0  -1  -2   64.96    5.00
   0  -1  -2   56.39    5.00
   0   1   2   61.21    5.00
  -1  -1  -2    0.71    0.13
  -1  -1  -2    0.52    0.08
  -1  -1  -2    0.48    0.08
  -1  -1  -2    0.44    0.09
   1   1   2    0.64    0.09
   1   1   2    0.55    0.08
  -2  -1  -2   28.26    2.17
  -2  -1  -2   26.27    2.17
  -2  -1  -2   25.96    2.17
  -2  -1  -2   26.14    2.17
   2   1   2   26.03    2.17
   2   1   2   25.59    2.17
   2   1   2   29.89    2.17
   2   1   2   27.12    2.17
  -3  -1  -2    0.62    0.32
  -3  -1  -2    0.45    0.10
  -3  -1  -2    0.28    0.22
  -3  -1  -2    0.18    0.19
  -3  -1  -2    0.37    0.11
   3   1   2    0.26    0.13
   3   1   2    0.27    0.07
   3   1   2    0.43    0.21
   3   1   2    0.46    0.14
   3   1   2    0.24    0.12
  -4  -1  -2    7.34    0.82
  -4  -1  -2    5.54    0.57
  -4  -1  -2    6.96    0.61
   4   1   2    7.02    0.57
   4   1   2    6.61    0.60
  -5  -1  -2   -0.35    0.43
  -5  -1  -2   -0.46    0.38
  -5  -1  -2   -0.19    0.47
  -5  -1  -2   -0.12    0.38
   5   1   2   -0.83    1.33
   5   1   2    0.04    0.14
   5   1   2    0.32    0.31
   5   1   2   -0.06    0.44
   5   1   2   -0.07    0.21
  -6  -1  -2    2.30    0.36
   6   1   2    1.55    1.23
   6   1   2    1.57    0.21
   6  -2  -2    4.28    0.54
   5  -2  -2    0.02    0.02
   5  -2  -2    0.05    0.03
   5  -2  -2   -0.19    0.16
  -5   2   2    0.22    0.18
   4  -2  -2    2.39    0.20
   4  -2  -2    2.46    0.20
   4  -2  -2    2.45    0.31
  -4   2   2    2.44    0.27
   3  -2  -2    0.02    0.01
   3  -2  -2    0.00    0.01
  -3   2   2   -0.04    0.09
   2  -2  -2    0.02    0.01
   2  -2  -2    0.03    0.04
   2  -2  -2    0.01    0.01
   2  -2  -2    0.03    0.02
  -2   2   2    0.00    0.10
  -2   2   2   -0.22    0.27
   1  -2  -2    0.04    0.03
   1  -2  -2    0.10    0.05
   1  -2  -2    0.00    0.01
   1  -2  -2    0.00    0.01
  -1   2   2    0.03    0.08
  -1   2   2   -0.24    0.36
   0  -2  -2    1.24    0.13
   0  -2  -2    1.02    0.23
   0  -2  -2    1.48    0.14
   0   2   2    1.37    0.15
  -1  -2  -2    0.17    0.12
  -1  -2  -2   -0.05    0.16
  -1  -2  -2   -0.10    0.06
  -1  -2  -2    0.14    0.20
  -1  -2  -2    0.07    0.10
  -1  -2  -2   -0.07    0.05
   1   2   2   -0.07    0.07
   1   2   2    0.01    0.06
   1   2   2   -0.10    0.11
   1   2   2   -0.07    0.06
  -2  -2  -2    0.28    0.13
  -2  -2  -2    0.11    0.21
  -2  -2  -2    0.36    0.16
  -2  -2  -2    0.35    0.24
  -2  -2  -2    0.56    0.28
   2   2   2    0.35    0.08
   2   2   2    0.26    0.14
   2   2   2    0.14    0.11
  -3  -2  -2   -0.12    0.59
  -3  -2  -2   -0.37    0.31
  -3  -2  -2    0.03    0.12
  -3  -2  -2    0.01    0.32
  -3  -2  -2    0.34    0.18
   3   2   2   -0.33    0.37
   3   2   2    2.88    2.31
   3   2   2   -0.03    0.19
   3   2   2    0.04    0.15
   3   2   2    0.81    0.46
  -4  -2  -2    0.10    0.38
  -4  -2  -2    0.61    0.38
  -4  -2  -2    0.42    0.44
  -4  -2  -2    0.12    0.49
   4   2   2   -0.15    1.54
   4   2   2    0.11    0.16
   4   2   2    0.61    0.25
   4   2   2    0.46    0.20
   4   2   2    1.18    0.37
   4   2   2    1.42    0.48
  -5  -2  -2    0.27    0.38
  -5  -2  -2    0.01    0.36
  -5  -2  -2    0.15    0.37
  -5  -2  -2   -0.41    0.48
   5   2   2    0.25    0.43
   5   2   2    0.45    0.17
   5   2   2   -0.03    0.31
   5   2   2    0.26    0.33
   5   2   2    0.85    1.72
   7  -3  -2    0.29    0.30
   7  -3  -2    0.96    0.44
   7  -3  -2    0.75    0.23
   6  -3  -2    8.14    0.85
   6  -3  -2    7.51    0.67
   6  -3  -2    8.54    1.03
   6  -3  -2    9.04    0.72
   6  -3  -2    8.75    0.77
   5  -3  -2    0.26    0.17
   5  -3  -2    0.11    0.02
   5  -3  -2    0.11    0.03
   5  -3  -2    0.10    0.13
  -5   3   2   -0.03    0.19
   4  -3  -2   28.43    2.22
   4  -3  -2   27.57    2.20
   4  -3  -2   29.46    2.20
  -4   3   2   23.79    2.22
   3  -3  -2    3.31    0.27
   3  -3  -2    3.36    0.28
   3  -3  -2    3.21    0.33
  -3   3   2    3.67    0.32
   2  -3  -2   41.03    2.93
  -2   3   2   31.80    2.94
   1  -3  -2    4.92    0.40
   1  -3  -2    4.68    0.39
   1  -3  -2    4.79    0.39
   1  -3  -2    4.80    0.43
   1  -3  -2    4.59    0.41
  -1   3   2    5.18    0.61
   0  -3  -2   21.99    1.65
   0  -3  -2   20.80    1.65
   0  -3  -2   19.59    1.66
   0   3   2   19.92    1.66
   0   3   2   19.71    1.65
  -1  -3  -2    0.33    0.28
  -1  -3  -2    0.77    0.16
  -1  -3  -2    0.13    0.30
  -1  -3  -2    0.89    0.27
   1   3   2    0.50    0.15
   1   3   2    0.70    0.11
   1   3   2    0.70    0.11
   1   3   2    0.49    0.12
  -2  -3  -2    4.50    0.38
  -2  -3  -2    3.80    0.42
  -2  -3  -2    4.44    0.48
  -2  -3  -2    4.58    0.51
  -2  -3  -2    3.56    0.51
   2   3   2    3.72    0.38
   2   3   2    4.69    0.40
   2   3   2    3.87    0.37
   2   3   2    4.68    0.62
   2   3   2    3.66    0.41
  -3  -3  -2   -0.08    0.37
  -3  -3  -2    0.10    0.59
  -3  -3  -2   -0.22    0.18
  -3  -3  -2    0.57    0.34
  -3  -3  -2    0.41    0.49
   3   3   2    0.39    0.44
   3   3   2   -0.05    0.36
   3   3   2    0.15    0.37
   3   3   2   -0.35    0.22
   3   3   2   -0.09    0.18
   3   3   2    0.11    0.20
   3   3   2   -1.93    2.20
   3   3   2    0.17    0.15
  -4  -3  -2   -0.36    0.38
  -4  -3  -2    0.21    0.43
  -4  -3  -2    0.00    0.49
  -4  -3  -2    1.05    0.35
   4   3   2   -0.48    1.76
   4   3   2    0.45    0.18
   4   3   2    0.34    0.23
  -5  -3  -2    0.08    0.19
  -5  -3  -2   -0.05    0.39
   5   3   2    0.06    0.31
   5   3   2   -0.08    1.55
   8  -4  -2    1.49    0.37
   8  -4  -2    1.48    0.24
   7  -4  -2    0.41    0.49
   7  -4  -2    0.52    0.28
   7  -4  -2    0.56    0.24
   6  -4  -2    4.00    0.36
   6  -4  -2    3.77    0.30
   6  -4  -2    3.86    0.45
   6  -4  -2    3.12    0.79
   6  -4  -2    3.59    0.55
   6  -4  -2    2.72    0.50
   5  -4  -2   -0.05    0.10
   5  -4  -2    0.25    0.18
  -5   4   2    0.25    0.19
   4  -4  -2    8.97    0.66
   4  -4  -2    7.50    0.69
   4  -4  -2    8.30    0.66
   4  -4  -2    9.40    0.72
  -4   4   2    6.76    0.71
   3  -4  -2   -0.02    0.12
  -3   4   2    0.47    0.50
  -3   4   2   -0.01    0.12
  -3   4   2    0.10    0.07
   2  -4  -2    9.58    0.78
   2  -4  -2    9.68    0.78
   2  -4  -2    9.82    0.81
  -2   4   2    9.57    0.78
   1  -4  -2    0.46    0.14
   1  -4  -2    0.33    0.09
  -1   4   2    0.42    0.09
  -1   4   2    0.29    0.11
   0  -4  -2    3.82    0.41
   0   4   2    3.94    0.35
   0   4   2    3.50    0.35
  -1  -4  -2    1.84    0.77
  -1  -4  -2    0.98    0.23
  -1  -4  -2    0.99    0.18
   1   4   2    1.16    0.17
   1   4   2    0.54    0.36
  -2  -4  -2    0.70    0.39
  -2  -4  -2    1.44    0.74
  -2  -4  -2   -0.33    0.61
  -2  -4  -2    0.28    0.44
  -2  -4  -2    0.69    0.18
   2   4   2    0.99    0.22
   2   4   2    0.53    0.35
  -3  -4  -2    0.53    0.32
  -3  -4  -2    0.29    0.54
  -3  -4  -2   -0.01    0.40
  -3  -4  -2    0.78    0.52
   3   4   2    0.95    0.22
  -4  -4  -2    0.26    0.52
  -4  -4  -2    0.48    0.48
   8  -5  -2    1.45    0.25
   8  -5  -2    1.74    0.30
   7  -5  -2    0.31    0.21
   7  -5  -2   -0.50    0.64
   7  -5  -2   -0.33    0.31
   7  -5  -2    0.04    0.13
   7  -5  -2    0.00    0.26
   7  -5  -2    0.04    0.43
   6  -5  -2    2.30    0.74
   6  -5  -2    2.63    0.25
   6  -5  -2    2.11    0.41
   6  -5  -2    2.16    0.19
   6  -5  -2    2.39    0.39
   6  -5  -2    2.56    0.48
   6  -5  -2    2.14    0.23
   5  -5  -2    1.69    0.98
   5  -5  -2    0.17    0.03
   5  -5  -2    0.57    0.76
   5  -5  -2    0.27    0.09
   5  -5  -2   -0.15    0.27
   5  -5  -2    0.17    0.10
   5  -5  -2    0.20    0.20
  -5   5   2    0.70    0.43
  -5   5   2   -0.48    0.50
   4  -5  -2    1.11    0.20
   4  -5  -2    0.96    0.09
   4  -5  -2    0.95    0.10
   4  -5  -2   -1.33    1.33
   4  -5  -2    1.11    0.16
  -4   5   2    0.24    0.61
  -4   5   2    1.13    0.14
   3  -5  -2    0.46    0.11
   3  -5  -2    0.51    0.05
   3  -5  -2    0.51    0.16
   3  -5  -2    0.36    0.06
  -3   5   2   -0.22    0.72
  -3   5   2    0.12    0.15
  -3   5   2    0.29    0.30
  -3   5   2    0.55    0.12
   2  -5  -2    0.24    0.15
   2  -5  -2   -0.03    0.16
   2  -5  -2    0.21    0.03
  -2   5   2   -0.02    0.13
  -2   5   2    0.72    0.33
   1  -5  -2    1.33    0.82
  -1   5   2    0.51    0.15
  -1   5   2    0.72    0.15
   0  -5  -2    1.55    0.28
   0  -5  -2    1.32    0.25
   0  -5  -2    0.40    0.77
   0   5   2    1.90    0.60
   0   5   2    1.51    0.20
  -1  -5  -2    1.05    0.67
  -1  -5  -2    0.36    0.32
  -1  -5  -2   -0.67    0.64
   1   5   2    0.37    0.21
  -2  -5  -2    0.59    0.59
  -2  -5  -2    0.51    0.57
   2   5   2    1.54    0.25
  -3  -5  -2   -0.02    0.49
  -3  -5  -2    0.35    0.52
   8  -6  -2    0.05    0.23
   8  -6  -2   -0.15    0.16
   8  -6  -2    0.06    0.13
  -8   6   2    0.35    0.33
   7  -6  -2    0.21    0.22
   7  -6  -2   -0.32    0.57
   7  -6  -2    0.30    0.20
   7  -6  -2    0.47    0.25
   7  -6  -2    0.17    0.11
   7  -6  -2   -0.04    0.44
  -7   6   2    0.16    0.46
   6  -6  -2   -0.11    0.56
   6  -6  -2   -0.17    0.23
   6  -6  -2    1.00    0.81
   6  -6  -2    0.46    0.28
   6  -6  -2    0.33    0.24
   6  -6  -2    0.16    0.09
  -6   6   2    0.04    0.42
  -6   6   2    0.18    0.60
   5  -6  -2    0.06    0.26
   5  -6  -2    0.05    0.27
   5  -6  -2    0.68    0.35
   5  -6  -2   -0.42    0.25
   5  -6  -2   -0.01    0.07
   5  -6  -2   -0.61    0.63
   5  -6  -2    0.04    0.08
   5  -6  -2    2.06    0.94
  -5   6   2    0.21    0.18
  -5   6   2    0.18    0.34
  -5   6   2   -0.66    0.45
  -5   6   2    0.46    0.73
   4  -6  -2    1.40    0.26
   4  -6  -2    1.83    0.36
   4  -6  -2    1.37    0.63
   4  -6  -2    1.42    0.30
   4  -6  -2    1.31    0.40
   4  -6  -2    1.31    0.16
   4  -6  -2    1.57    0.13
   4  -6  -2    1.48    0.18
  -4   6   2    1.28    0.21
  -4   6   2    1.93    0.45
  -4   6   2    1.40    0.86
  -4   6   2    1.64    0.37
   3  -6  -2    0.14    0.08
   3  -6  -2    0.06    0.03
   3  -6  -2    0.00    0.20
   3  -6  -2   -0.03    0.09
   3  -6  -2    0.31    0.26
   3  -6  -2    0.35    0.59
   3  -6  -2   -1.07    0.93
  -3   6   2    0.25    0.37
  -3   6   2    0.14    0.33
   2  -6  -2    3.58    0.35
   2  -6  -2    5.10    1.01
   2  -6  -2    3.77    0.48
  -2   6   2    4.24    0.52
  -2   6   2    4.68    0.37
  -2   6   2    3.80    0.68
   1  -6  -2    0.53    0.81
   1  -6  -2    0.42    0.63
  -1   6   2   -0.39    0.47
   0  -6  -2    2.78    0.74
   0   6   2    2.39    0.44
  -1  -6  -2    0.40    0.54
  -1  -6  -2    0.38    0.70
   1   6   2    0.04    0.24
  -2  -6  -2    1.29    0.51
  -2  -6  -2   -0.53    0.68
   7  -7  -2    2.96    0.36
   7  -7  -2    3.32    0.31
   7  -7  -2    2.55    0.47
   7  -7  -2    2.92    0.25
   7  -7  -2    3.89    0.50
   7  -7  -2    3.06    0.26
  -7   7   2    2.75    0.43
  -7   7   2    2.75    0.28
  -7   7   2    2.62    0.26
  -7   7   2    2.07    0.48
   6  -7  -2    0.08    0.09
   6  -7  -2    0.53    0.77
   6  -7  -2   -0.05    0.26
   6  -7  -2    0.13    0.50
   6  -7  -2    0.08    0.06
   6  -7  -2    0.46    0.18
   6  -7  -2   -0.07    0.23
  -6   7   2    0.52    0.23
  -6   7   2    0.45    0.32
  -6   7   2    0.03    0.10
  -6   7   2   -0.51    0.34
   5  -7  -2    6.82    0.59
   5  -7  -2    7.00    0.92
   5  -7  -2    6.51    0.71
   5  -7  -2    7.46    0.63
   5  -7  -2    6.41    0.70
   5  -7  -2    7.29    0.58
  -5   7   2    5.94    0.69
  -5   7   2    6.52    0.67
  -5   7   2    8.36    0.60
   4  -7  -2    0.14    0.09
   4  -7  -2   -0.13    0.90
   4  -7  -2    0.25    0.59
   4  -7  -2    0.07    0.06
   4  -7  -2    0.20    0.35
   4  -7  -2    0.00    0.27
   4  -7  -2    0.31    0.28
   4  -7  -2    0.17    0.19
  -4   7   2    0.22    0.33
  -4   7   2    0.51    0.36
  -4   7   2    0.09    0.10
  -4   7   2    0.59    0.32
   3  -7  -2   10.67    0.90
   3  -7  -2   11.80    0.93
   3  -7  -2   10.25    0.90
  -3   7   2   11.72    0.90
  -3   7   2   10.72    0.97
  -3   7   2   10.75    0.92
   2  -7  -2   -0.46    0.48
   2  -7  -2    0.24    0.07
   2  -7  -2    0.16    0.81
  -2   7   2    0.63    0.42
   1  -7  -2    5.28    1.12
  -1   7   2    7.69    0.75
   0  -7  -2   -0.35    0.68
   0  -7  -2    0.53    0.50
   0   7   2   -0.42    0.35
  -1  -7  -2    2.61    0.57
   6  -8  -2    0.09    0.05
   6  -8  -2    0.11    0.07
   6  -8  -2    0.28    0.15
   6  -8  -2    0.34    0.20
   6  -8  -2   -0.36    0.55
   6  -8  -2    0.00    0.40
  -6   8   2   -0.11    0.25
  -6   8   2    0.10    0.09
  -6   8   2    0.03    0.07
  -6   8   2    0.29    0.29
   5  -8  -2    5.07    0.40
   5  -8  -2    5.00    0.41
   5  -8  -2    3.94    0.79
  -5   8   2    5.29    0.59
  -5   8   2    5.00    0.43
  -5   8   2    3.97    0.51
  -5   8   2    5.16    0.41
   4  -8  -2    0.02    0.05
   4  -8  -2   -0.59    0.57
   4  -8  -2    0.93    0.78
  -4   8   2    0.03    0.14
  -4   8   2   -0.12    0.36
  -4   8   2   -0.06    0.08
   3  -8  -2    3.55    0.83
   3  -8  -2    2.49    0.65
  -3   8   2    3.59    0.30
  -3   8   2    2.62    0.53
   2  -8  -2    0.58    0.53
   2  -8  -2    0.01    0.66
   1  -8  -2    1.18    0.46
   1  -8  -2    1.25    0.52
  -1   8   2    1.17    0.28
  -1   9  -3    0.29    0.18
  -1   9  -3    0.33    0.21
  -1   9  -3    0.31    0.10
   1  -9   3    0.19    0.23
  -2   9  -3    0.05    0.09
  -2   9  -3   -0.13    0.13
   2  -9   3   -0.25    0.25
   2  -9   3   -0.40    0.43
  -3   9  -3    1.10    0.17
  -3   9  -3    1.16    0.16
  -3   9  -3    0.95    0.22
   3  -9   3    0.99    0.27
  -4   9  -3   -0.06    0.12
  -4   9  -3    0.13    0.15
   4  -9   3    0.47    0.35
   1   8  -3   -0.03    0.24
   1   8  -3   -0.01    0.11
  -1  -8   3    0.13    0.20
   0   8  -3    0.81    0.25
   0   8  -3    0.44    0.21
   0   8  -3    0.51    0.12
   0  -8   3    0.21    0.28
  -1   8  -3    0.87    0.27
  -1   8  -3    0.24    0.10
  -1   8  -3    0.43    0.17
   1  -8   3    1.14    0.86
   1  -8   3    0.63    0.34
  -2   8  -3    0.41    0.15
  -2   8  -3    0.60    0.16
  -2   8  -3    0.75    0.26
  -2   8  -3    0.48    0.11
   2  -8   3    0.40    0.61
   2  -8   3    0.68    0.37
  -3   8  -3    0.56    0.15
  -3   8  -3    0.56    0.20
  -3   8  -3    0.42    0.12
   3  -8   3    0.29    0.34
   3  -8   3    0.60    0.61
  -4   8  -3    0.33    0.15
  -4   8  -3    0.11    0.15
   4  -8   3    1.14    0.58
   4  -8   3    0.50    0.32
  -5   8  -3    0.11    0.17
  -5   8  -3   -0.17    0.16
   5  -8   3   -0.33    0.40
   5  -8   3    0.50    0.25
   3   7  -3   -0.40    1.91
   3   7  -3    0.24    0.23
   2   7  -3   -0.18    0.25
   2   7  -3    1.63    2.65
   2   7  -3   -0.02    0.12
  -2  -7   3    0.17    0.22
  -2  -7   3   -0.06    0.18
   1   7  -3    1.97    0.24
   1   7  -3    2.38    0.39
   1   7  -3   -0.95    2.86
   1   7  -3    2.02    0.22
  -1  -7   3    2.27    0.41
   0   7  -3    0.45    0.17
   0   7  -3    1.01    0.16
   0   7  -3    0.83    0.31
   0   7  -3    0.69    0.14
   0  -7   3    2.13    1.02
   0  -7   3    0.64    0.26
  -1   7  -3    3.88    0.37
  -1   7  -3    2.85    0.45
  -1   7  -3    3.56    0.35
  -1   7  -3    3.32    0.34
  -1   7  -3    3.81    0.40
   1  -7   3    3.81    0.30
   1  -7   3    3.74    0.50
  -2   7  -3    0.73    0.23
  -2   7  -3    0.62    0.11
  -2   7  -3    0.34    0.16
  -2   7  -3    0.51    0.24
  -2   7  -3    0.42    0.12
   2  -7   3    0.49    0.21
   2  -7   3    0.47    0.29
   2  -7   3    1.27    0.63
   2  -7   3    0.45    0.07
  -3   7  -3    2.92    0.36
  -3   7  -3    1.87    0.41
  -3   7  -3    2.74    0.28
  -3   7  -3    2.58    0.28
  -3   7  -3    3.12    0.34
   3  -7   3    2.50    0.31
   3  -7   3    2.19    0.48
   3  -7   3    4.05    0.78
  -4   7  -3    0.45    0.22
  -4   7  -3    0.10    0.20
  -4   7  -3    0.03    0.15
  -4   7  -3    0.43    0.38
  -4   7  -3    0.02    0.30
   4  -7   3    0.30    0.58
   4  -7   3   -0.09    0.17
   4  -7   3   -0.25    0.31
  -5   7  -3    1.02    0.32
  -5   7  -3    1.20    0.27
   5  -7   3    0.78    0.19
   5  -7   3    0.82    0.55
   5  -7   3    0.92    0.14
   5  -7   3    0.68    0.33
  -6   7  -3    0.40    0.28
  -6   7  -3    0.40    0.36
  -6   7  -3    0.05    0.30
   6  -7   3    0.13    0.23
   6  -7   3    0.68    0.31
   4   6  -3    0.01    0.25
   4   6  -3   -0.93    1.76
  -4  -6   3    0.28    0.16
  -4  -6   3    0.33    0.19
   3   6  -3   29.60    2.39
   3   6  -3   28.37    2.40
  -3  -6   3   30.96    2.42
   2   6  -3    1.26    0.19
   2   6  -3   -2.18    2.59
   2   6  -3    0.92    0.33
   2   6  -3    1.14    0.19
   2   6  -3    1.47    0.16
  -2  -6   3    2.01    0.32
  -2  -6   3    1.30    0.28
  -2  -6   3    1.24    0.24
   1   6  -3   63.17    5.57
   1   6  -3   62.57    5.58
   1   6  -3   76.30    5.56
  -1  -6   3   76.44    5.55
  -1  -6   3   74.29    5.57
  -1  -6   3   72.40    5.58
  -1  -6   3   58.49    5.56
   0   6  -3    1.50    0.22
   0   6  -3    1.21    0.21
   0   6  -3    0.07    4.15
   0   6  -3    1.32    0.24
   0   6  -3    1.49    0.19
   0   6  -3    2.42    0.41
   0  -6   3    1.77    0.30
   0  -6   3    1.72    0.33
   0  -6   3    1.80    0.15
  -1   6  -3   96.76    6.70
  -1   6  -3   75.96    6.74
  -1   6  -3   74.64    6.70
   1  -6   3   89.59    6.72
   1  -6   3   83.32    6.69
   1  -6   3   79.55    6.69
  -2   6  -3    0.38    0.11
  -2   6  -3    0.29    0.23
  -2   6  -3    0.25    0.23
  -2   6  -3    0.27    0.14
  -2   6  -3    0.24    0.11
  -2   6  -3    0.53    0.42
   2  -6   3    1.22    0.58
   2  -6   3    0.23    0.24
   2  -6   3    0.47    0.06
   2  -6   3    0.35    0.23
  -3   6  -3   51.47    4.07
  -3   6  -3   54.58    4.06
  -3   6  -3   52.77    4.07
  -3   6  -3   43.25    4.06
  -3   6  -3   51.92    4.07
  -3   6  -3   46.58    4.06
   3  -6   3   54.95    4.16
   3  -6   3   50.03    4.06
   3  -6   3   46.28    4.04
   3  -6   3   51.30    4.07
  -4   6  -3    0.14    0.34
  -4   6  -3    0.26    0.14
  -4   6  -3    0.73    0.30
  -4   6  -3    0.46    0.36
  -4   6  -3    0.60    0.31
  -4   6  -3    0.40    0.33
   4  -6   3    0.47    0.22
   4  -6   3    0.06    0.24
   4  -6   3    0.05    0.16
   4  -6   3    0.95    0.54
  -5   6  -3   20.54    1.64
  -5   6  -3   17.87    1.62
  -5   6  -3   19.75    1.66
  -5   6  -3   19.78    1.63
  -5   6  -3   19.74    1.62
   5  -6   3   21.94    1.72
   5  -6   3   19.80    1.65
   5  -6   3   19.81    1.67
   5  -6   3   17.56    1.65
   5  -6   3   19.84    1.60
  -6   6  -3    0.14    0.33
  -6   6  -3   -0.21    0.39
  -6   6  -3    0.16    0.37
  -6   6  -3   -0.07    0.21
   6  -6   3    0.26    0.28
   6  -6   3   -0.12    0.21
   6  -6   3    0.28    0.26
   6  -6   3   -0.01    0.10
   6  -6   3    0.06    0.37
   5   5  -3    1.10    0.15
   5   5  -3    1.48    1.89
  -5  -5   3    1.10    0.20
  -5  -5   3    1.18    0.20
  -5  -5   3    1.15    0.22
   4   5  -3    2.86    0.47
   4   5  -3    2.53    0.30
   4   5  -3   -0.10    1.95
  -4  -5   3    2.73    0.29
  -4  -5   3    2.39    0.32
  -4  -5   3    1.94    0.34
  -4  -5   3    2.50    0.33
  -4  -5   3    2.66    0.34
   3   5  -3    1.42    0.22
   3   5  -3    1.57    0.31
   3   5  -3    1.37    0.24
   3   5  -3    0.05    2.53
   3   5  -3    1.03    0.20
   3   5  -3    1.26    0.17
  -3  -5   3    1.76    0.27
  -3  -5   3    1.80    0.26
  -3  -5   3    1.65    0.33
  -3  -5   3    2.10    0.32
  -3  -5   3    1.33    0.21
   2   5  -3    5.40    0.55
   2   5  -3    4.42    0.46
   2   5  -3    4.90    0.46
   2   5  -3   -1.81    3.35
   2   5  -3    4.33    0.43
   2   5  -3    4.86    0.41
   2   5  -3    6.00    0.54
  -2  -5   3    5.26    0.41
  -2  -5   3    5.53    0.51
  -2  -5   3    4.51    0.47
  -2  -5   3    4.61    0.44
  -2  -5   3    4.91    0.51
   1   5  -3    0.69    0.13
   1   5  -3    0.48    0.09
   1   5  -3    0.44    0.14
  -1  -5   3    0.39    0.06
  -1  -5   3    0.13    0.17
  -1  -5   3    0.37    0.18
  -1  -5   3    0.74    0.21
   0   5  -3   12.11    0.98
   0   5  -3   13.30    1.00
   0   5  -3   10.37    0.98
   0   5  -3   12.29    0.98
   0  -5   3   12.17    0.97
   0  -5   3   13.15    0.97
   0  -5   3   10.36    1.03
  -1   5  -3    2.01    0.24
  -1   5  -3    2.14    0.22
  -1   5  -3    1.93    0.24
   1  -5   3    1.88    0.17
   1  -5   3    1.92    0.16
  -2   5  -3   13.43    1.13
  -2   5  -3   15.04    1.13
  -2   5  -3   14.01    1.14
  -2   5  -3   14.62    1.17
   2  -5   3   14.27    1.10
   2  -5   3   11.65    1.15
   2  -5   3   12.91    1.11
  -3   5  -3    5.97    0.48
  -3   5  -3    5.67    0.52
  -3   5  -3    5.06    0.46
  -3   5  -3    4.50    0.46
  -3   5  -3    5.11    0.50
   3  -5   3    5.13    0.42
   3  -5   3    5.23    0.43
   3  -5   3    4.88    0.53
   3  -5   3    5.11    0.84
  -4   5  -3    5.97    0.53
  -4   5  -3    6.56    0.54
  -4   5  -3    5.12    0.61
  -4   5  -3    4.91    0.59
  -4   5  -3    6.59    0.66
  -4   5  -3    6.60    0.57
   4  -5   3    5.94    0.77
   4  -5   3    6.11    0.58
   4  -5   3    4.98    0.76
   4  -5   3    5.44    0.54
   4  -5   3    5.07    0.57
  -5   5  -3    4.53    0.45
  -5   5  -3    4.18    0.46
  -5   5  -3    4.61    0.56
  -5   5  -3    3.98    0.54
   5  -5   3    3.57    0.50
   5  -5   3    3.75    0.51
   5  -5   3    3.71    0.39
   5  -5   3    4.10    0.64
   5  -5   3    4.62    0.62
   5  -5   3    3.39    2.36
  -6   5  -3    2.10    0.44
  -6   5  -3    2.14    0.34
  -6   5  -3    1.82    0.39
   6  -5   3    2.15    0.42
   6  -5   3    2.01    0.32
   6  -5   3    1.46    0.32
   6  -5   3    1.22    0.32
   6  -5   3    2.03    0.21
   6  -5   3    1.91    1.71
  -7   5  -3    0.30    0.25
   6   4  -3    0.97    0.18
   6   4  -3    0.04    1.71
  -6  -4   3    1.20    0.22
  -6  -4   3    0.59    0.22
  -6  -4   3    0.87    0.21
   5   4  -3    1.46    0.26
   5   4  -3    1.38    0.21
   5   4  -3    0.40    2.20
   5   4  -3    1.95    0.30
  -5  -4   3    1.84    0.29
  -5  -4   3    2.08    0.42
  -5  -4   3    1.53    0.23
   4   4  -3    1.75    0.25
   4   4  -3    3.47    2.63
   4   4  -3    2.16    0.32
   4   4  -3    1.37    0.24
  -4  -4   3    1.88    0.24
   3   4  -3    5.72    0.49
   3   4  -3    4.20    0.39
   3   4  -3    4.20    0.43
   3   4  -3    4.71    0.39
   3   4  -3    2.15    2.67
  -3  -4   3    4.42    0.42
  -3  -4   3    4.42    0.43
  -3  -4   3    4.87    0.40
   2   4  -3    1.95    0.20
   2   4  -3    2.07    0.27
   2   4  -3    1.89    0.19
   2   4  -3    1.82    0.19
   2   4  -3    1.94    0.30
   2   4  -3    1.59    0.20
  -2  -4   3    2.20    0.21
  -2  -4   3    1.92    0.17
  -2  -4   3    1.94    0.23
   1   4  -3   14.38    1.15
   1   4  -3   14.13    1.15
   1   4  -3   13.38    1.15
  -1  -4   3   14.46    1.17
  -1  -4   3   13.22    1.15
  -1  -4   3   13.77    1.14
  -1  -4   3   15.15    1.15
  -1  -4   3   14.42    1.14
   0   4  -3    0.78    0.11
   0   4  -3    0.88    0.10
   0   4  -3    0.63    0.13
   0  -4   3    0.66    0.07
   0  -4   3    0.65    0.07
  -1   4  -3   20.45    1.71
  -1   4  -3   20.68    1.71
  -1   4  -3   21.55    1.72
   1  -4   3   21.42    1.70
   1  -4   3   21.57    1.70
  -2   4  -3    0.12    0.11
  -2   4  -3    0.13    0.11
  -2   4  -3    0.06    0.07
  -2   4  -3   -0.08    0.12
  -2   4  -3    0.16    0.61
  -2   4  -3    0.08    0.12
   2  -4   3    0.04    0.02
   2  -4   3    0.01    0.03
  -3   4  -3    9.72    0.76
  -3   4  -3    8.90    0.73
  -3   4  -3    9.75    0.75
  -3   4  -3    8.60    0.76
  -3   4  -3    7.59    0.74
   3  -4   3    8.88    0.72
   3  -4   3    9.17    0.72
   3  -4   3    8.21    0.77
  -4   4  -3   -0.46    0.57
  -4   4  -3    0.18    0.32
  -4   4  -3   -0.40    0.45
  -4   4  -3    0.51    0.20
  -4   4  -3    0.60    0.16
  -4   4  -3    0.43    0.27
   4  -4   3    0.95    2.34
   4  -4   3    1.31    0.43
   4  -4   3    0.65    0.31
   4  -4   3    0.31    0.37
   4  -4   3    0.38    0.18
   4  -4   3    0.05    0.20
  -5   4  -3    4.18    0.48
  -5   4  -3    3.47    0.43
  -5   4  -3    4.44    0.45
  -5   4  -3    4.26    0.59
   5  -4   3    4.68    2.18
   5  -4   3    3.28    0.56
   5  -4   3    3.61    0.47
   5  -4   3    3.74    0.38
   5  -4   3    4.16    0.60
   5  -4   3    4.09    0.50
  -6   4  -3    0.95    0.39
  -6   4  -3    1.51    0.40
  -6   4  -3    1.23    0.21
   6  -4   3    1.26    0.29
   6  -4   3    1.27    0.17
   6  -4   3    1.31    0.37
   6  -4   3    2.65    1.66
   6  -4   3    1.49    0.24
   7  -4   3    0.92    1.29
   7  -4   3    1.59    0.15
   6   3  -3    0.72    0.27
   6   3  -3    0.94    0.18
   6   3  -3    1.34    2.06
  -6  -3   3    1.25    0.32
   5   3  -3    6.37    0.70
   5   3  -3    3.21    2.76
   5   3  -3    6.03    0.59
  -5  -3   3    6.84    0.62
  -5  -3   3    7.33    0.58
   4   3  -3    1.32    0.24
   4   3  -3    1.82    0.18
   4   3  -3    1.82    0.18
   4   3  -3    1.39    0.26
   4   3  -3   -1.87    3.03
   4   3  -3    1.10    0.23
  -4  -3   3    1.55    0.24
  -4  -3   3    1.40    0.17
  -4  -3   3    1.14    0.34
   3   3  -3   28.23    2.49
   3   3  -3   31.34    2.48
   3   3  -3   31.87    2.48
   3   3  -3   32.85    2.48
   3   3  -3   31.49    2.48
   3   3  -3   28.08    2.51
  -3  -3   3   31.91    2.48
  -3  -3   3   30.48    2.48
   2   3  -3    1.62    0.17
   2   3  -3    1.79    0.18
   2   3  -3    1.69    0.17
   2   3  -3    1.52    0.16
   2   3  -3    1.58    0.27
  -2  -3   3    1.73    0.15
  -2  -3   3    1.88    0.19
  -2  -3   3    1.96    0.24
  -2  -3   3    1.88    0.19
  -2  -3   3    1.68    0.15
   1   3  -3   80.28    7.67
   1   3  -3   90.55    7.67
   1   3  -3   95.50    7.67
   1   3  -3   93.43    7.67
  -1  -3   3   91.22    7.67
  -1  -3   3  103.22    7.67
  -1  -3   3  105.29    7.69
  -1  -3   3  101.06    7.67
  -1  -3   3   99.31    7.67
   0   3  -3    2.27    0.23
   0   3  -3    2.20    0.22
   0   3  -3    2.18    0.21
   0  -3   3    2.42    0.19
   0  -3   3    1.94    0.23
   0  -3   3    2.62    0.19
  -1   3  -3   94.86    7.89
  -1   3  -3   96.67    7.90
  -1   3  -3  102.63    7.90
   1  -3   3   92.47    7.89
   1  -3   3  104.83    7.89
  -2   3  -3    1.69    0.39
  -2   3  -3    1.58    0.22
  -2   3  -3    2.18    0.22
  -2   3  -3    1.88    0.19
  -2   3  -3    1.97    0.19
   2  -3   3    1.88    0.15
   2  -3   3    1.72    0.15
   2  -3   3    1.65    0.16
  -3   3  -3   38.01    2.85
  -3   3  -3   34.80    2.85
  -3   3  -3   32.23    2.85
  -3   3  -3   33.06    2.84
  -3   3  -3   37.08    2.83
   3  -3   3   29.89    2.83
   3  -3   3   36.97    2.84
   3  -3   3   38.29    2.83
   3  -3   3   36.47    2.85
  -4   3  -3    1.92    0.24
  -4   3  -3    2.05    0.28
  -4   3  -3    1.81    0.38
  -4   3  -3    2.00    0.35
   4  -3   3    2.36    0.43
   4  -3   3    2.14    0.37
   4  -3   3    2.01    0.46
   4  -3   3    1.54    0.24
   4  -3   3    1.75    0.29
   4  -3   3    2.49    0.51
   4  -3   3    2.12    1.84
  -5   3  -3    8.75    0.77
  -5   3  -3    7.76    0.75
  -5   3  -3    8.67    0.78
  -5   3  -3    7.92    0.75
  -5   3  -3    8.30    0.86
   5  -3   3    8.97    0.72
   5  -3   3   12.67    2.43
   5  -3   3    9.05    0.78
   5  -3   3    8.70    0.82
   5  -3   3    7.34    0.84
   5  -3   3    9.19    0.79
  -6   3  -3    2.15    0.42
  -6   3  -3    1.21    0.22
   6  -3   3    1.81    0.45
   6  -3   3    2.27    1.65
   6  -3   3    2.24    0.31
   6  -3   3    1.63    0.18
   6  -3   3    1.63    0.29
   7   2  -3    2.49    2.20
  -7  -2   3    2.85    0.35
   6   2  -3    0.23    0.17
   6   2  -3    0.48    2.48
   6   2  -3    0.28    0.30
   6   2  -3    0.20    0.17
   5   2  -3    9.51    0.81
   5   2  -3   11.55    0.90
   5   2  -3    8.78    0.83
   4   2  -3    0.11    0.17
   4   2  -3    0.20    0.11
   4   2  -3    0.26    0.10
   4   2  -3    0.31    0.34
   4   2  -3    0.22    0.13
   4   2  -3    0.34    0.08
   3   2  -3   51.24    4.25
   3   2  -3   54.04    4.25
   3   2  -3   56.50    4.25
   3   2  -3   52.69    4.25
   3   2  -3   52.49    4.25
  -3  -2   3   53.46    4.27
  -3  -2   3   51.15    4.25
  -3  -2   3   51.62    4.25
   2   2  -3    1.38    0.14
   2   2  -3    1.31    0.15
   2   2  -3    1.52    0.16
   2   2  -3    1.46    0.13
   2   2  -3    1.50    0.14
  -2  -2   3    1.49    0.18
  -2  -2   3    1.57    0.13
  -2  -2   3    1.60    0.13
   1   2  -3  130.09    9.90
   1   2  -3  123.70    9.90
   1   2  -3  105.57    9.90
   1   2  -3  119.26    9.90
  -1  -2   3  111.37    9.90
  -1  -2   3  134.06    9.90
  -1  -2   3  139.36    9.90
   0   2  -3    4.25    0.37
   0   2  -3    4.08    0.36
   0   2  -3    4.06    0.37
   0  -2   3    4.91    0.35
   0  -2   3    4.29    0.35
  -1   2  -3   56.80    4.41
  -1   2  -3   59.73    4.41
  -1   2  -3   56.08    4.41
   1  -2   3   51.66    4.40
   1  -2   3   53.89    4.40
   1  -2   3   50.75    4.40
  -2   2  -3    1.35    0.35
  -2   2  -3    0.95    0.16
  -2   2  -3    0.90    0.15
  -2   2  -3    1.06    0.16
  -2   2  -3    0.94    0.19
   2  -2   3    0.80    0.09
   2  -2   3    0.89    0.16
   2  -2   3    0.91    0.08
  -3   2  -3    6.21    0.53
  -3   2  -3    6.22    0.57
  -3   2  -3    6.08    0.60
  -3   2  -3    6.07    0.54
  -3   2  -3    6.48    0.51
  -3   2  -3    5.38    0.53
   3  -2   3    6.45    0.58
   3  -2   3    5.10    0.52
  -4   2  -3    0.37    0.16
  -4   2  -3    0.62    0.27
  -4   2  -3    0.36    0.21
  -4   2  -3   -0.24    0.45
  -4   2  -3    0.76    0.30
  -4   2  -3    0.26    0.13
   4  -2   3    0.29    0.28
   4  -2   3    0.62    0.14
   4  -2   3    0.56    0.33
   4  -2   3    0.41    0.23
   4  -2   3   -0.49    1.79
   4  -2   3    0.42    0.15
   4  -2   3    0.61    0.25
  -5   2  -3    0.53    0.30
  -5   2  -3    0.40    0.16
  -5   2  -3    0.51    0.24
  -5   2  -3    0.57    0.60
  -5   2  -3    0.30    0.31
  -5   2  -3    0.12    0.41
   5  -2   3    0.16    0.29
   5  -2   3    0.60    1.62
   5  -2   3    0.52    0.24
   5  -2   3    0.65    0.12
   5  -2   3    0.86    0.30
   5  -2   3    1.06    0.25
  -6   2  -3    0.02    0.33
  -6   2  -3    0.12    0.17
  -6   2  -3    0.32    0.37
  -6   2  -3   -0.29    0.32
   6  -2   3    0.18    0.08
   6  -2   3    0.14    1.34
   6  -2   3   -0.04    0.22
   6  -2   3    0.31    0.21
   6  -2   3    0.13    0.41
   7   1  -3   -0.04    2.24
   7   1  -3    0.41    0.20
   6   1  -3    1.37    0.36
   6   1  -3    1.28    0.25
   6   1  -3    0.56    2.17
   6   1  -3    1.60    0.30
  -6  -1   3    1.55    0.28
   5   1  -3    0.96    0.20
   5   1  -3    1.08    0.20
   5   1  -3    1.30    0.26
   5   1  -3    0.85    0.20
   5   1  -3    1.01    0.19
   4   1  -3    7.40    0.56
   4   1  -3    7.14    0.57
   4   1  -3    7.47    0.58
   4   1  -3    6.77    0.57
   4   1  -3    5.91    0.63
  -4  -1   3    6.56    0.56
  -4  -1   3    6.21    0.56
   3   1  -3    2.98    0.24
   3   1  -3    2.76    0.23
   3   1  -3    2.85    0.24
   3   1  -3    2.83    0.26
   3   1  -3    2.77    0.24
  -3  -1   3    2.60    0.24
  -3  -1   3    2.72    0.24
   2   1  -3   15.51    1.39
   2   1  -3   17.53    1.39
   2   1  -3   17.96    1.40
   2   1  -3   18.72    1.40
  -2  -1   3   16.47    1.40
  -2  -1   3   17.85    1.40
   1   1  -3    1.08    0.12
   1   1  -3    1.18    0.10
   1   1  -3    1.11    0.09
   1   1  -3    0.87    0.10
  -1  -1   3    1.12    0.16
  -1  -1   3    0.99    0.10
  -1  -1   3    1.08    0.10
   0   1  -3    2.98    0.30
   0   1  -3    3.54    0.27
   0   1  -3    3.16    0.27
   0   1  -3    3.63    0.28
   0  -1   3    3.31    0.27
   0  -1   3    3.38    0.27
  -1   1  -3    0.24    0.07
  -1   1  -3    0.44    0.11
  -1   1  -3    0.32    0.05
   1  -1   3    0.39    0.04
   1  -1   3    0.33    0.05
   1  -1   3    0.23    0.08
  -2   1  -3    1.05    0.19
  -2   1  -3    1.17    0.18
  -2   1  -3    1.12    0.18
  -2   1  -3    1.22    0.19
   2  -1   3    0.96    0.11
   2  -1   3    1.01    0.20
   2  -1   3    1.26    0.16
  -3   1  -3    1.21    0.19
  -3   1  -3    1.00    0.21
  -3   1  -3    1.36    0.24
  -3   1  -3    1.38    0.29
  -3   1  -3    0.77    0.38
   3  -1   3    0.89    0.12
   3  -1   3    0.83    0.20
   3  -1   3    1.51    0.27
   3  -1   3    0.93    0.24
   3  -1   3    1.10    0.16
  -4   1  -3    1.53    0.50
  -4   1  -3    1.65    0.39
  -4   1  -3    1.64    0.24
  -4   1  -3    2.19    0.35
  -4   1  -3    2.29    0.30
   4  -1   3    2.09    0.43
   4  -1   3    1.68    0.32
   4  -1   3    1.71    0.27
   4  -1   3    2.17    0.24
   4  -1   3    2.08    0.40
   4  -1   3    1.88    0.40
   4  -1   3    1.94    0.25
   4  -1   3    2.92    1.63
  -5   1  -3    0.45    0.33
  -5   1  -3    0.97    0.25
  -5   1  -3    1.35    0.39
  -5   1  -3    0.48    0.60
  -5   1  -3    0.28    0.17
   5  -1   3    0.37    1.35
   5  -1   3    0.43    0.26
   5  -1   3    0.65    0.11
   5  -1   3    0.94    0.26
  -6   1  -3    0.77    0.34
   6  -1   3    1.40    1.35
   6  -1   3    0.90    0.12
   6  -1   3    0.63    0.18
   6   0  -3   -0.12    0.31
   5   0  -3    3.87    0.43
   5   0  -3    4.73    0.35
   5   0  -3    3.16    0.50
  -5   0   3    4.42    0.37
   4   0  -3    0.45    0.08
   4   0  -3    0.29    0.17
   4   0  -3    0.62    0.10
   4   0  -3    0.33    0.08
   4   0  -3    0.44    0.05
  -4   0   3    0.20    0.11
  -4   0   3    0.61    0.09
   3   0  -3   11.61    0.90
   3   0  -3   11.80    0.90
   3   0  -3   11.12    0.90
  -3   0   3    9.97    0.90
   2   0  -3   18.44    1.56
   2   0  -3   21.30    1.56
   2   0  -3   18.36    1.56
  -2   0   3   19.54    1.57
   1   0  -3   12.89    1.08
   1   0  -3   13.17    1.09
   1   0  -3   14.71    1.08
   1   0  -3   13.01    1.08
  -1   0   3   13.38    1.08
   0   0  -3   45.12    3.52
   0   0  -3   43.49    3.52
   0   0  -3   41.65    3.51
   0   0   3   44.14    3.51
   0   0   3   41.71    3.52
   0   0   3   46.34    3.51
  -1   0  -3    3.85    0.39
  -1   0  -3    4.40    0.37
  -1   0  -3    4.08    0.37
  -1   0  -3    4.72    0.38
  -1   0  -3    4.73    0.39
   1   0   3    5.09    0.39
   1   0   3    4.45    0.37
  -2   0  -3   26.03    2.02
  -2   0  -3   27.55    2.02
  -2   0  -3   26.53    2.02
  -2   0  -3   25.92    2.02
   2   0   3   24.57    2.02
   2   0   3   25.26    2.02
   2   0   3   22.45    2.01
   2   0   3   21.46    2.02
  -3   0  -3    1.44    0.20
  -3   0  -3    1.21    0.19
  -3   0  -3    1.86    0.33
  -3   0  -3    1.68    0.29
  -3   0  -3    1.34    0.28
   3   0   3    1.55    0.21
   3   0   3    1.89    0.25
   3   0   3    1.87    0.22
   3   0   3    1.19    0.16
  -4   0  -3    6.81    0.64
  -4   0  -3    7.79    0.67
  -4   0  -3    6.57    0.76
  -4   0  -3    5.89    0.73
   4   0   3    7.41    0.67
   4   0   3    7.92    0.63
   4   0   3    8.33    1.44
  -5   0  -3    0.92    0.22
  -5   0  -3    0.83    0.36
   5   0   3    1.01    0.14
   5   0   3    0.85    1.51
   5   0   3    0.74    0.25
  -6   0  -3    1.67    0.28
   6   0   3    1.09    0.21
   6   0   3    2.16    1.06
   5  -1  -3   13.61    1.11
   5  -1  -3   11.84    1.15
   5  -1  -3   15.30    1.11
   5  -1  -3   14.90    1.12
  -5   1   3   12.93    1.13
   4  -1  -3    9.91    0.76
   4  -1  -3    8.68    0.76
   4  -1  -3    9.86    0.75
   4  -1  -3    9.83    0.75
  -4   1   3    8.40    0.77
   3  -1  -3   15.76    1.23
   3  -1  -3   16.05    1.24
   3  -1  -3   15.31    1.23
   3  -1  -3   15.93    1.23
  -3   1   3   13.45    1.24
   2  -1  -3   26.06    2.09
   2  -1  -3   25.92    2.09
   2  -1  -3   26.28    2.10
   2  -1  -3   25.41    2.09
  -2   1   3   26.54    2.10
  -2   1   3   26.08    2.10
   1  -1  -3    9.68    0.71
   1  -1  -3    8.14    0.71
   1  -1  -3    8.73    0.70
  -1   1   3    8.09    0.71
  -1   1   3    8.95    0.72
   0  -1  -3   20.87    1.72
   0  -1  -3   21.32    1.73
   0   1   3   21.72    1.72
   0   1   3   21.41    1.72
  -1  -1  -3    3.58    0.37
  -1  -1  -3    3.57    0.34
  -1  -1  -3    3.80    0.32
  -1  -1  -3    3.54    0.32
  -1  -1  -3    4.30    0.36
   1   1   3    3.56    0.34
   1   1   3    3.92    0.32
   1   1   3    3.80    0.32
  -2  -1  -3    7.24    0.65
  -2  -1  -3    7.43    0.64
  -2  -1  -3    7.38    0.59
  -2  -1  -3    6.64    0.66
  -2  -1  -3    7.26    0.61
   2   1   3    6.99    0.61
   2   1   3    7.05    0.59
   2   1   3    7.85    0.61
   2   1   3    6.43    0.61
  -3  -1  -3    2.32    0.40
  -3  -1  -3    2.18    0.41
  -3  -1  -3    2.88    0.32
  -3  -1  -3    2.23    0.39
  -3  -1  -3    1.92    0.38
  -3  -1  -3    2.20    0.27
  -3  -1  -3    2.46    0.55
   3   1   3    6.71    2.18
   3   1   3    2.96    0.34
   3   1   3    2.82    0.30
  -4  -1  -3    1.38    0.49
  -4  -1  -3    1.89    0.44
  -4  -1  -3    1.92    0.29
  -4  -1  -3    1.96    0.59
   4   1   3    1.75    0.30
   4   1   3    2.27    0.38
   4   1   3    2.61    2.09
   4   1   3    1.61    0.31
  -5  -1  -3    2.09    0.38
   5   1   3    2.17    0.30
   5   1   3    2.03    1.38
   6  -2  -3    8.98    0.73
   6  -2  -3    9.06    0.79
   5  -2  -3    0.10    0.02
   5  -2  -3    0.31    0.15
   5  -2  -3    0.07    0.03
   5  -2  -3    0.08    0.18
  -5   2   3    0.06    0.12
   4  -2  -3   22.10    1.98
   4  -2  -3   24.95    1.98
   4  -2  -3   27.40    1.98
   4  -2  -3   24.04    2.00
   3  -2  -3    3.42    0.32
   3  -2  -3    3.16    0.26
   3  -2  -3    3.22    0.27
   3  -2  -3    3.06    0.27
   3  -2  -3    3.19    0.26
   2  -2  -3   42.00    3.36
   2  -2  -3   46.03    3.36
   2  -2  -3   42.31    3.36
   2  -2  -3   41.49    3.36
  -2   2   3   37.23    3.37
   1  -2  -3    4.60    0.38
   1  -2  -3    4.60    0.36
   1  -2  -3    4.62    0.41
   1  -2  -3    4.77    0.37
   1  -2  -3    4.65    0.38
  -1   2   3    4.11    0.39
  -1   2   3    4.10    0.37
  -1   2   3    4.95    0.52
  -1   2   3    4.19    0.38
   0  -2  -3   18.95    1.63
   0  -2  -3   22.00    1.62
   0  -2  -3   18.80    1.64
   0   2   3   20.54    1.63
   0   2   3   20.35    1.63
  -1  -2  -3    0.66    0.15
  -1  -2  -3    0.12    0.38
  -1  -2  -3    0.73    0.39
   1   2   3    0.84    0.14
   1   2   3    0.66    0.10
   1   2   3    1.29    0.30
  -2  -2  -3    4.38    0.45
  -2  -2  -3    3.42    0.57
  -2  -2  -3    4.55    0.39
  -2  -2  -3    3.91    0.49
  -2  -2  -3    4.84    0.52
   2   2   3    4.95    0.41
   2   2   3    3.85    0.38
  -3  -2  -3    0.14    0.46
  -3  -2  -3   -0.27    0.24
  -3  -2  -3   -0.23    0.17
  -3  -2  -3    0.61    0.40
  -3  -2  -3    0.10    0.56
   3   2   3   -0.10    0.42
   3   2   3    1.27    2.33
   3   2   3    0.03    0.32
   3   2   3    0.01    0.20
   3   2   3    0.15    0.20
  -4  -2  -3    0.06    0.42
  -4  -2  -3    0.66    0.33
  -4  -2  -3   -0.10    0.46
   4   2   3    0.60    0.26
   4   2   3    0.35    0.26
   4   2   3    0.25    1.58
  -5  -2  -3    0.29    0.29
  -5  -2  -3    0.36    0.40
   5   2   3    0.10    0.32
   5   2   3    0.99    1.20
   5   2   3    0.02    0.18
   7  -3  -3   -0.50    0.52
   7  -3  -3    0.29    0.28
   7  -3  -3    0.50    0.54
   7  -3  -3    0.08    0.18
   6  -3  -3    2.32    0.44
   6  -3  -3    2.88    0.40
   6  -3  -3    2.11    0.47
   6  -3  -3    2.84    0.31
   6  -3  -3    3.09    0.30
   6  -3  -3    2.71    0.23
   5  -3  -3   -0.02    0.02
   5  -3  -3    0.12    0.17
   5  -3  -3   -0.01    0.03
   5  -3  -3    0.05    0.12
  -5   3   3   -0.20    0.21
  -4   3   3    2.90    0.34
   3  -3  -3    0.01    0.01
   3  -3  -3    0.00    0.11
   3  -3  -3    0.03    0.02
   3  -3  -3    0.01    0.04
  -3   3   3   -0.05    0.12
  -3   3   3   -0.35    0.47
   2  -3  -3   17.90    1.44
   2  -3  -3   17.68    1.41
   2  -3  -3   18.15    1.42
   2  -3  -3   17.61    1.42
   2  -3  -3   18.11    1.41
  -2   3   3   17.79    1.51
  -2   3   3   17.44    1.41
  -2   3   3   15.77    1.42
   1  -3  -3   -0.03    0.10
   1  -3  -3   -0.06    0.06
   1  -3  -3    0.05    0.12
  -1   3   3    0.04    0.06
  -1   3   3    0.06    0.09
   0  -3  -3   30.16    2.28
   0  -3  -3   27.57    2.30
   0   3   3   25.61    2.29
   0   3   3   29.62    2.35
   0   3   3   28.29    2.28
  -1  -3  -3    0.66    0.54
  -1  -3  -3    0.11    0.18
  -1  -3  -3    0.20    0.14
   1   3   3    0.67    0.35
   1   3   3    0.02    0.11
   1   3   3   -0.03    0.09
   1   3   3    0.13    0.34
  -2  -3  -3   20.25    1.85
  -2  -3  -3   21.77    1.91
  -2  -3  -3   23.75    1.90
   2   3   3   24.19    1.87
   2   3   3   24.07    1.93
  -3  -3  -3   -0.22    0.44
  -3  -3  -3    0.33    0.45
  -3  -3  -3    0.19    0.35
   3   3   3    0.13    0.20
   3   3   3   -0.14    0.30
   3   3   3   -0.03    0.43
   8  -4  -3    0.49    0.17
   7  -4  -3    3.20    0.72
   7  -4  -3    2.40    0.47
   7  -4  -3    3.26    0.50
   7  -4  -3    3.73    0.46
   6  -4  -3    0.44    0.06
   6  -4  -3    0.41    0.33
   6  -4  -3    0.44    0.23
   6  -4  -3    0.74    0.29
   6  -4  -3    0.55    0.12
   6  -4  -3    1.15    0.79
   6  -4  -3    0.65    0.13
   5  -4  -3    7.30    0.61
   5  -4  -3    7.73    0.61
   5  -4  -3    8.03    0.69
   5  -4  -3    7.34    0.65
   4  -4  -3    0.02    0.03
   4  -4  -3    0.03    0.02
   4  -4  -3    0.08    0.15
   4  -4  -3   -0.05    0.10
  -4   4   3   -0.13    0.16
  -4   4   3   -0.15    0.42
  -4   4   3   -0.39    0.60
   3  -4  -3    6.23    0.65
   3  -4  -3    7.58    0.62
   3  -4  -3    8.11    0.67
   3  -4  -3    7.85    0.61
  -3   4   3    8.11    0.62
   2  -4  -3    1.08    0.18
   2  -4  -3    1.05    0.17
   2  -4  -3    0.92    0.09
  -2   4   3    0.96    0.13
  -2   4   3    1.44    0.38
   1  -4  -3    3.29    0.36
   1  -4  -3    3.17    0.30
  -1   4   3    2.47    0.31
  -1   4   3    2.90    0.29
   0  -4  -3    2.53    0.31
   0  -4  -3    1.49    0.90
   0  -4  -3    2.94    0.38
   0   4   3    2.83    0.30
  -1  -4  -3   -0.29    0.59
  -1  -4  -3    1.67    0.82
  -1  -4  -3    1.02    0.29
  -1  -4  -3    0.81    0.19
   1   4   3    1.09    0.19
  -2  -4  -3    2.22    0.76
   2   4   3    2.89    0.48
   2   4   3    2.75    0.39
  -3  -4  -3    0.54    0.62
   3   4   3    0.90    0.24
   8  -5  -3    1.06    0.19
   8  -5  -3    0.91    0.34
   7  -5  -3    1.80    0.61
   7  -5  -3    1.60    0.35
   7  -5  -3    2.36    0.37
   7  -5  -3    1.89    0.24
   7  -5  -3    2.11    0.20
   6  -5  -3    1.55    0.31
   6  -5  -3    1.49    0.28
   6  -5  -3    1.22    0.35
   6  -5  -3    0.39    0.31
   6  -5  -3    1.95    0.76
   6  -5  -3    1.24    0.18
   6  -5  -3    0.96    0.10
   6  -5  -3    0.91    0.15
  -6   5   3    1.52    0.46
  -6   5   3    0.26    0.61
   5  -5  -3    0.70    0.28
   5  -5  -3    0.77    0.08
   5  -5  -3    0.45    0.28
   5  -5  -3    0.94    0.14
   5  -5  -3   -0.22    0.39
   5  -5  -3    0.95    0.22
   5  -5  -3    0.40    0.75
   5  -5  -3    0.61    0.12
  -5   5   3    1.71    0.45
  -5   5   3   -0.35    0.63
   4  -5  -3    1.43    0.30
   4  -5  -3    1.04    0.14
   4  -5  -3    1.56    0.78
   4  -5  -3    1.02    0.10
   4  -5  -3    0.98    0.39
   4  -5  -3    1.17    0.21
   4  -5  -3    1.09    0.18
  -4   5   3   -0.03    0.70
  -4   5   3    1.04    0.38
  -4   5   3    0.93    0.16
   3  -5  -3    0.07    0.09
   3  -5  -3    0.47    0.63
   3  -5  -3    0.16    0.11
   3  -5  -3    0.19    0.30
   3  -5  -3   -0.12    0.16
   3  -5  -3    0.83    0.48
  -3   5   3    0.19    0.14
  -3   5   3    0.66    0.42
  -3   5   3   -0.25    0.36
   2  -5  -3    0.06    0.65
   2  -5  -3    1.09    0.30
   2  -5  -3    0.34    0.47
   2  -5  -3    0.58    0.11
   2  -5  -3   -0.03    1.00
   2  -5  -3    0.59    0.18
   1  -5  -3    0.55    0.20
   1  -5  -3    0.38    0.28
   1  -5  -3    1.27    0.88
  -1   5   3    0.16    0.59
  -1   5   3    0.17    0.15
   0  -5  -3    1.17    0.63
   0  -5  -3   -0.08    0.81
   0  -5  -3   -0.14    0.26
   0   5   3   -0.09    0.19
  -1  -5  -3    0.47    0.53
   1   5   3    0.35    0.22
  -2  -5  -3   -0.70    0.52
  -2  -5  -3    0.12    0.57
   2   5   3   -0.32    0.23
   8  -6  -3    0.30    0.10
   8  -6  -3    0.24    0.23
   8  -6  -3    0.15    0.14
   8  -6  -3    0.26    0.17
  -8   6   3    0.15    0.10
  -8   6   3    0.50    0.30
   7  -6  -3    0.30    0.20
   7  -6  -3    0.19    0.21
   7  -6  -3    0.25    0.24
   7  -6  -3   -0.07    0.47
   7  -6  -3    0.32    0.11
   7  -6  -3    0.24    0.07
  -7   6   3   -0.12    0.45
   6  -6  -3    2.28    0.43
   6  -6  -3    1.50    0.35
   6  -6  -3    0.99    0.61
   6  -6  -3    2.03    0.18
   6  -6  -3    1.81    0.31
   6  -6  -3    2.05    0.33
   6  -6  -3    1.82    0.22
  -6   6   3    1.76    0.49
  -6   6   3    0.39    0.73
  -6   6   3    1.82    0.45
   5  -6  -3    0.91    0.26
   5  -6  -3    1.17    0.27
   5  -6  -3    0.16    0.68
   5  -6  -3    1.11    0.24
   5  -6  -3    0.67    0.10
   5  -6  -3    0.28    0.35
   5  -6  -3    0.95    0.15
  -5   6   3   -0.85    0.76
  -5   6   3    1.54    0.40
  -5   6   3    0.60    0.21
  -5   6   3    0.56    0.35
   4  -6  -3    4.40    0.40
   4  -6  -3    3.35    0.66
   4  -6  -3    5.16    0.43
   4  -6  -3    4.53    0.55
   4  -6  -3    5.51    0.49
   4  -6  -3    4.96    0.41
  -4   6   3    5.22    0.56
  -4   6   3    4.94    0.57
   3  -6  -3    1.27    0.29
   3  -6  -3    2.57    1.02
   3  -6  -3    1.11    0.16
   3  -6  -3    2.11    0.45
   3  -6  -3    1.57    0.62
  -3   6   3    1.07    0.40
  -3   6   3    0.65    0.51
   2  -6  -3    4.76    0.59
   2  -6  -3    5.91    0.51
   2  -6  -3    3.36    1.06
  -2   6   3    5.26    0.71
   1  -6  -3    0.84    0.28
   1  -6  -3   -0.03    0.53
   1  -6  -3    0.16    0.85
  -1   6   3    0.48    0.51
   0  -6  -3    0.46    0.51
   0   6   3    1.46    0.26
  -1  -6  -3    0.14    0.49
  -1  -6  -3    0.89    0.53
   7  -7  -3    0.28    0.20
   7  -7  -3    0.28    0.06
   7  -7  -3    0.62    0.16
   7  -7  -3    0.38    0.37
   7  -7  -3    0.45    0.08
  -7   7   3    0.46    0.29
  -7   7   3    0.38    0.10
  -7   7   3    0.72    0.28
   6  -7  -3    1.30    0.29
   6  -7  -3    1.46    0.27
   6  -7  -3    1.11    0.27
   6  -7  -3    2.04    0.41
   6  -7  -3    2.00    0.57
   6  -7  -3    1.30    0.14
   6  -7  -3    1.49    0.17
  -6   7   3    1.80    0.44
  -6   7   3    0.85    0.34
  -6   7   3    1.27    0.35
  -6   7   3    1.55    0.19
   5  -7  -3    0.96    0.26
   5  -7  -3    0.70    0.10
   5  -7  -3    0.13    0.31
   5  -7  -3    0.91    0.21
   5  -7  -3   -0.01    0.53
   5  -7  -3    0.91    0.26
   5  -7  -3    0.56    0.12
  -5   7   3    1.21    0.35
  -5   7   3    1.22    0.39
  -5   7   3    0.94    0.36
  -5   7   3    1.01    0.17
  -5   7   3    0.77    0.31
   4  -7  -3    1.30    0.27
   4  -7  -3    1.29    0.28
   4  -7  -3    1.70    0.15
   4  -7  -3    1.00    0.92
   4  -7  -3    0.80    0.53
   4  -7  -3    0.70    0.35
   4  -7  -3    1.54    0.19
  -4   7   3    2.24    0.38
  -4   7   3    1.42    0.23
   3  -7  -3    0.73    0.19
   3  -7  -3    0.19    0.24
   3  -7  -3    0.63    0.09
   3  -7  -3    0.45    0.51
   3  -7  -3    1.12    0.86
  -3   7   3    0.80    0.11
  -3   7   3    0.15    0.39
   2  -7  -3    0.87    0.87
   2  -7  -3    0.39    0.49
  -2   7   3    0.28    0.44
   1  -7  -3    0.09    0.53
   1  -7  -3    0.08    0.71
  -1   7   3    0.20    0.41
   0  -7  -3   -0.01    0.39
   0  -7  -3   -0.25    0.47
   6  -8  -3   -0.34    0.32
   6  -8  -3    0.06    0.07
   6  -8  -3    0.02    0.14
   6  -8  -3    0.16    0.17
   6  -8  -3    0.01    0.04
  -6   8   3    0.44    0.21
  -6   8   3    0.40    0.28
  -6   8   3   -0.02    0.09
  -6   8   3    0.11    0.05
   5  -8  -3    2.26    0.49
   5  -8  -3    2.89    0.23
  -5   8   3    1.89    0.43
  -5   8   3    2.75    0.24
  -5   8   3    2.90    0.29
   4  -8  -3    0.03    0.05
   4  -8  -3    0.25    0.44
  -4   8   3   -0.11    0.33
  -4   8   3    0.04    0.08
   3  -8  -3    1.02    0.47
   3  -8  -3    1.17    0.66
  -3   8   3    0.59    0.33
  -3   8   3    0.86    0.14
  -1   9  -4    0.61    0.10
  -1   9  -4    0.52    0.16
   1  -9   4    0.41    0.21
  -2   9  -4    1.33    0.21
  -2   9  -4    1.21    0.16
   2  -9   4    1.11    0.24
  -3   9  -4    0.66    0.14
  -3   9  -4    0.48    0.15
   3  -9   4    0.53    0.21
   1   8  -4    4.09    0.47
  -1  -8   4    4.23    0.44
   0   8  -4    0.27    0.11
   0   8  -4    0.01    0.18
   0   8  -4    0.03    0.28
   0  -8   4    0.23    0.25
  -1   8  -4    6.01    0.50
  -1   8  -4    5.07    0.53
   1  -8   4    6.38    0.62
  -2   8  -4    0.05    0.22
  -2   8  -4    0.00    0.11
  -2   8  -4    0.26    0.14
   2  -8   4    0.25    0.29
  -3   8  -4    2.61    0.31
   3  -8   4    3.02    0.48
  -4   8  -4    0.04    0.15
  -4   8  -4    0.20    0.16
   4  -8   4    0.16    0.23
  -5   8  -4    0.02    0.18
   5  -8   4    0.45    0.26
   3   7  -4    0.26    1.83
   3   7  -4   -0.19    0.12
   3   7  -4   -0.13    0.21
  -3  -7   4    0.05    0.19
   2   7  -4    0.20    0.12
   2   7  -4    0.12    0.26
   2   7  -4    2.01    2.31
   1   7  -4   -0.12    0.09
   1   7  -4    0.36    0.26
   1   7  -4    0.08    0.20
   1   7  -4    0.17    0.11
   1   7  -4   -1.67    2.73
  -1  -7   4   -0.09    0.23
  -1  -7   4   -0.99    3.38
   0   7  -4    1.63    3.29
   0   7  -4    0.95    0.16
   0   7  -4    0.70    0.13
   0   7  -4    0.22    0.29
   0   7  -4    0.51    0.31
   0   7  -4    0.46    0.17
   0  -7   4    0.82    0.24
   0  -7   4   -0.54    3.77
  -1   7  -4    0.31    0.23
  -1   7  -4    0.11    0.11
  -1   7  -4   -0.08    0.13
  -1   7  -4    0.05    0.13
   1  -7   4   -0.01    0.26
   1  -7   4   -1.33    1.90
  -2   7  -4    0.26    0.13
  -2   7  -4    0.03    0.15
  -2   7  -4   -0.08    0.12
  -2   7  -4   -0.15    0.21
   2  -7   4   -0.20    0.26
   2  -7   4   -0.82    2.08
  -3   7  -4    0.34    0.20
  -3   7  -4    0.23    0.17
  -3   7  -4    0.48    0.16
   3  -7   4    0.29    0.30
  -4   7  -4    0.44    0.20
  -4   7  -4   -0.20    0.18
   4  -7   4   -0.08    0.27
   4  -7   4    0.59    0.51
  -5   7  -4    0.73    0.26
   5  -7   4    0.89    0.25
   5  -7   4    0.75    0.39
   4   6  -4    0.50    0.24
   4   6  -4   -0.14    1.80
  -4  -6   4    0.48    0.17
  -4  -6   4    0.79    0.22
  -4  -6   4    0.93    0.22
   3   6  -4    0.06    0.08
   3   6  -4    0.29    0.29
   3   6  -4   -0.04    0.27
   3   6  -4   -1.50    1.81
   3   6  -4    0.39    0.13
  -3  -6   4    0.18    0.18
  -3  -6   4    0.32    0.22
  -3  -6   4    0.22    0.25
   2   6  -4   -1.54    2.36
   2   6  -4    0.75    0.23
   2   6  -4    0.79    0.31
   2   6  -4    0.79    0.16
   2   6  -4    1.11    0.15
  -2  -6   4    0.90    0.23
  -2  -6   4    1.13    0.23
  -2  -6   4    1.50    0.29
   1   6  -4   -0.14    3.52
   1   6  -4    0.61    0.18
   1   6  -4    0.82    0.19
   1   6  -4    0.89    0.15
   1   6  -4    1.05    0.32
  -1  -6   4    0.64    0.09
  -1  -6   4    1.16    0.24
  -1  -6   4    0.69    0.25
   0   6  -4    0.32    0.12
   0   6  -4    0.97    0.36
   0   6  -4    2.97    3.87
   0   6  -4    0.56    0.16
   0   6  -4    0.54    0.14
   0   6  -4    0.25    0.12
   0   6  -4   -0.07    0.23
   0  -6   4    0.47    0.06
   0  -6   4    0.40    0.22
   0  -6   4   -2.09    4.35
  -1   6  -4   -3.28    3.88
   1  -6   4    2.03    0.39
   1  -6   4   -5.05    3.90
  -2   6  -4    0.07    0.22
  -2   6  -4    0.14    0.12
  -2   6  -4    0.23    0.23
  -2   6  -4   -0.04    0.15
   2  -6   4    1.64    2.28
   2  -6   4    0.04    0.03
   2  -6   4    0.33    0.23
  -3   6  -4    3.43    0.47
  -3   6  -4    4.55    0.43
  -3   6  -4    3.34    0.40
  -3   6  -4    3.76    0.50
   3  -6   4    3.98    2.37
   3  -6   4    4.92    0.49
   3  -6   4    4.32    0.34
  -4   6  -4   -0.24    0.33
  -4   6  -4    0.37    0.29
  -4   6  -4    0.22    0.20
  -4   6  -4    0.38    0.40
   4  -6   4    0.37    2.06
   4  -6   4    0.44    0.26
   4  -6   4    0.44    0.12
   4  -6   4    0.67    0.57
  -5   6  -4    4.01    0.44
   5  -6   4    3.93    0.49
   5  -6   4    1.92    1.72
   5  -6   4    4.00    0.64
   5  -6   4    3.29    0.34
  -6   6  -4    0.01    0.26
   6  -6   4    0.15    0.07
   6  -6   4   -0.06    0.22
   6  -6   4    0.40    0.21
   5   5  -4    1.18    2.15
   5   5  -4    3.16    0.30
  -5  -5   4    3.64    0.34
  -5  -5   4    2.71    0.42
   4   5  -4    1.62    2.09
   4   5  -4    0.04    0.26
   4   5  -4    0.02    0.14
   4   5  -4   -0.38    0.29
   4   5  -4   -0.01    0.14
  -4  -5   4   -0.10    0.17
  -4  -5   4    0.41    0.21
  -4  -5   4   -0.32    0.25
  -4  -5   4    0.18    0.28
  -4  -5   4    0.01    0.23
   3   5  -4    5.75    0.64
   3   5  -4    4.08    0.50
   3   5  -4    4.85    0.45
   3   5  -4    5.35    0.61
   3   5  -4    0.15    2.70
   3   5  -4    5.29    0.47
  -3  -5   4    5.73    0.53
  -3  -5   4    5.91    0.54
  -3  -5   4    5.63    0.50
  -3  -5   4    5.69    0.50
  -3  -5   4    4.82    0.46
   2   5  -4    0.40    0.14
   2   5  -4    0.17    0.09
   2   5  -4    0.56    0.26
   2   5  -4    0.49    0.18
   2   5  -4    0.38    0.14
   2   5  -4   -3.87    3.12
   2   5  -4    0.22    0.14
   2   5  -4    0.26    0.33
  -2  -5   4    0.52    0.17
  -2  -5   4    0.53    0.21
  -2  -5   4    0.57    0.26
  -2  -5   4    0.51    0.22
  -2  -5   4    0.46    0.23
  -2  -5   4    0.58    0.21
   1   5  -4    2.22    0.21
   1   5  -4    1.75    0.23
   1   5  -4    1.79    0.26
  -1  -5   4    1.77    0.18
  -1  -5   4    2.25    0.29
  -1  -5   4    1.94    0.17
  -1  -5   4    2.08    0.28
   0   5  -4    2.61    0.30
   0   5  -4    2.83    0.28
   0   5  -4    2.77    0.30
   0  -5   4    3.00    0.24
   0  -5   4    3.00    0.24
  -1   5  -4    0.02    0.12
  -1   5  -4    0.11    0.11
  -1   5  -4    0.14    0.12
  -1   5  -4   -0.07    0.17
   1  -5   4   -0.01    0.03
   1  -5   4   -0.24    0.19
   1  -5   4   -0.03    0.04
  -2   5  -4    3.13    0.33
  -2   5  -4    2.99    0.32
  -2   5  -4    3.07    0.38
   2  -5   4    2.85    0.26
   2  -5   4    3.12    0.41
   2  -5   4    2.92    0.25
  -3   5  -4   -0.54    0.32
  -3   5  -4    0.17    0.15
  -3   5  -4   -0.23    0.37
  -3   5  -4   -0.21    0.26
  -3   5  -4    0.25    0.36
   3  -5   4   -1.50    2.14
   3  -5   4   -0.08    0.21
  -4   5  -4    0.87    0.23
  -4   5  -4    1.59    0.43
  -4   5  -4    1.84    0.40
  -4   5  -4    1.43    0.29
   4  -5   4    1.01    0.22
   4  -5   4    1.87    2.05
   4  -5   4    1.71    0.43
   4  -5   4    1.18    0.25
   4  -5   4    1.33    0.54
  -5   5  -4    0.38    0.43
  -5   5  -4   -0.22    0.38
  -5   5  -4   -0.04    0.17
  -5   5  -4   -0.35    0.31
   5  -5   4   -0.21    0.31
   5  -5   4    0.11    0.09
   5  -5   4    0.13    0.27
   5  -5   4    0.81    0.46
   5  -5   4   -0.04    0.22
   5  -5   4    1.08    1.68
  -6   5  -4    0.39    0.28
  -6   5  -4    0.17    0.36
   6  -5   4    0.21    1.48
   6  -5   4    0.19    0.26
   6   4  -4   -0.11    0.10
   6   4  -4    0.30    1.75
  -6  -4   4    0.06    0.19
  -6  -4   4    0.12    0.18
  -6  -4   4   -0.10    0.22
   5   4  -4    1.91    0.30
   5   4  -4    1.80    0.30
   5   4  -4    0.36    2.45
  -5  -4   4    1.32    0.33
  -5  -4   4    2.05    0.28
  -5  -4   4    2.11    0.26
   4   4  -4    0.41    0.17
   4   4  -4    0.11    0.37
   4   4  -4    0.10    0.19
   4   4  -4   -0.01    0.25
  -4  -4   4    0.59    0.22
   3   4  -4    8.28    0.87
   3   4  -4    8.12    0.80
   3   4  -4   11.18    0.84
   3   4  -4    8.06    0.79
   3   4  -4    8.77    0.83
   3   4  -4   10.43    0.77
   3   4  -4    8.41    0.77
   3   4  -4   10.45    0.77
  -3  -4   4    9.13    0.82
  -3  -4   4    9.44    0.76
  -3  -4   4    9.96    0.78
   2   4  -4    0.70    0.16
   2   4  -4    0.88    0.12
   2   4  -4    0.84    0.16
   2   4  -4    1.15    0.16
   2   4  -4    0.66    0.18
   2   4  -4    0.85    0.13
  -2  -4   4    0.94    0.21
  -2  -4   4    0.66    0.22
  -2  -4   4    0.91    0.09
  -2  -4   4    0.76    0.10
  -2  -4   4    0.69    0.17
  -2  -4   4    1.15    0.18
   1   4  -4   32.05    2.50
   1   4  -4   31.77    2.49
   1   4  -4   33.44    2.52
   1   4  -4   31.39    2.49
  -1  -4   4   26.76    2.50
  -1  -4   4   26.92    2.52
  -1  -4   4   30.62    2.50
  -1  -4   4   30.04    2.49
  -1  -4   4   33.27    2.49
  -1  -4   4   32.95    2.49
   0   4  -4    3.35    0.34
   0   4  -4    3.47    0.33
   0   4  -4    3.20    0.32
   0  -4   4    3.64    0.29
   0  -4   4    3.81    0.29
  -1   4  -4   34.92    2.75
  -1   4  -4   32.58    2.74
  -1   4  -4   36.51    2.75
  -1   4  -4   36.69    2.76
   1  -4   4   33.55    2.76
   1  -4   4   33.70    2.73
   1  -4   4   30.17    2.73
  -2   4  -4    0.93    0.33
  -2   4  -4    1.33    0.22
  -2   4  -4    0.71    0.17
   2  -4   4    0.85    0.09
   2  -4   4    0.98    0.10
   2  -4   4    0.80    0.20
  -3   4  -4   13.51    1.12
  -3   4  -4   14.08    1.09
  -3   4  -4   13.67    1.12
  -3   4  -4   13.44    1.15
   3  -4   4   12.87    1.11
   3  -4   4   12.43    2.77
   3  -4   4   10.96    1.09
  -4   4  -4   -0.10    0.35
  -4   4  -4    0.51    0.33
  -4   4  -4    0.00    0.18
  -4   4  -4    0.02    0.41
  -4   4  -4   -0.80    0.91
  -4   4  -4   -0.21    0.17
  -4   4  -4   -0.29    0.39
   4  -4   4   -0.29    0.22
   4  -4   4    0.09    0.12
   4  -4   4   -0.44    0.39
   4  -4   4   -0.87    1.84
   4  -4   4   -0.15    0.27
   4  -4   4    0.57    0.45
  -5   4  -4    1.89    0.45
  -5   4  -4    3.17    0.42
  -5   4  -4    2.31    0.39
  -5   4  -4    2.43    0.49
  -5   4  -4    2.29    0.34
   5  -4   4    2.52    1.58
   5  -4   4    2.80    0.52
   5  -4   4    3.56    0.53
   5  -4   4    3.03    0.46
   5  -4   4    3.37    0.39
   5  -4   4    3.03    0.27
  -6   4  -4   -0.22    0.28
   6  -4   4   -0.02    0.06
   6  -4   4    0.11    0.23
   6  -4   4    0.59    0.22
   6  -4   4    0.21    1.31
   6   3  -4    1.41    0.28
   6   3  -4    2.26    2.36
   6   3  -4    0.91    0.19
  -6  -3   4    0.76    0.32
  -6  -3   4    1.22    0.29
   5   3  -4    2.25    0.28
   5   3  -4    5.41    2.83
   5   3  -4    2.39    0.35
   5   3  -4    2.63    0.31
  -5  -3   4    2.29    0.25
   4   3  -4    0.09    0.18
   4   3  -4   -0.10    0.40
   4   3  -4   -1.57    3.10
   4   3  -4    0.21    0.17
   4   3  -4    0.27    0.20
   4   3  -4    0.19    0.10
  -4  -3   4    0.42    0.17
   3   3  -4    6.89    0.68
   3   3  -4    7.22    0.61
   3   3  -4    7.60    0.68
   3   3  -4    8.36    0.62
   3   3  -4    7.52    0.61
   3   3  -4    7.18    0.61
  -3  -3   4    7.90    0.62
  -3  -3   4    6.77    0.60
  -3  -3   4    7.51    0.60
  -3  -3   4    6.22    0.69
  -3  -3   4    7.67    0.64
   2   3  -4   -0.19    0.18
   2   3  -4   -0.08    0.08
   2   3  -4    0.00    0.05
   2   3  -4    0.03    0.06
   2   3  -4   -0.02    0.09
   2   3  -4   -0.18    0.11
  -2  -3   4    0.01    0.14
  -2  -3   4    0.05    0.04
  -2  -3   4    0.05    0.03
  -2  -3   4   -0.06    0.19
   1   3  -4   17.53    1.45
   1   3  -4   15.23    1.44
   1   3  -4   18.11    1.45
   1   3  -4   18.48    1.44
   1   3  -4   18.73    1.45
  -1  -3   4   17.23    1.45
  -1  -3   4   18.27    1.44
  -1  -3   4   19.78    1.44
  -1  -3   4   17.45    1.45
   0   3  -4    0.58    0.11
   0   3  -4    0.55    0.12
   0  -3   4    0.49    0.06
   0  -3   4    0.48    0.06
  -1   3  -4   14.23    1.20
  -1   3  -4   16.65    1.22
  -1   3  -4   15.11    1.21
   1  -3   4   13.85    1.19
   1  -3   4   14.25    1.19
  -2   3  -4    2.10    0.25
  -2   3  -4    2.45    0.29
  -2   3  -4    1.81    0.23
  -2   3  -4    2.27    0.29
   2  -3   4    2.22    0.34
   2  -3   4    1.77    0.17
  -3   3  -4    6.26    0.57
  -3   3  -4    6.04    0.55
  -3   3  -4    6.31    0.52
  -3   3  -4    4.91    0.51
  -3   3  -4    4.89    0.53
  -3   3  -4    5.77    0.55
   3  -3   4    5.79    0.56
  -4   3  -4    2.59    0.34
  -4   3  -4    2.00    0.45
  -4   3  -4    1.98    0.43
  -4   3  -4    1.79    0.31
  -4   3  -4    2.55    0.38
   4  -3   4    2.82    0.48
   4  -3   4    2.42    0.27
   4  -3   4    2.56    0.41
   4  -3   4    2.45    1.87
   4  -3   4    3.62    0.57
   4  -3   4    2.22    0.41
  -5   3  -4    2.81    0.38
  -5   3  -4    1.74    0.38
   5  -3   4    3.31    0.38
   5  -3   4    2.25    0.49
   5  -3   4    2.93    0.50
   5  -3   4    2.38    0.24
   5  -3   4    0.40    1.30
  -6   3  -4    0.07    0.30
  -6   3  -4    0.11    0.34
  -6   3  -4    1.13    0.28
   6  -3   4    0.70    0.34
   6  -3   4    0.47    1.12
   6  -3   4    0.63    0.21
   7   2  -4    3.54    2.45
   6   2  -4    2.86    2.64
   6   2  -4    0.00    0.29
   5   2  -4    7.23    0.74
   5   2  -4    7.86    0.64
   4   2  -4    0.36    0.21
   4   2  -4    0.16    0.10
   4   2  -4    0.21    0.08
   4   2  -4   -0.01    0.13
   4   2  -4    0.19    0.19
   4   2  -4    0.19    0.18
  -4  -2   4    0.05    0.05
   3   2  -4   12.68    1.00
   3   2  -4   12.59    1.00
   3   2  -4   11.94    1.00
   3   2  -4   10.40    1.04
   3   2  -4   11.30    1.00
   3   2  -4   13.66    1.00
  -3  -2   4   10.90    1.04
  -3  -2   4   12.62    1.00
  -3  -2   4   12.92    0.99
  -3  -2   4   13.49    1.01
   2   2  -4    1.07    0.14
   2   2  -4    0.77    0.15
   2   2  -4    1.11    0.12
   2   2  -4    1.15    0.11
   2   2  -4    0.60    0.18
   2   2  -4    1.08    0.17
  -2  -2   4    1.07    0.10
  -2  -2   4    1.15    0.18
  -2  -2   4    1.14    0.10
   1   2  -4    5.51    0.46
   1   2  -4    5.84    0.46
   1   2  -4    5.09    0.45
   1   2  -4    5.47    0.47
   1   2  -4    5.52    0.45
  -1  -2   4    5.58    0.48
  -1  -2   4    5.19    0.46
  -1  -2   4    5.50    0.44
  -1  -2   4    5.40    0.45
   0   2  -4    5.81    0.43
   0   2  -4    4.76    0.42
   0   2  -4    4.66    0.44
   0   2  -4    4.67    0.42
   0   2  -4    5.01    0.46
   0  -2   4    5.10    0.41
   0  -2   4    5.58    0.42
  -1   2  -4    0.15    0.10
  -1   2  -4    0.13    0.17
  -1   2  -4    0.23    0.10
  -1   2  -4    0.14    0.08
   1  -2   4    0.82    0.23
   1  -2   4    0.23    0.04
   1  -2   4    0.31    0.05
  -2   2  -4    6.70    0.56
  -2   2  -4    6.78    0.53
  -2   2  -4    6.46    0.58
  -2   2  -4    5.33    0.56
  -2   2  -4    6.30    0.54
  -2   2  -4    5.57    0.53
   2  -2   4    5.86    0.58
   2  -2   4    5.73    0.55
  -3   2  -4    0.14    0.11
  -3   2  -4    0.71    0.60
  -3   2  -4    0.56    0.26
  -3   2  -4    0.31    0.28
  -3   2  -4    0.02    0.58
  -3   2  -4    0.35    0.16
  -3   2  -4    0.19    0.29
   3  -2   4    0.24    1.54
   3  -2   4    0.30    0.16
   3  -2   4   -0.07    0.22
   3  -2   4    0.74    0.28
   3  -2   4    0.36    0.11
  -4   2  -4    2.66    0.39
  -4   2  -4    3.12    0.48
  -4   2  -4    4.05    0.50
  -4   2  -4    3.31    0.42
   4  -2   4    3.93    0.47
   4  -2   4    3.51    0.31
   4  -2   4    3.45    0.51
   4  -2   4    2.69    1.65
   4  -2   4    2.53    0.38
  -5   2  -4    0.18    0.30
  -5   2  -4    0.27    0.36
  -5   2  -4   -0.08    0.34
  -5   2  -4    0.36    0.15
   5  -2   4    0.21    0.07
   5  -2   4    0.72    0.48
   5  -2   4   -0.04    1.03
   5  -2   4   -0.20    0.26
  -6   2  -4    0.88    0.26
   6  -2   4    0.55    0.18
   6  -2   4    0.99    0.11
   6  -2   4    0.85    0.33
   6  -2   4    0.44    1.04
   7   1  -4    1.95    0.40
   7   1  -4    4.62    2.64
   6   1  -4    0.46    0.33
   6   1  -4    3.11    3.00
   6   1  -4    0.12    0.32
  -6  -1   4    0.22    0.20
   5   1  -4    2.86    0.42
   5   1  -4    3.45    0.47
   5   1  -4    3.44    0.30
  -5  -1   4    3.24    0.29
   4   1  -4    0.34    0.32
   4   1  -4    0.12    0.18
   4   1  -4   -0.15    0.17
   4   1  -4    0.05    0.03
   4   1  -4   -0.03    0.06
   4   1  -4    0.08    0.09
  -4  -1   4   -0.02    0.05
  -4  -1   4    0.02    0.06
   3   1  -4    1.14    0.11
   3   1  -4    1.03    0.11
   3   1  -4    0.98    0.09
   3   1  -4    1.16    0.14
   3   1  -4    0.58    0.17
  -3  -1   4    1.04    0.11
   2   1  -4    0.28    0.06
   2   1  -4    0.28    0.14
   2   1  -4    0.19    0.05
   2   1  -4    0.20    0.03
   2   1  -4    0.27    0.08
  -2  -1   4    0.26    0.05
  -2  -1   4    0.15    0.04
  -2  -1   4    0.49    0.17
   1   1  -4    1.26    0.13
   1   1  -4    1.43    0.15
   1   1  -4    1.26    0.13
  -1  -1   4    1.54    0.13
  -1  -1   4    1.28    0.13
  -1  -1   4    1.60    0.21
   0   1  -4    0.59    0.12
   0   1  -4    0.36    0.06
   0   1  -4    0.30    0.06
   0  -1   4    0.42    0.06
   0  -1   4    0.31    0.04
  -1   1  -4    4.67    0.39
  -1   1  -4    4.10    0.40
  -1   1  -4    4.51    0.42
  -1   1  -4    5.50    0.45
  -1   1  -4    5.66    0.42
   1  -1   4    4.65    0.39
   1  -1   4    4.93    0.40
   1  -1   4    4.60    0.39
   1  -1   4    4.46    0.43
  -2   1  -4    0.31    0.28
  -2   1  -4    0.11    0.10
  -2   1  -4    0.22    0.16
  -2   1  -4   -0.40    0.28
  -2   1  -4    0.32    0.56
  -2   1  -4    0.36    0.21
  -2   1  -4    0.12    0.16
   2  -1   4    0.47    0.44
   2  -1   4    0.17    0.16
   2  -1   4    0.03    0.05
  -3   1  -4    2.49    0.40
  -3   1  -4    2.22    0.39
  -3   1  -4    3.28    0.54
  -3   1  -4    2.33    0.27
  -3   1  -4    2.58    0.33
  -3   1  -4    2.88    0.38
  -3   1  -4    2.23    0.50
   3  -1   4    2.11    0.50
   3  -1   4   -0.40    1.78
   3  -1   4    1.79    0.31
   3  -1   4    2.44    0.25
  -4   1  -4    0.00    0.21
  -4   1  -4    0.03    0.14
  -4   1  -4    0.26    0.32
  -4   1  -4    0.09    0.44
  -4   1  -4   -0.22    0.76
  -4   1  -4    0.25    0.36
   4  -1   4    0.35    0.20
   4  -1   4    0.02    0.25
   4  -1   4    0.31    0.43
   4  -1   4    0.38    0.27
   4  -1   4    0.51    1.34
  -5   1  -4   -0.13    0.37
  -5   1  -4    0.08    0.30
  -5   1  -4    0.45    0.30
  -5   1  -4    0.15    0.20
   5  -1   4    0.46    0.22
   5  -1   4    1.17    0.50
   5  -1   4    0.50    0.09
   5  -1   4    1.02    0.26
   5  -1   4   -0.39    1.29
   6   0  -4   -0.04    0.33
   6   0  -4   -0.15    0.13
   6   0  -4    0.14    0.18
   6   0  -4    0.04    0.29
   5   0  -4    0.11    0.08
   5   0  -4    0.01    0.22
   5   0  -4    0.06    0.03
   5   0  -4    0.13    0.17
  -5   0   4   -0.11    0.06
  -5   0   4   -0.05    0.10
   4   0  -4    3.64    0.35
   4   0  -4    4.69    0.35
   4   0  -4    4.55    0.34
  -4   0   4    3.94    0.35
  -4   0   4    4.20    0.36
   3   0  -4    1.37    0.13
   3   0  -4    1.28    0.10
   3   0  -4    0.79    0.17
   3   0  -4    1.25    0.12
  -3   0   4    1.21    0.13
  -3   0   4    1.05    0.21
  -3   0   4    0.96    0.12
   2   0  -4   21.07    1.69
   2   0  -4   21.35    1.69
   2   0  -4   21.80    1.69
  -2   0   4   17.59    1.69
  -2   0   4   20.84    1.69
  -2   0   4   23.21    1.70
   1   0  -4    4.00    0.37
   1   0  -4    4.81    0.43
   1   0  -4    4.53    0.36
   1   0  -4    4.32    0.37
   1   0  -4    4.76    0.39
  -1   0   4    4.35    0.37
  -1   0   4    4.33    0.37
  -1   0   4    4.97    0.37
   0   0  -4   22.52    1.72
   0   0  -4   20.92    1.73
   0   0  -4   21.35    1.72
   0   0   4   20.97    1.72
   0   0   4   20.33    1.72
   0   0   4   21.87    1.72
  -1   0  -4    2.58    0.22
  -1   0  -4    2.85    0.30
  -1   0  -4    2.54    0.26
   1   0   4    2.10    0.23
   1   0   4    2.33    0.22
  -2   0  -4    5.55    0.55
  -2   0  -4    7.46    0.58
  -2   0  -4    6.23    0.63
  -2   0  -4    5.94    0.64
  -2   0  -4    6.16    0.67
   2   0   4    7.45    0.57
   2   0   4    6.72    0.55
   2   0   4    7.51    0.59
  -3   0  -4    1.08    0.40
  -3   0  -4    0.95    0.44
  -3   0  -4    0.35    0.16
  -3   0  -4   -0.57    0.43
  -3   0  -4   -0.01    0.33
   3   0   4    0.33    0.19
   3   0   4    0.22    1.73
   3   0   4    0.62    0.36
   3   0   4    0.37    0.48
   3   0   4    0.57    0.27
  -4   0  -4    1.43    0.23
  -4   0  -4    0.81    0.48
  -4   0  -4    1.09    0.39
   4   0   4    0.87    0.29
   4   0   4    1.56    0.16
   4   0   4    0.36    1.29
   4   0   4    1.95    0.40
  -5   0  -4   -0.24    0.28
  -5   0  -4   -0.47    0.28
  -5   0  -4    0.35    0.37
   5   0   4    0.24    1.21
   5   0   4    0.20    0.21
   5   0   4    0.13    0.38
   5   0   4    0.08    0.23
   6  -1  -4    8.17    0.62
   6  -1  -4    7.08    0.68
   6  -1  -4    7.76    0.69
  -6   1   4    7.47    0.65
   5  -1  -4    2.89    0.26
   5  -1  -4    2.60    0.34
   5  -1  -4    2.85    0.23
  -5   1   4    2.46    0.29
   4  -1  -4   30.96    2.29
   4  -1  -4   24.14    2.29
   4  -1  -4   30.49    2.29
  -4   1   4   28.22    2.30
   3  -1  -4    2.79    0.35
   3  -1  -4    3.45    0.27
   3  -1  -4    3.41    0.34
   3  -1  -4    3.11    0.28
   3  -1  -4    3.48    0.28
  -3   1   4    3.16    0.29
   2  -1  -4   58.26    4.40
   2  -1  -4   56.95    4.41
   2  -1  -4   53.33    4.42
   2  -1  -4   56.46    4.39
   2  -1  -4   49.72    4.40
  -2   1   4   59.62    4.41
  -2   1   4   47.43    4.40
  -2   1   4   58.87    4.40
  -2   1   4   51.96    4.39
   1  -1  -4    3.29    0.28
   1  -1  -4    3.62    0.27
   1  -1  -4    3.46    0.34
   1  -1  -4    3.08    0.28
  -1   1   4    3.12    0.28
  -1   1   4    3.29    0.28
  -1   1   4    3.17    0.29
  -1   1   4    2.96    0.29
  -1   1   4    3.68    0.28
   0  -1  -4   25.33    2.07
   0  -1  -4   28.40    2.05
   0  -1  -4   22.62    2.06
   0   1   4   24.26    2.06
   0   1   4   26.80    2.05
  -1  -1  -4    1.98    0.35
  -1  -1  -4    2.34    0.29
  -1  -1  -4    2.04    0.20
   1   1   4    1.94    0.22
   1   1   4    2.14    0.21
  -2  -1  -4    6.90    0.74
  -2  -1  -4    5.34    0.57
   2   1   4    6.28    0.54
   2   1   4    6.19    0.52
  -3  -1  -4    1.13    0.73
  -3  -1  -4    0.99    0.25
  -3  -1  -4    1.44    0.43
   3   1   4    0.76    1.89
   3   1   4    1.62    0.17
   3   1   4    1.01    0.24
  -4  -1  -4    0.89    0.30
  -4  -1  -4    0.84    0.45
  -4  -1  -4    0.53    0.23
  -4  -1  -4   -0.12    0.45
   4   1   4    1.01    1.66
   7  -2  -4    0.13    0.15
   6  -2  -4    3.41    0.49
   6  -2  -4    3.27    0.37
   6  -2  -4    3.26    0.52
   6  -2  -4    3.79    0.30
   6  -2  -4    3.78    0.39
   5  -2  -4    0.11    0.14
   5  -2  -4   -0.01    0.02
   5  -2  -4   -0.04    0.03
   5  -2  -4   -0.04    0.18
  -5   2   4   -0.02    0.15
   4  -2  -4    7.84    0.66
   4  -2  -4    8.31    0.61
   4  -2  -4    7.21    0.66
   4  -2  -4    6.74    0.62
   4  -2  -4    6.56    0.69
   4  -2  -4    7.65    0.61
  -4   2   4    7.32    0.62
  -4   2   4    8.13    0.64
   3  -2  -4    0.15    0.09
   3  -2  -4    0.00    0.04
   3  -2  -4    0.07    0.03
   3  -2  -4    0.26    0.12
   3  -2  -4   -0.03    0.16
  -3   2   4    0.08    0.06
  -3   2   4   -0.02    0.10
  -3   2   4   -0.10    0.12
  -3   2   4    0.35    0.41
   2  -2  -4    9.81    0.82
   2  -2  -4    8.21    0.79
   2  -2  -4    9.31    0.78
   2  -2  -4   10.58    0.79
  -2   2   4   10.78    0.89
  -2   2   4    9.83    0.78
  -2   2   4    8.55    0.79
  -2   2   4   10.47    0.80
   1  -2  -4    0.47    0.14
   1  -2  -4    0.29    0.06
   1  -2  -4    0.51    0.10
  -1   2   4    0.37    0.10
   0  -2  -4    4.47    0.36
   0  -2  -4    4.34    0.43
   0   2   4    5.37    0.68
   0   2   4    3.48    0.37
   0   2   4    4.02    0.36
  -1  -2  -4   -0.03    0.73
  -1  -2  -4    0.99    0.17
  -1  -2  -4    0.66    0.20
   1   2   4    1.31    0.18
  -2  -2  -4   -0.11    0.45
  -2  -2  -4    0.38    0.57
  -2  -2  -4    0.52    0.15
  -2  -2  -4    0.53    0.26
  -2  -2  -4    1.02    0.74
  -2  -2  -4    0.67    0.47
   2   2   4    0.95    0.18
  -3  -2  -4    1.15    0.35
  -3  -2  -4    0.89    0.26
   3   2   4    0.86    0.23
  -4  -2  -4   -0.26    0.49
   4   2   4    0.99    0.38
   7  -3  -4    2.93    0.48
   7  -3  -4    3.74    0.34
   7  -3  -4    4.19    0.37
   7  -3  -4    2.76    0.53
   6  -3  -4    0.10    0.33
   6  -3  -4    0.83    0.38
   6  -3  -4    0.49    0.15
   6  -3  -4    0.85    0.14
   6  -3  -4    1.02    0.31
   6  -3  -4    0.48    0.07
   6  -3  -4    0.48    0.24
   5  -3  -4    7.66    0.67
   5  -3  -4    7.27    0.64
   5  -3  -4    7.48    0.58
   5  -3  -4    6.93    0.58
  -5   3   4    6.67    0.64
   4  -3  -4    0.19    0.15
   4  -3  -4   -0.15    0.13
  -4   3   4    0.24    0.54
  -4   3   4   -0.13    0.15
  -4   3   4    0.66    0.33
   3  -3  -4    7.02    0.65
   3  -3  -4    7.37    0.60
   3  -3  -4    7.40    0.59
  -3   3   4    7.82    0.60
  -3   3   4    6.98    0.61
  -3   3   4    7.47    0.82
  -3   3   4    7.26    0.64
   2  -3  -4    0.93    0.08
   2  -3  -4    0.88    0.17
  -2   3   4    0.88    0.38
  -2   3   4    1.23    0.66
  -2   3   4    0.83    0.13
  -2   3   4    0.83    0.11
   1  -3  -4    3.27    0.37
   1  -3  -4    3.32    0.28
  -1   3   4    2.41    0.32
  -1   3   4    2.96    0.28
   0  -3  -4    3.11    0.40
   0  -3  -4    2.78    0.30
   0   3   4    2.98    0.30
   0   3   4    3.21    0.63
  -1  -3  -4    1.44    1.03
  -1  -3  -4    1.30    0.30
  -1  -3  -4    0.42    0.61
  -1  -3  -4    0.27    0.51
   1   3   4    1.92    0.29
  -2  -3  -4    1.16    0.80
  -2  -3  -4    2.07    0.34
   2   3   4    2.85    0.35
  -3  -3  -4    0.06    0.39
  -3  -3  -4   -0.28    0.59
   3   3   4    0.60    0.21
   8  -4  -4   21.42    1.70
   8  -4  -4   20.39    1.72
   7  -4  -4   -0.06    0.37
   7  -4  -4    0.07    0.09
   7  -4  -4    0.03    0.13
   7  -4  -4   -0.28    0.29
   7  -4  -4   -0.30    0.26
   7  -4  -4   -0.04    0.29
   6  -4  -4   39.60    3.39
   6  -4  -4   43.45    3.46
   6  -4  -4   37.66    3.42
   6  -4  -4   44.13    3.41
   6  -4  -4   46.39    3.42
   6  -4  -4   41.96    3.43
   5  -4  -4   -0.18    0.83
   5  -4  -4   -0.04    0.26
   5  -4  -4    0.02    0.03
   5  -4  -4    0.83    0.43
   5  -4  -4   -0.17    0.10
   5  -4  -4   -0.05    0.19
   5  -4  -4   -0.05    0.12
   5  -4  -4    0.68    0.28
  -5   4   4    0.05    0.60
  -5   4   4   -0.21    0.44
   4  -4  -4   70.87    5.77
   4  -4  -4   71.19    5.70
   4  -4  -4   77.67    5.72
   4  -4  -4   66.45    5.71
   4  -4  -4   74.75    5.70
   4  -4  -4   60.65    5.73
  -4   4   4   74.34    5.77
  -4   4   4   77.33    5.70
  -4   4   4   65.24    5.75
   3  -4  -4    0.01    0.03
   3  -4  -4   -0.10    0.13
   3  -4  -4   -0.13    0.15
  -3   4   4    0.01    0.18
  -3   4   4    0.14    0.14
  -3   4   4   -0.25    0.39
  -3   4   4   -0.03    0.11
  -3   4   4   -0.04    0.73
   2  -4  -4  104.95    8.45
   2  -4  -4  108.04    8.43
  -2   4   4  111.77    8.45
  -2   4   4  101.54    8.44
  -2   4   4   98.67    8.45
   1  -4  -4   -0.20    0.19
   1  -4  -4    0.12    0.14
   1  -4  -4    0.98    0.70
   1  -4  -4    0.19    0.50
  -1   4   4    0.10    0.13
   0  -4  -4   78.61    6.25
   0   4   4   76.11    6.23
  -1  -4  -4    0.00    0.29
  -1  -4  -4   -0.16    0.51
   1   4   4    0.28    0.18
   1   4   4    0.41    0.48
  -2  -4  -4   23.22    1.86
  -2  -4  -4   18.76    1.82
   8  -5  -4    1.46    0.26
   8  -5  -4    1.55    0.18
   8  -5  -4    1.21    0.25
   8  -5  -4    1.21    0.14
   7  -5  -4    2.69    0.47
   7  -5  -4    2.97    0.40
   7  -5  -4    3.53    0.33
   7  -5  -4    3.31    0.41
   7  -5  -4    3.92    0.47
   7  -5  -4    3.93    0.30
   7  -5  -4    3.02    0.73
   6  -5  -4    3.67    0.36
   6  -5  -4    3.40    0.43
   6  -5  -4    4.03    0.46
   6  -5  -4    4.10    0.53
   6  -5  -4    3.64    0.56
   6  -5  -4    3.79    0.34
  -6   5   4    4.96    0.59
   5  -5  -4    2.68    0.45
   5  -5  -4    2.27    0.23
   5  -5  -4    2.40    0.25
   5  -5  -4    2.75    0.39
   5  -5  -4    1.95    0.19
   5  -5  -4    2.19    0.34
   5  -5  -4    1.98    0.41
  -5   5   4    2.78    0.41
   4  -5  -4    7.09    0.55
   4  -5  -4    5.82    0.63
   4  -5  -4    5.32    0.77
   4  -5  -4    6.23    0.51
   4  -5  -4    6.51    0.53
   4  -5  -4    7.24    0.61
  -4   5   4    5.28    0.68
  -4   5   4    4.71    0.90
   3  -5  -4    1.38    0.46
   3  -5  -4    0.99    0.15
   3  -5  -4    0.83    0.22
   3  -5  -4   -0.29    0.64
  -3   5   4    0.74    0.43
   2  -5  -4    6.09    0.60
   2  -5  -4    5.83    0.56
   2  -5  -4    5.02    0.79
  -2   5   4    5.46    0.55
  -2   5   4    5.93    0.62
   1  -5  -4   -0.42    0.59
   1  -5  -4    0.57    0.51
   1  -5  -4    0.40    0.34
   1  -5  -4    0.64    0.26
  -1   5   4    0.59    0.20
   0  -5  -4    3.08    1.10
   0   5   4    2.11    0.38
  -1  -5  -4    0.68    0.65
  -1  -5  -4    0.97    0.50
   1   5   4    0.47    0.24
   8  -6  -4    0.56    0.14
  -8   6   4    0.38    0.24
  -8   6   4    0.15    0.31
   7  -6  -4    0.56    0.23
   7  -6  -4    0.64    0.10
   7  -6  -4    0.73    0.23
   7  -6  -4    0.60    0.24
   7  -6  -4    1.01    0.57
   7  -6  -4    0.49    0.26
   7  -6  -4    0.73    0.14
  -7   6   4    0.28    0.37
  -7   6   4    0.84    0.35
   6  -6  -4    0.39    0.23
   6  -6  -4    0.37    0.12
   6  -6  -4   -0.43    0.63
   6  -6  -4    0.18    0.07
   6  -6  -4    0.62    0.26
   6  -6  -4    0.35    0.24
   6  -6  -4    0.33    0.25
  -6   6   4    0.59    0.39
  -6   6   4    0.47    0.35
  -6   6   4    0.07    0.18
   5  -6  -4    2.74    0.40
   5  -6  -4    2.92    0.25
   5  -6  -4    2.93    0.49
   5  -6  -4    1.40    0.67
   5  -6  -4    2.34    0.34
   5  -6  -4    2.78    0.29
   5  -6  -4    2.56    0.35
  -5   6   4    2.87    0.50
   4  -6  -4    0.29    0.23
   4  -6  -4    0.41    0.23
   4  -6  -4    0.28    0.13
   4  -6  -4    0.21    0.38
   4  -6  -4    0.35    0.09
   4  -6  -4   -0.01    0.60
  -4   6   4    0.42    0.46
  -4   6   4    0.89    0.34
   3  -6  -4    3.50    0.61
   3  -6  -4    3.71    0.41
   3  -6  -4    3.90    0.34
  -3   6   4    4.35    0.49
   2  -6  -4    0.41    0.20
   2  -6  -4    0.10    0.23
   2  -6  -4    0.44    0.51
  -2   6   4    0.83    0.47
   1  -6  -4    1.46    0.28
   1  -6  -4    1.35    0.50
   0  -6  -4    0.11    0.43
   7  -7  -4    1.47    0.19
   7  -7  -4    1.27    0.25
   7  -7  -4    1.61    0.39
   7  -7  -4    1.88    0.16
   7  -7  -4    1.79    0.14
  -7   7   4    1.07    0.25
  -7   7   4    1.03    0.30
  -7   7   4    1.38    0.30
  -7   7   4    1.62    0.17
   6  -7  -4    0.36    0.45
   6  -7  -4   -0.10    0.25
   6  -7  -4    0.38    0.21
   6  -7  -4    0.17    0.06
   6  -7  -4    0.06    0.21
   6  -7  -4    0.19    0.09
  -6   7   4    0.80    0.35
  -6   7   4   -0.01    0.30
  -6   7   4    0.31    0.10
  -6   7   4    0.14    0.26
   5  -7  -4    2.47    0.45
   5  -7  -4    2.65    0.21
   5  -7  -4    1.86    0.33
   5  -7  -4    1.17    0.59
   5  -7  -4    2.00    0.31
   5  -7  -4    2.28    0.23
  -5   7   4    2.06    0.38
  -5   7   4    2.47    0.26
   4  -7  -4    0.23    0.32
   4  -7  -4   -0.21    0.24
   4  -7  -4    0.03    0.19
   4  -7  -4   -0.02    0.07
   4  -7  -4    0.26    0.51
  -4   7   4    0.24    0.38
  -4   7   4    0.11    0.08
   3  -7  -4    1.17    0.50
  -3   7   4    1.32    0.42
   2  -7  -4    0.45    0.42
  -2   7   4    0.86    0.39
   1   8  -5    0.76    0.21
  -1  -8   5    0.87    0.23
  -1  -8   5    1.06    1.17
   0   8  -5    0.63    0.13
   0   8  -5    0.63    0.26
   0   8  -5    0.35    0.17
   0   8  -5    0.59    0.27
   0  -8   5    0.77    0.24
   0  -8   5   -0.23    1.29
  -1   8  -5    0.52    0.13
  -1   8  -5    0.70    0.16
  -1   8  -5    0.18    0.23
   1  -8   5    0.46    1.73
   1  -8   5    0.84    0.26
  -2   8  -5   -0.02    0.16
  -2   8  -5    0.11    0.14
   2  -8   5    0.22    1.53
   2  -8   5    0.07    0.26
  -3   8  -5   -0.13    0.13
  -3   8  -5    0.15    0.15
   3  -8   5   -0.21    0.22
   3   7  -5    0.01    0.11
   3   7  -5    0.17    0.17
   3   7  -5    0.25    1.79
  -3  -7   5   -0.96    1.97
   2   7  -5    0.10    0.23
   2   7  -5    0.19    0.21
   2   7  -5   -0.03    0.12
   2   7  -5   -0.14    2.34
  -2  -7   5    1.94    2.82
  -2  -7   5   -0.09    0.25
   1   7  -5    3.22    2.67
  -1  -7   5    1.79    2.96
   0   7  -5   -0.02    0.23
   0   7  -5    0.03    0.10
   0   7  -5    0.22    0.17
   0   7  -5    0.14    0.12
   0   7  -5    1.45    2.73
   0   7  -5    0.17    0.26
   0  -7   5    0.28    1.56
   0  -7   5    0.25    0.29
  -1   7  -5    1.42    0.26
  -1   7  -5    1.58    0.21
  -1   7  -5    1.15    0.18
   1  -7   5    0.30    1.72
   1  -7   5    1.33    0.32
  -2   7  -5    0.18    0.16
  -2   7  -5    0.21    0.17
  -2   7  -5   -0.06    0.17
   2  -7   5    0.51    0.30
   2  -7   5   -0.25    1.86
  -3   7  -5    1.16    0.25
  -3   7  -5    1.95    0.31
   3  -7   5    2.04    0.42
   3  -7   5   -2.00    1.68
  -4   7  -5    0.29    0.23
   4  -7   5    0.30    0.24
   4  -7   5    0.43    1.68
   4   6  -5    1.18    0.17
   4   6  -5    0.13    2.02
   4   6  -5    1.45    0.27
  -4  -6   5    1.21    0.22
   3   6  -5    0.55    0.23
   3   6  -5    0.44    0.13
   3   6  -5   -1.77    2.12
  -3  -6   5   -0.03    0.18
  -3  -6   5    0.68    0.29
   2   6  -5    1.95    0.26
   2   6  -5    2.26    0.24
   2   6  -5    1.75    0.30
   2   6  -5    0.00    2.59
   2   6  -5    2.92    0.39
  -2  -6   5    2.73    0.43
  -2  -6   5    2.80    0.30
  -2  -6   5    2.74    0.40
   1   6  -5    1.30    0.37
   1   6  -5    1.62    0.22
   1   6  -5    1.82    3.21
   1   6  -5    1.39    0.27
   1   6  -5    1.50    0.21
   1   6  -5    1.73    0.27
  -1  -6   5   -2.26    3.63
  -1  -6   5    1.79    0.35
   0   6  -5    1.25    0.29
   0   6  -5   -3.58    3.41
   0   6  -5    1.54    0.32
   0   6  -5    1.45    0.23
   0  -6   5    2.10    0.29
   0  -6   5    1.49    0.14
   0  -6   5    0.79    3.69
  -1   6  -5    3.74    0.35
  -1   6  -5    3.24    0.41
  -1   6  -5    3.51    0.41
   1  -6   5    2.96    0.46
   1  -6   5    3.36    0.28
   1  -6   5   -0.79    1.97
  -2   6  -5    1.51    0.30
  -2   6  -5    1.25    0.21
  -2   6  -5    1.04    0.20
   2  -6   5    0.21    2.07
   2  -6   5    1.37    0.28
  -3   6  -5    2.81    0.36
  -3   6  -5    2.09    0.32
   3  -6   5    0.62    1.89
   3  -6   5    2.61    0.45
  -4   6  -5    1.34    0.31
   4  -6   5    2.08    0.42
   4  -6   5    0.45    1.68
   5  -6   5   -0.59    1.08
   5  -6   5    0.83    0.11
   5   5  -5   -0.63    2.03
   5   5  -5    1.57    0.27
   4   5  -5    0.85    0.24
   4   5  -5   -0.78    2.32
   4   5  -5    0.57    0.27
   4   5  -5    0.14    0.13
  -4  -5   5    0.55    0.19
  -4  -5   5    0.43    0.29
  -4  -5   5    0.98    0.23
  -4  -5   5    0.50    0.23
   3   5  -5    9.65    0.83
   3   5  -5    8.83    0.75
   3   5  -5    7.55    0.81
  -3  -5   5    8.69    0.77
  -3  -5   5    9.34    0.78
  -3  -5   5    9.98    0.85
  -3  -5   5    9.13    0.76
   2   5  -5    0.19    0.31
   2   5  -5    0.47    3.26
   2   5  -5    0.00    0.10
   2   5  -5    0.14    0.13
   2   5  -5    0.12    0.17
   2   5  -5    0.27    0.16
   2   5  -5    0.53    0.33
  -2  -5   5   -0.32    0.25
  -2  -5   5   -0.10    0.21
  -2  -5   5    0.20    0.24
  -2  -5   5   -0.05    0.23
   1   5  -5   13.71    1.21
   1   5  -5   15.05    1.24
   1   5  -5   14.50    1.20
   1   5  -5   13.34    1.29
  -1  -5   5   15.23    1.19
  -1  -5   5   14.97    1.24
  -1  -5   5   16.34    1.25
   0   5  -5    0.20    0.23
   0   5  -5    0.04    0.19
   0   5  -5   -3.16    3.71
   0   5  -5   -0.02    0.15
   0   5  -5    0.05    0.14
   0   5  -5    0.01    0.12
   0  -5   5   -0.18    3.97
   0  -5   5   -0.21    0.18
   0  -5   5    0.09    0.22
   0  -5   5    0.04    0.03
  -1   5  -5   16.51    1.46
  -1   5  -5   18.02    1.45
  -1   5  -5   18.83    1.47
  -1   5  -5   19.11    1.46
   1  -5   5   16.20    1.42
   1  -5   5   17.32    1.48
  -2   5  -5    0.50    0.29
  -2   5  -5   -0.14    0.17
  -2   5  -5    0.08    0.27
  -2   5  -5    0.08    0.15
   2  -5   5    0.20    1.99
   2  -5   5    0.12    0.22
  -3   5  -5   11.05    0.95
  -3   5  -5   11.11    0.91
  -3   5  -5    9.31    0.94
   3  -5   5    9.94    0.88
   3  -5   5   11.97    0.95
  -4   5  -5    0.78    0.33
   4  -5   5    1.39    0.30
   4  -5   5    0.76    0.15
   4  -5   5   -0.05    1.54
   5  -5   5    5.33    0.54
   5  -5   5    4.69    0.41
   6   4  -5    0.31    0.19
   6   4  -5    0.22    0.27
   6   4  -5    0.43    1.75
  -6  -4   5    0.34    0.20
  -6  -4   5    0.38    0.18
   5   4  -5    0.14    2.33
   5   4  -5    0.48    0.15
   5   4  -5    0.43    0.24
   5   4  -5    0.33    0.32
  -5  -4   5   -0.09    0.26
  -5  -4   5    0.41    0.19
   4   4  -5    0.81    0.18
   4   4  -5    1.19    2.92
   4   4  -5    0.65    0.29
   4   4  -5    1.06    0.26
   4   4  -5    1.27    0.23
  -4  -4   5    1.16    0.25
  -4  -4   5    1.11    0.21
  -4  -4   5    0.62    0.29
  -4  -4   5    0.58    0.30
  -4  -4   5    1.37    0.21
   3   4  -5    0.07    0.23
   3   4  -5    0.04    0.14
   3   4  -5    0.01    0.19
   3   4  -5   -0.02    0.16
   3   4  -5    0.04    0.11
   3   4  -5   -0.01    0.33
   3   4  -5   -0.01    0.11
   3   4  -5    1.42    3.45
  -3  -4   5    0.03    0.27
  -3  -4   5   -0.06    0.33
  -3  -4   5   -0.07    0.16
  -3  -4   5    0.13    0.16
  -3  -4   5   -0.04    0.04
  -3  -4   5    0.39    0.23
   2   4  -5    2.21    0.34
   2   4  -5    1.86    4.09
   2   4  -5    2.32    0.25
   2   4  -5    2.43    0.26
   2   4  -5    2.62    0.27
  -2  -4   5    2.37    0.21
  -2  -4   5    2.91    0.30
  -2  -4   5    2.61    0.28
  -2  -4   5    2.43    0.31
  -2  -4   5    2.47    0.22
  -2  -4   5    2.61    0.41
   1   4  -5   -0.01    0.15
   1   4  -5    0.14    0.11
   1   4  -5    0.07    0.12
   1   4  -5    0.30    0.16
  -1  -4   5    0.36    0.19
  -1  -4   5   -0.07    0.22
  -1  -4   5    0.07    0.03
  -1  -4   5    0.00    0.05
   0   4  -5    2.61    0.29
   0   4  -5    3.27    0.33
   0   4  -5    2.69    0.31
   0   4  -5    2.21    0.29
   0  -4   5    2.59    0.22
   0  -4   5    2.47    0.22
   0  -4   5    2.77    0.39
  -1   4  -5    1.88    0.30
  -1   4  -5    2.34    0.27
  -1   4  -5    2.45    0.32
  -1   4  -5    1.62    0.26
   1  -4   5    1.76    0.18
   1  -4   5    1.95    0.27
   1  -4   5    2.02    0.17
  -2   4  -5    0.93    0.37
  -2   4  -5    0.10    0.26
  -2   4  -5    0.38    0.16
   2  -4   5   -0.46    1.81
   2  -4   5    0.56    0.21
  -3   4  -5    6.48    0.60
  -3   4  -5    6.90    0.67
   3  -4   5    6.01    0.57
   3  -4   5    7.54    0.65
  -4   4  -5    0.14    0.44
  -4   4  -5    0.17    0.32
  -4   4  -5    0.32    0.16
  -4   4  -5    0.06    0.20
   4  -4   5    0.00    0.07
   4  -4   5    0.10    0.30
   4  -4   5   -0.42    1.28
  -5   4  -5    6.80    0.61
   5  -4   5    6.14    0.51
   5  -4   5    5.28    0.62
   6   3  -5    3.11    2.50
   6   3  -5    1.68    0.30
  -6  -3   5    1.90    0.27
   5   3  -5    2.47    0.31
   5   3  -5    3.16    0.48
   5   3  -5    2.10    0.41
  -5  -3   5    2.20    0.25
   4   3  -5    4.58    0.51
   4   3  -5    4.46    0.50
   4   3  -5    3.99    0.45
  -4  -3   5    4.72    0.40
  -4  -3   5    4.02    0.37
  -4  -3   5    4.79    0.42
   3   3  -5    4.35    0.35
   3   3  -5    3.79    0.45
   3   3  -5    3.87    0.37
  -3  -3   5    3.77    0.35
  -3  -3   5    4.06    0.34
  -3  -3   5    4.68    0.40
   2   3  -5    8.65    0.88
   2   3  -5   10.21    0.83
   2   3  -5    9.78    0.85
   2   3  -5   10.29    0.84
  -2  -3   5   11.02    0.85
  -2  -3   5   10.41    0.86
  -2  -3   5   10.31    0.83
  -2  -3   5   11.49    0.84
  -2  -3   5    9.45    0.83
   1   3  -5    1.36    0.15
   1   3  -5    1.38    0.23
   1   3  -5    1.33    0.20
   1   3  -5    1.20    0.22
   1   3  -5    1.40    0.19
   1   3  -5    1.25    0.14
  -1  -3   5    1.58    0.28
  -1  -3   5    1.39    0.13
  -1  -3   5    1.40    0.25
   0   3  -5   10.39    0.86
   0   3  -5   10.90    0.85
   0   3  -5    9.53    0.89
   0   3  -5    9.56    0.85
   0  -3   5   10.52    0.83
   0  -3   5   10.25    0.83
  -1   3  -5    0.35    0.16
  -1   3  -5    0.30    0.23
   1  -3   5    0.48    0.08
   1  -3   5    0.42    0.21
  -2   3  -5    6.05    0.63
   2  -3   5    1.08    2.08
   2  -3   5    5.35    0.49
   2  -3   5    5.50    0.56
  -3   3  -5    1.50    0.28
  -3   3  -5    2.04    0.39
  -3   3  -5    1.51    0.30
  -3   3  -5    2.19    0.45
   3  -3   5    1.53    1.55
   3  -3   5    1.68    0.21
   3  -3   5    2.35    0.40
  -4   3  -5    4.31    0.48
   4  -3   5    4.05    0.36
   4  -3   5    3.86    0.58
  -5   3  -5    1.69    0.36
   5  -3   5    1.46    0.15
   5  -3   5    1.18    0.25
   5  -3   5    0.15    1.15
   7   2  -5    2.31    2.37
   6   2  -5    7.00    3.03
   5   2  -5    0.69    0.19
   5   2  -5    0.79    0.31
   5   2  -5    1.08    0.17
   5   2  -5    0.68    0.23
   5   2  -5    0.68    0.33
   5   2  -5    6.25    3.70
   5   2  -5    1.12    0.30
  -5  -2   5    0.78    0.13
   4   2  -5    3.41    0.28
   4   2  -5    3.43    0.43
   4   2  -5    3.58    0.54
   4   2  -5    3.10    0.40
   4   2  -5    3.30    0.34
  -4  -2   5    3.30    0.30
  -4  -2   5    2.62    0.28
  -4  -2   5    2.82    0.27
  -4  -2   5    3.00    0.38
   3   2  -5    3.35    0.48
   3   2  -5    2.91    0.38
   3   2  -5    2.95    0.24
   3   2  -5    2.80    0.27
   3   2  -5    2.42    0.35
  -3  -2   5    2.64    0.30
  -3  -2   5    2.59    0.23
  -3  -2   5    2.40    0.23
  -3  -2   5    2.46    0.32
   2   2  -5    1.03    0.13
   2   2  -5    1.11    0.12
   2   2  -5    2.01    0.32
   2   2  -5    0.96    0.21
   2   2  -5    1.34    0.18
  -2  -2   5    1.15    0.12
  -2  -2   5    1.22    0.18
  -2  -2   5    1.24    0.24
  -2  -2   5    1.29    0.25
  -2  -2   5    1.09    0.11
   1   2  -5    5.35    0.41
   1   2  -5    4.49    0.38
  -1  -2   5    4.20    0.39
  -1  -2   5    4.56    0.46
  -1  -2   5    4.87    0.38
  -1  -2   5    4.33    0.39
   0   2  -5   -0.09    0.12
   0   2  -5   -0.01    0.05
   0   2  -5   -0.03    0.05
   0  -2   5    0.03    0.06
   0  -2   5    0.07    0.04
   0  -2   5    0.08    0.04
  -1   2  -5    2.49    0.27
  -1   2  -5    2.23    0.29
  -2   2  -5    0.02    0.44
  -2   2  -5    0.46    0.44
  -2   2  -5    0.08    0.12
  -2   2  -5    0.16    0.19
   2  -2   5    0.10    0.10
   2  -2   5    0.55    2.02
  -3   2  -5    1.17    0.21
  -3   2  -5    2.00    0.42
   3  -2   5    1.59    0.18
   3  -2   5    0.71    1.53
  -4   2  -5    0.21    0.16
  -4   2  -5    0.24    0.44
  -4   2  -5    0.04    0.31
  -4   2  -5    0.21    0.33
   4  -2   5   -0.48    0.28
   4  -2   5    0.11    0.06
   4  -2   5   -0.22    1.01
   4  -2   5    0.15    0.26
  -5   2  -5    0.04    0.30
  -5   2  -5    0.60    0.29
   5  -2   5   -0.05    1.02
   5  -2   5    0.45    0.07
   7   1  -5    0.18    0.24
   7   1  -5    0.06    0.32
   6   1  -5    0.30    0.31
   6   1  -5    0.51    0.21
   6   1  -5    0.13    0.28
   6   1  -5    0.41    0.16
   5   1  -5    0.72    0.19
   5   1  -5    0.73    0.15
   5   1  -5    0.74    0.21
   5   1  -5    0.53    0.26
   5   1  -5    0.51    0.26
   5   1  -5    0.81    0.31
  -5  -1   5    0.79    0.12
   4   1  -5    2.68    0.39
   4   1  -5    2.50    0.31
   4   1  -5    2.60    0.35
   4   1  -5    3.38    0.53
  -4  -1   5    2.80    0.24
  -4  -1   5    2.49    0.25
  -4  -1   5    3.10    0.28
   3   1  -5    5.06    0.54
   3   1  -5    6.20    0.47
   3   1  -5    5.86    0.49
  -3  -1   5    5.34    0.47
  -3  -1   5    5.50    0.46
  -3  -1   5    5.58    0.50
   2   1  -5   11.47    0.97
   2   1  -5   13.89    1.02
  -2  -1   5   12.61    0.97
  -2  -1   5   12.66    0.97
  -2  -1   5   10.08    0.98
  -2  -1   5   11.28    0.99
   1   1  -5   11.59    0.95
  -1  -1   5   12.97    0.95
  -1  -1   5   13.05    0.95
  -1  -1   5   10.72    0.99
  -1  -1   5   10.63    0.95
  -1  -1   5   11.07    0.95
   0   1  -5   12.10    0.96
   0   1  -5   10.44    0.97
   0   1  -5   11.55    0.94
   0  -1   5   11.64    0.94
   0  -1   5   12.02    0.94
  -1   1  -5    6.46    0.53
  -1   1  -5    5.18    0.53
  -1   1  -5    5.60    0.48
   1  -1   5    5.83    0.49
  -2   1  -5    5.18    0.63
  -2   1  -5    3.85    0.45
   2  -1   5    5.04    0.41
  -3   1  -5    1.56    0.31
   3  -1   5    2.11    0.20
   3  -1   5   -0.50    1.38
  -4   1  -5    1.19    0.34
  -4   1  -5    0.90    0.21
  -4   1  -5    0.61    0.69
   4  -1   5    0.09    1.21
   4  -1   5    1.19    0.13
   5  -1   5    0.31    0.90
   7   0  -5    0.41    0.37
   7   0  -5    0.42    0.24
   6   0  -5    0.79    0.52
   6   0  -5    0.09    0.27
   6   0  -5    0.06    0.13
   6   0  -5    0.39    0.15
   6   0  -5    0.24    0.33
   6   0  -5    0.15    0.18
  -6   0   5    0.15    0.09
   5   0  -5    1.00    0.21
   5   0  -5    0.65    0.25
   5   0  -5    0.75    0.25
   5   0  -5    0.73    0.30
   5   0  -5    0.77    0.18
  -5   0   5    1.03    0.14
   4   0  -5    0.30    0.17
   4   0  -5   -0.04    0.16
   4   0  -5    0.31    0.08
   4   0  -5    0.23    0.03
  -4   0   5    0.17    0.09
  -4   0   5   -0.01    0.24
  -4   0   5    0.21    0.06
   3   0  -5    4.78    0.51
   3   0  -5    5.15    0.43
   3   0  -5    5.59    0.43
   3   0  -5    4.47    0.49
  -3   0   5    5.35    0.44
  -3   0   5    5.38    0.44
  -3   0   5    5.54    0.49
   2   0  -5    0.27    0.06
   2   0  -5    0.42    0.17
   2   0  -5    0.28    0.07
   2   0  -5    0.34    0.05
  -2   0   5    0.59    0.30
  -2   0   5    0.27    0.06
  -2   0   5    0.49    0.08
  -2   0   5    0.45    0.09
  -2   0   5    0.39    0.06
   1   0  -5    5.41    0.43
   1   0  -5    5.22    0.45
   1   0  -5    4.81    0.50
  -1   0   5    5.13    0.43
  -1   0   5    4.72    0.43
  -1   0   5    5.69    0.43
  -1   0   5    4.80    0.45
   0   0  -5    0.24    0.15
   0   0  -5    0.08    0.07
   0   0   5    0.00    0.07
  -1   0  -5    0.71    0.17
  -1   0  -5    0.39    0.23
  -1   0  -5    0.39    0.10
   1   0   5    0.58    0.10
  -2   0  -5    0.08    0.47
  -2   0  -5   -0.31    0.44
  -2   0  -5   -0.08    0.20
  -2   0  -5    0.00    0.12
   2   0   5    0.15    0.33
   2   0   5    0.07    0.07
   2   0   5    0.09    0.15
   2   0   5    0.63    1.60
  -3   0  -5    0.38    0.39
  -3   0  -5    0.28    0.20
  -3   0  -5    0.00    0.31
   3   0   5   -0.29    1.30
   3   0   5    0.34    0.27
   3   0   5    0.16    0.07
  -4   0  -5    0.27    0.36
  -4   0  -5    0.25    0.22
  -4   0  -5   -0.29    0.27
   4   0   5   -1.08    1.51
   4   0   5    0.29    0.24
   7  -1  -5    0.51    0.26
   7  -1  -5    0.19    0.12
   7  -1  -5    0.29    0.19
   6  -1  -5    3.35    0.37
   6  -1  -5    3.51    0.43
   6  -1  -5    2.78    0.41
   6  -1  -5    2.80    0.33
   6  -1  -5    3.15    0.26
  -6   1   5    2.91    0.31
   5  -1  -5    1.22    0.11
   5  -1  -5    1.11    0.26
   5  -1  -5    1.03    0.48
   5  -1  -5    1.29    0.19
   5  -1  -5    1.25    0.18
   5  -1  -5    0.96    0.21
   5  -1  -5    1.38    0.26
  -5   1   5    1.44    0.17
   4  -1  -5    5.87    0.62
   4  -1  -5    7.25    0.55
   4  -1  -5    6.47    0.63
  -4   1   5    6.60    0.56
  -4   1   5    7.41    0.58
   3  -1  -5    2.09    0.35
   3  -1  -5    2.07    0.18
   3  -1  -5    2.30    0.21
   3  -1  -5    1.98    0.27
   3  -1  -5    2.35    0.32
  -3   1   5    2.03    0.31
  -3   1   5    2.24    0.21
  -3   1   5    2.27    0.37
  -3   1   5    2.44    0.23
   2  -1  -5    5.58    0.46
   2  -1  -5    5.37    0.52
   2  -1  -5    5.47    0.45
   2  -1  -5    6.51    0.81
  -2   1   5    5.26    0.56
  -2   1   5    5.52    0.46
  -2   1   5    5.47    0.45
  -2   1   5    4.92    0.46
  -2   1   5    5.92    0.47
  -2   1   5    5.50    0.50
   1  -1  -5    0.98    0.19
   1  -1  -5    0.85    0.12
  -1   1   5    0.86    0.13
  -1   1   5    0.82    0.32
   0  -1  -5    0.30    0.09
   0  -1  -5    0.34    0.18
   0   1   5    0.24    0.09
  -1  -1  -5    0.48    0.50
  -1  -1  -5    0.21    0.20
  -1  -1  -5   -0.13    0.10
   1   1   5    0.00    0.11
   1   1   5   -0.41    0.35
  -2  -1  -5    0.14    0.37
  -2  -1  -5    0.02    0.23
  -2  -1  -5   -0.45    0.45
   2   1   5    0.16    0.18
   2   1   5    0.40    0.30
  -3  -1  -5   -0.12    0.37
  -3  -1  -5    0.07    0.39
  -3  -1  -5    0.10    0.21
   3   1   5    0.21    0.24
  -4  -1  -5   -0.36    0.27
   7  -2  -5   -0.01    0.11
   7  -2  -5    0.03    0.34
   7  -2  -5    0.32    0.25
   7  -2  -5    0.20    0.17
   6  -2  -5    1.82    0.34
   6  -2  -5    1.68    0.25
   6  -2  -5    2.00    0.35
   6  -2  -5    2.39    0.28
   6  -2  -5    1.83    0.17
  -6   2   5    1.88    0.24
   5  -2  -5   -0.17    0.30
   5  -2  -5    1.57    0.63
   5  -2  -5   -0.25    0.25
   5  -2  -5    0.24    0.16
   5  -2  -5    0.31    0.15
   5  -2  -5    0.27    0.26
  -5   2   5    0.30    0.09
  -5   2   5    0.03    0.37
   4  -2  -5    0.52    0.22
   4  -2  -5    0.85    0.08
   4  -2  -5    1.29    0.16
   4  -2  -5    1.01    0.21
   4  -2  -5    0.48    0.18
  -4   2   5    0.87    0.41
  -4   2   5    1.00    0.14
  -4   2   5    1.02    0.18
   3  -2  -5    0.56    0.12
   3  -2  -5    0.57    0.18
   3  -2  -5    0.83    0.19
   3  -2  -5    0.42    0.06
  -3   2   5    0.55    0.22
  -3   2   5    0.48    0.09
  -3   2   5    0.59    0.10
  -3   2   5    1.46    0.50
  -3   2   5    0.34    0.14
   2  -2  -5    0.09    0.11
   2  -2  -5   -0.08    0.16
  -2   2   5    0.53    0.46
  -2   2   5    0.15    0.31
  -2   2   5    0.15    0.07
   1  -2  -5    0.73    0.20
   1  -2  -5    0.88    0.15
  -1   2   5    0.98    0.47
  -1   2   5    0.85    0.15
   0  -2  -5    2.40    0.56
   0  -2  -5    0.47    0.71
   0  -2  -5    1.53    0.20
   0  -2  -5    2.14    0.37
   0   2   5    1.87    0.22
  -1  -2  -5    0.72    0.25
  -1  -2  -5   -0.39    0.60
  -1  -2  -5    0.31    0.42
   1   2   5    0.69    0.16
  -2  -2  -5    1.32    0.27
   2   2   5    1.85    0.31
  -3  -2  -5    0.42    0.33
   8  -3  -5    0.67    0.14
   8  -3  -5    0.68    0.10
   7  -3  -5    1.54    0.31
   7  -3  -5    1.60    0.19
   7  -3  -5    1.87    0.26
   7  -3  -5    1.20    0.30
   7  -3  -5    2.19    0.38
   6  -3  -5    0.86    0.15
   6  -3  -5    0.60    0.49
   6  -3  -5    0.83    0.17
   6  -3  -5    1.00    0.09
   6  -3  -5    1.31    0.30
   6  -3  -5    1.13    0.29
   5  -3  -5    0.54    0.07
   5  -3  -5    0.62    0.14
   5  -3  -5    0.67    0.28
   5  -3  -5    1.07    0.28
   5  -3  -5    0.74    0.22
   5  -3  -5    0.83    0.16
  -5   3   5   -0.14    0.50
   4  -3  -5    1.21    0.22
   4  -3  -5    0.86    0.17
   4  -3  -5    1.13    0.20
   4  -3  -5    0.16    0.64
   4  -3  -5    0.93    0.10
   4  -3  -5    1.41    0.30
   4  -3  -5    1.05    0.22
   4  -3  -5    1.10    0.41
  -4   3   5    1.31    0.14
  -4   3   5    1.68    0.32
  -4   3   5    1.16    0.56
  -4   3   5    1.21    0.18
   3  -3  -5    0.20    0.14
   3  -3  -5    0.04    0.03
   3  -3  -5    0.01    0.17
   3  -3  -5   -0.20    0.16
   3  -3  -5   -0.37    0.55
  -3   3   5    0.42    0.37
  -3   3   5    0.04    0.09
  -3   3   5    0.01    0.60
   2  -3  -5    0.64    0.19
   2  -3  -5    0.84    0.16
   2  -3  -5    0.88    0.76
   2  -3  -5   -0.34    0.55
  -2   3   5    0.65    0.12
  -2   3   5    1.25    0.44
  -2   3   5    0.80    0.30
   1  -3  -5   -0.30    0.53
   1  -3  -5    0.35    0.20
   1  -3  -5    0.35    0.13
   1  -3  -5    0.74    0.71
  -1   3   5    0.34    0.11
  -1   3   5    0.50    0.45
   0  -3  -5    0.36    0.22
   0  -3  -5   -0.65    0.61
   0  -3  -5    0.14    0.26
   0  -3  -5    0.70    0.46
   0   3   5    0.25    0.14
  -1  -3  -5    0.44    0.50
  -1  -3  -5    0.57    0.46
  -1  -3  -5    0.00    0.24
   1   3   5    0.20    0.17
  -2  -3  -5    0.56    0.40
   8  -4  -5    1.79    0.28
   8  -4  -5    1.28    0.18
   8  -4  -5    1.29    0.15
   7  -4  -5    3.36    0.32
   7  -4  -5    3.32    0.39
   7  -4  -5    2.53    0.36
   7  -4  -5    3.28    0.29
   7  -4  -5    4.33    0.52
  -7   4   5    2.27    0.55
   6  -4  -5    2.81    0.55
   6  -4  -5    3.70    0.34
   6  -4  -5    2.96    0.39
   6  -4  -5    2.83    0.60
   6  -4  -5    3.43    0.44
   6  -4  -5    3.90    0.32
  -6   4   5    3.71    0.56
   5  -4  -5    2.07    0.26
   5  -4  -5    2.71    0.49
   5  -4  -5    1.79    0.32
   5  -4  -5    1.93    0.18
   5  -4  -5    2.26    0.43
   5  -4  -5    2.37    0.35
   5  -4  -5    2.29    0.24
  -5   4   5    0.79    0.66
   4  -4  -5    6.76    0.59
   4  -4  -5    6.56    0.63
   4  -4  -5    6.43    0.56
   4  -4  -5    5.78    0.80
   4  -4  -5    6.06    0.54
   4  -4  -5    5.74    0.51
  -4   4   5    6.11    0.80
  -4   4   5    6.50    0.65
   3  -4  -5    1.25    0.20
   3  -4  -5    1.17    0.54
   3  -4  -5    0.78    0.24
   3  -4  -5    0.41    0.72
   3  -4  -5    1.42    0.30
   3  -4  -5    0.66    0.30
  -3   4   5    1.74    0.38
  -3   4   5    1.17    0.18
  -3   4   5    1.50    0.46
   2  -4  -5    4.89    0.79
   2  -4  -5    5.68    0.54
   2  -4  -5    5.48    0.57
   2  -4  -5    6.46    0.59
  -2   4   5    5.70    0.54
  -2   4   5    6.07    0.61
   1  -4  -5    0.95    0.26
   1  -4  -5    0.73    0.46
   1  -4  -5    0.32    0.61
  -1   4   5    0.69    0.19
   0  -4  -5    2.45    0.58
   0  -4  -5    2.94    0.46
   0   4   5    2.97    0.38
  -1  -4  -5    0.06    0.46
   1   4   5    0.26    0.20
   8  -5  -5   25.56    2.14
   8  -5  -5   25.91    2.14
   8  -5  -5   28.19    2.15
   7  -5  -5   -0.16    0.23
   7  -5  -5   -0.01    0.24
   7  -5  -5   -0.03    0.07
   7  -5  -5    0.06    0.10
   7  -5  -5   -0.08    0.29
   7  -5  -5   -0.31    0.27
  -7   5   5   -0.16    0.39
   6  -5  -5   45.41    3.50
   6  -5  -5   44.16    3.54
   6  -5  -5   45.27    3.80
   6  -5  -5   45.02    3.51
   6  -5  -5   39.89    3.50
   6  -5  -5   40.83    3.52
   6  -5  -5   45.86    3.49
  -6   5   5   45.10    3.53
  -6   5   5   39.02    3.52
   5  -5  -5    0.28    0.23
   5  -5  -5    0.02    0.23
   5  -5  -5   -0.02    0.34
   5  -5  -5   -0.04    0.13
   5  -5  -5    0.07    0.08
   5  -5  -5   -0.21    0.32
   5  -5  -5   -0.57    0.73
  -5   5   5    0.42    0.77
  -5   5   5    0.26    0.33
  -5   5   5   -0.04    0.21
  -5   5   5    0.22    0.43
   4  -5  -5   43.76    3.92
   4  -5  -5   50.93    3.90
   4  -5  -5   43.50    3.95
   4  -5  -5   50.75    3.91
   4  -5  -5   48.08    3.91
  -4   5   5   50.62    3.92
  -4   5   5   50.90    3.93
   3  -5  -5    0.26    0.23
   3  -5  -5    0.14    0.22
   3  -5  -5    0.19    0.60
   3  -5  -5   -0.14    0.41
  -3   5   5   -0.34    0.34
   2  -5  -5   28.33    2.38
   2  -5  -5   28.10    2.42
   2  -5  -5   28.44    2.36
  -2   5   5   32.97    2.43
  -2   5   5   27.54    2.37
   1  -5  -5    0.33    0.53
   1  -5  -5    0.47    0.53
   1  -5  -5   -0.23    0.25
   0  -5  -5    4.75    0.67
   7  -6  -5    0.60    0.09
   7  -6  -5    0.35    0.19
   7  -6  -5    0.61    0.10
   7  -6  -5    0.37    0.18
   7  -6  -5    1.04    0.21
  -7   6   5    0.72    0.29
   6  -6  -5    0.04    0.06
   6  -6  -5    0.21    0.26
   6  -6  -5   -0.35    0.62
   6  -6  -5    0.06    0.20
   6  -6  -5    0.37    0.28
   6  -6  -5    0.16    0.10
   6  -6  -5    0.09    0.26
  -6   6   5    0.03    0.19
  -6   6   5   -0.23    0.33
  -6   6   5   -0.31    0.30
   5  -6  -5    0.41    0.34
   5  -6  -5    0.40    0.64
   5  -6  -5    1.25    0.22
   5  -6  -5    1.41    0.36
   5  -6  -5    1.28    0.19
   5  -6  -5    1.15    0.14
   5  -6  -5    0.74    0.25
  -5   6   5    0.95    0.43
  -5   6   5    1.38    0.32
   4  -6  -5    0.15    0.60
   4  -6  -5    0.20    0.39
   4  -6  -5    0.46    0.18
   4  -6  -5    0.14    0.08
   4  -6  -5   -0.10    0.22
  -4   6   5    1.06    0.40
  -4   6   5    0.15    0.33
   3  -6  -5    0.17    0.39
   3  -6  -5    0.22    0.25
   3  -6  -5    0.77    0.22
   3  -6  -5    0.59    0.56
  -3   6   5    0.72    0.44
   2  -6  -5    0.06    0.49
   2  -6  -5    0.01    0.38
   1  -6  -5   -0.06    0.34
   5  -7  -5    5.68    0.56
   5  -7  -5    5.97    0.47
  -5   7   5    5.67    0.48
   4  -7  -5   -0.20    0.40
   4  -7  -5    0.52    0.24
  -4   7   5    0.81    0.28
   0  -8   6    0.69    1.04
  -1   8  -6    0.24    0.15
   1  -8   6   -0.53    1.18
   1  -8   6    0.46    0.23
  -2   8  -6    0.83    0.19
   2  -8   6   -0.20    1.17
   2   7  -6    1.33    2.19
  -2  -7   6    1.09    2.17
   1   7  -6    0.17    0.18
   1   7  -6   -0.33    0.22
   1   7  -6    0.09    0.16
   1   7  -6   -0.01    0.13
  -1  -7   6   -0.39    1.31
  -1  -7   6    0.31    0.28
   0  -7   6    2.65    0.48
   0  -7   6   -0.80    1.53
  -1   7  -6   -0.12    0.14
   1  -7   6    0.70    0.30
   1  -7   6   -0.95    1.44
  -2   7  -6    1.16    0.24
   2  -7   6    2.16    0.43
   2  -7   6    0.54    1.73
   3  -7   6    1.12    1.39
   3  -7   6    0.47    0.23
   4   6  -6   -1.21    1.71
   4   6  -6    0.29    0.11
   4   6  -6    0.25    0.15
  -4  -6   6    0.08    0.11
  -4  -6   6    1.30    2.11
   3   6  -6    0.32    2.39
   3   6  -6    2.30    0.34
   3   6  -6    1.92    0.25
  -3  -6   6   -2.27    2.81
  -3  -6   6    2.28    0.27
   2   6  -6    0.60    0.23
   2   6  -6    0.45    0.12
   2   6  -6    0.70    2.52
  -2  -6   6   -2.40    2.72
  -2  -6   6    0.23    0.14
   1   6  -6    7.03    0.60
   1   6  -6    7.67    0.73
   1   6  -6    6.38    0.63
   0   6  -6    1.08    0.22
   0   6  -6    1.26    0.23
   0   6  -6    1.82    0.28
   0  -6   6   -0.64    1.57
   0  -6   6    1.96    0.35
  -1   6  -6    9.82    0.82
  -1   6  -6    8.93    0.79
  -1   6  -6    8.96    0.78
   1  -6   6    9.21    0.90
   2  -6   6    1.25    1.75
   2  -6   6    1.33    0.32
  -3   6  -6    1.79    0.30
   3  -6   6   -0.40    1.58
   4  -6   6    0.36    1.13
   4  -6   6    0.98    0.25
   5   5  -6    0.19    1.81
   5   5  -6    0.60    0.16
   5   5  -6    0.51    0.13
  -5  -5   6    0.89    0.24
   4   5  -6    0.86    0.16
   4   5  -6   -3.45    2.29
   4   5  -6    1.09    0.29
   4   5  -6    0.98    0.26
   4   5  -6    1.19    0.24
  -4  -5   6    1.58    0.27
  -4  -5   6    1.11    0.25
  -4  -5   6    1.18    0.27
   3   5  -6    0.00    2.81
   3   5  -6    1.86    0.32
   3   5  -6    2.63    0.34
   3   5  -6    1.74    0.26
  -3  -5   6    2.57    0.31
  -3  -5   6    2.26    0.34
  -3  -5   6    2.56    0.36
   2   5  -6   -1.65    3.46
   2   5  -6    0.46    0.30
  -2  -5   6   -3.39    3.60
   1   5  -6    3.29    0.34
   1   5  -6    2.29    0.35
   1   5  -6    2.20    0.31
   1   5  -6    2.58    0.29
   1   5  -6    1.13    3.75
  -1  -5   6   -0.26    3.66
  -1  -5   6    2.65    0.22
   0   5  -6    1.80    0.26
   0   5  -6    1.30    0.24
   0   5  -6    1.71    0.29
   0  -5   6    1.28    0.14
   0  -5   6    2.13    0.42
   0  -5   6   -0.17    1.67
  -1   5  -6    1.39    0.24
  -1   5  -6    1.49    0.27
   1  -5   6   -0.24    1.75
   1  -5   6    2.12    0.42
  -2   5  -6    2.24    0.37
  -2   5  -6    2.62    0.33
   2  -5   6    3.43    0.49
   2  -5   6    0.93    1.73
   3  -5   6    0.35    1.49
   3  -5   6    0.57    0.10
   3  -5   6    0.80    0.30
  -4   5  -6    0.67    0.33
   4  -5   6   -0.71    1.32
   6   4  -6   -0.54    1.75
   6   4  -6   -0.07    0.14
   6   4  -6    0.17    0.14
  -6  -4   6    0.24    0.21
  -6  -4   6    0.11    0.16
   5   4  -6    2.61    0.42
   5   4  -6    7.12    2.66
   5   4  -6    2.20    0.27
   5   4  -6    1.91    0.28
  -5  -4   6    2.40    0.30
  -5  -4   6    2.17    0.38
  -5  -4   6    2.18    0.27
   4   4  -6    0.24    0.20
   4   4  -6    0.65    0.29
   4   4  -6    0.47    0.23
   4   4  -6    0.07    0.13
   4   4  -6   -3.46    2.76
  -4  -4   6    0.31    0.21
  -4  -4   6    0.31    0.23
  -4  -4   6   -0.16    0.27
  -4  -4   6    0.37    0.19
   3   4  -6    3.09    0.39
   3   4  -6    4.30    3.66
   3   4  -6    3.25    0.43
   3   4  -6    2.59    0.34
   3   4  -6    2.88    0.31
   3   4  -6    3.04    0.36
  -3  -4   6    2.89    0.43
  -3  -4   6    3.45    0.36
  -3  -4   6    3.54    0.34
  -3  -4   6    2.95    0.26
   2   4  -6    0.28    0.18
   2   4  -6   -0.56    0.32
   2   4  -6   -4.17    3.59
   2   4  -6   -0.10    0.15
   2   4  -6   -0.05    0.17
  -2  -4   6    0.16    0.31
  -2  -4   6    7.92    4.25
   1   4  -6   -0.26    4.21
   1   4  -6    1.88    0.33
   1   4  -6    2.29    0.35
  -1  -4   6    2.70    4.00
  -1  -4   6    1.84    0.17
  -1  -4   6    2.03    0.25
   0   4  -6   -0.19    0.28
   0   4  -6    0.50    0.19
   0  -4   6    0.00    1.56
  -1   4  -6    0.57    0.29
   1  -4   6    0.30    1.55
   1  -4   6    0.24    0.31
  -2   4  -6    0.68    0.54
   2  -4   6    0.75    0.15
   2  -4   6    1.09    0.27
   2  -4   6   -1.08    1.45
  -3   4  -6    0.11    0.35
   3  -4   6    0.06    0.07
   3  -4   6    0.28    0.30
   3  -4   6    0.46    1.35
  -4   4  -6    0.09    0.35
   4  -4   6    0.53    1.21
   4  -4   6    0.73    0.27
   4  -4   6    0.76    0.12
   6   3  -6    0.04    0.23
   6   3  -6    1.26    2.54
   6   3  -6    0.01    0.20
   6   3  -6    0.02    0.33
   6   3  -6    0.19    0.14
  -6  -3   6    0.24    0.19
   5   3  -6   13.40    1.02
   5   3  -6   13.01    1.09
   5   3  -6   10.99    1.02
   5   3  -6   12.19    1.06
  -5  -3   6   13.05    1.02
  -5  -3   6   10.49    1.00
   4   3  -6    0.07    0.19
   4   3  -6    0.08    0.15
   4   3  -6   -0.05    0.22
   4   3  -6    0.57    0.28
   4   3  -6   -0.17    0.12
   4   3  -6    0.09    0.29
   4   3  -6    3.00    3.68
  -4  -3   6    0.24    0.19
  -4  -3   6    0.03    0.05
  -4  -3   6    0.01    0.18
   3   3  -6   37.17    2.93
   3   3  -6   38.68    2.95
   3   3  -6   39.16    2.96
   3   3  -6   33.81    2.97
  -3  -3   6   37.13    2.94
  -3  -3   6   37.25    2.94
  -3  -3   6   31.40    2.92
   2   3  -6    0.58    0.20
   2   3  -6    0.38    4.16
   2   3  -6    0.07    0.18
   2   3  -6    0.63    0.28
   2   3  -6    0.01    0.20
  -2  -3   6    3.01    4.78
  -2  -3   6    0.05    0.25
  -2  -3   6    0.80    0.25
  -2  -3   6    0.46    0.24
   1   3  -6   83.55    6.34
   1   3  -6   65.83    6.34
  -1  -3   6   86.50    6.32
  -1  -3   6   78.15    6.32
  -1  -3   6   68.30    6.31
  -1  -3   6   87.46    7.78
  -1  -3   6   83.51    6.32
   0   3  -6    0.86    0.30
   0   3  -6    1.40    0.36
   0  -3   6    1.19    0.12
   0  -3   6    0.90    1.74
  -2   3  -6   -0.24    0.47
   2  -3   6   -0.22    1.57
  -3   3  -6   33.83    2.75
  -4   3  -6    0.00    0.31
   4  -3   6    0.28    1.01
   7   2  -6   -0.09    0.19
  -7  -2   6    0.40    0.16
   6   2  -6    9.22    0.71
   6   2  -6    8.71    0.80
  -6  -2   6    7.14    0.73
   5   2  -6    1.70    0.30
   5   2  -6    2.24    0.38
   5   2  -6    1.97    0.41
   5   2  -6    2.46    0.36
   5   2  -6    2.76    0.36
   5   2  -6    2.91    0.38
  -5  -2   6    2.47    0.29
  -5  -2   6    2.29    0.35
   4   2  -6   16.40    1.38
   4   2  -6   15.12    1.40
   4   2  -6   16.83    1.37
   4   2  -6   17.34    1.41
   4   2  -6   17.67    1.34
  -4  -2   6   16.75    1.36
  -4  -2   6   15.41    1.34
  -4  -2   6   16.89    1.36
   3   2  -6    9.76    0.94
   3   2  -6   11.12    0.90
   3   2  -6   10.60    0.87
  -3  -2   6   10.46    0.89
  -3  -2   6   10.72    0.89
  -3  -2   6   10.74    0.86
   2   2  -6   19.33    1.61
   2   2  -6   21.15    1.63
   2   2  -6   18.01    1.67
  -2  -2   6   19.35    1.63
  -2  -2   6   20.82    1.61
  -2  -2   6   20.66    1.61
  -2  -2   6   18.54    1.61
  -2  -2   6   21.10    1.61
  -2  -2   6   20.35    1.63
   1   2  -6   19.08    1.61
   1   2  -6   18.91    1.63
  -1  -2   6   19.43    1.61
  -1  -2   6   20.85    1.61
  -1  -2   6   21.62    1.61
   0  -2   6   17.97    1.38
   0  -2   6   16.11    1.38
  -1   2  -6   11.09    0.95
  -2   2  -6    9.04    0.78
  -2   2  -6    7.85    0.92
  -3   2  -6    3.18    0.56
  -3   2  -6    4.52    0.44
   7   1  -6   -0.02    0.21
   7   1  -6    0.78    0.30
   7   1  -6    0.24    0.13
   6   1  -6    0.61    0.15
   6   1  -6    0.37    0.29
   6   1  -6    0.19    0.40
   6   1  -6    0.62    0.22
   6   1  -6    0.24    0.23
   5   1  -6    1.22    0.23
   5   1  -6    1.12    0.18
   5   1  -6    0.95    0.20
   5   1  -6    0.92    0.28
   5   1  -6    0.66    0.38
   5   1  -6    1.20    0.26
   5   1  -6    0.82    0.29
  -5  -1   6    1.12    0.15
  -5  -1   6    1.17    0.24
  -5  -1   6    1.30    0.33
   4   1  -6    0.05    0.32
   4   1  -6   -0.25    0.22
   4   1  -6   -0.07    0.18
   4   1  -6   -0.13    0.21
   4   1  -6   -0.04    0.09
   4   1  -6    0.07    0.28
   4   1  -6   -0.13    0.16
  -4  -1   6   -0.06    0.25
  -4  -1   6    0.02    0.25
  -4  -1   6    0.11    0.06
   3   1  -6    2.76    0.34
   3   1  -6    2.23    0.31
   3   1  -6    2.89    0.25
  -3  -1   6    2.79    0.24
  -3  -1   6    2.52    0.24
  -3  -1   6    2.98    0.33
  -3  -1   6    1.94    0.35
   2   1  -6    0.69    0.21
   2   1  -6    0.76    0.13
   2   1  -6    0.27    0.22
   2   1  -6    0.97    0.23
  -2  -1   6    0.93    0.12
  -2  -1   6    0.78    0.36
  -2  -1   6    0.91    0.14
  -2  -1   6    1.15    0.22
  -2  -1   6    0.88    0.12
  -2  -1   6    0.83    0.13
   1   1  -6    3.22    0.39
   1   1  -6    3.54    0.31
  -1  -1   6    3.49    0.30
  -1  -1   6    3.53    0.31
   0   1  -6    0.17    0.09
   0   1  -6    0.17    0.20
   0   1  -6    0.62    0.59
   0  -1   6    0.32    0.09
  -1   1  -6    0.94    0.52
  -1   1  -6    1.68    0.25
   1  -1   6   -1.62    1.71
   1  -1   6    1.39    0.22
  -2   1  -6   -0.10    0.42
  -2   1  -6    0.08    0.21
   2  -1   6    0.16    0.06
   2  -1   6   -1.73    1.51
  -3   1  -6    0.68    0.20
  -3   1  -6    0.47    0.31
   3  -1   6    0.35    1.31
  -4   1  -6   -0.10    0.34
  -4   1  -6   -0.13    0.23
   4  -1   6   -1.33    1.11
   7   0  -6    0.49    0.20
   7   0  -6    0.99    0.34
   7   0  -6    0.36    0.12
   7   0  -6    0.45    0.21
  -7   0   6    0.32    0.11
   6   0  -6    2.79    0.32
   6   0  -6    2.81    0.38
   6   0  -6    3.36    0.40
   6   0  -6    3.18    0.55
   6   0  -6    2.66    0.39
   5   0  -6    0.67    0.20
   5   0  -6    0.79    0.17
   5   0  -6    0.54    0.26
   5   0  -6    0.41    0.28
   5   0  -6    0.59    0.24
   5   0  -6    0.65    0.17
  -5   0   6    1.28    0.27
  -5   0   6    0.20    0.50
  -5   0   6    0.92    0.14
   4   0  -6    7.27    0.72
   4   0  -6    8.40    0.70
   4   0  -6    7.73    0.63
   4   0  -6    6.59    0.70
   4   0  -6    6.25    0.69
   4   0  -6    8.58    0.64
   4   0  -6    7.74    0.72
  -4   0   6    8.30    0.64
  -4   0   6    7.67    0.64
  -4   0   6    8.29    0.68
   3   0  -6    0.79    0.19
   3   0  -6    0.55    0.08
   3   0  -6    0.84    0.14
   3   0  -6    0.19    0.40
   3   0  -6    0.60    0.21
  -3   0   6    1.09    0.24
  -3   0   6    0.57    0.09
  -3   0   6    0.65    0.11
  -3   0   6    0.73    0.12
  -3   0   6    0.51    0.32
  -3   0   6    0.66    0.12
   2   0  -6    9.31    0.71
   2   0  -6    7.61    0.98
  -2   0   6    8.37    0.70
  -2   0   6    8.61    0.74
  -2   0   6    8.29    0.71
  -2   0   6    8.22    0.70
  -2   0   6    9.05    0.70
   1   0  -6    0.00    0.10
   1   0  -6   -0.10    0.20
  -1   0   6   -0.02    0.07
   0   0  -6    2.98    0.43
   0   0  -6    2.62    0.62
   0   0   6    3.35    0.31
  -1   0  -6    0.53    0.49
  -1   0  -6    0.42    0.25
   1   0   6    0.79    0.16
  -2   0  -6    0.26    0.22
  -2   0  -6    0.25    0.53
  -2   0  -6    0.08    0.36
  -3   0  -6    0.83    0.21
  -3   0  -6    0.39    0.31
   8  -1  -6   -0.28    0.21
   8  -1  -6    0.06    0.09
   7  -1  -6    0.34    0.18
   7  -1  -6    0.11    0.11
   7  -1  -6    0.22    0.22
   7  -1  -6   -0.21    0.32
   6  -1  -6    0.28    0.17
   6  -1  -6    0.01    0.33
   6  -1  -6    0.56    0.24
   6  -1  -6    0.26    0.26
   6  -1  -6    0.13    0.13
  -6   1   6   -0.05    0.10
   5  -1  -6   -0.02    0.24
   5  -1  -6   -0.20    0.23
   5  -1  -6    0.12    0.14
   5  -1  -6   -0.01    0.12
   5  -1  -6   -0.24    0.27
   5  -1  -6    0.10    0.03
   5  -1  -6   -0.06    0.16
  -5   1   6    0.02    0.09
  -5   1   6    0.02    0.09
  -5   1   6   -0.07    0.31
   4  -1  -6    0.20    0.18
   4  -1  -6    0.05    0.19
   4  -1  -6   -0.02    0.11
   4  -1  -6    0.08    0.23
   4  -1  -6    0.41    0.25
   4  -1  -6   -0.08    0.16
  -4   1   6    0.16    0.07
  -4   1   6    0.50    0.36
  -4   1   6    0.32    0.09
  -4   1   6    0.44    0.23
   3  -1  -6   -0.47    0.31
   3  -1  -6    0.39    0.20
   3  -1  -6    0.21    0.04
   3  -1  -6    0.38    0.12
  -3   1   6    0.28    0.09
  -3   1   6    0.18    0.07
  -3   1   6    0.45    0.24
  -3   1   6    0.70    0.51
  -3   1   6    0.24    0.10
  -3   1   6    0.01    0.39
   2  -1  -6   -0.52    0.62
   2  -1  -6    0.09    0.20
   2  -1  -6   -0.10    0.11
  -2   1   6   -0.25    0.25
  -2   1   6    0.00    0.06
  -2   1   6    0.32    0.27
   1  -1  -6    2.47    0.25
   1  -1  -6    1.18    0.60
   1  -1  -6    2.76    0.41
  -1   1   6    2.06    0.43
  -1   1   6    2.78    0.25
   0  -1  -6    0.22    0.52
   0  -1  -6    0.00    0.12
   0  -1  -6    0.13    0.24
   0   1   6   -0.09    0.11
  -1  -1  -6    5.01    0.55
   1   1   6    4.26    0.45
  -2  -1  -6    0.15    0.33
  -2  -1  -6   -0.21    0.45
  -2  -1  -6   -0.10    0.21
   2   1   6   -0.12    0.30
   2   1   6   -0.24    0.21
  -3  -1  -6    0.32    0.29
  -3  -1  -6    0.31    0.23
   8  -2  -6    0.19    0.20
   8  -2  -6   -0.43    0.28
   8  -2  -6    0.02    0.13
   8  -2  -6    0.08    0.08
   7  -2  -6    0.23    0.10
   7  -2  -6    0.13    0.27
   7  -2  -6    0.19    0.15
   7  -2  -6    0.10    0.21
   6  -2  -6    0.23    0.26
   6  -2  -6    0.06    0.15
   6  -2  -6   -0.08    0.11
   6  -2  -6    0.21    0.24
  -6   2   6   -0.04    0.27
   5  -2  -6    0.08    0.04
   5  -2  -6   -0.10    0.15
   5  -2  -6    0.01    0.13
   5  -2  -6   -0.04    0.14
   5  -2  -6    0.77    0.65
   5  -2  -6   -0.32    0.25
   5  -2  -6    0.47    0.26
  -5   2   6    0.27    0.25
  -5   2   6    0.19    0.39
  -5   2   6   -0.07    0.11
  -5   2   6    0.06    0.10
   4  -2  -6    1.16    0.27
   4  -2  -6    2.19    0.37
   4  -2  -6    1.32    0.19
   4  -2  -6    1.29    0.12
   4  -2  -6    0.62    0.66
   4  -2  -6    1.10    0.35
   4  -2  -6    1.43    0.23
  -4   2   6    1.53    0.18
  -4   2   6    1.36    0.48
  -4   2   6    1.41    0.21
  -4   2   6    1.33    0.16
  -4   2   6    1.79    0.50
   3  -2  -6    0.10    0.25
   3  -2  -6    0.13    0.18
   3  -2  -6    0.49    0.62
   3  -2  -6    0.18    0.20
   3  -2  -6   -0.11    0.14
  -3   2   6    0.15    0.08
  -3   2   6    0.35    0.29
  -3   2   6    0.24    0.52
   2  -2  -6    3.84    0.46
   2  -2  -6    3.95    0.34
   2  -2  -6    3.37    0.72
  -2   2   6    3.45    0.43
  -2   2   6    2.46    0.59
  -2   2   6    3.76    0.33
   1  -2  -6    0.50    0.53
   1  -2  -6    0.41    0.14
   1  -2  -6    0.24    0.25
  -1   2   6    0.45    0.13
  -1   2   6    0.83    0.49
   0  -2  -6    1.54    0.50
  -1  -2  -6   -0.22    0.52
  -1  -2  -6    0.27    0.23
  -1  -2  -6   -0.36    0.34
  -2  -2  -6    0.09    0.38
  -2  -2  -6   -0.35    0.27
   8  -3  -6    0.32    0.11
   8  -3  -6   -0.07    0.22
   8  -3  -6   -0.03    0.18
   8  -3  -6    0.33    0.07
   7  -3  -6   -0.01    0.20
   7  -3  -6    0.09    0.09
   7  -3  -6    0.22    0.25
   7  -3  -6    0.24    0.13
  -7   3   6   -0.09    0.36
   6  -3  -6    1.93    0.21
   6  -3  -6    1.90    0.46
   6  -3  -6    1.94    0.30
   6  -3  -6    1.56    0.27
   6  -3  -6    2.02    0.31
  -6   3   6    1.12    0.42
   5  -3  -6    0.48    0.28
   5  -3  -6    0.80    0.14
   5  -3  -6    0.67    0.25
   5  -3  -6    0.57    0.17
   5  -3  -6    0.39    0.55
   5  -3  -6    0.32    0.29
  -5   3   6    0.97    0.16
  -5   3   6    1.51    0.35
  -5   3   6    0.85    0.14
  -5   3   6    0.42    0.50
   4  -3  -6    4.59    0.45
   4  -3  -6    3.54    0.77
   4  -3  -6    5.20    0.45
   4  -3  -6    4.14    0.37
   4  -3  -6    4.53    0.41
   4  -3  -6    4.34    0.55
  -4   3   6    4.38    0.43
  -4   3   6    4.66    0.42
  -4   3   6    4.03    0.66
   3  -3  -6    1.13    0.27
   3  -3  -6    0.70    0.56
   3  -3  -6    1.44    0.27
  -3   3   6    1.15    0.18
  -3   3   6    2.21    0.45
  -3   3   6    1.51    0.30
   2  -3  -6    3.48    0.73
   2  -3  -6    4.79    0.54
   2  -3  -6    5.29    1.41
  -2   3   6    5.05    0.45
  -2   3   6    4.38    0.53
   1  -3  -6    0.70    0.26
   1  -3  -6   -0.18    0.65
   1  -3  -6    0.25    0.49
  -1   3   6    1.36    0.45
  -1   3   6    0.96    0.16
   0  -3  -6    2.15    0.44
   0   3   6    2.58    0.33
  -1  -3  -6    0.10    0.43
  -1  -3  -6    0.43    0.30
   8  -4  -6    0.09    0.17
   8  -4  -6   -0.04    0.17
   8  -4  -6    0.16    0.09
   8  -4  -6    0.29    0.06
   7  -4  -6    0.77    0.11
   7  -4  -6    0.46    0.12
   7  -4  -6    0.52    0.21
   7  -4  -6    0.54    0.24
  -7   4   6   -0.07    0.35
   6  -4  -6    0.09    0.25
   6  -4  -6    0.11    0.37
   6  -4  -6   -0.04    0.31
   6  -4  -6    0.33    0.19
   6  -4  -6    0.28    0.14
   6  -4  -6    0.26    0.09
  -6   4   6    0.26    0.16
  -6   4   6    0.17    0.35
  -6   4   6    0.81    0.46
   5  -4  -6    2.49    0.32
   5  -4  -6    2.56    0.45
   5  -4  -6    2.64    0.25
   5  -4  -6    3.00    0.55
   5  -4  -6    2.22    0.41
   5  -4  -6    2.49    0.32
  -5   4   6    2.66    0.40
  -5   4   6    2.77    0.54
   4  -4  -6    0.44    0.10
   4  -4  -6    0.47    0.22
   4  -4  -6    0.00    0.23
   4  -4  -6    0.69    0.46
  -4   4   6    0.11    0.25
  -4   4   6    0.58    0.27
  -4   4   6    0.46    0.16
  -4   4   6    1.03    0.49
   3  -4  -6    3.00    0.46
   3  -4  -6    3.26    0.38
   3  -4  -6    3.60    0.56
  -3   4   6    3.00    0.37
  -3   4   6    3.66    0.44
   2  -4  -6    0.17    0.22
   2  -4  -6    0.65    0.40
   2  -4  -6    0.93    0.60
   1  -4  -6    2.00    0.32
  -1   4   6    2.69    0.35
   0  -4  -6    0.14    0.42
   0  -4  -6    0.21    0.30
   7  -5  -6    0.62    0.22
   7  -5  -6    0.54    0.20
   7  -5  -6    0.47    0.10
   7  -5  -6    0.62    0.20
  -7   5   6    0.69    0.23
  -7   5   6    0.64    0.29
   6  -5  -6    0.30    0.29
   6  -5  -6   -0.11    0.20
   6  -5  -6   -0.07    0.07
   6  -5  -6    0.21    0.43
   6  -5  -6    0.09    0.11
   6  -5  -6   -0.32    0.27
  -6   5   6    0.08    0.30
  -6   5   6    0.73    0.36
  -6   5   6   -0.08    0.17
   5  -5  -6    1.14    0.14
   5  -5  -6    0.71    0.35
   5  -5  -6    1.11    0.16
   5  -5  -6    1.19    0.36
   5  -5  -6    0.94    0.25
   5  -5  -6    1.15    0.24
  -5   5   6    0.43    0.42
  -5   5   6    0.83    0.30
   4  -5  -6    0.10    0.10
   4  -5  -6   -0.22    0.22
   4  -5  -6    0.83    0.60
   4  -5  -6    0.22    0.19
  -4   5   6    0.00    0.30
   3  -5  -6    0.70    0.18
   3  -5  -6    0.63    0.24
   3  -5  -6    0.11    0.58
   3  -5  -6    0.66    0.43
  -3   5   6    0.26    0.45
   2  -5  -6    0.25    0.51
   2  -5  -6    0.62    0.38
   2  -5  -6    0.53    0.24
   1  -5  -6   -0.10    0.36
   1  -5  -6    0.19    0.28
   5  -6  -6    0.01    0.05
   5  -6  -6    0.32    0.49
   5  -6  -6    0.10    0.27
   5  -6  -6   -0.10    0.13
  -5   6   6    0.03    0.28
   4  -6  -6    0.59    0.47
   4  -6  -6    0.22    0.30
   4  -6  -6    0.34    0.14
  -4   6   6    0.53    0.31
   2   7  -7    0.07    0.16
   2   7  -7   -0.24    0.14
   2   7  -7    0.03    0.08
   1   7  -7   -0.07    0.14
   1   7  -7   -0.15    0.14
   1   7  -7    0.03    0.10
  -1  -7   7    0.33    1.06
   0   7  -7    0.19    0.15
   0   7  -7    0.03    0.13
   0  -7   7   -0.38    1.23
   0  -7   7    0.15    0.26
  -1   7  -7    0.14    0.11
  -1   7  -7   -0.03    0.18
   1  -7   7    0.61    1.23
   1  -7   7    0.40    0.24
  -2   7  -7   -0.03    0.10
   2  -7   7   -0.06    1.03
   3   6  -7    0.31    0.15
   3   6  -7   -0.91    1.86
   3   6  -7    0.15    0.10
   3   6  -7    0.22    0.17
  -3  -6   7   -0.25    2.06
   2   6  -7    1.47    0.22
   2   6  -7    0.96    0.21
   2   6  -7    1.53    0.21
   2   6  -7    1.27    0.23
  -2  -6   7   -0.56    1.13
   1   6  -7    0.39    0.15
   1   6  -7    0.67    0.19
   1   6  -7    0.56    0.15
  -1  -6   7   -0.92    1.31
   0   6  -7    1.09    0.19
   0  -6   7   -0.82    1.18
  -1   6  -7    0.26    0.21
   1  -6   7    1.37    1.57
  -2   6  -7   -0.04    0.18
   2  -6   7    0.39    1.37
   3  -6   7   -0.73    0.96
   4   5  -7   -1.02    2.16
   4   5  -7    0.25    0.11
   4   5  -7    0.39    0.15
   4   5  -7    0.19    0.18
  -4  -5   7    2.23    2.89
  -4  -5   7    0.31    0.14
  -4  -5   7    0.67    0.25
   3   5  -7    1.67    0.27
   3   5  -7   -0.87    2.33
   3   5  -7    1.99    0.26
  -3  -5   7    2.10    2.78
  -3  -5   7    2.01    0.38
  -3  -5   7    1.83    0.23
   2   5  -7    0.31    0.20
   2   5  -7    0.06    0.17
   2   5  -7    0.49    2.89
   2   5  -7    0.64    0.16
   2   5  -7    0.42    0.13
  -2  -5   7    0.26    0.15
  -2  -5   7    0.15    2.83
   1   5  -7    0.91    0.18
   1   5  -7    0.84    0.23
   1   5  -7    0.73    0.18
  -1  -5   7   -0.49    1.25
   0   5  -7    0.10    0.17
   0   5  -7    0.16    0.22
   0  -5   7   -0.72    1.30
  -1   5  -7    0.01    0.20
   1  -5   7   -0.58    1.32
   2  -5   7   -0.13    1.34
   3  -5   7   -0.33    1.09
   5   4  -7    0.48    0.16
   5   4  -7    0.86    0.20
   5   4  -7    0.41    0.12
   5   4  -7    2.69    2.31
  -5  -4   7    0.59    3.20
  -5  -4   7    0.19    0.17
  -5  -4   7    0.56    0.25
  -5  -4   7    0.17    0.17
   4   4  -7    0.00    0.22
   4   4  -7    0.22    0.16
   4   4  -7    1.82    2.71
   4   4  -7    0.46    0.27
  -4  -4   7    0.00    0.24
  -4  -4   7    3.03    3.53
   3   4  -7    0.76    0.19
   3   4  -7    0.32    0.14
   3   4  -7   -1.03    3.12
   3   4  -7    0.31    0.33
   3   4  -7    0.27    0.17
   3   4  -7    0.42    0.22
  -3  -4   7    0.55    0.13
  -3  -4   7    0.38    0.17
  -3  -4   7    0.29    0.28
  -3  -4   7    1.73    3.78
   2   4  -7    0.25    0.15
   2   4  -7    0.22    0.20
   2   4  -7   -0.01    0.16
   2   4  -7    0.13    3.40
  -2  -4   7    1.88    3.42
  -2  -4   7    0.20    0.31
  -2  -4   7    0.13    0.17
   1   4  -7   -0.01    0.20
   1   4  -7    0.24    0.20
  -1  -4   7   -0.02    1.61
  -1  -4   7    0.13    0.26
   0   4  -7    0.15    0.22
   0   4  -7    0.52    0.25
   0  -4   7   -1.13    1.40
   1  -4   7    1.60    1.37
   2  -4   7   -0.17    1.25
  -3   4  -7   -0.01    0.29
   3  -4   7    0.38    1.06
   6   3  -7    0.36    0.31
   6   3  -7    0.42    0.15
   6   3  -7    0.48    0.12
  -6  -3   7    0.74    0.22
   5   3  -7    5.67    2.83
   5   3  -7    0.25    0.24
   5   3  -7    0.59    0.22
   5   3  -7    0.67    0.17
   5   3  -7    0.54    0.14
   5   3  -7    0.33    0.24
  -5  -3   7    0.97    0.23
  -5  -3   7    0.43    0.27
   4   3  -7   -1.21    3.25
   4   3  -7    0.38    0.17
   4   3  -7    0.18    0.13
   4   3  -7    0.12    0.29
   4   3  -7    0.13    0.21
  -4  -3   7    4.86    4.36
  -4  -3   7    0.04    0.21
  -4  -3   7    0.01    0.22
  -4  -3   7    0.93    0.35
  -4  -3   7    0.08    0.21
   3   3  -7    5.55    3.77
   3   3  -7    2.18    0.30
   3   3  -7    1.63    0.28
   3   3  -7    2.29    0.29
   3   3  -7    2.32    0.38
  -3  -3   7    1.82    0.24
  -3  -3   7    2.13    0.30
  -3  -3   7    2.34    0.29
  -3  -3   7    2.03    0.24
  -3  -3   7    1.63    0.28
   2   3  -7    0.27    0.19
   2   3  -7    0.21    0.18
   2   3  -7    0.90    0.35
   2   3  -7    0.22    0.10
   2   3  -7    0.29    0.20
  -2  -3   7    0.18    0.29
  -2  -3   7    0.11    0.20
  -2  -3   7    0.94    1.67
  -2  -3   7    0.37    0.11
  -2  -3   7    0.24    0.06
   1   3  -7    2.41    0.40
   1   3  -7    3.16    0.39
  -1  -3   7    3.31    0.27
  -1  -3   7    2.59    0.43
  -1  -3   7    0.38    1.95
   0   3  -7    0.82    0.26
   0  -3   7    0.55    1.68
  -1   3  -7    0.83    0.40
   1  -3   7   -0.96    1.36
  -2   3  -7    0.29    0.34
   2  -3   7   -1.43    1.21
  -3   3  -7    0.39    0.29
   3  -3   7    0.37    1.07
   6   2  -7    0.64    0.20
   6   2  -7    0.77    0.19
   6   2  -7    0.42    0.15
   6   2  -7    0.37    0.25
  -6  -2   7    0.46    0.23
   5   2  -7   55.50    3.88
   5   2  -7   53.39    3.88
   5   2  -7   44.86    3.90
   5   2  -7   51.88    3.91
   5   2  -7   41.32    3.88
  -5  -2   7   45.40    3.88
  -5  -2   7   43.96    3.87
   4   2  -7    1.51    0.29
   4   2  -7    1.94    0.32
   4   2  -7    1.39    0.26
   4   2  -7    1.23    0.22
  -4  -2   7    1.16    0.24
  -4  -2   7    1.52    0.30
  -4  -2   7    1.78    0.21
  -4  -2   7    1.64    0.29
   3   2  -7   79.70    6.02
   3   2  -7   69.46    6.04
   3   2  -7   68.58    6.00
   3   2  -7   72.32    6.02
  -3  -2   7   76.01    6.01
  -3  -2   7   71.12    6.00
  -3  -2   7   80.60    6.00
  -3  -2   7   81.62    6.01
  -3  -2   7   82.06    6.02
  -3  -2   7   65.80    6.02
   2   2  -7    2.46    0.32
   2   2  -7    2.16    0.24
   2   2  -7    1.94    0.31
  -2  -2   7    2.32    0.22
  -2  -2   7    2.38    0.33
  -2  -2   7    2.75    0.24
   1   2  -7   70.07    5.21
  -1  -2   7   59.07    5.21
   0   2  -7    0.41    0.51
   0  -2   7   -0.21    1.70
  -2   2  -7    0.43    0.29
  -2   2  -7    0.51    0.35
   2  -2   7   -0.34    1.28
   7   1  -7    1.02    0.24
   7   1  -7    1.79    0.26
   7   1  -7    1.47    0.18
  -7  -1   7    1.11    0.23
   6   1  -7    3.55    0.48
   6   1  -7    3.31    0.33
   6   1  -7    2.55    0.35
   6   1  -7    3.11    0.39
   6   1  -7    3.14    0.39
  -6  -1   7    3.63    0.31
  -6  -1   7    3.01    0.42
   5   1  -7    3.68    0.41
   5   1  -7    4.07    0.54
   5   1  -7    3.41    0.56
   5   1  -7    4.28    0.43
   5   1  -7    4.15    0.44
   5   1  -7    3.80    0.40
  -5  -1   7    4.04    0.37
  -5  -1   7    4.36    0.45
  -5  -1   7    4.07    0.42
   4   1  -7    3.67    0.41
   4   1  -7    4.11    0.71
   4   1  -7    3.54    0.51
   4   1  -7    2.83    0.38
   4   1  -7    4.10    0.38
   4   1  -7    3.22    0.42
   4   1  -7    3.48    0.32
  -4  -1   7    3.42    0.33
  -4  -1   7    3.78    0.37
  -4  -1   7    3.08    0.43
  -4  -1   7    3.53    0.31
  -4  -1   7    3.55    0.40
  -4  -1   7    3.34    0.33
   3   1  -7    5.01    0.48
   3   1  -7    4.56    0.41
   3   1  -7    3.91    0.46
   3   1  -7    6.01    0.57
   3   1  -7    4.25    0.51
  -3  -1   7    5.02    0.41
  -3  -1   7    4.96    0.40
  -3  -1   7    5.01    0.49
  -3  -1   7    4.83    0.42
  -3  -1   7    4.45    0.46
   2   1  -7    3.50    0.43
   2   1  -7    3.34    0.31
  -2  -1   7    2.68    0.50
  -2  -1   7    3.59    0.31
  -2  -1   7    3.22    0.41
   1   1  -7    1.05    0.18
   1   1  -7    1.62    0.60
   0   1  -7    2.37    0.55
   0  -1   7    2.96    0.32
  -1   1  -7   -0.17    0.24
  -2   1  -7    0.74    0.37
   7   0  -7    1.76    0.28
   7   0  -7    1.90    0.22
   7   0  -7    2.12    0.35
   7   0  -7    1.82    0.27
   6   0  -7    3.04    0.50
   6   0  -7    2.60    0.29
   6   0  -7    3.29    0.36
   6   0  -7    2.21    0.32
  -6   0   7    2.60    0.27
  -6   0   7    2.67    0.37
   5   0  -7    4.05    0.40
   5   0  -7    3.96    0.43
   5   0  -7    3.72    0.42
   5   0  -7    4.15    0.53
   5   0  -7    3.64    0.38
  -5   0   7    3.74    0.43
  -5   0   7    3.85    0.42
  -5   0   7    3.60    0.35
   4   0  -7    2.70    0.35
   4   0  -7    2.96    0.40
   4   0  -7    2.93    0.39
   4   0  -7    4.22    0.47
   4   0  -7    3.65    0.35
   4   0  -7    2.65    0.30
  -4   0   7    3.32    0.29
  -4   0   7    2.63    0.44
  -4   0   7    3.15    0.36
  -4   0   7    2.43    0.44
  -4   0   7    3.61    0.30
  -4   0   7    3.27    0.29
   3   0  -7    4.14    0.38
   3   0  -7    3.86    0.43
   3   0  -7    3.26    0.46
   3   0  -7    3.79    0.47
  -3   0   7    4.60    0.37
  -3   0   7    4.41    0.38
  -3   0   7    4.40    0.38
  -3   0   7    4.97    0.44
   2   0  -7    1.73    0.35
   2   0  -7    1.10    0.64
   2   0  -7    1.58    0.21
  -2   0   7    1.63    0.20
  -2   0   7    2.31    0.41
   1   0  -7    2.43    0.63
   1   0  -7    3.19    0.46
  -1   0   7    3.51    0.32
   0   0  -7    0.64    0.47
   0   0  -7    0.43    0.26
   0   0   7    0.54    0.15
  -1   0  -7    0.47    0.39
   1   0   7    0.62    0.23
  -2   0  -7   -0.18    0.29
   7  -1  -7    1.40    0.18
   7  -1  -7    1.21    0.26
   7  -1  -7    1.47    0.23
   7  -1  -7    1.30    0.29
   6  -1  -7    2.96    0.27
   6  -1  -7    2.63    0.33
   6  -1  -7    2.63    0.35
   6  -1  -7    2.46    0.32
  -6   1   7    2.30    0.41
  -6   1   7    2.24    0.27
   5  -1  -7    3.36    0.39
   5  -1  -7    4.03    0.40
   5  -1  -7    2.79    0.42
   5  -1  -7    3.68    0.36
  -5   1   7    3.64    0.50
  -5   1   7    3.70    0.34
  -5   1   7    3.96    0.44
   4  -1  -7    1.86    0.27
   4  -1  -7    0.93    0.31
   4  -1  -7    1.15    0.20
   4  -1  -7    1.45    0.24
  -4   1   7    2.10    0.51
  -4   1   7    1.83    0.19
  -4   1   7    1.46    0.20
   3  -1  -7    5.96    0.94
   3  -1  -7    7.84    0.59
   3  -1  -7    6.95    0.63
  -3   1   7    7.73    0.66
  -3   1   7    7.05    0.59
  -3   1   7    6.28    0.60
   2  -1  -7    0.83    0.27
   2  -1  -7    1.12    0.58
  -2   1   7    1.05    0.32
  -2   1   7    0.53    0.57
   1  -1  -7    8.02    0.83
  -1   1   7    9.36    0.74
   0  -1  -7    0.05    0.23
   0  -1  -7    0.84    0.42
   0   1   7    0.16    0.15
  -1  -1  -7    5.64    0.59
   7  -2  -7    2.42    0.26
   7  -2  -7    2.12    0.34
   7  -2  -7    2.34    0.23
   7  -2  -7    1.90    0.29
   6  -2  -7    0.11    0.10
   6  -2  -7    0.05    0.24
   6  -2  -7    0.17    0.16
   6  -2  -7    0.18    0.19
  -6   2   7    0.34    0.34
  -6   2   7    0.16    0.10
   5  -2  -7    5.31    0.52
   5  -2  -7    6.02    0.50
   5  -2  -7    6.48    0.81
   5  -2  -7    5.26    0.56
   5  -2  -7    5.91    0.55
  -5   2   7    5.33    0.49
  -5   2   7    5.86    0.48
   4  -2  -7    0.32    0.12
   4  -2  -7   -0.24    0.31
   4  -2  -7   -0.11    0.18
   4  -2  -7    0.47    0.57
   4  -2  -7    0.32    0.14
  -4   2   7   -0.05    0.17
  -4   2   7   -0.08    0.10
  -4   2   7   -0.06    0.32
  -4   2   7   -0.10    0.23
   3  -2  -7    8.19    0.84
   3  -2  -7    7.13    0.98
   3  -2  -7   10.44    0.78
  -3   2   7    9.00    0.88
  -3   2   7    8.85    0.75
  -3   2   7    8.94    0.78
   2  -2  -7   -0.39    0.49
   2  -2  -7    0.24    0.25
  -2   2   7   -0.29    0.55
  -2   2   7    0.08    0.11
   1  -2  -7    6.74    0.70
  -1   2   7    7.95    0.92
  -1   2   7    7.17    0.63
   0  -2  -7   -0.17    0.41
   0  -2  -7    0.01    0.23
   0   2   7    0.26    0.17
  -1  -2  -7    2.23    0.80
  -1  -2  -7    1.69    0.36
   7  -3  -7    0.30    0.08
   7  -3  -7    0.21    0.16
   7  -3  -7    0.31    0.11
   7  -3  -7    0.41    0.21
  -7   3   7    0.62    0.26
  -7   3   7    0.53    0.31
   6  -3  -7    0.95    0.43
   6  -3  -7    1.28    0.23
   6  -3  -7    1.26    0.23
   6  -3  -7    1.12    0.30
   6  -3  -7    1.14    0.17
  -6   3   7    1.66    0.42
  -6   3   7    1.52    0.34
   5  -3  -7    0.95    0.32
   5  -3  -7    1.25    0.44
   5  -3  -7    0.58    0.17
   5  -3  -7    0.56    0.12
  -5   3   7    0.76    0.25
  -5   3   7    0.65    0.42
  -5   3   7    0.73    0.14
   4  -3  -7    1.74    0.31
   4  -3  -7    1.30    0.49
   4  -3  -7    1.67    0.22
  -4   3   7    1.26    0.23
  -4   3   7    1.59    0.31
  -4   3   7    2.02    0.49
   3  -3  -7    0.00    0.44
   3  -3  -7    0.65    0.24
  -3   3   7    0.51    0.30
  -3   3   7    0.51    0.13
   2  -3  -7   -0.04    0.43
   2  -3  -7    0.48    0.23
  -2   3   7    0.54    0.14
   1  -3  -7    0.09    0.23
  -1   3   7    0.35    0.15
   0  -3  -7    0.25    0.25
   0  -3  -7   -0.24    0.37
   7  -4  -7    1.55    0.13
   7  -4  -7    1.17    0.22
   7  -4  -7    1.27    0.17
   7  -4  -7    1.66    0.30
   7  -4  -7    1.30    0.23
  -7   4   7    1.04    0.25
   6  -4  -7    0.27    0.18
   6  -4  -7    0.19    0.07
   6  -4  -7    0.07    0.26
   6  -4  -7    0.01    0.29
   6  -4  -7    0.04    0.11
  -6   4   7    0.00    0.34
  -6   4   7    0.34    0.28
   5  -4  -7    1.71    0.27
   5  -4  -7    2.61    0.42
   5  -4  -7    1.88    0.19
  -5   4   7    1.44    0.42
  -5   4   7    2.02    0.35
   4  -4  -7    0.75    0.42
   4  -4  -7   -0.01    0.15
   4  -4  -7    0.11    0.24
  -4   4   7    0.31    0.28
   3  -4  -7    1.63    0.45
   3  -4  -7    2.08    0.39
   2  -4  -7    0.23    0.36
   5  -5  -7    5.26    0.53
   5  -5  -7    4.80    0.44
   4  -5  -7    0.58    0.30
  -4   5   7    0.43    0.31
   2   6  -8    0.59    0.11
   2   6  -8    0.53    0.12
  -2  -6   8   -0.28    0.82
   1   6  -8    0.15    0.15
   1   6  -8    0.14    0.10
  -1  -6   8    0.17    0.94
   0  -6   8   -0.36    0.96
   3   5  -8    0.08    0.15
   3   5  -8    0.04    0.15
   3   5  -8    0.19    0.14
   3   5  -8   -0.07    0.10
  -3  -5   8   -0.59    1.06
   2   5  -8   -0.26    0.13
   2   5  -8   -0.01    0.16
   2   5  -8    0.08    0.13
  -2  -5   8    0.94    1.30
   1   5  -8    0.30    0.18
  -1  -5   8   -0.37    1.35
   0   5  -8    0.12    0.13
   0  -5   8   -1.18    1.29
  -1   5  -8    0.05    0.15
   1  -5   8    0.35    1.04
   4   4  -8    0.02    0.11
   4   4  -8   -0.11    0.14
   4   4  -8   -0.06    0.18
   4   4  -8   -0.10    0.12
  -4  -4   8   -0.08    0.25
  -4  -4   8    0.11    1.10
  -4  -4   8   -0.04    0.14
   3   4  -8    1.51    0.26
   3   4  -8    1.94    0.25
   3   4  -8    2.03    0.31
   3   4  -8    1.82    0.24
   2   4  -8    0.00    0.20
   2   4  -8   -0.05    0.13
  -2  -4   8   -1.43    1.47
   1   4  -8    3.27    0.41
   1   4  -8    2.98    0.30
  -1  -4   8    0.24    1.40
   0   4  -8    0.31    0.19
   0  -4   8    0.64    1.70
   1  -4   8   -0.40    1.20
   2  -4   8    0.58    0.81
   5   3  -8   -0.02    0.15
   5   3  -8   -0.15    0.11
   5   3  -8    0.24    0.15
   5   3  -8    0.20    0.19
  -5  -3   8   -0.02    0.15
  -5  -3   8    0.14    0.23
   4   3  -8    0.04    0.15
   4   3  -8   -0.02    0.13
   4   3  -8    0.04    0.27
   4   3  -8    0.19    0.18
   4   3  -8    0.21    0.18
  -4  -3   8    0.11    0.20
  -4  -3   8    0.09    0.29
  -4  -3   8    0.36    0.17
  -4  -3   8    0.09    0.11
   3   3  -8   -0.03    0.15
   3   3  -8    0.32    0.16
   3   3  -8    0.19    0.22
  -3  -3   8    0.56    0.12
  -3  -3   8    0.09    0.37
  -3  -3   8    0.35    0.19
   2   3  -8    0.53    0.24
   2   3  -8    0.33    0.16
   1   3  -8    0.39    0.19
  -1  -3   8   -0.60    1.56
   0  -3   8   -0.10    1.51
   1  -3   8    0.45    1.20
  -2   3  -8    0.07    0.23
   2  -3   8   -0.12    0.82
   6   2  -8    0.61    0.16
   6   2  -8    0.60    0.14
   6   2  -8    0.79    0.21
   6   2  -8    0.56    0.11
  -6  -2   8    0.66    0.21
  -6  -2   8    0.88    0.19
   5   2  -8    0.03    0.20
   5   2  -8   -0.15    0.15
   5   2  -8    0.54    0.24
   5   2  -8    0.03    0.13
   5   2  -8    0.11    0.17
  -5  -2   8   -0.06    0.11
  -5  -2   8    0.13    0.25
  -5  -2   8    0.15    0.19
  -5  -2   8   -0.06    0.20
   4   2  -8    1.34    0.25
   4   2  -8    2.23    0.27
   4   2  -8    2.12    0.33
   4   2  -8    1.65    0.29
   4   2  -8    2.17    0.27
  -4  -2   8    1.77    0.24
  -4  -2   8    2.06    0.23
   3   2  -8    0.22    0.15
   3   2  -8    0.18    0.23
   3   2  -8    0.32    0.18
  -3  -2   8   -0.23    0.35
  -3  -2   8    0.04    0.11
  -3  -2   8    0.32    0.23
   2   2  -8    1.70    0.28
   2   2  -8    1.34    0.34
  -2  -2   8    1.98    0.23
   1   2  -8    0.17    0.22
   0   2  -8    0.04    0.33
  -1   2  -8    0.01    0.32
   6   1  -8    0.43    0.17
   6   1  -8    0.04    0.14
   6   1  -8    0.24    0.22
   6   1  -8    0.08    0.11
  -6  -1   8    0.18    0.19
   5   1  -8   11.94    0.92
   5   1  -8   10.60    0.98
   5   1  -8   11.87    0.93
  -5  -1   8   10.41    0.91
  -5  -1   8   10.28    0.91
   4   1  -8    0.01    0.14
   4   1  -8   -0.06    0.19
   4   1  -8    0.19    0.22
   4   1  -8    0.20    0.15
  -4  -1   8   -0.01    0.33
  -4  -1   8    0.05    0.09
  -4  -1   8    0.26    0.23
   3   1  -8    5.79    0.54
   3   1  -8    4.74    0.59
  -3  -1   8    5.86    0.62
  -3  -1   8    6.00    0.60
  -3  -1   8    6.38    0.50
   2   1  -8   -0.05    0.24
  -2  -1   8   -0.05    0.11
  -2  -1   8    0.12    0.27
   1   1  -8    0.95    0.43
  -1  -1   8    1.66    0.26
   0   1  -8   -0.02    0.38
  -1   1  -8   -0.07    0.30
   6   0  -8   -0.01    0.19
   6   0  -8   -0.05    0.15
   6   0  -8    0.37    0.22
   6   0  -8   -0.04    0.11
  -6   0   8    0.05    0.26
  -6   0   8    0.00    0.10
   5   0  -8    1.15    0.23
   5   0  -8    1.19    0.20
   5   0  -8    0.90    0.24
   5   0  -8    1.66    0.23
  -5   0   8    1.45    0.34
  -5   0   8    1.49    0.18
  -5   0   8    1.40    0.19
   4   0  -8   -0.08    0.13
   4   0  -8   -0.51    0.48
   4   0  -8    0.11    0.20
   4   0  -8   -0.36    0.21
   4   0  -8   -0.08    0.15
  -4   0   8   -0.03    0.34
  -4   0   8   -1.05    0.63
  -4   0   8    0.04    0.20
  -4   0   8    0.08    0.09
  -4   0   8    0.70    0.32
  -3   0   8    3.62    0.38
  -3   0   8    2.65    0.56
  -3   0   8    3.59    0.32
   2   0  -8    0.60    0.43
   1   0  -8    3.42    0.61
  -1   0   8    4.21    0.39
   0   0  -8    0.39    0.36
   6  -1  -8    1.33    0.18
   6  -1  -8    1.52    0.29
   6  -1  -8    1.23    0.21
   6  -1  -8    1.24    0.23
  -6   1   8    1.67    0.38
  -6   1   8    1.29    0.30
  -6   1   8    0.93    0.18
   5  -1  -8    2.57    0.33
   5  -1  -8    2.57    0.29
   5  -1  -8    2.07    0.35
   5  -1  -8    2.54    0.26
  -5   1   8    1.88    0.24
  -5   1   8    2.48    0.25
  -5   1   8    2.85    0.40
   4  -1  -8    0.37    0.16
   4  -1  -8   -0.09    0.18
   4  -1  -8    0.65    0.27
  -4   1   8    0.47    0.21
  -4   1   8    0.92    0.41
   3  -1  -8    1.68    0.47
  -3   1   8    1.76    0.34
  -3   1   8    2.26    0.23
   2  -1  -8   -0.14    0.42
  -2   1   8   -0.04    0.10
   1  -1  -8    0.85    0.43
  -1   1   8    1.25    0.18
   0  -1  -8    0.30    0.30
   6  -2  -8    0.34    0.13
   6  -2  -8    0.20    0.17
   6  -2  -8    0.10    0.08
   6  -2  -8    0.22    0.23
  -6   2   8    0.15    0.33
  -6   2   8    0.22    0.25
   5  -2  -8    3.73    0.40
   5  -2  -8    4.18    0.36
   5  -2  -8    4.51    0.39
   5  -2  -8    4.40    0.64
  -5   2   8    3.37    0.53
  -5   2   8    3.70    0.37
  -5   2   8    4.34    0.44
   4  -2  -8    0.11    0.43
   4  -2  -8   -0.02    0.15
   4  -2  -8   -0.25    0.30
  -4   2   8    0.32    0.24
  -4   2   8    0.04    0.11
  -4   2   8    0.58    0.47
   3  -2  -8    3.14    0.61
  -3   2   8    3.09    0.31
   2  -2  -8   -0.44    0.41
  -2   2   8    0.11    0.12
   1  -2  -8    0.85    0.33
   6  -3  -8    0.14    0.19
   6  -3  -8   -0.07    0.06
   6  -3  -8    0.01    0.14
  -6   3   8    0.39    0.32
  -6   3   8    0.06    0.20
   5  -3  -8    2.42    0.45
   5  -3  -8    2.56    0.28
  -5   3   8    2.67    0.35
   4  -3  -8    0.05    0.33
   3  -3  -8    1.01    0.36
   3   4  -9    0.56    0.15
   3   4  -9    0.75    0.12
   2   4  -9    0.77    0.15
   1   4  -9    0.09    0.13
   4   3  -9    0.06    0.08
   4   3  -9   -0.05    0.14
  -4  -3   9    0.02    0.22
   3   3  -9    1.04    0.18
   3   3  -9    0.97    0.19
   2   3  -9   -0.03    0.17
   1   3  -9    0.22    0.16
   5   2  -9   -0.07    0.07
   5   2  -9   -0.19    0.12
   5   2  -9   -0.05    0.12
   4   2  -9    3.37    0.31
   4   2  -9    2.79    0.29
   4   2  -9    3.17    0.34
   3   2  -9    0.07    0.15
   2   2  -9    0.36    0.19
   5   1  -9    6.20    0.49
   5   1  -9    4.60    0.49
   5   1  -9    5.81    0.47
   5   1  -9    5.24    0.46
   4   1  -9    1.48    0.26
   4   1  -9    1.55    0.26
   3   1  -9    3.28    0.35
   5   0  -9    0.11    0.14
   5   0  -9   -0.23    0.14
   5   0  -9    0.02    0.08
   5   0  -9   -0.04    0.17
  -5   0   9   -0.38    0.54
  -5   0   9    0.25    0.20
   4   0  -9    0.43    0.22
  -4   0   9    0.36    0.24
   2   0  -9    0.15    0.29
   5  -1  -9    2.42    0.25
   4  -1  -9   -0.34    0.23
   3  -1  -9    0.99    0.27
   0   0   0    0.00    0.00
;
_shelx_hkl_checksum              68283
_shelx_res_file
;
TITL cu_jorge8_0m_a.res in P-1        New: I2/a
    jorge8b.res
    created by SHELXL-2018/3 at 21:10:37 on 07-Nov-2019
CELL  1.54178    7.3633   12.0641    8.9185    90.000   103.738    90.000
ZERR        4    0.0013    0.0016    0.0019     0.000     0.013     0.000
LATT   2
SYMM     0.50000 - X ,              Y ,            - Z
SFAC  C  H  N  O
UNIT 36 28 4 8
LIST 4 ! automatically inserted. Change 6 to 4 for CHECKCIF!!
TEMP  -173
L.S. 10
FMAP 2
PLAN -20
ACTA
omit  -1   2   1
BOND $H
CONF
WGHT    0.100200    0.535200
EXTI    0.002528
FVAR       0.16369
RESI 0
O1    4    0.330886    0.646485    0.118267    11.00000    0.04139    0.02345 =
         0.04093   -0.00406   -0.00416   -0.00310
N1    3    0.250000    0.598568    0.000000    10.50000    0.02625    0.02128 =
         0.03513    0.00000    0.00076    0.00000
C1    1    0.250000    0.476457    0.000000    10.50000    0.02489    0.01720 =
         0.03707    0.00000    0.00580    0.00000
C2    1    0.361350    0.421721    0.124199    11.00000    0.02616    0.02322 =
         0.03333   -0.00314    0.00113   -0.00285
AFIX  43
H2    2    0.435644    0.461834    0.208422    11.00000   -1.20000
AFIX   0
C3    1    0.362263    0.306386    0.123185    11.00000    0.02797    0.02376 =
         0.03502    0.00514    0.00182    0.00198
AFIX  43
H3    2    0.439548    0.266962    0.206608    11.00000   -1.20000
AFIX   0
C4    1    0.250000    0.248449    0.000000    10.50000    0.02726    0.02025 =
         0.03730    0.00000    0.00795    0.00000
C7    1    0.250000    0.128342    0.000000    10.50000    0.02966    0.02053 =
         0.03753    0.00000    0.00476    0.00000
C8    1    0.250000    0.029249    0.000000    10.50000    0.02848    0.02591 =
         0.03868    0.00000    0.00414    0.00000
C9    1    0.250000   -0.092410    0.000000    10.50000    0.03129    0.01737 =
         0.04878    0.00000    0.00210    0.00000
AFIX 137
H9A   2    0.132345   -0.119488   -0.065837    10.50000   -1.20000
H9B   2    0.262645   -0.119487    0.105581    10.50000   -1.20000
H9C   2    0.355010   -0.119487   -0.039745    10.50000   -1.20000
AFIX   0
HKLF 4 1  1.000  0.000  0.000  0.000 -1.000  1.000 -1.000 -1.000  -1.0000
REM  cu_jorge8_0m_a.res in P-1        New: I2/a
REM wR2 = 0.1785, GooF = S = 1.130, Restrained GooF = 1.130 for all data
REM R1 = 0.0569 for 571 Fo > 4sig(Fo) and 0.0733 for all 717 data
REM 60 parameters refined using 0 restraints
END
WGHT      0.1002      0.5351
REM Highest difference peak  0.257,  deepest hole -0.372,  1-sigma level  0.072
Q1    1   0.3496  0.1291  0.1134  11.00000  0.05    0.26
Q2    1   0.2905  0.0769  0.1355  11.00000  0.05    0.26
Q3    1   0.5344  0.4200  0.1210  11.00000  0.05    0.24
Q4    1   0.4055  0.6435  0.0573  11.00000  0.05    0.23
Q5    1   0.3684 -0.1467  0.0407  11.00000  0.05    0.21
Q6    1   0.5019  0.4718  0.1585  11.00000  0.05    0.21
Q7    1   0.4400  0.6231  0.1897  11.00000  0.05    0.21
Q8    1   0.2876 -0.1194  0.1550  11.00000  0.05    0.20
Q9    1   0.4448  0.2479  0.3774  11.00000  0.05    0.19
Q10   1   0.1828  0.4800  0.0237  11.00000  0.05    0.19
Q11   1   0.1893  0.7003  0.0231  11.00000  0.05    0.19
Q12   1   0.3767  0.0754 -0.0423  11.00000  0.05    0.19
Q13   1   0.3517 -0.0959  0.0799  11.00000  0.05    0.19
Q14   1   0.1217  0.6404  0.0858  11.00000  0.05    0.18
Q15   1   0.0278 -0.1990 -0.0242  11.00000  0.05    0.18
Q16   1   0.2019  0.4442 -0.0389  11.00000  0.05    0.18
Q17   1   0.4397  0.1379  0.0037  11.00000  0.05    0.17
Q18   1   0.1754  0.2513  0.0278  11.00000  0.05    0.17
Q19   1   0.3958  0.0763  0.0786  11.00000  0.05    0.17
Q20   1   0.5033  0.2444  0.1474  11.00000  0.05    0.17
;
_shelx_res_checksum              19987
loop_
_space_group_symop_operation_xyz
'x, y, z'
'-x+1/2, y, -z'
'x+1/2, y+1/2, z+1/2'
'-x+1, y+1/2, -z+1/2'
'-x, -y, -z'
'x-1/2, -y, z'
'-x+1/2, -y+1/2, -z+1/2'
'x, -y+1/2, z+1/2'
loop_
_atom_site_type_symbol
_atom_site_label
_atom_site_fract_x
_atom_site_fract_y
_atom_site_fract_z
_atom_site_U_iso_or_equiv
_atom_site_adp_type
_atom_site_calc_flag
_atom_site_occupancy
O O1 0.3309(2) 0.64648(13) 0.11827(18) 0.0376(6) Uani d 1
N N1 0.250000 0.5986(2) 0.000000 0.0286(7) Uani d 1
C C1 0.250000 0.4765(2) 0.000000 0.0266(8) Uani d 1
C C2 0.3613(3) 0.42172(19) 0.1242(2) 0.0286(7) Uani d 1
H H2 0.435644 0.461834 0.208422 0.034 Uiso calc 1
C C3 0.3623(3) 0.30639(19) 0.1232(3) 0.0299(7) Uani d 1
H H3 0.439548 0.266962 0.206608 0.036 Uiso calc 1
C C4 0.250000 0.2484(2) 0.000000 0.0282(8) Uani d 1
C C7 0.250000 0.1283(2) 0.000000 0.0298(8) Uani d 1
C C8 0.250000 0.0292(3) 0.000000 0.0317(8) Uani d 1
C C9 0.250000 -0.0924(3) 0.000000 0.0337(9) Uani d 1
H H9A 0.132345 -0.119488 -0.065837 0.040 Uiso calc 0.5
H H9B 0.262645 -0.119487 0.105581 0.040 Uiso calc 0.5
H H9C 0.355010 -0.119487 -0.039745 0.040 Uiso calc 0.5
loop_
_atom_site_aniso_label
_atom_site_aniso_U_11
_atom_site_aniso_U_22
_atom_site_aniso_U_33
_atom_site_aniso_U_12
_atom_site_aniso_U_13
_atom_site_aniso_U_23
O1 0.0414(10) 0.0234(10) 0.0409(11) -0.0031(7) -0.0042(7) -0.0041(7)
N1 0.0262(13) 0.0213(14) 0.0351(15) 0.000 0.0008(10) 0.000
C1 0.0249(15) 0.0172(16) 0.0371(18) 0.000 0.0058(13) 0.000
C2 0.0262(12) 0.0232(13) 0.0333(13) -0.0029(8) 0.0011(9) -0.0031(9)
C3 0.0280(12) 0.0238(14) 0.0350(14) 0.0020(8) 0.0018(9) 0.0051(9)
C4 0.0273(16) 0.0203(17) 0.0373(18) 0.000 0.0080(12) 0.000
C7 0.0297(17) 0.0205(18) 0.0375(19) 0.000 0.0048(13) 0.000
C8 0.0285(16) 0.026(2) 0.0387(19) 0.000 0.0041(13) 0.000
C9 0.0313(17) 0.0174(17) 0.049(2) 0.000 0.0021(14) 0.000
loop_
_atom_type_symbol
_atom_type_description
_atom_type_scat_dispersion_real
_atom_type_scat_dispersion_imag
_atom_type_scat_source
C C 0.0181 0.0091 'International Tables Vol C Tables 4.2.6.8 and 6.1.1.4'
H H 0.0000 0.0000 'International Tables Vol C Tables 4.2.6.8 and 6.1.1.4'
N N 0.0311 0.0180 'International Tables Vol C Tables 4.2.6.8 and 6.1.1.4'
O O 0.0492 0.0322 'International Tables Vol C Tables 4.2.6.8 and 6.1.1.4'
loop_
_geom_angle_atom_site_label_1
_geom_angle_atom_site_label_2
_geom_angle_atom_site_label_3
_geom_angle_site_symmetry_1
_geom_angle_site_symmetry_3
_geom_angle
O1 N1 O1 . 2 123.7(3)
O1 N1 C1 . . 118.13(13)
O1 N1 C1 2 . 118.13(13)
C2 C1 C2 2 . 122.8(3)
C2 C1 N1 2 . 118.59(14)
C2 C1 N1 . . 118.59(14)
C1 C2 C3 . . 118.4(2)
C1 C2 H2 . . 120.8
C3 C2 H2 . . 120.8
C2 C3 C4 . . 120.2(2)
C2 C3 H3 . . 119.9
C4 C3 H3 . . 119.9
C3 C4 C3 . 2 119.9(3)
C3 C4 C7 . . 120.06(14)
C3 C4 C7 2 . 120.06(14)
C8 C7 C4 . . 180.0
C7 C8 C9 . . 180.0
C8 C9 H9A . . 109.5
C8 C9 H9B . . 109.5
H9A C9 H9B . . 109.5
C8 C9 H9C . . 109.5
H9A C9 H9C . . 109.5
H9B C9 H9C . . 109.5
C8 C9 H9A . 2 109.474(4)
H9A C9 H9A . 2 141.1
H9B C9 H9A . 2 56.3
H9C C9 H9A . 2 56.2
C8 C9 H9B . 2 109.469(5)
H9A C9 H9B . 2 56.3
H9B C9 H9B . 2 141.1
H9C C9 H9B . 2 56.3
H9A C9 H9B 2 2 109.5
C8 C9 H9C . 2 109.469(4)
H9A C9 H9C . 2 56.2
H9B C9 H9C . 2 56.3
H9C C9 H9C . 2 141.1
H9A C9 H9C 2 2 109.5
H9B C9 H9C 2 2 109.5
loop_
_geom_bond_atom_site_label_1
_geom_bond_atom_site_label_2
_geom_bond_site_symmetry_2
_geom_bond_distance
_geom_bond_publ_flag
N1 O1 . 1.226(2) no
N1 C1 . 1.473(4) no
C1 C2 2 1.380(3) no
C1 C2 . 1.380(3) no
C2 C3 . 1.391(3) no
C2 H2 . 0.9500 no
C3 C4 . 1.396(3) no
C3 H3 . 0.9500 no
C4 C7 . 1.449(4) no
C7 C8 . 1.195(4) no
C8 C9 . 1.468(4) no
C9 H9A . 0.9800 n
C9 H9B . 0.9800 n
C9 H9C . 0.9800 n
C9 H9A 2 0.9800 n
C9 H9B 2 0.9800 n
C9 H9C 2 0.9800 n
loop_
_geom_torsion_atom_site_label_1
_geom_torsion_atom_site_label_2
_geom_torsion_atom_site_label_3
_geom_torsion_atom_site_label_4
_geom_torsion_site_symmetry_1
_geom_torsion_site_symmetry_4
_geom_torsion
_geom_torsion_publ_flag
O1 N1 C1 C2 . 2 171.25(14) no
O1 N1 C1 C2 2 2 -8.75(14) no
O1 N1 C1 C2 . . -8.75(14) no
O1 N1 C1 C2 2 . 171.25(14) no
C2 C1 C2 C3 2 . 0.56(14) no
N1 C1 C2 C3 . . -179.44(14) no
C1 C2 C3 C4 . . -1.1(3) no
C2 C3 C4 C3 . 2 0.57(14) no
C2 C3 C4 C7 . . -179.43(14) no

_cod_database_fobs_code 1556407
