#------------------------------------------------------------------------------
#$Date: 2019-12-24 02:58:48 +0200 (Tue, 24 Dec 2019) $
#$Revision: 245546 $
#$URL: file:///home/coder/svn-repositories/cod/cif/1/55/67/1556718.cif $
#------------------------------------------------------------------------------
#
# This file is available in the Crystallography Open Database (COD),
# http://www.crystallography.net/
#
# All data on this site have been placed in the public domain by the
# contributors.
#
data_1556718
loop_
_publ_author_name
'G\"artner, Michael'
'Sauter, Eric'
'Nascimbeni, Giulia'
'Wiesner, Adrian'
'Kind, Martin'
'Werner, Philipp'
'Schuch, Christian'
'Abu-Husein, Tarek'
'Asyuda, Andika'
'Bats, Jan W.'
'Bolte, Michael'
'Zojer, Egbert'
'Terfort, Andreas'
'Zharnikov, Michael'
_publ_section_title
;
 Self-Assembled Monolayers with Distributed Dipole Moments Originating
 from Bipyrimidine Units
;
_journal_name_full               'The Journal of Physical Chemistry C'
_journal_paper_doi               10.1021/acs.jpcc.9b08835
_journal_year                    2019
_chemical_formula_moiety         'C8 H6 N4 S'
_chemical_formula_sum            'C8 H6 N4 S'
_chemical_formula_weight         190.23
_space_group_crystal_system      triclinic
_space_group_IT_number           2
_space_group_name_Hall           '-P 1'
_space_group_name_H-M_alt        'P -1'
_atom_sites_solution_hydrogens   mixed
_audit_creation_method           SHELXL-2014/6
_cell_angle_alpha                91.928(10)
_cell_angle_beta                 92.817(10)
_cell_angle_gamma                90.420(9)
_cell_formula_units_Z            2
_cell_length_a                   3.8332(4)
_cell_length_b                   10.1817(11)
_cell_length_c                   10.3930(13)
_cell_measurement_reflns_used    3681
_cell_measurement_temperature    173(2)
_cell_measurement_theta_max      26.33
_cell_measurement_theta_min      2.76
_cell_volume                     404.89(8)
_computing_cell_refinement       'X-Area (Stoe & Cie, 2001)'
_computing_data_collection       'X-Area (Stoe & Cie, 2001)'
_computing_data_reduction        'X-Area (Stoe & Cie, 2001)'
_computing_molecular_graphics    'XP in SHELXTL-Plus (Sheldrick, 2008)'
_computing_publication_material  SHELXL
_computing_structure_refinement  'SHELXL-2014/6 (Sheldrick, 2014)'
_computing_structure_solution    'SHELXS (Sheldrick, 2008)'
_diffrn_ambient_temperature      173(2)
_diffrn_measured_fraction_theta_full 0.997
_diffrn_measured_fraction_theta_max 0.997
_diffrn_measurement_device_type  'STOE IPDS II two-circle-diffractometer'
_diffrn_measurement_method       \w
_diffrn_radiation_type           MoK\a
_diffrn_radiation_wavelength     0.71073
_diffrn_reflns_av_R_equivalents  0.0291
_diffrn_reflns_av_unetI/netI     0.0302
_diffrn_reflns_Laue_measured_fraction_full 0.997
_diffrn_reflns_Laue_measured_fraction_max 0.997
_diffrn_reflns_limit_h_max       4
_diffrn_reflns_limit_h_min       -4
_diffrn_reflns_limit_k_max       12
_diffrn_reflns_limit_k_min       -12
_diffrn_reflns_limit_l_max       12
_diffrn_reflns_limit_l_min       -11
_diffrn_reflns_number            3681
_diffrn_reflns_point_group_measured_fraction_full 0.997
_diffrn_reflns_point_group_measured_fraction_max 0.997
_diffrn_reflns_theta_full        25.000
_diffrn_reflns_theta_max         25.897
_diffrn_reflns_theta_min         2.756
_diffrn_source                   'Genix 3D I\mS microfocus X-ray source'
_exptl_absorpt_coefficient_mu    0.349
_exptl_absorpt_correction_T_max  1.000
_exptl_absorpt_correction_T_min  0.476
_exptl_absorpt_correction_type   multi-scan
_exptl_absorpt_process_details   'X-Area (Stoe & Cie, 2001)'
_exptl_crystal_colour            colourless
_exptl_crystal_density_diffrn    1.560
_exptl_crystal_description       block
_exptl_crystal_F_000             196
_exptl_crystal_size_max          0.150
_exptl_crystal_size_mid          0.110
_exptl_crystal_size_min          0.100
_refine_diff_density_max         0.223
_refine_diff_density_min         -0.285
_refine_diff_density_rms         0.057
_refine_ls_extinction_method     none
_refine_ls_goodness_of_fit_ref   1.093
_refine_ls_hydrogen_treatment    mixed
_refine_ls_matrix_type           full
_refine_ls_number_parameters     122
_refine_ls_number_reflns         1579
_refine_ls_number_restraints     0
_refine_ls_restrained_S_all      1.093
_refine_ls_R_factor_all          0.0423
_refine_ls_R_factor_gt           0.0375
_refine_ls_shift/su_max          0.000
_refine_ls_shift/su_mean         0.000
_refine_ls_structure_factor_coef Fsqd
_refine_ls_weighting_details
'w=1/[\s^2^(Fo^2^)+(0.0595P)^2^+0.1176P] where P=(Fo^2^+2Fc^2^)/3'
_refine_ls_weighting_scheme      calc
_refine_ls_wR_factor_gt          0.0997
_refine_ls_wR_factor_ref         0.1022
_reflns_Friedel_coverage         0.000
_reflns_number_gt                1425
_reflns_number_total             1579
_reflns_threshold_expression     'I > 2\s(I)'
_cod_data_source_file            jp9b08835_si_003.cif
_cod_data_source_block           te72
_cod_database_code               1556718
_shelx_space_group_comment
; 
The symmetry employed for this shelxl refinement is uniquely defined 
by the following loop, which should always be used as a source of 
symmetry information in preference to the above space-group names. 
They are only intended as comments. 
;
_shelx_estimated_absorpt_t_min   0.950
_shelx_estimated_absorpt_t_max   0.966
_shelxl_version_number           2014/6
_shelx_res_file
; 
TITL te72 in P-1 
CELL 0.71073  3.8332  10.1817  10.3930  91.928  92.817  90.420 
ZERR    2.00  0.0004   0.0011   0.0013   0.010   0.010   0.009 
LATT  1 
SFAC C H N S 
UNIT 16 12 8 2 
TEMP-100 
SIZE.10 .11 .15 
REM colourless block 
L.S.8 
CONF 
MPLA C1 > C6 
MPLA C11 > C16 
BOND$H 
HTAB 
EQIV $1 x, y+1, z 
HTAB S1 N13_$1 
EQIV $2 -x+2, -y+1, -z+1 
HTAB C2 N3_$2 
EQIV $3 -x, -y, -z 
HTAB C14 N15_$3 
ACTA50 
FMAP2 
PLAN10 
WGHT    0.059500    0.117600 
FVAR       1.60276 
S1    4    0.799196    0.871221    0.398950    11.00000    0.03591    0.02006 = 
         0.04195    0.00007   -0.01170   -0.00184 
H1    2    0.605537    0.945731    0.335820    11.00000    0.05981 
C1    1    0.656049    0.717786    0.334110    11.00000    0.02315    0.02226 = 
         0.02891    0.00173    0.00094   -0.00048 
C2    1    0.762722    0.605731    0.398380    11.00000    0.02609    0.02423 = 
         0.02670    0.00101   -0.00448   -0.00026 
AFIX  43 
H2    2    0.900897    0.616333    0.476509    11.00000   -1.20000 
AFIX   0 
N3    3    0.678805    0.484301    0.354712    11.00000    0.02778    0.02180 = 
         0.02571    0.00313   -0.00334    0.00051 
C4    1    0.481092    0.474285    0.245088    11.00000    0.02194    0.02393 = 
         0.02259    0.00202    0.00088    0.00076 
N5    3    0.363432    0.574785    0.175426    11.00000    0.02824    0.02343 = 
         0.02440    0.00344   -0.00195    0.00116 
C6    1    0.452949    0.695269    0.220315    11.00000    0.02779    0.02361 = 
         0.02736    0.00493   -0.00089    0.00283 
AFIX  43 
H6    2    0.375324    0.768616    0.172919    11.00000   -1.20000 
AFIX   0 
C11   1    0.385782    0.338849    0.198727    11.00000    0.02413    0.02306 = 
         0.02481    0.00218    0.00111    0.00037 
C12   1    0.480940    0.230734    0.270311    11.00000    0.03294    0.02496 = 
         0.02826    0.00267   -0.00646   -0.00190 
AFIX  43 
H12   2    0.607244    0.245109    0.350561    11.00000   -1.20000 
AFIX   0 
N13   3    0.401959    0.107623    0.230801    11.00000    0.04120    0.02218 = 
         0.03585    0.00366   -0.00843   -0.00145 
C14   1    0.224581    0.094104    0.118009    11.00000    0.03678    0.02564 = 
         0.03313   -0.00342   -0.00652   -0.00337 
AFIX  43 
H14   2    0.168215    0.006612    0.089248    11.00000   -1.20000 
AFIX   0 
N15   3    0.117011    0.188170    0.040900    11.00000    0.03922    0.02726 = 
         0.03095   -0.00126   -0.00622   -0.00147 
C16   1    0.199126    0.311381    0.082349    11.00000    0.03041    0.02532 = 
         0.02683    0.00181   -0.00239    0.00101 
AFIX  43 
H16   2    0.127444    0.382350    0.030505    11.00000   -1.20000 
  
AFIX   0 
HKLF 4 
  
REM  te72 in P-1 
REM R1 =  0.0375 for    1425 Fo > 4sig(Fo)  and  0.0423 for all    1579 data 
REM    122 parameters refined using      0 restraints 
  
END 
  
WGHT      0.0588      0.1249 
  
REM Instructions for potential hydrogen bonds 
HTAB S1 N13_$1 
HTAB C2 N3_$2 
HTAB C14 N15_$3 
  
REM Highest difference peak  0.223,  deepest hole -0.285,  1-sigma level  0.057 
Q1    1   0.4316  0.4082  0.2168  11.00000  0.05    0.22 
Q2    1   0.4438  0.2933  0.2331  11.00000  0.05    0.22 
Q3    1   0.6959  0.4025  0.3413  11.00000  0.05    0.22 
Q4    1   0.3582  0.3305  0.1399  11.00000  0.05    0.21 
Q5    1   0.4307  0.5252  0.2049  11.00000  0.05    0.20 
Q6    1   0.1925  0.1477  0.0887  11.00000  0.05    0.20 
Q7    1   0.4467  0.0637  0.2625  11.00000  0.05    0.19 
Q8    1   0.5810  0.7109  0.2719  11.00000  0.05    0.19 
Q9    1   0.6165  0.8964  0.2682  11.00000  0.05    0.18 
Q10   1   0.5410  0.4834  0.3064  11.00000  0.05    0.18 
;
_shelx_res_checksum              32576
_shelx_hkl_file
; 
  -3   6   5    9.94    4.35   0 
  -2   4   7    2.97    4.35   0 
  -1   1   3    6.05    5.03   0 
   0   0   2 3498.70   28.76   0 
   0   4  -9   21.87    4.36   0 
   0   4  11   48.46    5.16   0 
   0   5 -10    7.07    4.44   0 
   2   1   7  114.45    6.18   0 
   2   3  10   21.84    4.99   0 
   3   2  -6    2.22    3.93   0 
   3   4  -9   55.56    4.39   0 
   4   2  -3    7.83    4.60   0 
  -3   5   1   23.89    4.94   0 
  -3   5   2    8.16    4.35   0 
  -2   3   5  117.11    4.31   0 
  -2   6  -7   13.52    5.88   0 
  -2   7  -8    9.74    5.02   0 
  -1   2  -4   56.38    5.97   0 
  -1   3  -6 3230.57   20.70   0 
  -1   4  10    3.34    4.32   0 
  -1   5  11  115.95    5.55   0 
  -1   7 -10   22.06    4.95   0 
   0   3  10   77.51    4.29   0 
   1   2  -7   33.57    4.40   0 
   2   0  -2 1399.56   13.03   0 
   2   2   9  132.14    6.43   0 
   4   3  -5    8.21    4.46   0 
  -3   5   0   66.28    5.62   0 
  -3   6  -3   24.89    9.64   0 
  -3   6   6   35.46    3.90   0 
  -2   5   9   11.67    3.69   0 
  -1   1   4  271.88    6.63   0 
  -1   2   7   11.03    3.43   0 
  -1   3   9   83.04    4.73   0 
   0   0   3  193.37    8.43   0 
   0   1  -4  955.15   11.47   0 
   0   1   7   61.51    4.42   0 
   0   2  -6    8.82    4.14   0 
   0   2   9  127.13    5.01   0 
   1   1  -5   48.18    3.84   0 
   1   6 -11    6.17    3.81   0 
   2   3  -8  127.90    4.81   0 
   3   1  -3   -0.63    4.10   0 
   3   3  -7  124.10    5.02   0 
   4   2  -2   17.79    4.40   0 
  -3   5   4   36.74    4.81   0 
  -3   8  -5   73.24   12.64   0 
  -2   4   8  157.41    4.61   0 
  -1   4  -7   10.13    4.30   0 
  -1   6  -9   38.45    4.88   0 
   1   1   8  231.75    6.31   0 
   1   3  -8    4.62    3.38   0 
   1   3  11  144.95    6.07   0 
   1   4  -9   66.80    4.55   0 
   1   5 -10    2.36    3.30   0 
   2   4  -9  176.02    4.99   0 
   2   5 -10   31.77    3.86   0 
   3   4  -8    6.95    4.29   0 
   4   2  -1   51.09    5.41   0 
   4   2   3   48.68    7.78   0 
  -3   5   5   15.41    4.45   0 
  -3   6   7    2.33    3.79   0 
  -1   1   5  556.36    7.87   0 
  -1   5  -8   49.32    4.56   0 
   0   0   4  567.20    9.94   0 
   0   6 -10    2.58    4.34   0 
   1   2  10    5.55    4.28   0 
   2   0  -1   20.96    4.70   0 
   3   2   8   11.32    6.72   0 
   4   3  -4   18.02    4.47   0 
  -3   5  -1  343.92   10.13   0 
  -2   3   7    4.65    4.06   0 
  -2   4   9   88.90    4.81   0 
  -2   5  10   63.36    4.19   0 
  -1   2   8   74.75    3.94   0 
  -1   3  10   49.76    4.43   0 
  -1   4  11  243.55    5.72   0 
   0   3  -7   23.17    3.33   0 
   0   3  11   92.56    4.29   0 
   0   5  -9  165.86    5.73   0 
   2   2  -6   75.30    3.97   0 
   4   2   1   52.08    6.27   0 
   4   2   2   10.73    5.82   0 
  -3   5   6  297.04    5.93   0 
  -2   2   3    1.41    3.96   0 
  -1   1   6  775.46    8.47   0 
   0   1   8  255.59    5.34   0 
   0   4  -8    7.00    3.11   0 
   1   0   6   96.98    5.27   0 
   1   2  -6   31.56    3.44   0 
   2   0   5   15.70    6.13   0 
   2   1   8  589.67   10.17   0 
   2   3  -7  736.97    7.83   0 
   2   6 -10    5.34    3.59   0 
   3   3  -6   14.30    3.40   0 
   4   3  -3   17.25    4.61   0 
   4   4  -5    4.33    4.48   0 
  -3   5   7    2.27    4.09   0 
  -2   2   1  247.54    6.89   0 
  -2   2   4  100.54    4.19   0 
  -2   3   8    8.39    3.85   0 
  -2   4  -4    4.00    6.95   0 
  -2   8  -8    6.32    5.37   0 
  -1   2   9   37.94    4.27   0 
   0   0   5 2272.88   15.93   0 
   1   1  -4 2274.81   14.14   0 
   1   1   9  117.07    5.14   0 
   1   6 -10   46.81    3.86   0 
   2   0   0  683.98   11.15   0 
   2   2  10   14.21    4.21   0 
   2   4  -8    1.23    3.12   0 
   2   5  -9    1.02    3.53   0 
   3   1  -1   34.60    4.56   0 
   3   4  -7   10.86    3.54   0 
   3   5  -8   10.31    3.51   0 
  -3   4   2   67.07    4.66   0 
  -3   4   3  151.16    5.60   0 
  -3   4   4   16.95    4.07   0 
  -2   2   5   40.76    3.48   0 
  -2   4  10   67.19    3.94   0 
  -1   7  -9   58.92    5.17   0 
   0   3  12    2.33    4.47   0 
   0   7 -10   11.39    4.46   0 
   1   0  -1   88.61    7.03   0 
   1   3  -7   96.65    3.96   0 
   1   4  -8  123.54    4.80   0 
   1   5  -9   17.79    3.20   0 
  -3   4   1 1132.61   12.75   0 
  -3   4   5   26.14    3.67   0 
  -3   5   8  147.90    5.09   0 
  -2   2   6  225.45    4.86   0 
  -1   1   7  513.01    6.74   0 
  -1   3  -5    1.09    4.06   0 
  -1   3  11    0.55    3.34   0 
   0   0   6  658.39    8.52   0 
   0   1   9  111.13    4.15   0 
   0   2  11   29.83    4.22   0 
   1   2  11   67.25    4.82   0 
   2   1  -3    2.97    3.92   0 
   3   3  -5   66.83    4.19   0 
   4   3  -2  209.30    6.12   0 
   4   4  -4  299.01    6.25   0 
  -3   4   6   39.61    3.56   0 
  -2   3   9   11.86    3.24   0 
  -2   7  -7   65.03    5.78   0 
  -1   2  10  132.79    5.01   0 
  -1   6  -8    0.73    4.00   0 
   0   6  -9   15.67    3.41   0 
   1   0   7   44.08    4.49   0 
   1   7 -10    7.54    3.40   0 
   2   0   1 1630.09   20.04   0 
   2   6  -9    2.17    3.38   0 
   3   1   0   82.88    5.11   0 
   3   2  -3  150.63    5.30   0 
   3   6  -8   22.21    4.48   0 
  -3   4   7    3.26    3.96   0 
  -2   2   7    1.38    3.11   0 
  -1   1   8   14.87    3.31   0 
  -1   4  -6    3.64    4.44   0 
  -1   5  -7  312.98    6.86   0 
   0   0   7  429.57    7.17   0 
   0   3  -6   13.59    4.00   0 
   0   5  -8    1.37    3.83   0 
   1   1  10  507.23    7.70   0 
   1   2  -5  915.25    9.30   0 
   2   1   9  192.96    7.16   0 
   2   3  -6   12.02    3.23   0 
   2   4  -7  226.22    5.26   0 
   2   5  -8   17.50    3.49   0 
   3   2   9    1.85    6.44   0 
   3   5  -7   39.26    3.70   0 
   4   3  -1   91.00    5.12   0 
  -3   4   0   73.16    5.61   0 
  -3   5  -2   17.70    7.58   0 
  -2   2   8   58.52    4.25   0 
  -2   3  10   29.91    3.58   0 
  -2   6  -6    1.91    5.05   0 
  -1   3  12   14.30    3.58   0 
  -1   8  -9   44.27    5.00   0 
   0   1  10  134.15    4.58   0 
   0   4  -7  144.56    4.62   0 
   1   6  -9   65.83    3.69   0 
   2   0   6  225.90    8.45   0 
   3   1   1   26.47    4.68   0 
   4   4  -3   21.94    3.57   0 
  -3   4   8   86.41    4.17   0 
  -2   5  -5  293.87    9.93   0 
  -1   1   9   24.57    3.52   0 
  -1   2  11   57.47    3.89   0 
   0   2  12    0.73    3.53   0 
   1   0   8  116.00    5.15   0 
   1   1  -3   41.96    4.24   0 
   1   2  12   21.41    3.86   0 
   1   3  -6  267.97    5.29   0 
   1   4  -7  906.81    8.57   0 
   2   2  -4    6.35    3.64   0 
   2   7  -9   62.44    3.88   0 
   3   2  -2   80.78    4.72   0 
  -3   3   5    3.60    3.86   0 
  -3   4   9   -0.91    3.94   0 
  -3   7  -4   45.25   10.62   0 
  -2   2   9   10.66    3.27   0 
  -1   0   4  487.30    7.22   0 
  -1   0   5  190.15    5.53   0 
   0   0   8   98.14    4.05   0 
   0   7  -9  115.38    4.28   0 
   2   1  -2  478.89    7.50   0 
   3   4  -5   34.03    3.94   0 
   3   6  -7   52.28    3.78   0 
   4   4  -2   47.12    4.91   0 
  -4   6   3    5.87    4.23   0 
  -3   3   3  273.36    6.41   0 
  -2   1   4  140.67    5.01   0 
  -2   1   5   16.30    3.82   0 
  -1   0   3  259.85    6.52   0 
  -1   0   6  149.43    4.42   0 
  -1   2  -3  158.97    8.63   0 
  -1   7  -8   27.62    4.28   0 
   0   1  11   72.28    4.00   0 
   1   7  -9    4.46    3.26   0 
   2   1  10   11.23    4.69   0 
   2   3  -5  298.66    5.84   0 
   2   6  -8    0.47    3.12   0 
   3   1   2  346.18    9.12   0 
   4   3   1   26.10    4.68   0 
  -3   3   2  213.79    5.93   0 
  -3   3   7   29.76    3.30   0 
  -2   1   3    8.78    3.98   0 
  -2   1   6   29.02    3.30   0 
  -2   2  10   12.18    3.48   0 
  -2   8  -7   79.36    5.99   0 
  -1   0   7  762.03    8.03   0 
  -1   2  12   92.18    4.23   0 
   0   0   9   41.42    3.77   0 
   0   2  -4  182.29    6.68   0 
   1   0   9  142.21    5.31   0 
   2   0   2  719.20   17.34   0 
   2   0   7  228.93    7.95   0 
   2   4  -6   23.68    3.22   0 
   2   5  -7    9.29    3.00   0 
   4   5  -3   21.08    4.39   0 
  -4   6   2    9.09    4.45   0 
  -3   3   8   30.46    3.50   0 
  -2   1   7  252.18    4.98   0 
   1   2  -4  405.99    6.80   0 
   1   6  -8   29.31    3.17   0 
   1   8  -9  109.57    4.88   0 
   2   7  -8  129.20    4.83   0 
   3   1   3  165.28    8.25   0 
   3   2  -1   13.03    4.08   0 
   3   3  -3   16.39    3.25   0 
   3   7  -7    3.43    3.38   0 
  -3   3   9    2.55    3.43   0 
  -2   1   2 6726.55   26.06   0 
  -2   1   8  272.08    5.05   0 
  -2   2  11    7.51    3.30   0 
  -1   0   8  275.85    5.09   0 
  -1   6  -7   32.81    4.16   0 
   0   0  10   59.07    4.46   0 
   0   1  12  230.68    5.51   0 
   1   1  12   14.79    4.52   0 
   1   5  -7    2.01    3.78   0 
   2   2  -3  126.70    4.85   0 
   3   1   5   72.48   10.95   0 
   3   5  -5   -0.66    3.81   0 
   3   6  -6    1.86    3.07   0 
  -4   5   4   -0.25    4.46   0 
  -4   6   1   15.91    5.16   0 
  -3   3   1  130.24    5.96   0 
  -3   4  -1   55.71    6.33   0 
  -2   1   9  139.75    4.91   0 
  -1   0   9   83.84    4.65   0 
  -1   8  -8   12.13    4.45   0 
   0   3  -5  300.41    6.08   0 
   0   4  -6  215.81    4.90   0 
   0   9  -9    4.52    4.26   0 
   1   0  10   34.02    4.13   0 
   1   3  -5 2127.93   12.41   0 
   1   4  -6    8.48    3.88   0 
   2   0   8   49.05    5.71   0 
   2   1  -1   23.93    4.31   0 
   2   6  -7   82.72    3.91   0 
   3   1   4  297.27   12.00   0 
   4   3   3  156.89    7.07   0 
   4   3   4   98.45    7.65   0 
   4   3   5  109.51    8.72   0 
   4   5  -2   -0.72    4.05   0 
  -4   5   3   16.70    4.57   0 
  -3   2   5    3.06    3.51   0 
  -3   2   6   22.87    4.19   0 
  -1   1  12   53.50    4.27   0 
  -1   5  -6    3.98    3.89   0 
   0  -1   5  730.91    9.62   0 
   0  -1   6  976.53    9.83   0 
   0   7  -8   23.08    3.58   0 
   1   7  -8  111.82    3.85   0 
   2   1  11   27.20    4.68   0 
   2   3  -4  150.68    4.58   0 
   2   5  -6   43.01    3.98   0 
   2   8  -8   29.90    3.60   0 
   4   4   0   17.56    4.36   0 
   4   6  -3   16.57    3.77   0 
  -3   2   4  129.44    5.12   0 
  -3   2   8   55.91    4.35   0 
  -2   1  10   -1.20    3.33   0 
  -2   2  -1   38.49    6.65   0 
  -2   7  -6   48.50    5.39   0 
  -2   9  -7   83.44    6.06   0 
  -1   0  10   25.09    3.12   0 
  -1   3  -4   14.86    4.66   0 
  -1   4  -5  190.29    6.43   0 
   0  -1   4 1008.35   11.55   0 
   0  -1   7  356.96    6.44   0 
   0   0  11   57.43    3.92   0 
   1  -1   5  595.02   10.40   0 
   1  -1   6   55.45    5.04   0 
   1   1  -2  187.62    6.15   0 
   2   4  -5   60.00    3.62   0 
   3   2   0   81.34    4.83   0 
   3   7  -6   18.41    3.34   0 
  -4   5   2   28.64    4.93   0 
  -3   2   3   46.90    4.27   0 
  -3   2   9    5.57    3.93   0 
  -2   1   1   74.06    5.26   0 
  -2   1  11   13.56    4.06   0 
  -1   9  -8   67.19    4.95   0 
   0  -1   8    1.49    3.50   0 
   0   1  -2 9788.40   43.24   0 
   1  -1   7   50.45    4.79   0 
   1   0  11    0.27    4.23   0 
   1   6  -7    3.11    3.97   0 
   2   7  -7  102.11    4.13   0 
   3   4  -3   18.24    3.97   0 
   3   6  -5   52.93    3.63   0 
   4   4   1  599.85    9.63   0 
   4   5  -1  265.48    6.66   0 
  -4   4   5   35.09    4.57   0 
  -2   0   5  202.91    5.06   0 
  -2   0   6   56.28    3.58   0 
  -2   0   7   57.48    3.60   0 
  -1   0   1   90.39    6.80   0 
  -1   0  11   21.62    3.30   0 
  -1   7  -7  217.27    5.88   0 
   0   0  12   22.03    4.30   0 
   0   6  -7  143.88    4.56   0 
   1   8  -8  247.65    5.14   0 
   2   0   9    3.40    4.51   0 
   4   6  -2   61.73    4.08   0 
  -4   4   4   23.07    4.51   0 
  -4   6   0   46.94    6.37   0 
  -2   0   8   58.57    3.51   0 
  -1  -1   6  362.47    5.82   0 
  -1  -1   7  167.72    4.58   0 
   0  -1   3  221.46    7.64   0 
   0  -1   9   41.91    3.46   0 
   1  -1   4 1535.61   17.66   0 
   1  -1   8  109.07    5.02   0 
   1   5  -6   65.46    4.07   0 
   2   2  -2  834.40    9.11   0 
   2   8  -7   72.31    4.42   0 
  -3   2   2   23.77    4.12   0 
  -3   3   0    7.84    4.29   0 
  -2   0   9  272.29    5.00   0 
  -1  -1   8  350.70    5.39   0 
  -1   0  12   11.94    3.40   0 
   0  -1  10   22.59    4.08   0 
   0   5  -6  222.16    5.41   0 
   0   9  -8   80.33    4.60   0 
   1  -1   9  473.16    7.85   0 
   1   0  12  133.46    5.50   0 
   1   2  -3   15.43    3.48   0 
   1   7  -7  148.12    4.66   0 
   2   5  -5  181.10    4.82   0 
   3   1   8    6.77    9.00   0 
   3   2   1  161.29    6.07   0 
   3   7  -5  422.15    6.14   0 
   4   4   2  203.09    6.81   0 
  -4   4   3  329.67    7.41   0 
  -4   5   1  164.02    6.68   0 
  -3   1   6   49.71    3.63   0 
  -3   1   7   10.91    3.13   0 
  -3   1   8    3.89    3.16   0 
  -2   0  10   79.25    3.75   0 
  -2   6  -5   36.29    5.41   0 
  -1  -1   4 2224.29   13.53   0 
  -1  -1   9  239.23    5.02   0 
   0   7  -7    1.56    3.72   0 
   1   3  -4   98.04    3.98   0 
   1   4  -5  682.36    7.12   0 
   2   0  10  258.07    7.37   0 
   2   1   0  744.53   10.10   0 
   2   3  -3  204.64    4.65   0 
   2   4  -4  221.45    4.66   0 
   2   9  -7  230.79    5.19   0 
   4   6  -1    1.18    3.98   0 
  -3   1   5   36.94    3.54   0 
  -3   1   9   73.48    3.76   0 
  -2   0   3   60.02    3.82   0 
  -2   0  11   20.95    3.31   0 
  -2   8  -6   19.29    4.57   0 
  -1  -1  10    5.11    2.87   0 
  -1   8  -7   98.35    4.17   0 
   0  -1  11  171.38    5.12   0 
   1  -1  10   68.14    4.95   0 
   3   5  -3   31.36    3.41   0 
   3   8  -5   67.71    3.63   0 
  -4   3   5   62.18    4.64   0 
  -3   1   4 1982.66   12.95   0 
  -3   1  10   68.71    3.81   0 
  -1  -1  11   13.53    3.70   0 
   0   3  -4  481.74    7.80   0 
   1   6  -6    6.65    3.54   0 
   2   0   3 1189.05   25.75   0 
   4   4   3   59.04    4.98   0 
   4   5   1  301.18    6.92   0 
  -4   3   4   67.86    4.73   0 
  -4   4   2   19.69    4.04   0 
  -1  -1   3   46.81    4.75   0 
  -1   9  -7   17.10    3.85   0 
   0   8  -7  200.52    5.28   0 
   2   0  11   89.77    5.86   0 
   2   6  -5  138.52    4.01   0 
   2   8  -6   37.60    3.55   0 
   3   3   0  424.84    6.94   0 
   3   7  -4   83.49    3.70   0 
  -3   1   3   10.79    3.78   0 
  -3   2   1    1.50    3.59   0 
  -2  -1   6  423.81    6.09   0 
  -2  -1   7   10.08    2.79   0 
  -2  -1   8  130.73    3.85   0 
  -2  -1   9   31.77    3.18   0 
  -2   9  -6  120.24    5.82   0 
  -1  -1  12    4.28    3.03   0 
  -1   5  -5  301.62    6.77   0 
   1  -1  11   66.60    4.63   0 
   1   9  -7    2.88    3.03   0 
   3   1   9   55.04    9.52   0 
   3   2   2  419.89    8.09   0 
   3   6  -3   12.33    3.63   0 
   4   4   4   -0.65    4.61   0 
  -3   0   7   79.88    4.09   0 
  -3   0   8    8.53    2.87   0 
  -3   0   9   15.51    3.85   0 
  -2  -1   5   95.42    4.31   0 
  -2  -1  10   60.69    3.63   0 
  -2   0   2 1343.86   11.51   0 
  -2   1   0   27.92    4.71   0 
  -2   5  -4   10.46    5.05   0 
  -1   7  -6   70.81    4.40   0 
  -1  10  -7   40.38    4.49   0 
   0  -2   7  220.44    5.12   0 
   0  -2   8   17.28    3.66   0 
   0   9  -7  143.75    4.66   0 
   1  -1   3 1201.76   20.06   0 
   1   1  -1    2.47    5.15   0 
   1   5  -5   60.58    3.41   0 
   1   7  -6  252.26    5.13   0 
   1  10  -7    3.15    3.15   0 
   2   2  -1  298.89    5.97   0 
   2   9  -6    3.40    3.10   0 
   3   4  -1  119.39    4.65   0 
  -4   2   6   17.79    3.26   0 
  -4   3   3   19.33    4.34   0 
  -3   0   6 1699.10   10.92   0 
  -3   0  10    9.78    3.14   0 
  -2  -1  11   71.42    3.73   0 
  -1  -2   7   36.35    3.92   0 
  -1  -2   8   68.46    3.34   0 
  -1  -2   9  112.79    4.41   0 
   0  -2   6    7.30    3.00   0 
   0  -2   9  217.18    4.84   0 
   1  -1  12    5.60    4.09   0 
   2   3  -2  402.67    6.32   0 
   2   7  -5    3.05    2.76   0 
   4   6   1   42.68    4.70   0 
  -4   5   0   10.70    5.78   0 
  -3   0   5   14.85    3.86   0 
  -3   6  -3   27.84    8.22   0 
  -3   8  -4    8.09    6.08   0 
  -2  -1   4   49.94    3.93   0 
  -1  -2   6   26.87    3.11   0 
  -1  -2  10   47.41    3.28   0 
   0  -2  10   13.35    3.21   0 
   0   5  -5   10.33    3.47   0 
   0   7  -6  122.56    4.71   0 
   0  10  -7    0.61    3.15   0 
   1   4  -4   67.61    3.51   0 
  -4   4   1   16.06    4.42   0 
  -3   1   2   22.80    3.99   0 
  -1  -2  11   43.31    3.42   0 
   0  -2   5  118.02    4.71   0 
   0  -2  11   -0.65    3.08   0 
   1   2  -2   14.83    3.74   0 
   1   3  -3  508.23    6.70   0 
   2   1   1  370.52    8.27   0 
   2   6  -4    2.44    2.90   0 
   3   3   1  201.25    5.89   0 
   3   6  -2   55.49    4.17   0 
   4   5   3   45.54    4.62   0 
  -4   2   4   34.85    4.22   0 
  -4   6  -1   11.58    7.87   0 
  -3   0   4  411.99    6.45   0 
  -1  -2   5  927.36    8.50   0 
  -1  -2  12    0.81    3.85   0 
   0  -2  12   29.71    4.02   0 
   1  -2   8   29.97    3.88   0 
   1  -2   9    0.94    4.12   0 
   1   9  -6    1.68    3.09   0 
   2  -1   8   86.49    6.19   0 
   2   9  -5   27.46    3.85   0 
   3   2   3  105.37    5.97   0 
   3   5  -1   55.56    4.01   0 
   3   8  -3   16.15    3.21   0 
  -4   1   7   21.01    3.46   0 
  -4   3   2    0.15    3.50   0 
  -3  -1   8   73.14    3.96   0 
  -3  -1   9   -0.66    3.58   0 
  -3  -1  10   24.09    3.98   0 
  -2  -2   7  262.10    5.21   0 
  -2  -2   8    6.77    2.78   0 
  -2  -2   9    1.23    2.96   0 
  -2  -2  10   72.45    4.22   0 
   0   4  -4   35.75    4.29   0 
   0   8  -6  425.63    5.81   0 
   1  -2   7  303.27    6.66   0 
   1  -2  10   40.82    4.13   0 
   1  10  -6   94.78    4.26   0 
   2  -1   7  624.35   11.90   0 
   2  -1   9   80.06    5.95   0 
   3   4   0  176.12    5.06   0 
   3   9  -3   38.65    3.51   0 
  -4   1   6  632.05    7.37   0 
  -3  -1   7   46.24    3.33   0 
  -3   3  -1   92.03    7.12   0 
  -2  -2   6   86.77    4.00   0 
  -2  -2  11   38.93    3.29   0 
  -2  -1   3    1.77    2.89   0 
  -2   0   1   23.14    4.53   0 
  -1   9  -6  112.61    4.66   0 
   1   7  -5  396.30    5.83   0 
   2  -1  10    7.11    4.78   0 
   3   7  -2  126.23    3.84   0 
  -4   1   5   -0.62    3.48   0 
  -4   2   3    1.52    3.72   0 
  -3  -1   6   19.61    2.98   0 
  -3   0   3   20.85    3.85   0 
  -3   2   0   63.45    5.32   0 
  -2   8  -5   89.93    5.13   0 
  -1  -2   4  432.48    6.19   0 
  -1  10  -6   93.10    4.75   0 
   0  -2   4  185.70    5.71   0 
   0   6  -5   13.76    2.86   0 
   0   9  -6  130.88    4.07   0 
   1  -2   6   10.70    3.54   0 
   1  -2  11   23.86    4.03   0 
   2   4  -2  927.24    7.87   0 
  -2  -2   5   41.38    3.89   0 
  -1  -3   8   12.35    3.45   0 
  -1  -3   9   49.87    4.03   0 
  -1  -3  10 1156.47    8.81   0 
  -1   3  -3  599.31   10.46   0 
   0  10  -6  187.99    4.64   0 
   0  11  -6   55.01    4.31   0 
   1  -2  12    5.39    3.86   0 
   1   8  -5  199.76    4.71   0 
   2  -1  11   16.70    4.68   0 
   2   3  -1   39.56    3.90   0 
   2   8  -4    3.75    2.76   0 
   3   6  -1   46.11    3.34   0 
  -4   0   7    4.72    3.82   0 
  -3  -1   5    0.16    2.60   0 
  -3   1   1  126.18    5.43   0 
  -2   4  -3  130.35    7.71   0 
  -2   9  -5   29.40    4.50   0 
  -1  -3   7   95.01    4.11   0 
  -1  -3  11  283.33    5.10   0 
   0  -3   8 1937.90   12.00   0 
   0  -3   9  718.38    7.39   0 
   0  -3  10  565.34    7.40   0 
   2  -1   6  231.28    9.78   0 
   2   6  -3  121.44    3.79   0 
   2   9  -4  125.83    3.90   0 
   3   5   0    4.00    3.43   0 
  -4   1   4   29.79    4.27   0 
  -3  -2   9   51.90    3.58   0 
  -3  -2  10    2.74    3.27   0 
  -1  -3  12  282.08    5.29   0 
  -1   7  -5   -0.11    3.42   0 
   0  -3   7   19.37    3.58   0 
   0  -3  11    1.78    2.83   0 
   0   7  -5  185.00    4.18   0 
   1   0   1    9.69    6.97   0 
   1   4  -3  207.90    4.55   0 
   1   6  -4   94.03    3.56   0 
   1   9  -5  798.72    7.04   0 
   1  10  -5   74.35    4.12   0 
   2  10  -4  143.04    4.00   0 
   3   2   4   46.29    5.23   0 
   3   4   1    9.93    3.49   0 
  -4   0   6  130.78    4.06   0 
  -4   2   2   12.17    4.17   0 
  -4   3   1   37.80    4.77   0 
  -3  -2   7   23.77    3.53   0 
  -3  -2   8   22.02    3.05   0 
  -3  -1   4  102.03    4.16   0 
  -2  -3   8   98.80    3.54   0 
  -2  -3   9   19.54    3.08   0 
  -2  -3  10    6.74    3.01   0 
  -2  -3  11   43.87    3.39   0 
  -2  -2   4    5.26    3.27   0 
  -2  10  -5   60.17    4.35   0 
  -1  -3   6  271.52    4.85   0 
  -1  -2   3   17.94    3.93   0 
   0  -3  12    0.66    2.96   0 
   0   5  -4  145.47    4.50   0 
   1  11  -5   40.13    3.14   0 
   2   5  -2 1436.33    9.56   0 
   2   7  -3  777.93    6.76   0 
  -4   4   0   13.40    5.06   0 
  -3   0   2  300.07    6.17   0 
  -2  -3   7  543.95    6.20   0 
   0  -3   6   12.02    3.50   0 
   0   2  -2 1366.73   14.04   0 
   1   3  -2  671.61    8.04   0 
   3   6   0  195.35    5.06   0 
   3   8  -1   95.12    3.69   0 
  -4   0   5    9.47    3.13   0 
  -4   1   3   15.10    3.74   0 
  -3  -2   6    4.41    2.70   0 
  -1  -3   5 2120.52   12.18   0 
   0  -2   3 1863.29   15.10   0 
   1   7  -4   89.79    3.41   0 
   2   8  -3  108.81    3.54   0 
   3   9  -1  102.34    4.15   0 
  -4  -1   7    3.67    3.63   0 
  -2  -3   6   13.51    2.87   0 
  -1  -1   1    0.63    4.86   0 
  -1   9  -5  179.72    4.53   0 
  -1  10  -5    4.83    3.49   0 
   0  10  -5    2.92    2.79   0 
   0  11  -5   91.18    3.76   0 
   1  -3   9   28.01    4.10   0 
   1  -3  10    1.15    3.54   0 
   2   4  -1    3.35    2.67   0 
   2   9  -3    4.00    2.82   0 
   2  10  -3  139.02    4.23   0 
   3   3   3   49.22    4.16   0 
   3   5   1  919.56    8.77   0 
   3   7   0  160.33    4.62   0 
  -4   0   4   86.35    4.40   0 
  -3  -3   9  144.41    4.07   0 
  -3  -2   5    3.53    2.53   0 
  -3  -1   3    2.95    3.27   0 
  -2  -2   3  130.64    4.46   0 
  -2   7  -4   75.64    4.63   0 
  -1  -4  10    4.42    2.72   0 
  -1  -4  11   13.41    2.84   0 
  -1  -4  12  387.40    6.13   0 
  -1   2  -2  136.63    7.98   0 
  -1  11  -5   20.30    3.32   0 
   0  -3   5  332.45    6.22   0 
   0   1  -1    5.72    7.38   0 
   0   6  -4   16.64    3.21   0 
   1  -3  11   67.28    4.43   0 
   1   2  -1  672.44    9.06   0 
   1   9  -4   14.76    3.29   0 
   2   1   2  286.21    7.68   0 
   3   4   2   19.65    3.43   0 
  -4  -1   6   11.34    2.90   0 
  -3  -3   8    2.77    2.90   0 
  -2  -4   9  176.14    4.65   0 
  -2  -4  10   35.76    3.18   0 
  -2  -4  11   16.85    3.19   0 
  -1  -4   8  126.25    3.76   0 
   0  -4   9   22.01    3.48   0 
   0  -4  10 1000.45    8.71   0 
   0  -4  11  250.84    5.44   0 
   1  -3  12  134.73    4.93   0 
   1   1   0 1816.63   17.71   0 
   1  10  -4   54.86    3.10   0 
   1  11  -4   44.51    3.19   0 
   2   2   1   15.64    4.06   0 
   2   3   0   30.34    3.01   0 
   2   7  -2  338.43    5.36   0 
   3   8   0    5.85    2.85   0 
   3   9   0   78.32    4.26   0 
  -3  -3   7   92.46    3.47   0 
  -2  -4   8    1.21    2.76   0 
  -1  -3   4   98.86    3.77   0 
   0  -4   8    4.83    3.29   0 
   0  -4  12   13.58    3.66   0 
   0   4  -3 1597.48   11.60   0 
   1   6  -3  232.91    4.41   0 
   3   2   5   75.30    5.77   0 
   3   6   1    3.08    2.89   0 
  -4  -1   5    5.99    3.41   0 
  -4   1   2  147.61    5.64   0 
  -4   2   1  130.10    5.77   0 
  -3  -2   4  207.14    4.85   0 
  -2  -4   7  199.47    4.60   0 
  -2   0   0  621.85    9.87   0 
  -2   8  -4  459.79    7.61   0 
   1   4  -2  646.71    7.32   0 
   2   5  -1   64.63    3.19   0 
   2   9  -2   22.50    3.35   0 
   2  11  -2   66.82    4.11   0 
   3   5   2  242.88    5.41   0 
   3   7   1   80.00    4.13   0 
  -4   0   3  151.53    4.92   0 
  -3  -3   6   16.68    2.67   0 
  -3   0   1  553.16    7.94   0 
  -3   1   0  497.00    8.94   0 
  -2  -3   4  145.55    4.17   0 
  -2  -1   1   24.21    3.68   0 
  -2   9  -4  122.81    5.29   0 
  -1  -4   6    6.40    2.74   0 
  -1  -2   2   14.60    3.54   0 
  -1   7  -4   87.37    4.20   0 
   0  -4   7  155.33    4.52   0 
   0   8  -4   82.16    3.22   0 
   1  -2   4   54.79    4.92   0 
   1   7  -3    2.66    2.72   0 
   2  -2   9   98.50    5.80   0 
   2  -2  10   12.97    4.20   0 
   2  -2  11  108.46    5.98   0 
   3   8   1    6.92    3.37   0 
  -3  -4   9   46.00    3.17   0 
  -3  -1   2  213.86    5.26   0 
  -2  -4   6   25.33    3.46   0 
  -2  10  -4  107.43    4.70   0 
  -1  -5  11   58.39    4.24   0 
   0  -3   4  485.24    7.41   0 
   0   9  -4    1.25    2.44   0 
   0  10  -4   88.51    3.46   0 
   0  11  -4  228.13    4.55   0 
   1   8  -3 4012.77   14.48   0 
   1  11  -3  109.37    4.13   0 
   2   6  -1   18.12    3.26   0 
   3   3   4  177.90    5.68   0 
   3   4   3 1180.83   10.27   0 
   3   9   1   82.32    3.62   0 
  -4  -2   6   34.34    3.27   0 
  -4  -1   4   37.86    3.84   0 
  -4   3   0  285.99    8.55   0 
  -3  -4   8   11.00    2.83   0 
  -3  -3   5   65.52    3.66   0 
  -3   8  -3   46.18    5.29   0 
  -2  -2   2  861.25    8.58   0 
  -2   1  -1  581.52   13.09   0 
  -1  -5  10    2.65    2.68   0 
  -1   8  -4  591.84    6.87   0 
  -1  11  -4   74.95    4.06   0 
   0   5  -3  136.11    4.60   0 
   1  10  -3   13.04    2.86   0 
   2   4   0 2652.47   13.18   0 
  -3  -4   7   12.16    3.46   0 
  -3  -2   3  154.54    4.67   0 
  -3   9  -3   26.58    4.73   0 
  -2  -5   9    5.19    2.72   0 
  -2   5  -3  456.58    9.03   0 
  -1  -5   8  108.48    4.02   0 
  -1   9  -4  130.26    4.04   0 
  -1  10  -4  184.88    4.37   0 
   0  -1   1    3.31    6.02   0 
   1   5  -2 1071.57    8.26   0 
   2  -2   8   41.65    5.22   0 
   2  11  -1   18.58    3.75   0 
   3   7   2  105.19    4.22   0 
  -4  -2   5   42.83    3.81   0 
  -2  -5   8   16.46    2.94   0 
  -2  -4   5   55.36    3.07   0 
   0  -5  10    5.92    3.48   0 
   0  -5  11   44.13    3.84   0 
   0   3  -2  396.72    7.51   0 
   1  -4  10   81.14    4.38   0 
   1  -4  11    9.27    3.67   0 
   1   3  -1  511.34    7.08   0 
   2   8  -1   45.26    2.98   0 
   2   9  -1  112.19    3.51   0 
   3   2   6   39.69    5.44   0 
   3   5   3  596.81    7.60   0 
   3   8   2   20.30    3.65   0 
   3   9   2  113.30    4.43   0 
  -3  -4   6   58.27    3.53   0 
  -3  -3   4  132.66    4.10   0 
  -1  -5   7   -1.18    2.69   0 
   0   6  -3  649.16    6.93   0 
   0  12  -3   16.88    3.61   0 
   2   3   1  160.71    4.93   0 
   2   5   0  237.63    4.63   0 
  -4  -1   3    1.01    3.40   0 
  -4   0   2   52.77    3.95   0 
  -2  -5   7   12.90    2.57   0 
  -1   5  -3   19.71    3.47   0 
   0  -5   8    0.94    3.18   0 
   0  11  -3   76.73    3.78   0 
   1   6  -2    4.23    2.65   0 
   1  11  -2  167.06    4.43   0 
   3   3   5  248.78    6.33   0 
   3   4   4  451.05    6.89   0 
   3   6   3   68.24    3.87   0 
  -4  -3   6   24.03    3.03   0 
  -4  -2   4   21.70    3.66   0 
  -4   1   1  117.52    5.22   0 
  -3  -5   8    6.96    2.66   0 
  -1  -6  11    5.87    3.70   0 
  -1  -5   6   68.22    3.63   0 
  -1  -4   4   68.57    3.71   0 
   0  -4   5 2043.00   12.39   0 
   0   7  -3  691.97    6.58   0 
   0  10  -3  150.66    3.77   0 
   1  -4   8 2109.42   13.26   0 
   1   9  -2  245.78    4.58   0 
   1  10  -2  229.13    4.13   0 
   2   6   0   65.15    3.12   0 
   2  11   0    0.66    2.73   0 
   3   7   3   11.51    3.52   0 
  -3  -4   5   32.08    2.81   0 
  -2  -6   9    0.75    3.31   0 
  -2  -6  10    2.52    3.06   0 
  -2  -5   6   43.18    2.91   0 
  -2  -4   4  213.78    4.24   0 
  -2   6  -3  193.99    5.79   0 
  -1  -6   9   68.41    3.57   0 
   0  -5   7  119.59    4.11   0 
   1  -3   5    3.60    3.94   0 
   2  -2   7    1.74    5.30   0 
   2   2   2  159.92    5.28   0 
   2   7   0  288.50    4.60   0 
   2   8   0  347.56    5.27   0 
   2   9   0    3.50    3.13   0 
   2  10   0   95.04    3.48   0 
   3   8   3   44.25    3.33   0 
  -4  -3   5    7.09    3.52   0 
  -3  -5   7   39.01    3.06   0 
  -3  -1   1   31.27    3.69   0 
  -2  10  -3    1.56    3.49   0 
  -1   6  -3   23.80    3.52   0 
   0  -3   3 4373.40   20.15   0 
   1   4  -1   98.11    3.77   0 
   2   0   4   39.15    6.92   0 
   2   4   1  397.50    6.09   0 
   3   1   9   53.19    8.00   0 
   3   5   4  265.42    5.36   0 
  -3  -3   3   12.61    2.66   0 
  -2  -6   8    4.00    2.52   0 
  -2   7  -3    1.88    2.94   0 
  -2   8  -3  130.30    4.90   0 
  -2   9  -3  207.02    5.19   0 
  -1  -6   8   26.51    2.82   0 
  -1  10  -3   -1.80    2.70   0 
   0  -6  11   45.95    3.72   0 
   0   4  -2   51.71    4.32   0 
   0  12  -2    6.12    3.25   0 
   1  -4   7    9.61    3.50   0 
   1   2   0 2247.29   16.04   0 
   2   1   3   54.29    5.20   0 
   3   6   4   10.29    3.46   0 
  -4   2   0   52.78    5.16   0 
  -3  -5   6   99.16    3.41   0 
  -3  -4   4  331.96    5.28   0 
  -3   0   0  264.83    6.54   0 
  -2  -6   7   83.96    3.92   0 
  -2  -5   5  179.61    3.93   0 
  -2  -2   1  304.28    5.92   0 
  -1  -5   5   48.34    3.11   0 
  -1  -3   2  641.09    7.62   0 
  -1  -2   1  664.27    8.79   0 
  -1   8  -3  363.46    5.59   0 
   0  -6  10    4.98    2.76   0 
   1  -5  11    1.86    3.34   0 
   1  11  -1  133.86    3.76   0 
   2  -3  10  175.92    6.63   0 
   2  11   1  172.36    4.44   0 
   3   2   7  154.84    6.92   0 
   3   4   5   17.55    3.53   0 
   3   7   4  617.70    7.37   0 
   3   8   4  173.15    4.89   0 
  -4  -2   3    5.92    3.40   0 
  -4  -1   2   22.28    3.49   0 
  -3  -6   8   16.48    3.03   0 
  -2  -4   3   92.48    3.73   0 
   0  -6   9   19.33    3.36   0 
   0  -5   6  251.85    4.62   0 
   0  11  -2  128.89    3.65   0 
   1  -5  10  143.49    4.80   0 
   1   5  -1    3.07    2.62   0 
   1  10  -1  219.49    4.16   0 
   2   5   1  117.35    3.58   0 
   2  10   1   15.45    2.78   0 
   3   3   6  104.84    5.08   0 
  -4  -3   4   17.15    2.81   0 
  -4   0   1  153.26    5.41   0 
  -3   5  -2   18.75    5.71   0 
  -2   3  -2    4.44    5.54   0 
  -1  -7  10    3.80    3.36   0 
  -1  -4   3  158.64    4.00   0 
  -1  12  -2   13.06    3.52   0 
   0  -4   4   31.53    3.30   0 
   0   5  -2  185.16    4.83   0 
   0  10  -2   78.22    3.04   0 
   1  -5   9  116.78    4.71   0 
   1   6  -1  133.82    3.58   0 
   1   8  -1   95.66    3.84   0 
   1   9  -1    2.71    2.54   0 
   1  12   0   15.80    3.60   0 
   2   8   1  231.44    4.44   0 
   3   5   5   62.94    3.83   0 
  -3  -6   7   55.39    3.08   0 
  -3  -5   5   -0.71    2.57   0 
  -2  -6   6   61.89    3.00   0 
  -2  -5   4  425.57    5.36   0 
  -1  -7   9    5.07    3.20   0 
  -1  -6   6    8.57    3.10   0 
  -1  -1   0 1460.92   15.51   0 
   0  -6   8  199.64    4.13   0 
   0   9  -2   13.12    2.72   0 
   1  -4   6    0.66    3.63   0 
   2  -3   9  140.70    6.14   0 
   2   3   2  660.21    7.91   0 
   3   6   5   21.30    3.86   0 
   3   7   5   59.80    4.14   0 
  -3  -3   2   28.49    3.39   0 
  -3   9  -2  112.51    5.50   0 
  -2  11  -2   50.25    4.08   0 
  -1  11  -2  189.84    4.12   0 
   0   2  -1    0.84    4.41   0 
   0   8  -2   26.30    2.69   0 
   0  12  -1  129.98    3.58   0 
   2  10   2   71.15    3.75   0 
   3   4   6   12.36    3.50   0 
  -4   6  -1   13.75    7.07   0 
  -3  -6   6    2.66    2.64   0 
  -3  -2   1   13.44    3.37   0 
  -3   6  -2  161.34    6.80   0 
  -3   8  -2  284.61    6.78   0 
  -1  -7   8  107.64    3.42   0 
   0  -5   5   10.54    2.62   0 
   1  -5   8   53.87    3.83   0 
   1   3   0 1108.33   10.19   0 
   3   2   8   10.82    5.00   0 
   3   3   7  235.35    6.72   0 
  -4  -3   3   20.45    3.60   0 
  -4  -2   2   16.71    3.32   0 
  -3  -5   4  311.70    5.19   0 
  -3   7  -2   40.42    4.86   0 
  -2  -7   7   97.82    3.44   0 
  -2  -6   5  136.02    3.53   0 
  -1  10  -2   45.07    3.05   0 
   1  10   0  153.15    3.65   0 
   1  12   1  291.23    5.07   0 
   2   4   2  464.56    6.09   0 
   2   9   2   92.18    3.17   0 
   3   5   6   59.47    3.99   0 
   3   6   6  131.27    4.72   0 
   3   7   6  127.09    4.67   0 
  -4   1   0   62.71    5.22   0 
  -1  -6   5  276.79    4.36   0 
  -1   9  -2    6.94    3.11   0 
  -1  12  -1    4.28    3.38   0 
   0  -7   9  119.82    3.99   0 
   1  -3   4   14.66    4.02   0 
   1   9   0   76.21    2.97   0 
   2  -3   8    5.73    4.98   0 
   2   6   2  261.42    4.64   0 
   2   7   2  364.00    5.14   0 
   2   8   2   -0.96    2.25   0 
  -4  -5   5    7.48    2.84   0 
  -4  -1   1   13.47    3.80   0 
  -3  -7   7    3.45    2.65   0 
  -3  -1   0   81.97    4.65   0 
  -3   1  -1  279.39    8.43   0 
  -2  -7   6   30.88    3.40   0 
  -2  -5   3    0.87    2.39   0 
  -2  -3   1   42.31    3.52   0 
  -1   4  -2   11.21    3.39   0 
  -1   8  -2   61.99    3.57   0 
   0  -6   6   69.40    3.54   0 
   0  10  -1   14.02    2.54   0 
   0  12   0   96.43    3.83   0 
   1  -6  10   62.44    3.94   0 
   1  -5   7  295.62    5.55   0 
   1   1   1  280.27    8.43   0 
   1   4   0 2263.86   12.56   0 
   1   8   0    0.31    2.44   0 
   1  11   1   27.33    3.47   0 
   2   2   3  280.44    6.23   0 
   2  10   3  265.59    4.57   0 
   3   4   7  138.44    5.11   0 
  -2  -8   8   29.32    2.80   0 
  -2  -6   4    2.45    2.97   0 
  -1  -8   9  102.42    3.52   0 
  -1  -4   2  576.09    6.76   0 
  -1   7  -2  237.12    5.02   0 
   0  -4   3 1463.72   10.96   0 
   0  -3   2  408.33    7.33   0 
   0   9  -1   71.66    3.12   0 
   1   5   0 3622.73   14.51   0 
   1   7   0  480.16    5.40   0 
   2   9   3  113.62    3.83   0 
   3   2   9    2.02    5.06   0 
   3   3   8   26.27    4.84   0 
   3   5   7  120.36    4.74   0 
   3   6   7   75.39    4.20   0 
  -3  -7   6   12.31    2.73   0 
  -3  -4   2 1211.75    8.88   0 
  -2   0  -1 1550.68   16.77   0 
  -2   8  -2  466.41    6.57   0 
  -1  -8   8  268.28    4.82   0 
  -1  -7   6  255.87    4.22   0 
  -1  -5   3  442.50    5.46   0 
  -1  -3   1  583.22    7.56   0 
  -1   5  -2  125.79    4.50   0 
  -1   6  -2   28.04    3.38   0 
  -1  11  -1   57.19    3.08   0 
   0  -5   4  149.95    4.27   0 
   1  -6   9   33.33    3.71   0 
   1  -4   5  177.17    5.05   0 
   1  10   1  284.48    4.39   0 
  -4  -5   4   23.96    3.49   0 
  -4  -4   3   21.27    3.02   0 
  -4  -3   2  212.35    5.02   0 
  -3  -6   4   70.27    3.53   0 
  -3  -3   1   54.32    3.57   0 
  -2  -7   5    0.73    3.05   0 
  -2  -2   0  241.11    5.49   0 
  -2   4  -2  188.25    6.71   0 
  -2   7  -2   48.56    4.06   0 
  -2  11  -1  147.73    4.64   0 
   0   8  -1 4725.04   15.11   0 
   0  11   0  204.97    3.85   0 
   2  -2   6   27.58    7.72   0 
   2   8   3    2.29    2.41   0 
   2  10   4  224.76    4.57   0 
   3   4   8   43.32    4.54   0 
  -2   6  -2   65.52    4.21   0 
  -1  10  -1  169.66    4.41   0 
  -1  12   0    8.41    3.40   0 
   0  -8  10    5.46    3.24   0 
   0  -7   7    4.06    2.61   0 
   0  -6   5   12.54    3.06   0 
   0   4  -1  295.35    5.91   0 
   0   7  -1    8.15    2.45   0 
   0  12   1  163.74    4.14   0 
   1   9   1  198.26    3.74   0 
   1  11   2    7.46    2.63   0 
   2   7   3   83.29    3.20   0 
  -4  -2   1   51.20    4.04   0 
  -4   0   0    3.92    3.89   0 
  -1  -8   7   72.17    3.08   0 
   0  -8   9   76.55    3.82   0 
   0   5  -1  538.95    6.47   0 
   0   6  -1  203.60    4.18   0 
   0  10   0  217.59    3.86   0 
   1  -6   8    1.24    3.08   0 
   1  -5   6    2.41    3.29   0 
   2   4   3    3.79    3.32   0 
   2   5   3 2070.46   11.56   0 
   2   6   3   30.66    2.73   0 
   2   9   4  202.95    4.00   0 
  -3   9  -1  119.96    5.08   0 
  -2  -8   6   44.81    3.06   0 
  -2  -6   3  109.24    3.38   0 
  -2  -5   2 1139.54    7.92   0 
  -2  10  -1   15.31    3.06   0 
   0  -2   1    1.02    4.36   0 
   1   8   1   66.15    2.90   0 
   1  10   2  156.02    4.02   0 
   2   8   4   67.38    3.69   0 
  -4  -5   3   19.26    3.36   0 
  -3  -8   6    5.52    2.67   0 
  -3  -6   3   13.21    3.03   0 
  -3  -5   2  100.59    3.66   0 
  -2  -7   4   38.69    2.69   0 
  -2  -4   1    4.14    2.43   0 
  -1  -8   6   69.64    3.36   0 
  -1  -2   0 2345.33   15.92   0 
   0  -8   8  317.04    5.19   0 
   0   9   0  200.85    3.87   0 
   0  11   1  196.28    3.98   0 
   1  -7  10   21.56    3.40   0 
   1   2   1  491.59    8.27   0 
   1   7   1  731.67    6.22   0 
   1  11   3  238.44    4.52   0 
   2  -4   9   13.25    4.21   0 
  -4  -4   2   44.01    3.89   0 
  -3  -7   4   81.46    3.26   0 
  -3   0  -1  526.78    9.22   0 
  -2   9  -1  136.10    4.30   0 
  -1  -9   8   45.02    2.97   0 
  -1  -5   2 1123.29    8.31   0 
   0  12   2   18.27    3.21   0 
   1  -6   7   31.81    3.22   0 
   1   6   1   15.63    2.96   0 
   1   9   2   11.18    3.10   0 
   2  -3   7   72.06    6.22   0 
   2   7   4  269.14    4.82   0 
   2   9   5  167.29    3.93   0 
  -3   8  -1   42.42    4.07   0 
  -1   8  -1  328.45    4.81   0 
  -1  12   1  109.29    3.71   0 
   0  -5   3  136.35    4.28   0 
   0   8   0  252.44    4.49   0 
   1  -7   9   55.44    3.87   0 
   1   3   1   70.25    4.31   0 
   1   5   1  159.36    4.30   0 
   2   6   4  697.90    6.75   0 
  -4  -3   1   94.47    3.96   0 
  -4  -1   0  116.37    4.99   0 
  -2  -9   6    6.86    3.13   0 
  -2  -3   0   34.09    3.27   0 
  -1  -9   7    0.82    2.54   0 
  -1  10   0   72.48    3.16   0 
   0  -6   4   12.72    2.40   0 
   0  10   1  209.37    3.75   0 
   1   4   1    7.19    2.90   0 
   1  10   3   17.70    2.49   0 
   1  11   4  206.95    4.57   0 
   2   2   4  767.57    9.17   0 
   2   5   4  475.38    6.12   0 
   2   8   5   54.99    2.87   0 
   2   9   6  122.19    4.25   0 
  -2  -7   3  710.88    6.27   0 
  -2  -6   2  283.01    4.62   0 
  -2  -1  -1  352.41    7.20   0 
  -2   8  -1  376.70    5.84   0 
   0  -9   9    5.79    3.20   0 
   0  -7   5  182.53    3.83   0 
   0  -4   2   49.24    3.52   0 
   1  -7   8   31.00    3.95   0 
   1  -5   5  315.84    5.70   0 
   1  -4   4  282.37    6.00   0 
   1   8   2  461.01    5.09   0 
   2   4   4   16.63    3.26   0 
  -4  -6   3   19.31    2.94   0 
  -4  -5   2    1.60    3.01   0 
  -3  -7   3   36.91    2.66   0 
  -3  -6   2   54.53    3.32   0 
  -2  -8   4    2.82    2.42   0 
  -2  -5   1   89.19    3.47   0 
  -2  10   0   12.86    3.25   0 
  -1  -9   6    5.17    2.84   0 
  -1  11   1  105.12    3.32   0 
   0  12   3  169.39    3.97   0 
   1  -6   6  347.07    6.01   0 
   1   9   3  200.51    4.01   0 
   2   7   5    6.92    2.48   0 
  -3  -8   4   25.94    2.96   0 
  -3  -5   1   59.22    3.42   0 
  -3   7  -1    3.24    3.43   0 
  -2  -9   5   28.10    2.81   0 
  -1   9   0    1.85    2.26   0 
   0  -8   6  430.91    5.20   0 
   0   6   0   10.87    3.15   0 
   1   7   2  304.99    4.40   0 
   1  10   4   74.67    3.59   0 
   2   8   6  180.32    3.91   0 
  -4  -4   1   10.89    3.56   0 
  -4  -2   0  151.22    4.95   0 
  -3  -1  -1   25.47    3.66   0 
  -2   7  -1  154.92    4.64   0 
  -2  11   1   29.78    3.40   0 
  -1  -8   4   42.06    3.39   0 
  -1  -7   3    2.59    2.40   0 
  -1  -6   2    2.40    2.48   0 
   0  10   2  121.13    3.64   0 
   1  -3   3  597.78    9.50   0 
   2   6   5   79.08    3.21   0 
  -3   9   0   22.45    3.43   0 
  -1 -10   7    3.46    2.60   0 
  -1  -9   5  893.82    6.83   0 
  -1  -3   0  882.76    8.83   0 
  -1   0  -1    9.30    6.03   0 
  -1  10   1   14.35    3.00   0 
   0  -9   7  139.92    4.04   0 
   0   8   1   17.48    3.04   0 
   0  11   3   16.98    2.65   0 
   1  -7   7  200.72    4.70   0 
   1   6   2   64.55    2.87   0 
   1   8   3  296.01    4.28   0 
   2   5   5  867.91    7.66   0 
   2   7   6  753.56    6.59   0 
   2   8   7   60.86    3.65   0 
  -3  -7   2  127.51    3.85   0 
  -3  -4   0  170.68    4.51   0 
  -3   6  -1   94.23    4.98   0 
  -2  -8   3  100.55    3.11   0 
  -2  -4   0 2546.94   12.34   0 
  -2   9   0    6.43    3.13   0 
  -1  -5   1    2.08    2.60   0 
  -1   8   0   14.24    2.98   0 
  -1  11   2  172.65    4.10   0 
   0  -7   4  305.31    4.42   0 
   0  -6   3  601.86    6.13   0 
   0   5   0 1988.74   11.22   0 
   1   9   4  120.27    3.28   0 
   1  10   5  300.87    4.84   0 
   2  -5   9   12.84    4.60   0 
   2   0   5   18.32    4.68   0 
  -3  -9   4    1.79    2.58   0 
  -2  -6   1   18.65    2.91   0 
  -2  -2  -1   12.52    3.68   0 
  -1 -10   6   97.89    3.71   0 
   0   9   2  163.62    3.82   0 
   1   5   2  319.05    4.76   0 
   2   4   5 1599.78   10.48   0 
   2   6   6   18.39    3.20   0 
   2   7   7   76.59    3.65   0 
  -4  -5   1  261.50    5.41   0 
  -4  -3   0  103.00    4.24   0 
  -4   1  -1   20.88    5.85   0 
  -3  -2  -1  158.16    5.04   0 
  -2 -10   5   17.89    2.62   0 
  -2   6  -1   14.86    3.25   0 
  -1   4  -1 1506.78   12.04   0 
   0   4   0  966.32    8.67   0 
   0   7   1  640.30    6.23   0 
   0  10   3  306.18    4.65   0 
   1  -8   8   11.64    3.47   0 
   1  -6   5  204.60    4.81   0 
   1   7   3  329.42    4.46   0 
   2   3   5   43.54    3.56   0 
  -3   8   0  237.22    5.22   0 
  -2  11   2  128.58    4.17   0 
  -1  -9   4   10.25    2.36   0 
  -1  -8   3 4028.82   13.32   0 
  -1  -7   2   96.23    3.22   0 
  -1   7   0  199.49    4.18   0 
  -1   9   1   74.07    2.89   0 
   1  -7   6   60.30    3.60   0 
   1  -5   4  209.93    4.93   0 
   1   4   2 4039.90   16.14   0 
   1   8   4   21.43    2.45   0 
   1   9   5   97.66    3.59   0 
   1  10   6  205.71    4.13   0 
   2   1   5  250.39    6.35   0 
   2   2   5  155.91    5.08   0 
   2   5   6  175.38    4.31   0 
  -3  -9   3   39.53    3.68   0 
  -3  -5   0    0.25    3.05   0 
  -2  -9   3    3.27    2.96   0 
  -2  -8   2   15.23    2.95   0 
  -2  -5   0  226.83    4.38   0 
  -2   8   0   31.13    3.26   0 
  -1 -10   5   70.88    3.11   0 
  -1  10   2  123.28    3.38   0 
   0 -10   7   -1.28    3.19   0 
   2  -4   7  756.10   12.78   0 
   2   6   7   46.13    3.45   0 
   2   7   8  156.58    3.91   0 
  -4  -6   1    3.70    3.26   0 
  -4  -4   0   17.50    3.27   0 
  -4   0  -1   -0.91    4.59   0 
  -3  -8   2  153.99    3.63   0 
  -2 -10   4  149.81    3.56   0 
  -1  -6   1  132.70    3.43   0 
   0  -8   4   77.55    2.84   0 
   0  -7   3  710.68    6.53   0 
   0   6   1   79.75    3.53   0 
   0   8   2   23.98    2.59   0 
   0  11   5  156.06    3.81   0 
   1  -8   7   98.60    3.94   0 
   1   3   2   46.59    3.97   0 
   1   6   3    3.99    2.27   0 
   2  -5   8  254.73    7.39   0 
   2   4   6  635.68    7.14   0 
  -4   6   0   45.04    5.05   0 
  -3  -7   1  145.88    3.68   0 
  -3   9   1  126.45    4.52   0 
  -2  -7   1  261.56    4.24   0 
  -2  -3  -1  148.02    4.39   0 
  -2   5  -1   24.66    3.29   0 
   0  -9   5   23.71    2.76   0 
   0  -4   1  275.81    5.61   0 
   0   2   0  266.88    7.52   0 
   0   9   3  229.45    3.84   0 
   0  10   4  129.51    3.48   0 
   1   7   4  575.05    5.73   0 
   1   8   5    1.49    2.80   0 
   1   9   6  195.23    3.86   0 
   2   6   8   67.16    4.07   0 
  -4  -1  -1   83.33    5.44   0 
  -1  -9   3   39.23    2.68   0 
  -1  -1  -1  282.47    7.74   0 
  -1   8   1 3485.18   12.75   0 
  -1  11   4   64.92    3.42   0 
   0 -10   6  186.68    3.94   0 
   0  -6   2  121.81    3.47   0 
   1  -9   8   67.84    3.84   0 
   2   5   7   60.89    2.97   0 
  -4  -5   0   62.01    3.91   0 
  -3  -9   2    1.91    3.19   0 
  -3  -6   0  185.64    4.36   0 
  -2  -9   2   23.10    3.01   0 
  -2  -6   0   60.23    2.86   0 
  -1 -11   5   41.29    3.23   0 
  -1  -8   2   61.90    2.84   0 
  -1   2  -1 1147.04   16.19   0 
  -1   9   2   73.29    2.93   0 
  -1  10   3  158.18    3.93   0 
   0   7   2  512.26    5.56   0 
   1  -8   6  496.59    6.22   0 
   1  -7   5    2.76    2.91   0 
   1   5   3  142.94    3.58   0 
   1   9   7  149.81    3.69   0 
   2  -6   9   44.38    4.87   0 
   2   3   6  259.64    5.12   0 
   2   6   9   57.22    3.62   0 
  -4  -2  -1   60.94    4.25   0 
  -3  -4  -1    9.54    2.94   0 
  -2  -8   1   47.22    3.20   0 
  -2  -4  -1  389.06    5.67   0 
  -1  -7   1  906.68    6.71   0 
   0  -9   4    0.67    2.84   0 
   0   5   1   23.06    2.74   0 
   0   9   4   21.42    2.92   0 
   0  10   5   21.66    2.73   0 
   1  -6   4   83.88    3.83   0 
   1   1   2 1730.40   16.56   0 
   1   8   6  119.10    3.65   0 
   2   4   7    4.68    3.05   0 
   2   5   8   37.44    3.43   0 
  -1  -2  -1  557.60    8.42   0 
   0 -10   5    5.18    2.92   0 
   0  -8   3  313.73    4.50   0 
   1  -9   7   14.72    3.29   0 
   1   0   2  960.77   17.83   0 
   1   6   4  287.80    4.28   0 
   1   7   5   40.40    2.56   0 
   2   2   6  102.80    4.44   0 
  -4  -6   0  110.91    4.32   0 
  -4  -3  -1   23.79    3.61   0 
  -3  -7   0  158.22    4.06   0 
  -3   4  -1   55.65    5.05   0 
  -3   8   1  231.90    4.97   0 
  -2   4  -1 2895.66   18.09   0 
  -2   8   1  211.67    4.06   0 
  -1 -10   3   17.73    2.47   0 
  -1   7   1    0.61    2.26   0 
   0  -5   1  569.41    6.37   0 
   0  10   6   44.42    2.82   0 
   1   4   3  697.06    6.88   0 
   2   5   9  152.00    4.67   0 
  -3  -5  -1  900.98    7.98   0 
  -2 -11   3   67.55    3.20   0 
  -2 -10   2  144.57    3.50   0 
  -2  -7   0  287.23    4.30   0 
  -2   9   2    2.55    2.58   0 
  -2  10   3    8.11    2.69   0 
  -1  -9   2  248.65    3.83   0 
  -1  -6   0  762.69    6.54   0 
  -1   8   2  307.57    4.69   0 
  -1   9   3   10.34    2.95   0 
  -1  10   4   30.66    2.70   0 
   0   6   2  905.04    7.09   0 
   0   9   5  120.71    3.70   0 
   1  -5   3   16.70    3.14   0 
   1   8   7   29.81    2.69   0 
   2  -6   8  108.10    5.32   0 
   2  -5   7  132.65    6.11   0 
   2   1   6  322.50    6.57   0 
   2   3   7  261.43    5.32   0 
   2   4   8   16.29    3.00   0 
  -4   5   0   10.04    4.33   0 
  -3  -9   1  104.43    3.52   0 
  -3   6   0   33.06    3.65   0 
  -2  -9   1  110.41    3.19   0 
  -2  -5  -1  135.57    3.47   0 
  -2   6   0   31.44    3.34   0 
  -1  -3  -1   76.48    4.13   0 
   0   4   1   70.71    3.78   0 
   0   8   4  454.93    5.14   0 
   0  10   7  158.17    3.85   0 
   1  -9   6  113.66    3.94   0 
   1  -8   5  196.68    4.55   0 
   1  -7   4   85.05    3.72   0 
   1   5   4  149.64    3.74   0 
   1   7   6  270.32    4.16   0 
   1   8   8  162.30    4.14   0 
  -4  -4  -1  590.52    7.58   0 
   0 -11   5  103.50    3.90   0 
   0 -10   4  101.53    3.16   0 
   0  -2   0  280.80    8.08   0 
   1 -10   7   41.76    3.66   0 
   1   6   5  123.51    3.27   0 
   2  -7   9  410.78    8.83   0 
   2   4   9  172.69    4.91   0 
  -3  -8   0    7.33    2.40   0 
  -3  -6  -1    1.98    3.00   0 
  -2  -6  -1   48.91    3.01   0 
  -2  10   4   40.96    3.40   0 
   0  -8   2   28.00    2.46   0 
   0   9   6   75.48    3.00   0 
   1   3   3  298.50    5.31   0 
   1   7   7    2.11    2.74   0 
   2   2   7   75.57    3.90   0 
   2   3   8   67.49    3.50   0 
   2   4  10   41.34    3.46   0 
  -4  -5  -1  312.02    5.79   0 
  -3   7   1   52.23    3.92   0 
  -2 -11   2   64.87    3.02   0 
  -2 -10   1  169.48    4.01   0 
  -2   9   3   68.65    3.43   0 
  -1  -9   1    3.29    2.66   0 
  -1  -7   0  558.34    5.38   0 
  -1  -4  -1    9.43    2.71   0 
  -1   6   1   93.50    3.11   0 
  -1   9   4  128.68    3.27   0 
   0  -3   0 1321.14   11.49   0 
   1  -6   3   19.28    3.00   0 
   2  -4   6 2554.23   23.65   0 
   2  -1   6  218.86    8.19   0 
  -3  -2  -2  412.61    6.94   0 
  -3  -1  -2  338.71    7.34   0 
  -3   8   2   13.45    3.22   0 
  -3   9   3  817.13    8.03   0 
  -1   4   0   -1.20    3.39   0 
  -1   7   2  262.21    4.11   0 
  -1   8   3    1.02    2.24   0 
  -1  10   6   91.66    3.08   0 
   0   5   2 4165.92   14.81   0 
   0   8   5  157.31    3.34   0 
   0   9   7   36.39    2.77   0 
   1 -10   6   97.16    4.05   0 
   1  -9   5  189.62    4.42   0 
   1   4   4  836.88    7.38   0 
   1   6   6  734.18    6.05   0 
   1   7   8  507.72    5.60   0 
   2   3   9  262.30    5.49   0 
  -4  -6  -1   46.24    3.74   0 
  -4   6   1   20.88    3.98   0 
  -3  -9   0   80.45    3.19   0 
  -3  -7  -1   77.32    3.14   0 
  -3  -3  -2  297.73    5.52   0 
  -3   0  -2    7.19    4.80   0 
  -2  -9   0    2.20    2.30   0 
  -2  -7  -1  329.22    4.70   0 
  -2  -2  -2  167.65    5.21   0 
  -2  -1  -2  291.67    7.12   0 
  -2  10   5   55.71    3.51   0 
   0  -7   1    8.30    2.31   0 
   0   6   3   14.84    2.48   0 
   1   5   5 2276.18   10.82   0 
   2  -7   8   12.52    4.25   0 
   2  -6   7   12.68    4.06   0 
   2   1   7  113.90    4.37   0 
  -3  -4  -2   20.23    2.97   0 
  -2  -3  -2  651.97    7.31   0 
  -2   3  -1  379.75    8.21   0 
  -2   5   0   59.13    3.55   0 
  -1 -11   2  172.14    3.70   0 
  -1  -8   0    1.16    2.29   0 
  -1   9   5  159.52    3.48   0 
   0  -9   2   13.53    2.47   0 
   0   9   8  105.05    3.27   0 
   1  -4   2   15.31    3.69   0 
   1   6   7   92.72    3.54   0 
   1   7   9   60.95    3.03   0 
   2   2   8   24.40    3.02   0 
   2   3  10   22.25    2.99   0 
  -3  -8  -1    4.94    2.94   0 
  -3   5   0   74.20    4.11   0 
  -2 -11   1   20.52    2.56   0 
  -2  -4  -2  512.57    6.31   0 
  -2   9   4   15.20    2.40   0 
  -1  -6  -1   13.88    2.73   0 
   1  -7   3  243.08    4.48   0 
   1   2   3    6.96    3.39   0 
  -4   4   0   15.86    4.55   0 
  -3  -5  -2  234.67    4.84   0 
  -3   3  -1   96.69    5.96   0 
  -2 -10   0   93.52    3.16   0 
  -1   5   1  292.46    5.09   0 
  -1   8   4   36.58    2.57   0 
   0 -11   3   74.24    3.38   0 
   0  -8   1 4833.87   14.52   0 
   0   8   7    3.24    2.79   0 
   1 -10   5    5.83    3.01   0 
   1   5   6  726.42    6.43   0 
   1   6   8   10.73    2.95   0 
   2  -5   6   94.23    5.61   0 
   2   2   9  130.16    4.30   0 
  -3  -6  -2  395.32    5.59   0 
  -3   8   3  129.63    4.31   0 
  -2  -5  -2   32.68    2.69   0 
  -2   7   2  119.63    3.61   0 
  -1 -12   2   64.18    3.04   0 
  -1   7   3  240.84    4.21   0 
   0 -10   2   82.85    2.84   0 
   1  -5   2  140.76    4.24   0 
   1   3   4  591.90    6.86   0 
   1   4   5    1.71    2.55   0 
   2  -8   8    9.14    4.28   0 
   2  -7   7   70.87    4.61   0 
   2   1   8  611.12    7.91   0 
   2   2  10   16.58    3.57   0 
  -4  -4  -2  206.43    5.36   0 
  -4  -3  -2   75.93    4.29   0 
  -4  -2  -2   12.11    3.92   0 
  -3  -9  -1   75.72    3.17   0 
  -3   6   1    6.42    2.78   0 
  -2  -9  -1  197.41    4.09   0 
  -2  -6  -2  295.92    4.47   0 
  -2   0  -2  714.67   14.15   0 
  -2   9   5   12.12    2.45   0 
  -1 -11   1  146.92    3.48   0 
  -1  -7  -1  751.55    6.09   0 
  -1   9   7   37.08    3.21   0 
   0  -6   0    8.49    2.42   0 
   0   4   2 2428.15   12.15   0 
   0   5   3  250.32    4.44   0 
   0   6   4   95.25    3.07   0 
   0   8   8   95.83    3.20   0 
   1  -8   3  393.31    5.34   0 
   1   6   9   43.14    2.77   0 
   1   6  10   15.04    3.18   0 
   2   2  11    5.58    3.20   0 
  -4  -5  -2  146.53    4.78   0 
  -3  -7  -2  129.25    3.87   0 
  -2 -11   0    1.23    2.42   0 
  -1 -10   0  180.88    3.86   0 
  -1   8   5   52.32    2.66   0 
   0  -9   1   72.77    2.86   0 
   0   7   6  427.45    4.75   0 
   0   8   9   20.01    2.33   0 
   1 -11   5   13.89    3.31   0 
   1   5   7  802.55    6.61   0 
   2  -6   6    3.09    3.70   0 
  -4  -1  -2  157.17    6.99   0 
  -2  -7  -2  336.85    4.61   0 
  -2   8   4  189.74    4.13   0 
  -2   9   6   64.82    3.43   0 
  -1  -8  -1   63.36    2.65   0 
  -1   3   0  283.73    6.26   0 
  -1   9   8   24.89    2.75   0 
   0 -12   3   12.69    2.53   0 
   0 -11   2  115.62    3.22   0 
   0  -7   0  239.17    3.90   0 
   2   1   9  198.67    5.42   0 
  -4   5   1  183.72    5.59   0 
  -4   6   2    8.94    3.60   0 
  -3  -8  -2   18.82    3.21   0 
  -2 -10  -1   17.28    2.38   0 
  -1 -12   1  160.23    3.61   0 
  -1   7   4  236.82    4.19   0 
  -1   8   6  267.98    4.35   0 
   0   6   5   55.09    3.07   0 
   0   7   7   10.71    2.25   0 
   1  -9   3   84.78    3.16   0 
   1   4   6   17.44    2.88   0 
   1   5   8   65.15    2.91   0 
   2  -8   7   79.17    4.44   0 
   2   1  10   10.42    3.40   0 
  -2  -8  -2   -0.16    2.18   0 
  -2   7   3    2.97    2.77   0 
  -1 -11   0  106.30    3.22   0 
  -1  -9  -1  202.05    3.52   0 
  -1  -5  -2  350.02    5.02   0 
  -1  -4  -2 3848.86   15.56   0 
   0  -8   0  243.75    3.82   0 
   0   2   1 1356.89   13.21   0 
   0   7   8  180.38    3.90   0 
   1   1   3 1271.14   12.57   0 
   1   5   9   26.63    3.07   0 
   2  -7   6   50.28    4.36   0 
   2   0   8   47.85    4.13   0 
   2   1  11   28.50    3.36   0 
  -3  -9  -2  126.00    3.95   0 
  -2 -11  -1  190.36    4.27   0 
  -2   6   2  162.04    4.21   0 
  -2   8   5   11.52    2.72   0 
  -1  -6  -2   82.23    3.17   0 
  -1  -3  -2   44.20    3.21   0 
  -1   6   3   27.67    2.39   0 
  -1   8   7   48.24    3.22   0 
   0 -12   2    5.39    2.43   0 
   0   5   4  273.45    4.43   0 
   0   7   9    2.62    2.86   0 
   1 -11   4   72.82    3.11   0 
   1  -8   2   65.60    3.33   0 
   1   3   5  264.84    4.82   0 
   1   5  10   16.78    2.61   0 
   1   5  11  101.96    3.54   0 
  -3   4   0   71.62    3.97   0 
  -3   8   5  507.51    6.05   0 
  -2  -9  -2   98.35    2.96   0 
  -2   5   1   69.93    3.64   0 
  -1 -10  -1  294.46    4.44   0 
  -1   4   1  182.24    4.76   0 
  -1   5   2 1718.01    9.97   0 
  -1   7   5  430.41    5.06   0 
   0 -11   1  145.38    3.34   0 
   0  -9   0  202.49    3.66   0 
   0   6   6  222.77    3.81   0 
   0   7  10  184.07    4.02   0 
   1 -10   3    2.04    2.37   0 
   1   2   4  224.72    5.11   0 
   1   4   7 1217.26    8.09   0 
   2  -9   7   87.12    4.74   0 
   2   0   9    3.34    3.70   0 
  -3  -6  -3   73.21    3.43   0 
  -3  -5  -3  637.35    7.01   0 
  -3  -4  -3 1154.89    9.25   0 
  -3  -3  -3   48.58    3.52   0 
  -3   5   1   27.17    3.30   0 
  -3   6   2   17.47    3.03   0 
  -1 -12   0   16.51    2.55   0 
  -1  -7  -2  365.87    4.44   0 
  -1  -2  -2  496.31    7.60   0 
  -1   8   8   23.78    2.65   0 
  -1   8   9    0.09    3.01   0 
   0  -5  -1   24.77    2.55   0 
   0  -4  -1   67.07    3.65   0 
   0   3   2 1168.34    9.71   0 
   0   4   3   15.33    2.59   0 
   1  -9   2    4.04    2.77   0 
   2  -8   6   16.43    3.55   0 
  -3  -7  -3   13.78    3.07   0 
  -2 -10  -2   56.90    2.86   0 
  -2  -6  -3   38.66    2.94   0 
  -2  -5  -3 1767.98   10.10   0 
  -2  -4  -3    6.13    2.82   0 
  -2   8   6   24.59    2.57   0 
  -1  -8  -2  457.23    4.85   0 
   0 -10   0  229.66    3.67   0 
   0  -6  -1   76.36    2.91   0 
   0   6   7  226.89    3.85   0 
   1 -11   3  156.84    3.99   0 
   1  -5   1  134.75    4.10   0 
   1   4   8  381.24    4.94   0 
   2  -6   5   34.93    4.14   0 
   2  -5   5  280.91    7.52   0 
   2   0  10  256.28    5.98   0 
   2   0  11   89.68    4.64   0 
  -3  -8  -3   50.63    3.25   0 
  -3   7   4   44.36    3.16   0 
  -2  -7  -3   87.29    3.29   0 
  -2  -3  -3  299.02    5.30   0 
  -2   8   7   25.87    2.97   0 
  -1 -11  -1   30.86    2.67   0 
  -1   6   4  467.66    5.29   0 
  -1   7   6   67.08    2.65   0 
   0  -7  -1  619.74    5.59   0 
   0  -3  -1  687.57    7.99   0 
   0   5   5   93.15    3.56   0 
   0   6   8  369.56    4.64   0 
   1  -6   1  656.06    6.51   0 
   1   3   6  452.29    5.77   0 
   1   4   9   46.34    2.74   0 
   1   4  10   11.13    2.96   0 
   1   4  11  128.54    4.00   0 
   2  -9   6  116.60    4.88   0 
   2  -7   5  230.91    5.81   0 
   2  -4   5    0.18    5.05   0 
  -4  -5  -3   42.29    3.87   0 
  -4   3   0  294.66    7.73   0 
  -3  -2  -3  112.11    4.76   0 
  -2  -8  -3    3.23    2.65   0 
  -2   8   8  106.32    3.68   0 
  -1  -9  -2    8.72    2.19   0 
  -1   7   7   81.38    3.25   0 
   0 -11   0  206.37    4.01   0 
   0  -8  -1   18.00    2.36   0 
   0   6   9   78.99    3.44   0 
   1 -10   2   45.74    2.73   0 
   1  -7   1  784.28    6.84   0 
   2  -1   8   84.95    4.97   0 
  -4  -4  -3   64.41    4.22   0 
  -4   5   2   29.72    3.34   0 
  -2   6   3   30.61    2.53   0 
  -2   7   5   57.81    2.81   0 
  -1 -12  -1  227.76    3.99   0 
  -1 -10  -2  152.39    3.49   0 
   0  -9  -1    0.93    2.75   0 
   0   6  10    9.60    2.55   0 
   1  -8   1  317.20    4.45   0 
   2  -8   5   84.02    4.22   0 
  -4   4   1   16.11    3.53   0 
  -3   6   3   83.41    3.50   0 
  -3   7   5    3.41    3.01   0 
  -2  -9  -3  113.25    3.09   0 
  -2  -2  -3  296.21    6.09   0 
  -2   2  -1   38.05    4.92   0 
  -1   5   3   26.66    2.42   0 
  -1   6   5    6.61    2.73   0 
  -1   7   8  242.01    3.95   0 
  -1   7   9   -1.86    2.90   0 
   0   4   4 2271.60   11.17   0 
   0   5   6  177.14    3.57   0 
   1  -9   1 2299.55   10.55   0 
   1  -3   1 3417.12   20.73   0 
   1   2   5  283.50    5.33   0 
   1   3   7   11.68    2.41   0 
   2  -1   9   73.61    4.75   0 
   2  -1  11   16.54    4.23   0 
  -4  -3  -3  160.61    5.61   0 
  -2 -10  -3  286.68    4.68   0 
  -2   5   2  133.70    3.96   0 
  -2   7   6   83.81    2.78   0 
  -1 -11  -2    3.50    2.26   0 
  -1  -6  -3    3.71    2.69   0 
  -1   7  10   77.74    3.13   0 
   0 -12   0   91.02    3.08   0 
   0 -10  -1  224.88    3.64   0 
   1   3   8  201.36    4.34   0 
   2  -9   5   31.87    3.72   0 
   2  -1  10    7.82    3.28   0 
  -3   5   2    9.52    3.33   0 
  -3   7   6   68.61    3.62   0 
  -2   6   4   62.97    3.13   0 
  -1  -8  -3  282.36    4.42   0 
  -1  -7  -3  414.10    4.60   0 
  -1  -5  -3  156.71    3.49   0 
  -1  -1  -2 1774.42   16.36   0 
  -1   4   2  650.60    6.97   0 
  -1   6   6  124.61    3.47   0 
   0  -2  -1 1325.94   12.73   0 
   0   5   7 1623.47    9.06   0 
   1 -12   2   12.99    3.10   0 
   1 -10   1  153.10    3.97   0 
   1   3   9  212.83    4.54   0 
   1   3  10   20.53    3.01   0 
   2  -2   7    1.53    4.26   0 
  -3  -7  -4  555.10    6.70   0 
  -3  -6  -4   13.97    3.08   0 
  -2   4   1  575.81    7.01   0 
  -2   7   7  113.81    3.20   0 
  -1  -9  -3  211.90    3.87   0 
  -1  -4  -3  657.75    6.55   0 
   0 -11  -1  194.39    3.77   0 
   0  -7  -2  479.72    5.25   0 
   0  -6  -2  914.07    6.93   0 
   0   3   3   73.67    3.30   0 
   0   5   8  456.71    4.99   0 
   0   5   9  398.76    4.93   0 
   0   5  11    7.34    3.16   0 
   1   1   4  445.01    7.02   0 
   2 -10   5   64.91    3.57   0 
   2  -7   4   77.39    3.98   0 
   2  -6   4  309.34    6.50   0 
  -3  -8  -4  163.44    4.33   0 
  -3  -5  -4  255.50    4.81   0 
  -3  -1  -3  171.88    6.85   0 
  -3   2  -1  349.54    9.06   0 
  -3   4   1 1144.96   10.08   0 
  -3   6   4  100.02    3.29   0 
  -2  -7  -4  269.38    4.61   0 
  -2  -6  -4  803.92    6.79   0 
  -2   3   0  386.29    6.69   0 
  -2   7   8   15.92    2.50   0 
  -2   7   9    7.49    2.38   0 
  -1 -10  -3   23.23    2.94   0 
  -1   3   1   60.30    4.01   0 
  -1   5   4 1895.90    9.76   0 
  -1   6   7  119.83    3.17   0 
   0  -8  -2   24.13    2.53   0 
   0   4   5  512.37    5.50   0 
   0   5  10    5.49    2.44   0 
   1 -11   1   56.55    2.87   0 
   1  -8   0   13.01    2.77   0 
   1  -7   0  177.24    3.86   0 
   1  -6   0  157.79    3.89   0 
   1   2   6  734.50    7.30   0 
   2  -8   4  430.62    6.33   0 
  -4  -2  -3   49.56    5.11   0 
  -3  -4  -4  467.88    6.51   0 
  -2  -9  -4  225.43    4.15   0 
  -2  -8  -4   72.64    2.97   0 
  -2  -5  -4  536.98    6.00   0 
  -2   6   5   17.22    2.68   0 
  -1   6   8   99.19    3.01   0 
  -1   6   9  230.99    4.27   0 
  -1   6  10   93.65    3.49   0 
   0  -9  -2  156.81    3.21   0 
   1  -9   0    0.35    2.48   0 
   1  -5   0  230.03    4.77   0 
   2  -9   4  132.68    4.12   0 
   2  -5   4   12.19    3.97   0 
  -3   3   0    8.85    3.30   0 
  -3   6   5    5.12    2.90   0 
  -2 -10  -4  235.99    4.50   0 
  -2   5   3   77.72    3.33   0 
  -1 -11  -3  228.61    3.80   0 
  -1  -3  -3  277.60    4.99   0 
   0 -10  -2  118.27    3.00   0 
   0   2   2 2348.35   15.03   0 
   0   4   6  708.54    6.18   0 
   1 -12   1   -0.20    2.42   0 
   1 -10   0   91.06    3.47   0 
   1   2   7  176.37    4.38   0 
   1   2  12   21.47    2.89   0 
   2  -3   6 1057.44   20.35   0 
   2  -2   8   40.02    4.71   0 
  -4   4   2   18.12    3.56   0 
  -3   5   3   24.65    3.10   0 
  -2  -4  -4   17.65    2.45   0 
  -2   6   6  129.23    3.22   0 
  -1   5   5  182.44    3.65   0 
   0 -11  -2  101.69    2.91   0 
   1   2   8  149.84    4.06   0 
   1   2  10    6.79    2.87   0 
   1   2  11   67.49    3.81   0 
   2  -2  10   15.71    3.67   0 
  -4   5   4    0.14    3.16   0 
  -3  -3  -4  186.04    5.07   0 
  -3   6   6   40.06    3.19   0 
  -2  -1  -3   61.24    4.53   0 
  -2   6   7    3.44    2.76   0 
  -1  -8  -4   16.98    2.81   0 
  -1  -7  -4  556.22    5.45   0 
  -1   4   3   20.93    2.60   0 
   0   3   4   32.42    3.28   0 
   0   4   7    2.12    2.21   0 
   1 -11   0  176.01    3.56   0 
   1  -4   0   -0.39    3.15   0 
   1   2   9   53.68    2.84   0 
   2  -8   3  134.63    4.40   0 
  -2   6   8   68.82    2.91   0 
  -2   6   9  110.72    3.67   0 
  -1  -9  -4  108.79    3.09   0 
  -1  -6  -4  285.67    4.10   0 
  -1   5   6  107.40    3.06   0 
   0 -12  -2   19.46    2.64   0 
   0   1   1    0.48    4.84   0 
   0   4   8    9.96    2.30   0 
   0   4   9  582.10    5.57   0 
   0   4  10  141.61    3.29   0 
   1 -12   0   10.49    3.02   0 
   1   1   5   92.30    3.80   0 
   2  -9   3  182.38    4.39   0 
   2  -7   3    2.62    2.56   0 
  -4  -4  -4    0.12    3.55   0 
  -4   3   1   41.57    3.89   0 
  -2  -3  -4  538.33    6.57   0 
  -2   4   2   13.94    2.82   0 
  -2   5   4  812.13    6.40   0 
  -1 -10  -4   75.16    2.97   0 
  -1  -5  -4  151.59    3.65   0 
  -1   5   7   34.05    2.40   0 
  -1   5  11  120.06    3.47   0 
   0  -9  -3  236.35    3.74   0 
   0  -8  -3   75.54    2.74   0 
   0  -7  -3  784.37    6.09   0 
   0  -3  -2 1034.17    8.93   0 
   1  -8  -1 3278.63   12.08   0 
   1  -7  -1    0.85    2.57   0 
   1   1  12    9.08    3.21   0 
   2 -10   3    1.34    3.14   0 
   2  -6   3  186.14    5.07   0 
  -3  -7  -5   72.23    3.71   0 
  -3  -6  -5   20.47    3.32   0 
  -3   4   2   60.53    3.42   0 
  -2  -9  -5  185.38    4.11   0 
  -2  -8  -5   56.71    2.68   0 
  -2  -7  -5    5.77    3.00   0 
  -1 -11  -4  225.99    3.81   0 
  -1  -2  -3    6.92    3.18   0 
  -1   5   8  129.06    3.18   0 
  -1   5   9  783.43    6.29   0 
  -1   5  10  230.83    3.89   0 
   0 -10  -3  303.62    4.12   0 
   0  -6  -3   14.86    2.28   0 
   1 -10  -1   12.51    2.20   0 
   1  -6  -1   96.62    3.40   0 
   1  -2   1 1131.25   15.76   0 
   2 -11   3   25.86    3.28   0 
  -4   1  -1   18.62    5.48   0 
  -4   2   0   53.01    4.59   0 
  -4   4   3  372.30    6.46   0 
  -2  -6  -5   93.42    3.47   0 
  -2   5   5   12.74    2.29   0 
  -1   4   4  932.79    7.02   0 
   0   3   5  215.93    4.09   0 
   0   3  12    7.29    2.54   0 
   1 -11  -1  107.65    3.18   0 
   1   1   6  517.00    6.60   0 
   1   1  11  137.31    4.17   0 
  -3  -5  -5   67.80    3.49   0 
  -3   5   5   16.31    2.45   0 
  -2   5   6  729.95    6.18   0 
  -1  -4  -4  770.00    6.80   0 
  -1   3   2  755.62    7.65   0 
   0   3  11  100.71    3.49   0 
   1 -12  -1  115.85    3.89   0 
   1   1  10  485.82    5.96   0 
   2  -9   2   85.40    3.49   0 
   2  -8   2  465.19    6.13   0 
   2  -4   4    4.50    4.94   0 
  -3   5   6  300.82    4.80   0 
  -2  -5  -5  922.22    7.14   0 
  -2   4   3   84.63    3.38   0 
  -2   5   7  113.58    3.52   0 
  -2   5  10   64.48    3.47   0 
  -1  -9  -5   99.07    3.33   0 
  -1  -8  -5   -2.21    2.59   0 
  -1   4   5    5.27    2.65   0 
   0   2   3  281.37    5.41   0 
   0   3   6  351.13    4.63   0 
   0   3  10   87.12    3.38   0 
   1  -5  -1  290.40    4.75   0 
   1   1   7  213.02    4.73   0 
   1   1   8  240.13    4.79   0 
   1   1   9  120.38    3.82   0 
   2 -11   2   53.11    3.61   0 
   2 -10   2  129.55    3.73   0 
   2  -7   2   50.10    3.33   0 
   2  -5   3  443.82    8.10   0 
  -4  -3  -4   94.11    5.49   0 
  -4   4   4   22.52    3.38   0 
  -3  -2  -4   44.31    4.17   0 
  -3   4   3  159.95    4.17   0 
  -2   5   8   30.96    2.49   0 
  -2   5   9   11.06    2.44   0 
  -1 -10  -5  283.97    4.15   0 
  -1  -7  -5   39.05    2.50   0 
  -1   4  11  215.14    4.04   0 
   0  -9  -4   17.96    2.73   0 
   0  -8  -4  450.59    4.93   0 
   0  -1  -1    0.49    4.75   0 
   0   3   7  143.16    3.38   0 
   0   3   8  186.60    3.67   0 
   0   3   9    2.16    2.04   0 
   1 -10  -2  126.11    3.55   0 
   1  -9  -2   80.29    2.66   0 
   1  -3   0  297.65    6.34   0 
   1   0  12  135.16    4.16   0 
   2  -3   7   69.43    6.09   0 
  -4   3   2    0.30    3.24   0 
  -3  -4  -5   20.28    3.40   0 
  -2  -2  -4  754.70    8.68   0 
  -1  -6  -5  155.94    3.60   0 
  -1   4   6  621.24    5.71   0 
  -1   4   9    8.54    2.75   0 
  -1   4  10    7.90    2.44   0 
   0 -11  -4    4.29    2.29   0 
   0  -7  -4  199.95    3.59   0 
   0  -4  -3   19.93    2.57   0 
   1  -7  -2  269.91    4.30   0 
   1   0   4 1075.73   11.79   0 
   2  -6   2   66.80    3.96   0 
   2  -3   8    2.80    4.18   0 
  -4   4   5   36.01    3.45   0 
  -2  -9  -6  122.00    3.41   0 
  -2  -8  -6  229.29    4.34   0 
  -2  -4  -5 1422.17    9.38   0 
  -2   4   4  220.62    4.09   0 
  -1  -3  -4  683.80    7.04   0 
  -1   4   7  260.35    4.01   0 
  -1   4   8  272.05    3.98   0 
   0   2  12   -1.85    2.44   0 
   1 -12  -2   63.05    2.97   0 
   1   0  11    2.00    3.04   0 
   2 -10   1   16.17    3.20   0 
   2  -9   1  131.74    3.79   0 
  -3  -7  -6  119.98    4.27   0 
  -2  -7  -6  684.37    6.33   0 
  -1  -5  -5 2723.45   11.49   0 
  -1   3   3  311.29    4.99   0 
   0  -6  -4  116.31    3.11   0 
   0  -2  -2 2282.42   14.64   0 
   0   2   4  484.97    6.60   0 
   0   2  11   26.23    3.00   0 
   1  -6  -2   43.48    2.49   0 
   1  -4  -1  182.42    4.35   0 
   2 -11   1  139.59    3.87   0 
   2  -8   1  383.56    5.54   0 
  -3  -6  -6  130.36    4.25   0 
  -2  -6  -6   13.93    3.02   0 
  -2   4   5   15.02    2.63   0 
  -1   2   1    2.35    3.42   0 
  -1   3  12   13.77    2.51   0 
   1   0  10   35.76    3.16   0 
   2  -7   1  154.02    4.10   0 
  -4   3   3   19.04    3.33   0 
  -3   4   5   26.71    3.06   0 
  -2   2   0   34.47    4.09   0 
  -2   3   2   65.02    3.30   0 
  -2   4   6  331.21    4.71   0 
  -2   4   9   90.47    3.46   0 
  -1 -10  -6  226.77    3.97   0 
  -1  -9  -6  198.31    3.68   0 
  -1  -8  -6  122.92    3.50   0 
  -1   3  11    2.10    2.28   0 
   0 -10  -5   20.66    3.07   0 
   0  -9  -5  122.93    3.51   0 
   0  -5  -4  240.59    3.90   0 
   0   2  10  144.29    3.54   0 
   1 -11  -3  134.43    3.37   0 
   1 -10  -3  152.38    3.26   0 
   1  -9  -3    9.14    2.15   0 
   1  -8  -3    2.73    2.74   0 
   1   0   5 1225.93   11.17   0 
  -4   2   1  131.70    4.93   0 
  -3  -3  -5  256.86    5.78   0 
  -3   2   0   64.78    3.99   0 
  -3   3   2  216.87    4.60   0 
  -3   4   7    2.69    2.66   0 
  -3   4   8   90.61    3.45   0 
  -3   4   9    1.51    2.25   0 
  -2  -3  -5   39.95    3.27   0 
  -2   4   7    1.63    2.20   0 
  -1  -7  -6  310.72    4.43   0 
  -1   3   4  373.10    4.95   0 
  -1   3  10   45.07    3.01   0 
   0  -3  -3   73.82    3.28   0 
   0   2   5    3.03    2.42   0 
   0   2   9  126.32    3.24   0 
   1  -5  -2 1673.99    9.66   0 
   1  -1  12    6.48    3.01   0 
   1   0   9  138.13    4.06   0 
   2 -11   0  100.44    3.87   0 
   2 -10   0    9.27    2.53   0 
   2  -9   0    5.73    2.92   0 
   2  -5   2  137.34    4.99   0 
   2  -4  10  148.57    6.00   0 
  -4   3   4   73.37    3.90   0 
  -3  -5  -6   59.54    3.54   0 
  -2  -5  -6  191.16    4.29   0 
  -1  -4  -5    1.83    2.04   0 
  -1   3   9   77.78    3.31   0 
   0  -7  -5  228.97    3.70   0 
   0   1  12  236.55    4.34   0 
   0   2   6  152.32    3.58   0 
   0   2   7  152.94    3.68   0 
   0   2   8  342.96    4.45   0 
   1  -7  -3  248.84    3.83   0 
   1   0   6   92.00    3.79   0 
   1   0   8  119.73    3.91   0 
   2  -8   0   27.96    3.13   0 
   2  -6   1   15.61    2.93   0 
  -2  -8  -7   58.90    3.41   0 
  -2   3  11   26.22    3.20   0 
  -1  -6  -6  732.01    6.07   0 
  -1  -1  -3 1329.32   12.74   0 
  -1   2  12   91.00    3.62   0 
  -1   3   5   26.41    2.42   0 
  -1   3   6   11.63    2.75   0 
  -1   3   8  140.87    3.24   0 
   0   1   2 1622.40   14.77   0 
  -4   3   5   65.98    3.81   0 
  -2  -7  -7   83.29    3.45   0 
  -2   3   3   -0.67    2.53   0 
  -1   3   7   72.55    2.82   0 
   0  -6  -5   51.19    2.56   0 
   0  -4  -4 2237.26   10.77   0 
   0   1  11   74.32    3.07   0 
   1 -11  -4   65.10    2.78   0 
   1  -9  -4  136.66    3.54   0 
   2 -11  -1   31.37    3.21   0 
   2 -10  -1   73.58    3.39   0 
   2  -7   0  105.29    3.65   0 
   2  -4   3  125.69    6.77   0 
  -4   3   6    2.19    2.35   0 
  -2  -4  -6  593.08    6.54   0 
  -1  -9  -7  145.41    3.50   0 
   1  -4  -2  664.46    6.99   0 
   1  -3  -1   52.06    3.88   0 
   2  -9  -1 1606.90    9.46   0 
   2  -4   9   12.37    3.93   0 
  -4   2   2   13.92    3.02   0 
  -3  -4  -6   10.30    3.16   0 
  -3   3   4    6.74    2.73   0 
  -3   3   9    3.29    2.82   0 
  -2  -6  -7   37.58    3.05   0 
  -2   3   4  267.74    4.36   0 
  -2   3   9   13.45    2.42   0 
  -1  -8  -7   39.46    2.50   0 
  -1  -5  -6  666.37    5.85   0 
  -1   0  -2  989.06   17.71   0 
  -1   2   2  335.29    6.14   0 
   0  -8  -6   29.04    2.43   0 
   0   1  10  133.80    3.47   0 
   1  -2  12    3.38    2.89   0 
  -4   1   0   60.50    4.88   0 
  -3  -6  -7   77.96    3.89   0 
  -3   3   5    2.16    2.75   0 
  -3   3   8   31.73    2.56   0 
  -2   3   7    7.60    2.80   0 
  -2   3   8    4.09    2.03   0 
  -1  -7  -7    1.00    2.62   0 
  -1  -3  -5  253.59    4.66   0 
  -1   2  10  133.90    3.23   0 
   0  -5  -5   95.36    3.03   0 
   0   0  12   22.36    2.51   0 
   1  -7  -4  222.37    3.71   0 
   1  -5  -3   25.91    2.49   0 
   2  -6   0   31.61    3.23   0 
   2  -5   1   24.89    3.32   0 
  -4   2   3    2.67    3.39   0 
  -3   2   1    1.94    3.20   0 
  -3   3   6   47.26    2.92   0 
  -3   3   7   30.75    2.56   0 
  -2  -1  -4  600.02    9.39   0 
  -2   2  11    9.93    2.91   0 
  -2   3   6  121.68    3.08   0 
   0   1   9   99.59    3.04   0 
   1 -11  -5   10.43    2.64   0 
   1 -10  -5  146.55    3.58   0 
   1  -2   0 1519.58   15.20   0 
   2 -11  -2  128.60    3.44   0 
   2 -10  -2   41.36    2.75   0 
   2  -7  -1  435.20    5.62   0 
   2  -4   8  248.73    7.51   0 
  -3   1  -1  285.45    7.90   0 
  -2  -5  -7   49.94    3.29   0 
  -2  -2  -5  157.14    4.84   0 
  -2   2   1  242.85    5.29   0 
  -1  -6  -7  108.05    3.58   0 
  -1   2   9   42.56    2.58   0 
   0  -3  -4   34.84    3.32   0 
   0  -2  -3  304.47    5.92   0 
   0   0  11   54.82    3.22   0 
   0   1   3  734.17    8.82   0 
   0   1   8  236.87    4.28   0 
   1  -6  -4  449.87    5.15   0 
   1  -2  11   22.18    3.17   0 
   2  -9  -2    4.26    2.38   0 
   2  -5  10   53.54    5.08   0 
  -3  -5  -7  133.83    4.65   0 
  -3  -2  -5   74.86    5.31   0 
  -2   2  10   21.55    2.51   0 
  -1  -4  -6   13.43    2.34   0 
  -1   2   3  360.12    5.70   0 
  -1   2   8   57.84    2.64   0 
   0  -9  -7   37.01    2.64   0 
   0  -6  -6  216.37    3.68   0 
   0   1   7   62.52    3.10   0 
   1  -8  -5   56.98    2.55   0 
   1  -1   8  100.55    3.82   0 
   2  -8  -2    3.21    2.90   0 
  -4   2   5    6.52    2.53   0 
  -4   2   6   16.45    2.58   0 
  -2  -7  -8  159.16    3.83   0 
  -2  -3  -6  248.44    4.87   0 
  -1  -8  -8  167.76    4.03   0 
  -1   1  11   30.97    2.63   0 
  -1   2   4  951.76    7.78   0 
  -1   2   7    6.41    2.28   0 
   0  -8  -7    0.57    2.18   0 
   0  -4  -5  548.22    5.54   0 
   0   1   4 1767.45   12.01   0 
   0   1   6  167.56    4.13   0 
   1  -3  12  126.13    4.25   0 
  -4   1   1  120.25    4.81   0 
  -3   2   2   22.11    3.12   0 
  -3   2   9    1.34    2.28   0 
  -2   2   9   11.76    2.30   0 
  -1  -5  -7  884.89    7.10   0 
  -1   2   5   40.73    2.64   0 
  -1   2   6  197.64    3.72   0 
   0  -1  12   26.88    3.13   0 
   0   0  10   54.85    2.86   0 
   0   1   5 1104.05    9.02   0 
   1 -10  -6   89.07    3.09   0 
   1  -7  -5  432.69    4.78   0 
   1  -4  -3   22.54    2.58   0 
   1  -1   7   44.70    3.65   0 
   2  -9  -3   66.78    3.37   0 
   2  -7  -2  119.69    3.77   0 
   2  -6  -1  312.42    4.92   0 
  -3   2   8   50.42    2.82   0 
  -2  -6  -8   84.90    4.00   0 
  -2   1  11   13.06    2.94   0 
  -2   2   2  590.63    6.94   0 
  -2   2   8   60.12    2.64   0 
  -1  -7  -8  456.85    5.02   0 
  -1   1  10   49.43    2.55   0 
   0  -7  -7    9.87    2.33   0 
   0  -5  -6  205.47    3.70   0 
   0  -1  -2 1368.99   13.42   0 
   1  -9  -6   28.31    2.52   0 
   1  -5  -4 2210.48   10.28   0 
   1  -3  -2  748.15    7.66   0 
  -3   2   7    3.38    2.31   0 
   2  -8  -3 1495.02    8.85   0 
  -1   1   6  688.09    9.79   0 
  -1   1   8   15.50    4.82   0 
  -1   1   9   23.37    4.82   0 
  -1   2  11   54.15    5.41   0 
  -1   9   0    2.92    4.52   0 
   0  -2  11    3.18    6.85   0 
   1  -4   3 4435.85   26.78   0 
   1  -1  -2  451.37    9.81   0 
   2  -5   2  120.22    5.77   0 
   3  -6   3   23.88    4.72   0 
   3  -3  -3  270.96    5.80   0 
   3  -2  -4  140.31    5.04   0 
   4  -6   2    7.28    3.75   0 
   4   2  -7   -1.91    4.71   0 
  -1   1   5  540.99    9.72   0 
  -1   2   3  377.30    7.68   0 
  -1   4   1  194.53    6.04   0 
   0   4  -3 1545.24   25.39   0 
   2  -4   0   42.46    4.12   0 
   3   1  -6   21.05    4.91   0 
   3   3  -7  107.31    5.95   0 
   4  -5   0    6.75    3.61   0 
   4  -3  -3   21.60    4.16   0 
   4  -1  -5   -1.79    3.89   0 
  -1   1  10   49.67    5.71   0 
   0   9  -4    2.27    5.48   0 
   2   6  -7   82.42    7.84   0 
   3  -6   4    0.71    3.78   0 
   3  -5   1  295.51    6.91   0 
  -1   5   0  214.60    7.08   0 
  -1  12   0    9.21    5.29   0 
   0   7  -4  300.16   10.66   0 
   2   1  -5   92.50    5.98   0 
   2   3  -6   13.55    5.87   0 
   3  -6   5    5.20    4.88   0 
   3   0  -5   15.79    4.68   0 
   4  -5   1   44.09    4.81   0 
   4  -4  -1   16.91    4.08   0 
   4   1  -6    8.33    4.12   0 
  -1   1   4  248.97    7.34   0 
  -1   1  11   26.06    5.33   0 
  -1   8  -1  314.45    7.70   0 
   1  -4   4  313.14    9.97   0 
   2  -3  -1 1252.78   11.33   0 
   3  -6   6   93.12    6.34   0 
   3  -6   7   44.78    5.73   0 
   3   4  -7   12.40    5.03   0 
   4  -3  -2    0.67    3.88   0 
   4   0  -5    8.38    5.01   0 
  -2   7   7   85.94    5.85   0 
  -2   7   8   15.02    5.05   0 
  -2   8   6   19.69    5.35   0 
  -2   8   8   66.85    5.24   0 
  -2   9   7   40.34    4.62   0 
  -1   0   8  271.28    8.87   0 
  -1   3   1   68.17    6.34   0 
  -1  10  -1  153.54    5.78   0 
  -1  11  -1   53.29    5.92   0 
   2  -5   4   10.44    5.23   0 
   2   0  -4 9999.99   32.13   0 
   3  -5   2   19.44    3.87   0 
   3  -2  -3   43.46    4.34   0 
   3   2  -6    4.35    4.99   0 
   4  -5   2   14.44    4.32   0 
   4  -4   0    8.25    5.32   0 
   4  -2  -3    3.87    3.69   0 
   4  -1  -4   22.72    4.15   0 
  -2   6   7    1.91    4.72   0 
  -2   6   8   57.20    5.60   0 
  -2   7   6   70.99    4.93   0 
  -2   7   9    6.37    4.06   0 
  -2   9   5   11.39    4.13   0 
  -1   0   7  818.93   12.28   0 
  -1   0   9   84.65    6.06   0 
  -1   1  12   46.40    6.47   0 
  -1   2   2  392.51    8.53   0 
   1   2  -4  433.66   11.12   0 
   1   4  -5  696.20   16.67   0 
   4   2  -6   39.13    4.45   0 
  -2   6   6  136.73    5.27   0 
  -2   6   9   91.55    5.49   0 
  -2   7   5   68.59    4.73   0 
  -2   9   4   12.33    4.99   0 
  -1   0   6  176.04    7.00   0 
  -1   0  10   28.27    5.95   0 
  -1   4   0    2.44    4.81   0 
  -1   6  -1  696.06   10.17   0 
  -1  12  -1    1.40    5.52   0 
   2  -5  10   51.73    8.32   0 
   2   8  -7   69.09    9.33   0 
   3  -5   3  136.61    6.71   0 
   3   5  -7   42.49    5.93   0 
   4  -5   3   34.32    4.90   0 
   4  -3  -1   42.04    5.49   0 
  -2   5   6  524.49    9.09   0 
  -2   5   7  112.76    5.13   0 
  -2   5   8   25.01    4.36   0 
  -2   5   9   10.23    4.25   0 
  -2   6   5   17.13    4.10   0 
  -2   7   4  142.74    5.35   0 
  -1   1   3    4.95    6.14   0 
   0   6  -4   16.42    7.22   0 
   1  -2   0 1566.24   16.05   0 
   2   9  -7  217.23   14.22   0 
   3  -3  -1  131.83    5.32   0 
   3   1  -5   -1.56    3.89   0 
   4  -5   4  168.30    7.11   0 
   4  -4   1   24.79    4.30   0 
   4   1  -5    2.57    3.76   0 
   4   3  -6   19.73    5.40   0 
  -2   4   8  155.43    6.59   0 
  -2   5   5   15.53    5.10   0 
  -2   6   4   50.03    4.49   0 
  -2  10   3    8.74    4.47   0 
  -1   0   5  196.18    7.49   0 
  -1   0  11   16.70    5.56   0 
  -1   9  -2    2.59    5.16   0 
   1  -4   5  208.18    8.93   0 
   2  -5   6   85.50    6.06   0 
   2  -5   9   10.26    7.05   0 
   2  -4   2  190.83    5.80   0 
   2   2  -5   41.92    4.99   0 
   3  -5   4   58.51    6.00   0 
   3  -4   1   54.43    4.71   0 
   3  -2  -2   21.45    4.42   0 
   3   0  -4  419.84    8.08   0 
   3   3  -6   17.04    5.42   0 
   3   6  -7   52.32    6.60   0 
   4  -2  -2   13.46    4.26   0 
   4  -1  -3   14.52    4.21   0 
   4   0  -4   80.02    4.88   0 
  -2   4   6  286.17    7.51   0 
  -2   4   7    4.98    3.96   0 
  -2   4  10   65.38    6.04   0 
  -2   7   3    1.36    4.15   0 
  -1   5  -1  138.19    6.51   0 
  -1   8  -2   65.10    5.74   0 
   1  -4  10   84.56   12.03   0 
   2  -5   8  224.53    8.99   0 
   4  -4   2  882.37   11.20   0 
   4  -3   0  254.13    7.16   0 
  -2   5   4  670.73    9.22   0 
  -2   9   2    1.81    3.84   0 
  -2  10   2   37.92    5.42   0 
  -1   0  12   11.76    6.16   0 
  -1  12  -2   16.55    5.47   0 
   1  -1  -1   29.80    8.00   0 
   3  -5   5   83.90    5.58   0 
   3   7  -7    5.97    5.90   0 
   4   2  -5   36.55    4.97   0 
  -2   3   7    8.60    4.92   0 
  -2   3   9   14.61    5.22   0 
  -2   4   5   13.07    4.06   0 
  -1   7  -2  242.45    7.98   0 
   1  -4   6    2.91    6.48   0 
   2   1  -4   49.83    4.52   0 
   3  -5   6  251.55    7.82   0 
   3  -5   7   33.36    6.18   0 
   3  -5   8   27.92    6.68   0 
   3  -4   2   14.94    3.98   0 
   3  -3   0    6.18    4.05   0 
   3   2  -5    3.73    5.10   0 
   3   4  -6   62.99    5.80   0 
   4  -4   3  195.17    7.20   0 
   4   1  -4   39.78    5.38   0 
  -2   3   6  125.20    5.87   0 
  -2   3  10   32.54    4.47   0 
  -2   5   3   77.95    5.77   0 
  -1   0   4  634.02   11.84   0 
  -1   2   1    1.57    5.79   0 
   0  -3   9  646.60   27.53   0 
   2  -4   3  131.95    5.97   0 
   2  -1  -2 6909.70   26.42   0 
   2   0  -3   62.55    5.90   0 
   2   5  -6   44.13    6.18   0 
   4  -3   1  101.66    5.09   0 
   4  -1  -2  137.41    5.29   0 
   4   0  -3  133.60    5.23   0 
  -2   3  11   24.58    4.83   0 
  -2   4   4  224.01    6.29   0 
  -2   8   1  210.14    6.84   0 
  -1  -1   8  318.44    9.27   0 
  -1  -1   9  205.76    8.28   0 
  -1   6  -2   31.14    5.75   0 
   2  -3   1  391.77    7.62   0 
   2   3  -5  324.40    9.01   0 
   3  -4   3   12.80    5.14   0 
   3  -2  -1    1.45    4.24   0 
   3   1  -4   99.88    5.02   0 
   4  -4   4  296.72    7.69   0 
   4   3  -5    4.59    4.47   0 
  -2   3   5  123.31    5.47   0 
  -1  -1   7  186.71    7.74   0 
  -1  -1  10    1.85    5.99   0 
  -1   1   2  483.89   10.21   0 
   1  -4   7    9.09    6.66   0 
   1  -4   9  570.57   18.30   0 
   3  -3   1   85.83    4.89   0 
   3   0  -3   17.31    4.28   0 
   3   5  -6  105.73    7.53   0 
   4  -4   5    0.00    5.50   0 
   4  -3   2  276.38    7.13   0 
   4  -2   0   49.29    4.64   0 
  -2   2   7    4.39    4.82   0 
  -2   2   8   59.45    4.84   0 
  -2   2   9   12.66    4.47   0 
  -2   2  10   16.96    5.50   0 
  -2   4   3   76.27    5.02   0 
  -2   5   2  126.36    6.18   0 
  -2   7   1  433.50    7.72   0 
  -1  10  -3    4.28    5.17   0 
   0  10  -5    3.18    7.65   0 
   1  -4   8 2048.16   28.33   0 
   2  -4   4    0.23    5.40   0 
   3  -4   4 2050.09   16.13   0 
   4   2  -4   15.58    4.35   0 
  -2   2   6  247.40    7.04   0 
  -2   2  11    8.96    5.71   0 
  -2   3   4  232.86    6.17   0 
  -2   9   0    9.75    5.25   0 
  -2  10   0    9.70    5.39   0 
  -1  -1   6  470.52   10.45   0 
  -1  -1  11    8.70    5.40   0 
   0   9  -5   25.13    7.87   0 
   1  -3   3  647.38   11.98   0 
   2  -2   0   31.10    5.66   0 
   4  -3   3   30.65    5.41   0 
   4   0  -2   48.86    4.61   0 
   4   1  -3    4.41    4.29   0 
   4   4  -5    6.27    4.60   0 
  -1   8  -3  380.89    9.38   0 
   1   5  -5   58.91    8.55   0 
   2  -4   5    1.25    6.05   0 
   2  -3   2    3.84    4.97   0 
   2   2  -4    4.39    5.13   0 
   2   6  -6   65.87    6.67   0 
   3  -4   5  565.62   10.16   0 
   3  -3   2 1081.92   11.50   0 
   3  -2   0   62.38    4.60   0 
   3   6  -6    2.35    6.00   0 
   4  -2   1   22.52    4.57   0 
  -2   2   5   39.28    5.10   0 
  -1  -1  12    3.97    5.60   0 
  -1   0   3  292.42    9.56   0 
  -1   5  -2  153.27    7.03   0 
   3  -1  -1  173.47    6.29   0 
   3   2  -4  226.08    6.42   0 
   4  -3   4    4.08    5.41   0 
   4   3  -4   19.27    5.34   0 
  -3   7   6   33.85    5.60   0 
  -2   1   8  266.27    7.27   0 
  -2   1   9  131.01    6.65   0 
  -2   1  10    3.75    5.04   0 
  -2   3   3    5.15    3.98   0 
  -2   4   2   22.88    4.19   0 
  -2   7   0  105.87    5.19   0 
  -1   7  -3  236.46    8.36   0 
   2  -1  -1   71.39    4.86   0 
   2   1  -3    4.28    5.18   0 
   3  -4   6  399.27    7.98   0 
   3  -4   7   10.48    5.41   0 
   3   0  -2  321.50    6.98   0 
   3   1  -3    2.49    4.04   0 
   4  -2   2    4.72    5.00   0 
   4   2  -3    2.42    4.98   0 
  -3   6   7   -2.17    3.99   0 
  -3   7   5    8.94    5.02   0 
  -2   1   7  225.39    7.02   0 
  -1  -1   5   51.07    5.83   0 
   0   5  -4  150.08   13.21   0 
   0   8  -5  219.66   12.27   0 
   2  -4   6 2518.51   19.24   0 
   2   0  -2 1362.14   12.53   0 
   3  -4   8  116.56    6.85   0 
   3  -3   3  347.11    7.51   0 
   3   7  -6   15.43    5.54   0 
   4  -3   5   68.07    5.49   0 
   4   0  -1  161.70    5.43   0 
   4   1  -2   16.49    4.22   0 
  -3   5   8  131.41    5.65   0 
  -3   6   6   38.32    4.62   0 
  -3   8   4    2.69    4.08   0 
  -2   2   4  116.25    5.07   0 
  -1   2   0 1591.01   16.35   0 
   2  -4   7  744.65   12.01   0 
   2  -4  10  149.09    8.52   0 
   2   7  -6   34.74    6.45   0 
   3  -2   1  373.11    6.80   0 
   4   4  -4  288.84    7.77   0 
  -3   5   7   -0.90    4.09   0 
  -3   6   5   -0.20    4.16   0 
  -2   1   6   30.36    4.21   0 
  -1   1   1   27.14    7.89   0 
  -1   3  -1 3542.92   23.52   0 
   1  -3   4   11.39    6.15   0 
   2  -4   8  250.28    8.42   0 
   2  -4   9   10.17    5.34   0 
   2  -3   3   77.20    4.68   0 
   2  -2   1   40.01    4.62   0 
   3   3  -4  133.06    6.01   0 
   4  -2   3    1.51    4.05   0 
   4  -1   1   21.91    3.96   0 
  -3   4   9    0.98    5.26   0 
  -2   3   2   56.98    4.41   0 
  -2   4   1  527.55    8.01   0 
   3  -3   4  628.13    8.63   0 
   3  -1   0  422.78    7.27   0 
   3   5  -5    1.01    4.88   0 
   4  -2   4   24.24    5.24   0 
   4   0   0    4.83    4.18   0 
   4   3  -3   20.13    4.11   0 
  -3   4   7    3.90    4.19   0 
  -3   6   4   95.63    4.96   0 
  -3   7   3   92.76    4.84   0 
  -3   9   2    8.94    4.76   0 
  -2   1   5   14.17    3.92   0 
  -2   2   3    1.52    4.06   0 
  -2   5   0   55.50    4.45   0 
  -2   7  -1  153.00    5.61   0 
  -1   6  -3   22.35    5.11   0 
  -1  10  -4  184.05    7.90   0 
   1   2  -3   21.13    5.77   0 
   3  -3   5   75.43    5.89   0 
   3  -2   2   94.49    4.77   0 
   3   0  -1  630.36    8.02   0 
   4  -1   2   67.50    5.22   0 
   4   1  -1   13.45    4.02   0 
   4   2  -2   14.95    4.15   0 
   4   5  -4   20.16    4.42   0 
  -3   4   6   37.39    4.40   0 
  -3   8   2    9.35    4.98   0 
  -2   0   8   55.05    5.46   0 
  -2   0   9  221.65    7.52   0 
  -2   0  10   55.01    5.64   0 
  -2  10  -2  107.60    6.73   0 
  -1  -2   9  103.68    8.06   0 
  -1   4  -2   12.65    5.37   0 
  -1   9  -4  127.76    7.30   0 
   1  10  -6   94.19   13.65   0 
   2   8  -6   39.55    6.59   0 
   3   1  -2  238.16    5.69   0 
   4  -2   5  128.13    5.66   0 
  -3   5   4   33.76    4.19   0 
  -2   0   7   77.55    5.58   0 
  -2   0  11   15.88    5.27   0 
  -2   6  -1   16.08    4.90   0 
  -1  -2   8   69.66    7.12   0 
  -1  -2  10   47.94    7.48   0 
   1   0  -1   88.10    7.19   0 
   1   1  -2  180.86    8.40   0 
   3  -3   6   12.20    4.93   0 
   3   4  -4  323.32    7.34   0 
   3   6  -5   57.52    5.59   0 
   4  -1   3  184.54    6.32   0 
   4   0   1    4.80    4.07   0 
   4   4  -3   18.17    4.16   0 
  -3   7   2   32.83    4.09   0 
  -2   1   4  141.87    5.32   0 
  -2   8  -2  410.87    8.52   0 
  -1  -2  11   44.85    7.85   0 
  -1   8  -4  574.41   11.06   0 
   2  -2   2  154.59    6.20   0 
   2   0  -1   25.00    5.18   0 
   2   9  -6    7.02    6.73   0 
   3  -3   7  155.64    6.55   0 
   3  -3   8  111.30    6.52   0 
   3  -3   9   17.22    5.61   0 
   3  -2   3  112.70    4.94   0 
   4   1   0  125.02    4.98   0 
  -3   3   6   47.87    5.01   0 
  -3   5   3   24.94    4.03   0 
  -3   6   2   17.77    4.73   0 
  -2   0   6   58.66    5.52   0 
  -2   2   2  644.42    9.07   0 
  -2   3   1 1176.83   11.13   0 
  -2   4   0   44.29    4.33   0 
  -1  -2   7   32.12    6.58   0 
   1  -3   5    4.95    5.68   0 
   2  -3   5  698.43   10.52   0 
   2   1  -2  500.62    8.08   0 
   3   3  -3   20.66    4.77   0 
   3   7  -5  427.10   10.09   0 
   4  -1   4   48.88    5.32   0 
   4   2  -1   53.95    4.37   0 
  -3   4   4   16.01    3.94   0 
  -2   7  -2   45.01    5.03   0 
   0   7  -5  216.29   14.90   0 
   3  -2   4    4.32    4.40   0 
   3   0   0  218.72    5.86   0 
   4   0   2  113.29    5.09   0 
   4   5  -3   18.27    4.36   0 
  -3   2   9    2.32    3.90   0 
  -3   3   5    1.12    3.86   0 
  -3   7   1   46.23    4.27   0 
  -3   9   0   25.69    5.27   0 
  -1  -2  12   -1.95    7.33   0 
  -1   5  -3   19.02    5.12   0 
   1   6  -5  318.21   12.05   0 
   2  -3   6 1101.73   12.06   0 
   2   4  -4  222.62    7.15   0 
   3  -1   2  146.59    5.60   0 
   3   1  -1   36.13    3.99   0 
   3   2  -2   74.49    4.38   0 
   3   5  -4  321.58    7.44   0 
   4  -1   5   35.70    4.63   0 
   4   1   1   80.31    5.32   0 
   4   4  -2   46.28    5.11   0 
  -3   2   7    1.46    3.71   0 
  -3   5   2   12.35    3.84   0 
  -2   0   5  174.62    5.45   0 
  -2   1   3    8.07    4.04   0 
  -2  10  -3    0.51    5.15   0 
  -1   7  -4   84.88    6.23   0 
   1  -3  12  125.39   10.84   0 
   2  -2   3  519.47    8.43   0 
   3  -2   5    4.75    4.61   0 
   3   8  -5   73.92    6.24   0 
   4  -1   6    2.20    4.04   0 
   4   0   3   88.48    4.65   0 
   4   2   0  150.05    4.97   0 
  -3   2   6   23.92    3.97   0 
  -3   3   4    4.25    3.70   0 
  -3   6   1    3.05    3.38   0 
  -1  -2   6   35.94    6.06   0 
   2  -3   7   73.94    5.24   0 
   2  -3  10  168.90    7.29   0 
  -3   7   0   15.34    4.31   0 
  -2  -1   8  109.81    5.79   0 
  -2  -1   9   27.54    4.94   0 
  -2  -1  10   59.04    5.64   0 
  -2  -1  11   65.71    6.49   0 
  -2   3   0  399.18    7.56   0 
  -2   6  -2   58.62    4.74   0 
  -1   2  -1 1261.38   14.86   0 
   1  -3   6 3261.66   24.46   0 
   2  -3   8    6.33    4.51   0 
   2  -3   9  139.26    6.81   0 
   3  -2   6   31.07    3.98   0 
   3  -1   3    5.28    4.49   0 
   3   4  -3   16.36    3.87   0 
   3   6  -4   70.71    5.25   0 
   4   0   4   35.13    4.02   0 
   4   5  -2    3.21    4.02   0 
  -3   1   8    1.66    4.65   0 
  -3   1   9   45.90    5.30   0 
  -3   1  10   36.96    5.92   0 
  -3   2   5    4.06    3.65   0 
  -3   5   1   26.97    4.71   0 
  -2   0   4 9506.71   30.61   0 
  -1  -1   3   49.05    6.34   0 
  -1  11  -5   16.02    6.92   0 
   1  -2   3  162.25    7.81   0 
   1  -1   1  273.20    8.39   0 
   2   0   0  756.24    8.88   0 
   2   3  -3  212.28    6.07   0 
   2   7  -5    3.02    5.02   0 
   3  -2   7  168.55    6.27   0 
   3  -2   8   29.71    5.58   0 
   3  -2   9   90.75    6.05   0 
   3   1   0   86.27    4.34   0 
   3   3  -2   31.71    4.37   0 
   4   0   5   -2.77    4.55   0 
   4   2   1   56.09    4.51   0 
   4   3   0  107.15    5.38   0 
   4   4  -1    9.20    3.85   0 
  -3   1   7    8.54    4.96   0 
  -3   3   3  268.02    5.98   0 
  -3   6   0   27.62    4.51   0 
  -2  -1   7    7.46    4.78   0 
  -2   1   2 6547.00   24.70   0 
  -1   3  -2  570.55   10.54   0 
  -1  10  -5    1.38    5.82   0 
   1  -3  11   59.40    7.97   0 
   2  -2   4   85.57    5.21   0 
   2   1  -1   25.26    5.02   0 
   2   2  -2  841.13    9.99   0 
   4   0   6  238.12    6.81   0 
   4   1   3   27.18    3.87   0 
   4   6  -2   67.19    5.56   0 
  -3   2   4  118.90    4.92   0 
  -2   7  -3    0.86    4.40   0 
   1  -3   7  857.53   13.86   0 
   2  -1   2 1057.43   10.77   0 
   2   5  -4  406.05    8.30   0 
   3  -1   4  159.51    4.89   0 
   3   0   2   12.26    4.38   0 
   3   5  -3   32.84    4.90   0 
  -3   1   6   42.45    3.80   0 
  -3   7  -1    4.54    4.02   0 
  -2  -1   6  396.90    8.23   0 
  -2   5  -2  128.26    5.25   0 
  -1   6  -4   78.75    6.15   0 
  -1   9  -5  183.41    8.96   0 
   4   1   4  306.65    6.62   0 
   4   2   2   13.91    4.05   0 
   4   3   1   25.34    4.77   0 
   4   4   0   14.07    4.60   0 
  -4   5   4   -1.04    4.71   0 
  -4   6   3    3.73    4.77   0 
  -3   4   1 1112.78   10.21   0 
  -3   5   0   67.70    4.98   0 
  -1  -2   5  935.90   14.57   0 
  -1   0   1   93.46    6.85   0 
   1  -3   8 1128.53   15.68   0 
   1  -3  10    1.72    5.96   0 
   2  -2   5  291.82    7.05   0 
   2   8  -5 1860.71   18.38   0 
   3  -1   5  433.46    6.87   0 
   3   4  -2 1179.77   10.35   0 
   3   8  -4   22.72    5.37   0 
   4   1   5   93.19    5.40   0 
  -3   0   9   22.58    4.95   0 
  -3   0  10   11.11    5.13   0 
  -3   1   5   25.18    3.85   0 
  -1   4  -3 4536.55   26.28   0 
   1   0   0 4420.63   26.75   0 
   1   3  -3  539.80   10.88   0 
   3  -1   6   69.66    5.15   0 
   3   0   3    4.14    4.25   0 
   3   2   0   73.95    4.80   0 
   3   3  -1   53.86    4.79   0 
   4   2   3   43.35    4.14   0 
   4   6  -1    3.62    4.84   0 
  -3   0   8    6.16    3.70   0 
  -2  -1   5   92.46    4.98   0 
  -2   2   0   29.01    4.17   0 
  -2   3  -1  387.44    6.89   0 
  -2   6  -3  178.57    6.11   0 
   1   7  -5  404.40   12.47   0 
   2   4  -3   89.28    5.57   0 
   2   9  -5   24.06    6.24   0 
   3  -1   7   63.46    5.16   0 
   3   9  -4    2.30    4.83   0 
   4   3   2   72.93    4.45   0 
   4   4   1  583.40    8.43   0 
   4   5   0   56.39    5.14   0 
  -4   3   6    1.66    3.69   0 
  -4   4   4   19.24    3.82   0 
  -4   5   3   18.08    4.06   0 
  -4   6   2    6.00    3.73   0 
  -3   0   7   68.61    4.76   0 
  -3   1   4 1810.61   13.19   0 
  -3   3   1  119.13    5.50   0 
  -2   1   1   68.30    4.42   0 
  -2   4  -2  186.80    5.77   0 
  -1   8  -5  187.83    8.45   0 
   2  -2   6   30.22    4.12   0 
   2  -2  11  111.80    6.95   0 
   2  -1   3  546.35    7.78   0 
   3  -1   8    2.46    3.70   0 
   3  -1   9   28.45    4.47   0 
   4   2   4   24.15    3.96   0 
  -4   3   5   60.74    5.18   0 
  -3   0   6 1741.86   13.65   0 
  -3   2   2   21.87    4.60   0 
  -3   4   0   66.89    4.25   0 
  -2  -2   9    3.60    5.14   0 
  -2  -2  10   67.52    6.36   0 
  -2   8  -4  398.68    8.35   0 
   1  -2   4   54.80    5.46   0 
   1   1  -1    3.21    6.53   0 
   1   2  -2   16.52    5.90   0 
   2  -2   7   -2.01    4.37   0 
   2   1   0  794.83    9.33   0 
   2   3  -2  407.55    7.54   0 
   2  10  -5   18.64    6.25   0 
   3   0   4  204.45    5.17   0 
   3   5  -2  103.61    5.07   0 
   3   7  -3   35.45    5.03   0 
   4   2   5   83.14    4.53   0 
   4   3   3  153.88    5.06   0 
   4   6   0  114.57    5.78   0 
  -4   4   3  280.79    6.37   0 
  -3   5  -1  300.31    6.00   0 
  -2  -2   8    6.46    4.52   0 
  -2  -2  11   39.60    6.17   0 
  -2  -1   4   52.43    4.94   0 
   2  -2   8   38.25    4.96   0 
   2  -2   9   98.42    5.58   0 
   2  -2  10   14.92    4.76   0 
   3   4  -1  112.52    5.15   0 
   4   4   2  198.92    5.47   0 
  -4   2   6   20.48    4.91   0 
  -4   6   1   15.61    3.77   0 
  -3   1   3   10.32    3.72   0 
  -2   5  -3  459.59    8.45   0 
   1   5  -4  113.75    7.40   0 
   3   0   5  181.48    5.01   0 
   3   3   0  407.07    6.49   0 
   3   8  -3   18.88    5.40   0 
   4   3   4   98.79    4.69   0 
  -3  -1   9    6.16    4.99   0 
  -3  -1  10   10.55    5.27   0 
  -2  -2   7  262.99    7.40   0 
  -2   7  -4   70.64    5.47   0 
  -1  -1   2  183.84    7.27   0 
   2  -1   4  149.83    5.00   0 
   3   0   6   47.69    4.24   0 
   3   6  -2   50.59    5.25   0 
   4   3   5  102.77    5.77   0 
   4   4   3   65.43    4.20   0 
   4   6   1   47.61    5.07   0 
  -4   2   5    6.41    3.75   0 
  -4   3   3   15.50    4.91   0 
  -4   4   2   15.25    4.16   0 
  -3  -1   8   62.64    5.54   0 
  -3   2   1    1.85    3.71   0 
  -3   3   0    4.50    3.61   0 
  -3   4  -1   52.06    4.92   0 
  -1  -3   9   63.92    8.87   0 
   2   5  -3   -0.68    4.63   0 
   3   0   7    1.61    3.68   0 
   3   0   8  360.31    7.32   0 
   3   0   9  144.68    5.88   0 
   3   9  -3   35.37    5.56   0 
   4   5   2  143.06    5.15   0 
  -4   1   7   19.65    4.41   0 
  -3  -1   7   43.78    5.38   0 
  -3   1   2   23.10    4.66   0 
  -2  -2   6   80.99    5.77   0 
  -2   1   0   28.68    4.92   0 
  -2   2  -1   37.30    4.20   0 
  -2   3  -2    5.72    4.41   0 
  -2  10  -5   57.18    5.87   0 
  -1   2  -2  140.84    7.29   0 
  -1   7  -5    2.73    4.94   0 
   2  -1   5    8.81    4.76   0 
   3   1   4  283.21    5.91   0 
   3   2   2  405.19    6.49   0 
   3   5  -1   63.53    4.20   0 
  -4   1   6  522.48    8.64   0 
  -4   2   4   31.58    4.37   0 
  -3  -1   6   23.44    5.02   0 
  -3   5  -2   15.99    3.85   0 
  -3   7  -3  135.59    5.37   0 
  -2  -1   3    7.49    3.86   0 
  -2   6  -4  309.40    7.80   0 
  -2   9  -5   26.98    5.88   0 
   2   8  -4    4.53    5.58   0 
   3   3   1  206.63    5.27   0 
   3   4   0  174.23    5.22   0 
   4   5   3   44.25    4.37   0 
  -4   3   2    0.49    4.04   0 
  -4   4   1   15.18    3.98   0 
  -4   5   0   12.06    3.79   0 
  -2   0   1   24.21    5.23   0 
   2  -1   6  242.87    6.87   0 
   2   4  -2  951.53   10.08   0 
   3   1   5   71.20    4.24   0 
  -4   2   3   -0.63    3.80   0 
  -4   6  -1   10.81    5.16   0 
  -3  -1   5    1.54    4.49   0 
  -3   0   3   24.53    4.05   0 
  -3   2   0   62.32    5.12   0 
  -3   3  -1   89.85    5.42   0 
  -3   6  -3   26.56    4.91   0 
  -2  -2   5   36.36    5.56   0 
  -2   4  -3  135.70    5.49   0 
  -1   0   0 4365.33   27.76   0 
  -1   3  -3  651.61   11.39   0 
   2  -1  11   11.52    5.24   0 
   2   0   3 1215.38   11.02   0 
   2   2   0  232.60    6.00   0 
   3   1   6  644.46    8.03   0 
   3   6  -1   49.22    4.35   0 
  -3   1   1  148.23    5.36   0 
   3   1   7  194.27    5.56   0 
   3   3   2  297.99    5.91   0 
  -2  -6   2  254.39    6.72   0 
  -2  -5  10   33.45    4.85   0 
  -2  -1  -6  326.91    7.54   0 
  -1  -4   7  852.38    8.65   0 
  -1  -2  11   47.34    4.68   0 
  -1  -1  12    3.19    4.73   0 
  -1   6  -7   33.16    3.63   0 
  -1   7  -7  202.91    4.76   0 
  -1   8  -7   98.82    4.30   0 
   0  -1   3  226.66    7.32   0 
   0  -1   5  749.37    9.33   0 
   0   0   8   82.42    4.96   0 
   0   2  10  147.24    5.66   0 
   0   4  11   48.24    5.19   0 
   0  12  -1  131.69    5.91   0 
  -3  -7   1  148.16    6.76   0 
  -3   3  -9   19.15    4.87   0 
  -2  -3  -4  521.91   15.44   0 
  -1  -3  10 1150.94    9.80   0 
   0  -1   6  885.31    9.32   0 
   0   9  -3 1810.17   12.00   0 
  -3  -1  -7  197.45    7.39   0 
  -2  -6   8    2.27    3.41   0 
  -2   1  -7  640.15    8.58   0 
  -1  -4   1   97.04    5.66   0 
  -1  -4   8  121.12    4.35   0 
  -1   1  -5  610.42    9.06   0 
  -1   3  -6 3208.92   15.27   0 
  -1  10  -6   93.06    4.40   0 
   0  -1   7  436.48    7.10   0 
   0   2  -2 1271.28   14.49   0 
   0   8  -3  307.40    6.08   0 
  -3   1  -8    6.22    4.94   0 
  -2  -6   9    1.02    4.39   0 
  -2   5  -8  253.58    5.84   0 
  -2   7  -8    9.80    4.54   0 
  -2   8  -8    4.50    3.98   0 
  -1  -4   9   72.19    4.73   0 
  -1  -2  12    1.57    3.72   0 
  -1   4  -6   -2.10    4.10   0 
  -1  11  -5   18.09    4.73   0 
   0   0   9   46.18    3.96   0 
   0   2  11   24.32    4.90   0 
   0  10  -2   76.66    4.44   0 
   0  11  -1  148.23    5.72   0 
   0  12   0   86.17    5.79   0 
  -2   6  -8  112.38    4.54   0 
  -1  -3  11  332.79    6.27   0 
  -1   8  -6  454.29    6.39   0 
   0  -1   8    2.43    4.07   0 
  -3  -8   4   25.46    5.10   0 
  -3  -8   6    7.67    3.93   0 
  -3  -2  -6   36.10    6.36   0 
  -2  -6  10    4.52    4.20   0 
  -2   2  -7   -0.08    4.33   0 
  -1  -5   4  104.03    4.97   0 
  -1  -4  10    5.93    4.31   0 
   0   0  10   52.99    4.92   0 
   0   1  -1    1.43    7.80   0 
   0   1  11   75.25    5.27   0 
   0   3  12    3.25    4.90   0 
   0   9  -2   10.68    3.78   0 
   0  12   1  162.64    6.48   0 
  -3  -8   3   20.00    5.22   0 
  -3  -6  -2  396.93   14.97   0 
  -3   2  -8   29.22    5.18   0 
  -2  -7   4   44.16    4.75   0 
  -2  -7   5    3.59    3.73   0 
  -2  -7   7   98.25    4.69   0 
  -1  -5   7    2.39    3.45   0 
  -1  -3  12  226.99    6.56   0 
  -1   0  -4 1102.28   13.21   0 
  -1   2  -5  451.53    7.70   0 
   0  -2   5  121.56    5.79   0 
   0  -2   6    6.21    4.38   0 
   0  -1   9   34.26    4.65   0 
   0   8  -2   28.96    4.41   0 
   0  10  -1   13.89    4.79   0 
   0  12   2   15.35    5.57   0 
  -3   0  -7    3.24    5.02   0 
  -3   3  -8  119.67    5.84   0 
  -2  -7   3  841.35    9.81   0 
  -2  -7   8  116.84    4.71   0 
  -2   3  -7   76.91    4.87   0 
  -1  -5   3  443.94    7.21   0 
  -1  -5   8  114.14    4.43   0 
  -1  -4  11   21.54    4.94   0 
  -1  11  -4   69.85    4.38   0 
   0  -2   7  203.85    5.10   0 
   0   3  -2  397.98    8.34   0 
  -3  -8   2  150.89    7.16   0 
  -3   4  -8  131.24    5.83   0 
  -2  -7   9   57.57    4.51   0 
  -2  -6   0   62.98    6.07   0 
  -2   7  -7   68.37    5.12   0 
  -1  -5   9   19.49    3.84   0 
  -1   3  -5    4.14    4.30   0 
  -1   8  -5  184.19    4.92   0 
   0  -2   8   16.23    4.33   0 
   0  -1  10   20.73    4.31   0 
   0   0  11   60.25    4.36   0 
   0   1  12  237.55    7.27   0 
   0   7  -2  145.03    4.82   0 
   0  12   3  176.67    7.90   0 
  -3  -3  -5  263.42   10.63   0 
  -3   5  -8   31.63    4.32   0 
  -2   5  -7  137.28    4.62   0 
  -2   6  -7   14.71    3.57   0 
  -1  -5   2 1101.85   11.67   0 
  -1  -5  10   -0.48    4.70   0 
  -1  -4   0 2430.82   22.02   0 
  -1  -4  12  362.42    7.59   0 
  -1   7  -5    0.87    3.42   0 
  -1  10  -4  195.55    5.36   0 
   0  -2   3 1897.05   16.04   0 
   0   4  -2   56.30    4.95   0 
   0   5  -2  193.82    6.40   0 
  -2  -7   2  303.95    7.23   0 
  -2   1  -6  234.17    6.63   0 
  -1   6  -5  206.60    5.13   0 
  -1  11  -3  162.15    6.02   0 
   0  -2   9  190.75    5.05   0 
   0  -1  11  173.21    5.94   0 
   0   0  12   24.31    4.85   0 
  -3   1  -7   77.85    5.26   0 
  -2  -8   6   43.78    4.96   0 
  -2  -8   7   69.09    5.33   0 
  -2  -1  -5  273.23    7.88   0 
  -1  -6   6    7.76    3.58   0 
  -1  -6   7    5.52    3.81   0 
  -1  -6   8   25.06    3.62   0 
  -1  -5  11   50.57    4.31   0 
  -1   9  -4  132.77    4.64   0 
  -1  12  -2   17.63    4.16   0 
   0  -3   6    9.03    4.53   0 
   0  -2  10    8.58    4.36   0 
   0  -1   1    2.59    8.17   0 
   0  11   2  106.90    6.04   0 
  -3  -9   4   -0.97    5.24   0 
  -3  -8   1   99.36    6.78   0 
  -3  -1  -6  618.62   10.61   0 
  -2  -8   5 1705.67   13.00   0 
  -1  -6   4   93.03    4.96   0 
   0  -3   5  365.11    6.72   0 
   0  -3   8 2094.35   12.90   0 
   0   9   0  216.45    6.50   0 
   0  10   1  217.73    6.67   0 
  -3   2  -7  169.81    5.47   0 
  -2  -8   4    1.46    4.92   0 
  -2   2  -6   28.49    3.64   0 
  -2   7  -6   43.53    4.95   0 
  -2  10  -5   56.61    4.57   0 
  -1  -6  10   44.17    4.17   0 
  -1   8  -4  613.42    7.24   0 
  -1  10  -3    2.68    3.57   0 
   0  -2  11    6.45    4.63   0 
   0  -1  12   25.54    4.27   0 
   0   2  -1   -0.53    8.02   0 
   0   7  -1    5.02    3.68   0 
   0  11   3   16.46    5.67   0 
  -3  -9   3   41.91    5.58   0 
  -3   3  -7  152.27    5.15   0 
  -3   4  -7    9.03    4.73   0 
  -3   5  -7   46.64    5.32   0 
  -3   6  -7   54.59    4.69   0 
  -2  -7   1  252.35    7.13   0 
  -2   6  -6    0.10    3.62   0 
  -1  -6   3  239.13    6.14   0 
  -1  -6  11    3.06    5.14   0 
  -1   7  -4   82.75    4.17   0 
  -1  11  -2  195.69    5.46   0 
  -1  12  -1    6.69    4.84   0 
   0  -3  10  657.44    8.31   0 
  -2  -8   3  117.38    5.80   0 
  -2  -5  -2   30.53   10.57   0 
  -2   9  -5   26.79    4.18   0 
  -1   2  -4   56.06    4.67   0 
  -1   9  -3   77.31    5.02   0 
   0  -2  12   30.03    5.36   0 
   0   6  -1  214.19    5.94   0 
   0   8   0  246.08    6.92   0 
   0  11   4    2.55    5.67   0 
  -3   0  -6   50.99    5.10   0 
  -2   0  -5   21.85    4.65   0 
  -1  -7   7  135.15    4.74   0 
  -1  -7   9    3.43    3.89   0 
  -1   4  -4  304.87    6.68   0 
  -1   5  -4  206.53    5.33   0 
   0  -4   6  220.90    5.46   0 
   0  -3   3 4540.76   22.90   0 
   0  -3  11    2.28    3.64   0 
   0   3  -1  432.31   10.51   0 
   0   9   1    0.47    4.75   0 
  -4  -3  -5  113.18    8.95   0 
  -4  -1  -6    1.15    5.06   0 
  -3  -9   2    4.22    5.90   0 
  -2  -9   6    0.92    4.98   0 
  -2  -9   7  234.89    6.45   0 
  -2  10  -4  101.22    4.84   0 
  -1  -7   5  403.09    6.51   0 
  -1  -7  10    4.77    3.97   0 
  -1   8  -3  399.01    7.10   0 
  -1  10  -2   43.91    4.03   0 
  -1  12   0    5.21    5.05   0 
   0  -4   5 2277.69   14.29   0 
   0  -4   9   19.07    3.93   0 
   0   4  -1  297.89    7.72   0 
   0  11   5  156.59    8.46   0 
  -3  -8   0    7.28    6.32   0 
  -3   7  -6    4.49    4.70   0 
  -2  -9   5   27.09    5.00   0 
  -2  -8   2   15.14    4.56   0 
  -2  -6  -1   44.17    6.55   0 
  -2  -2  -4  783.61   13.89   0 
  -2   7  -5  251.89    5.99   0 
  -1  -7   4   93.99    5.07   0 
  -1  -6   2    2.88    4.79   0 
   0  -4  10 1085.85    9.66   0 
   0  -3  12   -4.80    4.15   0 
   0   7   0  230.62    6.79   0 
  -3   1  -6   81.15    5.54   0 
  -3   6  -6  121.56    5.97   0 
  -2   1  -5   13.13    4.83   0 
  -1   7  -3  243.98    6.02   0 
  -1   9  -2    3.81    4.25   0 
   0  -4  11  256.38    5.87   0 
  -4   0  -6  271.87    7.87   0 
  -3   2  -6   35.01    5.20   0 
  -3   5  -6  272.19    6.50   0 
  -2  -9   4  134.38    5.23   0 
  -2  -7   0  289.04    8.79   0 
  -2   6  -5   36.87    3.98   0 
  -1  -8   7   74.39    5.05   0 
  -1  -8   9  106.11    5.70   0 
  -1   0  -3 3058.55   23.83   0 
   0  -5   7  112.52    4.63   0 
   0  -5   8    2.93    3.62   0 
   0  -5   9  158.96    4.86   0 
   0  -4  12   14.66    5.03   0 
   0   8   1   20.49    5.11   0 
  -4   1  -6   -1.00    5.43   0 
  -3   3  -6    5.33    3.81   0 
  -3   4  -6  472.95    7.28   0 
  -3   8  -5   81.87    5.62   0 
  -2   2  -5  288.53    6.36   0 
  -2   3  -5  716.18    8.73   0 
  -2   4  -5    1.38    4.67   0 
  -2   8  -4  463.00    7.51   0 
  -2  10  -3    3.82    3.90   0 
  -1  -8   6   67.97    4.34   0 
  -1  -7   3    4.14    4.40   0 
  -1   6  -3   26.99    4.47   0 
  -1  10  -1  168.28    5.41   0 
  -1  11   0  166.94    5.57   0 
   0  -5   6  238.08    5.61   0 
   0  -5  10    9.01    4.20   0 
   0   6   0    8.11    4.59   0 
   0  10   4  129.67    7.19   0 
  -2  -9   3    6.62    4.78   0 
  -2  11  -2   50.58    4.86   0 
  -1  -8   5  201.00    6.05   0 
  -1  -5   0 3633.67   25.24   0 
  -1   8  -2   63.33    5.03   0 
   0  -5   5   10.19    3.76   0 
   0  -5  11   56.26    4.47   0 
   0  -4   3 1532.41   13.41   0 
   1   2   8  173.06    7.22   0 
   1   3   7   14.31    6.10   0 
   1   3   8  204.52    7.68   0 
  -4  -2  -5   94.51    7.46   0 
  -3   7  -5   45.17    5.10   0 
  -2   7  -4   73.58    5.14   0 
  -1   1  -3 1203.81   14.20   0 
  -1   5  -3   21.64    3.82   0 
  -1  12   2   60.93    6.05   0 
   0  -6   8  192.29    5.85   0 
   0  -2   1    0.81    8.27   0 
   1   2   7  166.50    6.94   0 
   1   2   9   53.94    5.37   0 
   1   3   9  205.86    8.05   0 
   1   4   8  425.45   12.05   0 
  -4  -4  -4    2.38    7.18   0 
  -2 -10   5   16.11    5.03   0 
  -2   9  -3  203.74    5.39   0 
  -1  -9   8   46.91    5.50   0 
  -1  -8   4   42.29    5.17   0 
  -1  -2  -2  511.65   21.40   0 
  -1   9  -1 1981.06   13.18   0 
   0  -6   7  146.32    4.87   0 
   0  -6   9   17.54    3.93   0 
   0   5   0 1947.58   17.07   0 
   0   7   1  596.91    9.63   0 
   0  10   5   21.05    6.05   0 
   1   1   7  217.39    6.98   0 
   1   1  10  530.72    9.35   0 
   1   2   6  739.23   12.40   0 
   1   2  10    6.29    4.73   0 
   1   3   6  452.05   12.25   0 
   1   3  10   24.71    5.95   0 
   1   4   7 1193.80   19.93   0 
   1   4   9   43.88    7.06   0 
  -3   6  -5   -3.73    4.19   0 
  -2  -1  -4  595.91   10.58   0 
  -2   6  -4  318.84    6.52   0 
  -2  10  -2  104.87    4.85   0 
  -1  -9   7    5.81    4.00   0 
  -1  -7   2   95.40    5.71   0 
  -1  -4  -1    9.62    7.33   0 
  -1   2  -3  165.56    6.32   0 
  -1   3  -3  646.80    9.03   0 
  -1   7  -2  230.66    5.61   0 
  -1  10   0   89.71    4.86   0 
   0  -6   6   72.13    4.34   0 
   0  -6  11   35.41    4.60   0 
   0   8   2   24.38    5.01   0 
   1   0   7   43.68    5.20   0 
   1   1   6  576.08   10.31   0 
   1   2  11   67.79    6.54   0 
   1   4  10   10.93    6.57   0 
  -4  -1  -5   96.31    6.90   0 
  -3   0  -5  197.99    6.73   0 
  -3   5  -5  106.56    4.55   0 
  -3   8  -4   11.17    4.13   0 
  -2 -10   4  156.19    6.76   0 
  -2   8  -3  130.20    5.88   0 
  -1  -9   6    8.36    3.75   0 
   0  -6   5   15.23    4.75   0 
   1  -1   8  116.68    5.62   0 
   1  -1   9  492.52    8.13   0 
   1   1  11  142.98    6.42   0 
   1   3  11  156.68    7.98   0 
  -3  -3  -4  181.95    8.96   0 
  -3   1  -5  494.87    8.61   0 
  -3   3  -5   89.06    5.53   0 
  -3   4  -5  520.55    7.56   0 
  -2   5  -4   14.29    3.87   0 
  -1  -8   3 4041.86   19.97   0 
  -1   6  -2   28.24    4.65   0 
  -1  11   2  175.63    6.60   0 
   0  -7   8   20.27    3.98   0 
   0  -7  10   11.72    4.09   0 
   0  10   6   44.95    6.95   0 
   1  -1   7   48.22    5.27   0 
   1  -1  10   66.27    5.54   0 
   1   0   6   96.99    5.70   0 
   1   1  12   10.54    6.39   0 
   1   4   6   15.21    8.33   0 
   1   4  11  127.09    9.00   0 
   1   5   8   64.12    9.88   0 
   1   5   9   24.05    8.06   0 
  -4   0  -5   -0.52    5.36   0 
  -4   4  -5    2.00    5.17   0 
  -3   2  -5    0.49    3.73   0 
  -3   7  -4   37.99    4.31   0 
  -3   9  -3   31.98    4.34   0 
  -2   0  -4   38.52    5.20   0 
  -2   4  -4    0.66    3.55   0 
  -2   9  -2   83.53    4.40   0 
  -1  -9   5  843.13    9.40   0 
  -1   9   0    0.94    4.65   0 
  -1  10   1   10.67    5.12   0 
   0  -7   7    2.90    3.81   0 
   0  -5   3  133.15    5.38   0 
   0  -4   2   57.70    5.33   0 
   0   6   1   74.44    5.54   0 
   0  10   7  152.70   10.15   0 
   1  -2   8   37.54    4.86   0 
   1  -2   9    3.75    4.47   0 
   1  -2  10   43.12    5.22   0 
   1  -1  11   65.24    6.03   0 
   1   5  10   13.02    8.30   0 
  -4   1  -5   45.86    5.96   0 
  -4   2  -5  145.19    6.61   0 
  -4   3  -5   94.22    6.00   0 
  -2 -10   3  140.63    6.61   0 
  -2   1  -4  158.79    6.39   0 
  -2   3  -4 2099.63   13.71   0 
  -2   7  -3    3.45    3.61   0 
  -2  10  -1   13.38    4.01   0 
  -2  11   0   89.60    5.23   0 
   0  -7   6  122.94    4.69   0 
   0  -6   4   14.67    3.65   0 
   0   3   0 1318.00   17.55   0 
   1  -2   7  346.65    7.09   0 
   1  -2  11   26.26    4.95   0 
   1  -1   6   56.03    4.31   0 
   1  -1  12    6.86    4.95   0 
   1   1   5   95.76    6.11   0 
   1   2   5  307.30   10.00   0 
  -4  -3  -4   91.01    8.25   0 
  -3  -8  -1    3.92    8.33   0 
  -3   6  -4    4.76    3.72   0 
  -1 -10   7    1.70    4.25   0 
  -1  -9   4   12.70    4.13   0 
  -1   5  -2  124.02    5.07   0 
  -1  11   3  142.15    6.76   0 
   0  -8   9   77.49    5.42   0 
   0  -8  10    5.02    5.36   0 
   0   7   2  451.11    8.81   0 
   0   8   3   76.69    6.18   0 
   1  -3   8 1146.23   10.30   0 
   1  -3   9   29.13    4.97   0 
   1  -3  10    4.29    5.03   0 
   1  -2  12    3.38    5.16   0 
   1   0   5 1244.88   13.94   0 
  -3   8  -3   44.66    4.31   0 
  -2  -8   0  359.95    9.58   0 
  -2  -3  -3  290.35   11.79   0 
  -1 -10   6   98.73    5.18   0 
  -1  -7   1  867.34   11.27   0 
  -1   7  -1  805.50    8.76   0 
   0  -8   8  329.75    6.29   0 
   0  -7   5  221.15    5.51   0 
   0  -3   1  418.76    9.89   0 
   1  -3   7  846.85    9.42   0 
   1  -3  11   75.72    4.63   0 
   1  -2   6    9.69    3.78   0 
   1   3   5  258.91   12.08   0 
   1   5  11   78.42    9.58   0 
  -3  -2  -4   41.16    5.90   0 
  -3   5  -4   72.40    4.38   0 
  -3   9  -2  101.62    5.12   0 
  -2  -9   1  115.73    6.44   0 
  -2  11   1   28.76    5.48   0 
  -1  -8   2   61.34    4.51   0 
  -1  -6   0  763.86   12.11   0 
  -1   4  -2    9.89    4.98   0 
  -1   8   0   12.94    4.63   0 
  -1  10   2  128.73    6.07   0 
   0  -8   7  189.03    5.36   0 
   1  -4   9  588.01    8.30   0 
   1  -3  12  132.92    5.45   0 
   1  -1   5  629.28    9.35   0 
  -4  -5  -3   42.68    9.34   0 
  -4   5  -4  220.44    6.32   0 
  -3   4  -4 2030.25   13.76   0 
  -3   7  -3  136.22    4.95   0 
  -2 -10   2  148.34    8.01   0 
  -2  -7  -1  324.87   11.12   0 
  -2   5  -3  474.47    7.40   0 
  -2  10   0    9.98    4.07   0 
  -1  -9   3   39.84    5.14   0 
  -1   9   1   67.13    4.53   0 
  -1  11   4   65.22    5.99   0 
   0  -7   4  311.81    6.55   0 
   0  -6   3  663.61    8.35   0 
   0   5   1   25.30    5.26   0 
   1  -4   8 2155.00   13.26   0 
   1  -4  11    9.51    4.27   0 
  -4  -2  -4   24.55    6.02   0 
  -4   4  -4  337.29    7.87   0 
  -3   3  -4  714.69    8.95   0 
  -2   7  -2   42.99    3.95   0 
  -1   3  -2  570.63    9.21   0 
   0  -9   8   74.27    5.65   0 
   1  -5  10  163.57    6.10   0 
   1  -2   5  490.40    7.92   0 
  -4   3  -4    4.20    5.25   0 
  -3  -1  -4  288.17    7.71   0 
  -3   2  -4    0.76    4.77   0 
  -3   8  -2  269.86    6.03   0 
  -2   4  -3  131.41    5.49   0 
  -1 -10   4   51.42    5.33   0 
   0  -8   5  219.21    5.71   0 
   0   9   6   74.38    7.48   0 
   1  -5   9  110.71    4.69   0 
   1  -5  11    1.10    4.41   0 
  -4  -1  -4  341.63    8.84   0 
  -4   0  -4   41.01    5.78   0 
  -4   1  -4   47.00    5.93   0 
  -4   2  -4   18.70    5.25   0 
  -3   0  -4  214.59    6.78   0 
  -3   1  -4  168.15    6.16   0 
  -3   9  -1  112.28    5.06   0 
  -2 -11   3   71.10    6.35   0 
  -2   8  -1  342.61    6.17   0 
  -1   2  -2  141.05    7.12   0 
  -1   7   0  202.06    6.04   0 
  -1  11   5   13.16    5.60   0 
   0  -4   1  274.15    8.53   0 
   0   6   2  873.67   12.47   0 
   1  -5   7  277.49    6.49   0 
   1  -4   6    1.44    3.80   0 
   1  -3   5    4.71    3.77   0 
   1   0   4 1042.94   13.66   0 
   1   1   4  443.82   11.15   0 
  -3   5  -3  166.61    5.65   0 
  -2   3  -3   72.61    5.02   0 
  -2   6  -2   60.91    4.38   0 
  -2   9   0    5.11    3.91   0 
  -2  10   1   70.48    4.58   0 
  -1 -11   5   43.70    5.58   0 
  -1  -1  -2 1757.89   24.66   0 
  -1   8   1 3714.42   18.45   0 
   0  -9   6  127.10    4.78   0 
   0   7   3  792.79   11.60   0 
   1  -6   9   36.36    4.37   0 
   1  -6  10   67.72    4.57   0 
   1  -1   4 1584.87   14.83   0 
  -4   5  -3   39.17    4.74   0 
  -3   7  -2   45.63    4.51   0 
  -2  -2  -3  314.38   10.33   0 
  -1  -8   1   90.05    5.85   0 
  -1  -5  -1  156.82    8.96   0 
  -1   1  -2  577.11   11.30   0 
  -1   5  -1  138.51    5.38   0 
   0 -10   8   40.20    4.69   0 
   0  -6   2  124.27    5.12   0 
   1  -6   8   -1.07    3.86   0 
   1  -5   6    3.81    3.78   0 
   1  -4   5  174.02    6.02   0 
  -3   8  -1   45.73    5.31   0 
  -2 -10   1  166.08    7.70   0 
  -2   2  -3  453.23    7.58   0 
  -1  10   4   31.27    5.41   0 
   0  -9   5   26.55    3.90   0 
   0   4   1   65.37    6.66   0 
   0   9   7   33.95    6.55   0 
   1  -7   9   63.39    5.35   0 
   1  -7  10   17.91    4.48   0 
   1  -6   7   35.59    4.23   0 
   1   2   4  216.48   11.02   0 
  -4   4  -3  237.66    6.37   0 
  -3  -4  -3 1152.80   19.27   0 
  -3   4  -3   21.94    4.06   0 
  -3   9   0   22.20    4.37   0 
  -2 -11   2   61.73    5.89   0 
  -2  -9   0    3.14    5.92   0 
  -2  -1  -3   57.12    6.42   0 
  -2   1  -3  530.50    8.87   0 
  -2   5  -2  128.74    4.99   0 
  -1 -11   4   41.15    5.69   0 
  -1  -7   0  517.17    9.71   0 
   0   8   5  162.42    7.66   0 
   1  -7   8   26.21    4.49   0 
   1  -3   4   14.63    4.25   0 
  -4   3  -3   40.19    5.42   0 
  -4   6  -2   -1.57    4.08   0 
  -3   3  -3  401.41    7.20   0 
  -3   6  -2  168.94    5.19   0 
  -2   0  -3 1178.53   13.34   0 
  -2   9   1 1551.39   12.17   0 
  -1   4  -1 1499.67   13.37   0 
  -1   6   0  142.40    5.14   0 
  -1   9   3   12.74    5.08   0 
   0  -8   3  322.71    6.60   0 
   0   9   8   99.30    8.93   0 
   1  -6   6  334.31    6.21   0 
  -3   7  -1    0.16    5.11   0 
  -1   7   1   -0.09    4.50   0 
  -1   8   2  302.35    7.18   0 
  -1  10   5  147.70    6.76   0 
   0  -9   4    1.49    3.52   0 
   0  -7   2  152.89    5.84   0 
   1  -8   9   42.57    4.53   0 
   1  -4   4  323.45    6.56   0 
  -4  -3  -3  151.36    7.79   0 
  -4   2  -3   -1.04    4.11   0 
  -4   5  -2   19.13    4.47   0 
  -3   2  -3  128.69    5.97   0 
  -3   5  -2   22.39    4.89   0 
  -3   8   0  230.77    6.60   0 
  -2   6  -1   11.99    3.95   0 
  -2  10   3    6.84    5.54   0 
  -1 -10   2  235.69    7.33   0 
   0 -10   5    3.34    4.07   0 
   0   7   4  202.43    7.94   0 
   1  -7   6   58.62    5.09   0 
   1  -6   5  204.47    5.40   0 
  -4  -2  -3   41.87    6.41   0 
  -4   1  -3  176.56    6.97   0 
  -3  -3  -3   45.66    6.88   0 
  -3   9   1  111.43    5.13   0 
  -2  -8  -1  231.30   10.94   0 
  -2   7   0  116.82    5.61   0 
  -1 -11   3  100.91    5.92   0 
   0 -11   6   53.09    5.86   0 
   0   5   2 4242.50   26.98   0 
   1  -5   4  207.24    5.60   0 
   1  -2   3  160.42    7.52   0 
  -4  -1  -3   31.36    5.70   0 
  -4   0  -3   88.24    5.44   0 
  -4   4  -2  959.35   10.63   0 
  -4   6  -1   10.91    4.26   0 
  -3   1  -3    6.38    3.98   0 
  -2   9   2    1.83    3.86   0 
  -1   3  -1 3533.82   20.87   0 
  -1   9   4  132.35    6.30   0 
  -1  10   6   91.07    6.62   0 
   0  -9   3 1706.22   12.89   0 
   0  -6   1  207.23    6.17   0 
   0   8   6   28.57    6.10   0 
   1  -9   8   63.24    5.91   0 
   1   0   3 3018.03   24.75   0 
  -3  -2  -3  103.61    6.84   0 
  -3  -1  -3  172.32    7.37   0 
  -3   0  -3    2.31    5.08   0 
  -3   4  -2    7.48    3.96   0 
  -3   6  -1   87.43    4.78   0 
  -2   3  -2    7.11    3.94   0 
  -2  10   4   36.09    5.53   0 
   0 -10   4  102.08    5.00   0 
   0  -8   2   23.65    5.00   0 
   0  -3   0 1252.71   17.62   0 
   1  -8   6  489.81    7.22   0 
   1  -7   5    5.36    4.05   0 
   1  -6   4   83.00    5.53   0 
  -4   3  -2  264.84    7.07   0 
  -3   7   0   12.39    4.14   0 
  -3   8   1  218.65    6.72   0 
  -3   9   2   12.33    4.29   0 
  -1  -6  -1   14.11    5.95   0 
  -1   8   3    3.71    5.13   0 
   0   3   1  686.81   15.39   0 
   1  -9   7   18.28    4.40   0 
   1  -4   3 4390.07   20.44   0 
  -4   5  -1   52.37    4.77   0 
  -3   3  -2 1018.48   10.31   0 
  -2   9   3   69.15    5.52   0 
  -1   6   1   97.36    4.86   0 
   2  -4  10  144.27    6.68   0 
   2  -3  10  178.04    6.70   0 
   2  -2   9   92.85    6.16   0 
   2  -2  10   15.65    4.76   0 
   2  -2  11  102.86    5.76   0 
   2  -1  10    7.44    5.80   0 
   2  -1  11   14.59    5.64   0 
  -4   2  -2    9.14    5.03   0 
  -4   6   0   44.25    5.68   0 
  -3   5  -1  319.41    6.19   0 
  -2   2  -2  143.05    5.47   0 
  -2   6   0   29.60    4.26   0 
  -2   8   2   -0.71    4.71   0 
  -2  10   5   62.30    6.07   0 
  -1 -10   1  224.84    7.24   0 
  -1   9   5  161.93    6.86   0 
   0 -11   4  221.55    6.93   0 
   0 -10   3  151.84    6.52   0 
   0  -4   0  995.07   13.76   0 
   0   8   7    1.66    7.00   0 
   1 -10   7   36.17    5.98   0 
   1  -5   3   17.04    4.02   0 
   1   1   3 1299.09   19.89   0 
   2  -5  10   53.79    5.97   0 
   2  -4   9   13.11    5.12   0 
   2  -3   9  137.76    5.54   0 
   2  -1   9   75.30    5.55   0 
   2   0  10  264.26    7.90   0 
   2   0  11   85.32    6.48   0 
  -4   4  -1   25.72    5.19   0 
  -3   9   3  781.44   10.90   0 
  -2   4  -1 2923.46   16.81   0 
  -2   7   1  428.85    7.20   0 
   0  -9   2   12.67    4.30   0 
   0   7   5  227.21    8.39   0 
   2  -5   9   15.39    4.40   0 
   2  -4   8  261.96    7.13   0 
   2  -3   8    5.17    4.29   0 
  -4   1  -2   66.94    5.71   0 
  -3   2  -2   90.88    4.72   0 
  -3   6   0   30.74    4.17   0 
  -3   8   2   14.25    5.63   0 
  -2   1  -2 1199.57   12.84   0 
  -1   4   0   -1.42    4.46   0 
   0  -5   0 2024.71   17.99   0 
   1  -6   3   18.88    4.21   0 
   2  -6   9   32.52    5.42   0 
   2   1  11   27.76    5.99   0 
  -4   0  -2  148.50    6.48   0 
  -3   4  -1   49.47    4.51   0 
  -2   9   4   12.58    4.30   0 
  -1  -9   0   80.38    5.75   0 
  -1   8   4   38.52    5.42   0 
  -1   9   6   28.53    5.74   0 
   0  -8   1 4757.24   22.67   0 
   2  -3   7   76.09    4.84   0 
   2  -2   7    2.86    5.04   0 
  -4  -1  -2  156.65    7.04   0 
  -4   3  -1  124.62    5.00   0 
  -4   6   1   18.66    5.56   0 
  -3   1  -2  135.81    6.18   0 
  -2   8   3 1598.39   12.98   0 
  -1 -12   2   61.08    6.37   0 
   0 -12   4   25.37    5.72   0 
   0 -11   3   72.88    5.03   0 
   0   8   8   97.48    8.40   0 
   1  -7   3  242.76    5.87   0 
   1  -4   2    8.32    5.34   0 
   1  -3   2  583.70    9.13   0 
   2  -7   9  433.81    7.70   0 
   2  -5   7  134.12    5.10   0 
   2  -1   7  647.68    9.79   0 
  -4  -4  -2  200.10    8.99   0 
  -4  -3  -2   74.68    7.22   0 
  -4  -2  -2   10.56    5.62   0 
  -2  -9  -1  194.63   11.11   0 
  -2   0  -2  731.47   11.19   0 
  -2   3  -1  384.93    7.92   0 
  -2   6   1  317.45    7.13   0 
  -2   7   2  121.50    6.04   0 
  -1   5   1  289.92    6.97   0 
  -1   6   2   41.51    5.26   0 
   0  -6   0   10.49    5.22   0 
   0   4   2 2436.72   23.17   0 
   0   6   4  105.61    6.54   0 
   1 -10   5    6.54    4.33   0 
   1  -5   2  138.67    6.26   0 
   2  -7   8   10.22    4.27   0 
   2  -6   7   18.09    4.17   0 
   2  -4   6 2536.60   15.17   0 
   2  -3   6 1070.94   10.79   0 
  -4   2  -1   27.73    5.42   0 
  -4   4   0    8.61    5.39   0 
  -3   0  -2    7.97    5.47   0 
  -3   3  -1   94.99    6.01   0 
  -3   6   1   10.03    5.15   0 
  -3   7   2   30.55    5.38   0 
  -3   8   3  118.06    5.39   0 
  -2   9   5   10.26    4.49   0 
  -1   1  -1  282.40   10.28   0 
  -1   9   7   32.94    6.02   0 
   0   5   3  250.76    9.25   0 
   1  -1   2  566.31   11.17   0 
   2  -8   8   11.92    5.46   0 
   2  -5   6   84.08    4.78   0 
   2  -2   6   30.17    4.65   0 
   2   0   7  228.11    7.22   0 
   2   2  10   15.84    6.51   0 
  -2 -11   0    2.93    7.09   0 
   0  -9   1   68.41    5.13   0 
   0   7   6  439.13   10.83   0 
   0   8   9   14.18    8.38   0 
   1 -11   5   10.77    5.47   0 
   1  -6   2   24.54    4.18   0 
   2  -6   6    0.00    4.16   0 
  -4   1  -1   24.99    5.38   0 
  -4   5   1  185.36    6.01   0 
  -4   6   2    9.30    4.65   0 
  -3  -1  -2  335.11    8.43   0 
  -2  -1  -2  290.49    8.65   0 
  -2   8   4  175.45    6.75   0 
  -1 -10   0  168.15    7.17   0 
  -1   9   8   31.87    6.88   0 
   0 -12   3   14.15    4.81   0 
   0 -11   2  126.42    6.41   0 
   1  -9   3   80.91    5.63   0 
   2  -8   7   85.23    5.04   0 
   2  -7   6   41.08    5.50   0 
  -3   2  -1  368.16    7.49   0 
  -3   8   4    2.07    4.21   0 
  -2   2  -1   40.42    5.79   0 
  -2   4   0   42.42    4.57   0 
  -2   9   6   66.34    5.26   0 
  -1  -8  -1   67.12    6.68   0 
   1  -7   2  243.71    6.08   0 
   2  -9   7   85.51    6.52   0 
   2  -5   5  286.16    6.43   0 
   2  -4   5    2.40    4.08   0 
   2  -3   5  737.60    9.04   0 
   2   0   6  226.29    8.13   0 
   2   1   7  116.61    7.13   0 
  -4   0  -1    3.46    5.34   0 
  -3  -5  -2  246.44   11.92   0 
  -3  -2  -2  421.02    9.49   0 
  -3   5   1   21.60    5.28   0 
  -3   7   3  107.43    5.32   0 
  -2   5   1   70.23    5.86   0 
  -2   7   3    4.72    4.19   0 
  -1 -12   1  157.10    7.38   0 
  -1   7   4  209.13    7.06   0 
   0 -10   1   13.63    5.61   0 
   2  -8   6   22.25    4.35   0 
   2  -6   5   33.54    4.55   0 
   2  -2   5  299.66    7.08   0 
   2   2   8   23.10    7.06   0 
  -4   4   1   11.50    4.51   0 
  -4   6   3    6.31    5.76   0 
  -3  -4  -2   18.22    7.42   0 
  -3   6   2   15.04    4.33   0 
  -2  -2  -2  175.48    8.62   0 
  -2   6   2  173.80    5.45   0 
  -1   4   1  194.77    7.72   0 
  -1   8   6  228.25    7.51   0 
   1  -8   2   67.78    4.72   0 
   2  -9   6  115.50    6.56   0 
   2  -1   5    7.86    5.73   0 
  -4  -1  -1   80.11    6.35   0 
  -3   8   5  460.82    8.48   0 
  -2   8   5    7.61    4.46   0 
  -1   6   3   27.04    4.81   0 
   0 -12   2    5.58    5.73   0 
   0   7   7   10.47    7.03   0 
   1  -4   1 1479.27   14.16   0 
   2  -4   4    6.37    5.03   0 
   2   3  10   19.78    9.68   0 
  -3   3   0    7.95    4.38   0 
  -3   7   4   50.53    5.88   0 
  -2  -3  -2  651.22   15.20   0 
  -1 -11   0  105.17    6.97   0 
  -1   0  -1   11.00    8.14   0 
   0   2   1 1300.69   25.39   0 
   1  -9   2    3.40    4.08   0 
   1  -6   1  656.66    9.48   0 
   1  -5   1  130.20    5.81   0 
   2  -6   4  300.94    6.47   0 
   2  -5   4   10.87    4.33   0 
   2  -3   4 2074.17   14.47   0 
  -4  -2  -1   55.41    6.19   0 
  -4   3   1   38.41    4.73   0 
  -2   1  -1  536.01    9.34   0 
  -2   7   4  153.67    5.68   0 
  -2   8   6   25.92    5.73   0 
  -1   8   7   44.59    6.12   0 
   1 -11   3  155.27    6.02   0 
   2  -9   5   34.13    4.85   0 
   2  -7   4   80.97    5.04   0 
   2  -2   4   86.80    5.88   0 
   2   1   6  322.80    9.54   0 
  -4  -6  -1   49.06    8.30   0 
  -4  -3  -1   22.01    6.19   0 
  -3   5   2   11.36    4.31   0 
  -3   6   3   79.43    4.93   0 
  -2   6   3   32.02    5.67   0 
   1 -10   2   42.23    4.81   0 
   1  -7   1  793.49    9.39   0 
   1  -2   1 1213.70   15.56   0 
   2  -8   4  426.62    7.40   0 
   2   0   5   18.26    5.44   0 
  -4  -4  -1  600.07   11.92   0 
  -3   0  -1  516.51    9.00   0 
  -3   2   0   67.04    5.80   0 
  -3   7   5    6.23    5.64   0 
  -1   8   8   20.72    6.16   0 
   1  -8   1  306.04    6.72   0 
  -4   0   0    4.50    4.64   0 
  -4   2   1  116.71    5.50   0 
  -2   8   7   26.01    5.20   0 
   2  -9   4  124.99    5.74   0 
;
_shelx_hkl_checksum              77265
loop_
_space_group_symop_operation_xyz
'x, y, z'
'-x, -y, -z'
loop_
_atom_site_label
_atom_site_type_symbol
_atom_site_fract_x
_atom_site_fract_y
_atom_site_fract_z
_atom_site_U_iso_or_equiv
_atom_site_adp_type
_atom_site_occupancy
_atom_site_site_symmetry_order
_atom_site_calc_flag
_atom_site_refinement_flags_posn
_atom_site_refinement_flags_adp
S1 S 0.79920(12) 0.87122(4) 0.39895(5) 0.03312(19) Uani 1 1 d . .
H1 H 0.606(7) 0.946(3) 0.336(3) 0.060(8) Uiso 1 1 d . .
C1 C 0.6560(4) 0.71779(16) 0.33411(17) 0.0248(4) Uani 1 1 d . .
C2 C 0.7627(5) 0.60573(17) 0.39838(17) 0.0259(4) Uani 1 1 d . .
H2 H 0.9009 0.6163 0.4765 0.031 Uiso 1 1 calc R U
N3 N 0.6788(4) 0.48430(14) 0.35471(14) 0.0252(3) Uani 1 1 d . .
C4 C 0.4811(4) 0.47429(16) 0.24509(16) 0.0228(4) Uani 1 1 d . .
N5 N 0.3634(4) 0.57479(14) 0.17543(14) 0.0254(3) Uani 1 1 d . .
C6 C 0.4529(5) 0.69527(17) 0.22032(17) 0.0262(4) Uani 1 1 d . .
H6 H 0.3753 0.7686 0.1729 0.031 Uiso 1 1 calc R U
C11 C 0.3858(4) 0.33885(16) 0.19873(16) 0.0240(4) Uani 1 1 d . .
C12 C 0.4809(5) 0.23073(17) 0.27031(18) 0.0290(4) Uani 1 1 d . .
H12 H 0.6072 0.2451 0.3506 0.035 Uiso 1 1 calc R U
N13 N 0.4020(5) 0.10762(14) 0.23080(16) 0.0334(4) Uani 1 1 d . .
C14 C 0.2246(5) 0.09410(18) 0.11801(19) 0.0322(4) Uani 1 1 d . .
H14 H 0.1682 0.0066 0.0892 0.039 Uiso 1 1 calc R U
N15 N 0.1170(4) 0.18817(15) 0.04090(16) 0.0328(4) Uani 1 1 d . .
C16 C 0.1991(5) 0.31138(17) 0.08235(18) 0.0276(4) Uani 1 1 d . .
H16 H 0.1274 0.3823 0.0305 0.033 Uiso 1 1 calc R U
loop_
_atom_site_aniso_label
_atom_site_aniso_U_11
_atom_site_aniso_U_22
_atom_site_aniso_U_33
_atom_site_aniso_U_23
_atom_site_aniso_U_13
_atom_site_aniso_U_12
S1 0.0359(3) 0.0201(2) 0.0419(3) 0.00007(18) -0.0117(2) -0.00184(17)
C1 0.0232(8) 0.0223(8) 0.0289(9) 0.0017(7) 0.0009(7) -0.0005(6)
C2 0.0261(9) 0.0242(8) 0.0267(9) 0.0010(7) -0.0045(7) -0.0003(6)
N3 0.0278(7) 0.0218(7) 0.0257(8) 0.0031(6) -0.0033(6) 0.0005(6)
C4 0.0219(8) 0.0239(8) 0.0226(8) 0.0020(6) 0.0009(6) 0.0008(6)
N5 0.0282(8) 0.0234(7) 0.0244(7) 0.0034(6) -0.0020(6) 0.0012(6)
C6 0.0278(9) 0.0236(8) 0.0274(9) 0.0049(7) -0.0009(7) 0.0028(6)
C11 0.0241(8) 0.0231(8) 0.0248(8) 0.0022(7) 0.0011(7) 0.0004(6)
C12 0.0329(9) 0.0250(8) 0.0283(9) 0.0027(7) -0.0065(7) -0.0019(7)
N13 0.0412(9) 0.0222(7) 0.0358(9) 0.0037(6) -0.0084(7) -0.0015(6)
C14 0.0368(10) 0.0256(9) 0.0331(10) -0.0034(7) -0.0065(8) -0.0034(7)
N15 0.0392(9) 0.0273(8) 0.0309(8) -0.0013(6) -0.0062(7) -0.0015(7)
C16 0.0304(9) 0.0253(8) 0.0268(9) 0.0018(7) -0.0024(7) 0.0010(7)
loop_
_atom_type_symbol
_atom_type_description
_atom_type_scat_dispersion_real
_atom_type_scat_dispersion_imag
_atom_type_scat_source
C C 0.0033 0.0016 'International Tables Vol C Tables 4.2.6.8 and 6.1.1.4'
H H 0.0000 0.0000 'International Tables Vol C Tables 4.2.6.8 and 6.1.1.4'
N N 0.0061 0.0033 'International Tables Vol C Tables 4.2.6.8 and 6.1.1.4'
S S 0.1246 0.1234 'International Tables Vol C Tables 4.2.6.8 and 6.1.1.4'
loop_
_geom_angle_atom_site_label_1
_geom_angle_atom_site_label_2
_geom_angle_atom_site_label_3
_geom_angle
C1 S1 H1 100.6(13)
C6 C1 C2 115.68(15)
C6 C1 S1 126.27(13)
C2 C1 S1 118.00(13)
N3 C2 C1 122.75(16)
N3 C2 H2 118.6
C1 C2 H2 118.6
C2 N3 C4 116.49(15)
N3 C4 N5 125.91(16)
N3 C4 C11 115.88(15)
N5 C4 C11 118.21(15)
C6 N5 C4 116.58(15)
N5 C6 C1 122.59(16)
N5 C6 H6 118.7
C1 C6 H6 118.7
C12 C11 C16 115.95(16)
C12 C11 C4 121.14(16)
C16 C11 C4 122.91(15)
N13 C12 C11 122.61(17)
N13 C12 H12 118.7
C11 C12 H12 118.7
C14 N13 C12 115.78(16)
N15 C14 N13 127.69(17)
N15 C14 H14 116.2
N13 C14 H14 116.2
C14 N15 C16 115.62(16)
N15 C16 C11 122.33(16)
N15 C16 H16 118.8
C11 C16 H16 118.8
loop_
_geom_bond_atom_site_label_1
_geom_bond_atom_site_label_2
_geom_bond_distance
S1 C1 1.7539(17)
S1 H1 1.25(3)
C1 C6 1.395(3)
C1 C2 1.395(2)
C2 N3 1.334(2)
C2 H2 0.9500
N3 C4 1.338(2)
C4 N5 1.341(2)
C4 C11 1.482(2)
N5 C6 1.334(2)
C6 H6 0.9500
C11 C12 1.390(2)
C11 C16 1.394(2)
C12 N13 1.334(2)
C12 H12 0.9500
N13 C14 1.328(3)
C14 N15 1.325(2)
C14 H14 0.9500
N15 C16 1.343(2)
C16 H16 0.9500
loop_
_geom_hbond_atom_site_label_D
_geom_hbond_atom_site_label_H
_geom_hbond_atom_site_label_A
_geom_hbond_distance_DH
_geom_hbond_distance_HA
_geom_hbond_distance_DA
_geom_hbond_angle_DHA
_geom_hbond_site_symmetry_A
S1 H1 N13 1.25(3) 2.14(3) 3.3528(17) 164(2) 1_565
C2 H2 N3 0.95 2.57 3.414(2) 148.6 2_766
C14 H14 N15 0.95 2.57 3.481(2) 160.9 2
loop_
_geom_torsion_atom_site_label_1
_geom_torsion_atom_site_label_2
_geom_torsion_atom_site_label_3
_geom_torsion_atom_site_label_4
_geom_torsion
C6 C1 C2 N3 0.2(3)
S1 C1 C2 N3 -177.56(13)
C1 C2 N3 C4 -0.6(3)
C2 N3 C4 N5 0.6(3)
C2 N3 C4 C11 -179.17(14)
N3 C4 N5 C6 0.0(3)
C11 C4 N5 C6 179.71(14)
C4 N5 C6 C1 -0.5(3)
C2 C1 C6 N5 0.4(3)
S1 C1 C6 N5 177.93(13)
N3 C4 C11 C12 3.7(3)
N5 C4 C11 C12 -176.02(16)
N3 C4 C11 C16 -176.04(16)
N5 C4 C11 C16 4.2(3)
C16 C11 C12 N13 0.4(3)
C4 C11 C12 N13 -179.40(16)
C11 C12 N13 C14 -0.1(3)
C12 N13 C14 N15 -0.2(3)
N13 C14 N15 C16 0.2(3)
C14 N15 C16 C11 0.1(3)
C12 C11 C16 N15 -0.4(3)
C4 C11 C16 N15 179.41(16)
