#------------------------------------------------------------------------------
#$Date: 2019-12-17 12:25:46 +0200 (Tue, 17 Dec 2019) $
#$Revision: 245261 $
#$URL: file:///home/coder/svn-repositories/cod/cif/1/55/66/1556627.cif $
#------------------------------------------------------------------------------
#
# This file is available in the Crystallography Open Database (COD),
# http://www.crystallography.net/
#
# All data on this site have been placed in the public domain by the
# contributors.
#
data_1556627
loop_
_publ_author_name
'Hazra, S.'
'Rocha, B.G.M.'
'Guedes da Silva, M.F.C.'
'Karmakar, A.'
'Pombeiro, A.J.L.'
_publ_section_title
;
 Syntheses, Structures, and Catalytic Hydrocarbon Oxidation Properties of
 N-Heterocycle-Sulfonated Schiff Base Copper(II) Complexes
;
_journal_name_full               Inorganics
_journal_page_first              17
_journal_paper_doi               10.3390/inorganics7020017
_journal_volume                  7
_journal_year                    2019
_chemical_formula_moiety         'C32 H30 Cu2 N4 O10 S2'
_chemical_formula_sum            'C32 H30 Cu2 N4 O10 S2'
_chemical_formula_weight         821.80
_space_group_crystal_system      triclinic
_space_group_IT_number           2
_space_group_name_Hall           '-P 1'
_space_group_name_H-M_alt        'P -1'
_atom_sites_solution_hydrogens   mixed
_cell_angle_alpha                75.615(2)
_cell_angle_beta                 71.959(3)
_cell_angle_gamma                85.198(2)
_cell_formula_units_Z            1
_cell_length_a                   7.4426(4)
_cell_length_b                   10.2904(6)
_cell_length_c                   11.4557(7)
_cell_measurement_reflns_used    9986
_cell_measurement_temperature    296(2)
_cell_measurement_theta_max      26.40
_cell_measurement_theta_min      2.46
_cell_volume                     808.05(8)
_computing_cell_refinement       'Bruker SAINT'
_computing_data_collection       'Bruker APEX2'
_computing_data_reduction        'Bruker SAINT'
_computing_molecular_graphics    'Ortep-3 for Windows (Farrugia, 1997)'
_computing_publication_material  'WinGX publication routines (Farrugia, 1999)'
_computing_structure_refinement  'SHELXL-2013 (Sheldrick, 2013)'
_computing_structure_solution    'SIR97 (Giacovazzo et al, 1997)'
_diffrn_ambient_temperature      296(2)
_diffrn_measured_fraction_theta_full 0.998
_diffrn_measured_fraction_theta_max 0.998
_diffrn_measurement_device_type  'Bruker APEX-II PHOTON 100 detector'
_diffrn_measurement_method       '\f and \w scans'
_diffrn_radiation_type           MoK\a
_diffrn_radiation_wavelength     0.71069
_diffrn_reflns_av_R_equivalents  0.0183
_diffrn_reflns_av_unetI/netI     0.0143
_diffrn_reflns_Laue_measured_fraction_full 0.998
_diffrn_reflns_Laue_measured_fraction_max 0.998
_diffrn_reflns_limit_h_max       9
_diffrn_reflns_limit_h_min       -9
_diffrn_reflns_limit_k_max       12
_diffrn_reflns_limit_k_min       -12
_diffrn_reflns_limit_l_max       14
_diffrn_reflns_limit_l_min       -14
_diffrn_reflns_number            15098
_diffrn_reflns_point_group_measured_fraction_full 0.998
_diffrn_reflns_point_group_measured_fraction_max 0.998
_diffrn_reflns_theta_full        25.240
_diffrn_reflns_theta_max         26.410
_diffrn_reflns_theta_min         2.455
_exptl_absorpt_coefficient_mu    1.512
_exptl_absorpt_correction_T_max  0.9
_exptl_absorpt_correction_T_min  0.8
_exptl_absorpt_correction_type   multi-scan
_exptl_absorpt_process_details   sadabs
_exptl_crystal_colour            green
_exptl_crystal_density_diffrn    1.689
_exptl_crystal_description       prism
_exptl_crystal_F_000             420
_exptl_crystal_size_max          0.391
_exptl_crystal_size_mid          0.199
_exptl_crystal_size_min          0.163
_refine_diff_density_max         0.822
_refine_diff_density_min         -0.244
_refine_diff_density_rms         0.105
_refine_ls_extinction_coef       .
_refine_ls_extinction_method     none
_refine_ls_goodness_of_fit_ref   1.098
_refine_ls_hydrogen_treatment    mixed
_refine_ls_matrix_type           full
_refine_ls_number_parameters     229
_refine_ls_number_reflns         3327
_refine_ls_number_restraints     1
_refine_ls_restrained_S_all      1.102
_refine_ls_R_factor_all          0.0371
_refine_ls_R_factor_gt           0.0349
_refine_ls_shift/su_max          0.000
_refine_ls_shift/su_mean         0.000
_refine_ls_structure_factor_coef Fsqd
_refine_ls_weighting_details
'w=1/[\s^2^(Fo^2^)+(0.0583P)^2^+0.5041P] where P=(Fo^2^+2Fc^2^)/3'
_refine_ls_weighting_scheme      calc
_refine_ls_wR_factor_gt          0.0932
_refine_ls_wR_factor_ref         0.0952
_reflns_Friedel_coverage         0.000
_reflns_Friedel_fraction_full    .
_reflns_Friedel_fraction_max     .
_reflns_number_gt                3120
_reflns_number_total             3327
_reflns_threshold_expression     'I > 2\s(I)'
_cod_data_source_file            Inorganics-2019-7-17.cif
_cod_data_source_block           Compound4
_cod_database_code               1556627
_shelx_space_group_comment
;
The symmetry employed for this shelxl refinement is uniquely defined
by the following loop, which should always be used as a source of
symmetry information in preference to the above space-group names.
They are only intended as comments.
;
_shelxl_version_number           2013-4
_shelx_res_file
;
TITL sh362 in P -1
CELL  0.71069   7.4426   10.2904   11.4557   75.615   71.959   85.198
ZERR     1.00   0.0004    0.0006    0.0007    0.002    0.003    0.002
LATT   1
SFAC  C    H    N    O    S    CU
UNIT  32   30   4    10   2    2
MERG   2
OMIT     0.00 180.00
DFIX     0.900   0.020 O10 H10
FMAP   2
PLAN   25
temp 23.00
eqiv $1 x+1, y, z
htab O10    O12_$1
htab O10   S2_$1
bond $H
ACTA
LIST   4
L.S.   12
WGHT    0.058300    0.504100
FVAR       0.21021
C1    1    0.147792    0.241434    0.064445    11.00000    0.02821    0.03089 =
         0.03057   -0.00899   -0.01581    0.00494
C2    1    0.165608    0.215063   -0.052523    11.00000    0.03981    0.04228 =
         0.03984   -0.01764   -0.02023    0.00479
AFIX  43
H2    2    0.121373    0.134920   -0.056609    11.00000   -1.20000
AFIX   0
C3    1    0.249300    0.308721   -0.162035    11.00000    0.04628    0.06620 =
         0.03072   -0.01689   -0.01579    0.00313
AFIX  43
H3    2    0.263067    0.290892   -0.240070    11.00000   -1.20000
AFIX   0
C4    1    0.312474    0.428296   -0.156425    11.00000    0.04292    0.05693 =
         0.03065   -0.00309   -0.01291   -0.00717
AFIX  43
H4    2    0.366151    0.491648   -0.230613    11.00000   -1.20000
AFIX   0
C5    1    0.296473    0.454722   -0.040778    11.00000    0.03872    0.03720 =
         0.03632   -0.00270   -0.01731   -0.00340
AFIX  43
H5    2    0.340928    0.535316   -0.037870    11.00000   -1.20000
AFIX   0
C6    1    0.214016    0.361167    0.071580    11.00000    0.02964    0.02979 =
         0.02976   -0.00554   -0.01634    0.00486
C7    1    0.170436    0.507434    0.204133    11.00000    0.03300    0.02526 =
         0.03292   -0.00284   -0.01697    0.00301
AFIX  43
H7    2    0.130835    0.567303    0.141320    11.00000   -1.20000
AFIX   0
C10   1    0.612884    0.145276    0.058799    11.00000    0.04781    0.07478 =
         0.05848   -0.02885   -0.02087    0.01754
AFIX  33
H10A  2    0.742374    0.157708    0.007738    11.00000   -1.50000
H10B  2    0.531679    0.175098    0.006418    11.00000   -1.50000
H10C  2    0.591070    0.051929    0.099112    11.00000   -1.50000
AFIX   0
C11   1    0.182933    0.558600    0.305868    11.00000    0.03070    0.02385 =
         0.03499   -0.00611   -0.01189    0.00029
C12   1    0.117831    0.691654    0.309599    11.00000    0.04195    0.02656 =
         0.04818   -0.00763   -0.01890    0.00402
AFIX  43
H12   2    0.071534    0.742023    0.245463    11.00000   -1.20000
AFIX   0
C13   1    0.121714    0.747001    0.404883    11.00000    0.04949    0.02793 =
         0.05512   -0.01699   -0.01338    0.00245
AFIX  43
H13   2    0.076424    0.833718    0.406709    11.00000   -1.20000
AFIX   0
C14   1    0.194284    0.672437    0.499838    11.00000    0.05297    0.03992 =
         0.04008   -0.01927   -0.00933   -0.00668
AFIX  43
H14   2    0.195366    0.709473    0.565862    11.00000   -1.20000
AFIX   0
C15   1    0.264353    0.544752    0.497204    11.00000    0.04854    0.03523 =
         0.03190   -0.00819   -0.01529   -0.00406
AFIX  43
H15   2    0.314893    0.497684    0.560446    11.00000   -1.20000
AFIX   0
C16   1    0.260850    0.484082    0.400331    11.00000    0.03197    0.02585 =
         0.03020   -0.00674   -0.00933   -0.00222
C21   1    0.445499    0.116835    0.529432    11.00000    0.05685    0.02594 =
         0.03840   -0.00971   -0.02853    0.00846
AFIX  43
H21   2    0.409034    0.197603    0.552913    11.00000   -1.20000
AFIX   0
C22   1    0.541165    0.022762    0.597908    11.00000    0.05600    0.02782 =
         0.03668   -0.00748   -0.03149    0.00421
AFIX  43
H22   2    0.568033    0.042195    0.665787    11.00000   -1.20000
AFIX   0
N1    3    0.208625    0.385656    0.189831    11.00000    0.02949    0.02435 =
         0.02877   -0.00465   -0.01605    0.00183
N12   3    0.404116    0.095100    0.430888    11.00000    0.03494    0.02342 =
         0.02946   -0.00218   -0.01953    0.00136
O1    4    0.334665    0.364022    0.400546    11.00000    0.05318    0.02594 =
         0.04079   -0.00936   -0.03023    0.00799
O10   4    0.573761    0.220796    0.152104    11.00000    0.03461    0.04930 =
         0.04804   -0.01354   -0.01784    0.00889
O11   4    0.167217    0.099334    0.280900    11.00000    0.05061    0.02638 =
         0.04881   -0.00062   -0.03499   -0.00468
O12   4   -0.139971    0.180798    0.263533    11.00000    0.03558    0.05303 =
         0.04024   -0.01466   -0.01366   -0.00090
O13   4    0.014421    0.000530    0.166568    11.00000    0.06591    0.03281 =
         0.05308   -0.01223   -0.03306   -0.00490
S2    5    0.035743    0.120260    0.203335    11.00000    0.03490    0.02681 =
         0.03513   -0.00714   -0.02034   -0.00181
CU1   6    0.290603    0.242878    0.314163    11.00000    0.03587    0.02176 =
         0.03122   -0.00439   -0.02048    0.00232
H10   2    0.664113    0.213214    0.178689    11.00000   -1.50000
HKLF    4

REM  sh362 in P -1
REM R1 =  0.0349 for    3120 Fo > 4sig(Fo)  and  0.0371 for all    3327 data
REM    229 parameters refined using      1 restraints

END

WGHT      0.0554      0.4587

REM Highest difference peak  0.822,  deepest hole -0.244,  1-sigma level  0.105
Q1    1   0.4313  0.0565  0.4167  11.00000  0.05    0.59
Q2    1  -0.0538  0.1590  0.2267  11.00000  0.05    0.56
Q3    1   0.2092  0.3787  0.1466  11.00000  0.05    0.50
Q4    1   0.0912  0.1846  0.1377  11.00000  0.05    0.49
Q5    1   0.5469  0.3645  0.4222  11.00000  0.05    0.48
Q6    1   0.1715  0.6134  0.3010  11.00000  0.05    0.46
Q7    1   0.0012  0.0007  0.1382  11.00000  0.05    0.41
Q8    1   0.2296  0.1147  0.2372  11.00000  0.05    0.41
Q9    1   0.1720  0.5221  0.2635  11.00000  0.05    0.40
Q10   1   0.3750  0.3873  0.1730  11.00000  0.05    0.39
Q11   1   0.2336  0.6053  0.4991  11.00000  0.05    0.38
Q12   1   0.2077  0.1437  0.2986  11.00000  0.05    0.36
Q13   1   0.3005  0.4470 -0.0966  11.00000  0.05    0.34
Q14   1   0.3106  0.3405  0.3326  11.00000  0.05    0.33
Q15   1   0.2074  0.5293  0.3494  11.00000  0.05    0.33
Q16   1   0.2582  0.3958  0.0144  11.00000  0.05    0.32
Q17   1   0.2632  0.5189  0.4416  11.00000  0.05    0.31
Q18   1   0.1379  0.7788  0.3952  11.00000  0.05    0.30
Q19   1   0.3041  0.3568 -0.1419  11.00000  0.05    0.30
Q20   1   0.5002  0.0718  0.5545  11.00000  0.05    0.30
Q21   1   0.2342  0.2576 -0.1073  11.00000  0.05    0.29
Q22   1   0.0907  0.7007  0.3780  11.00000  0.05    0.28
Q23   1   0.1376  0.7259  0.3583  11.00000  0.05    0.27
Q24   1   0.5036  0.0945  0.0745  11.00000  0.05    0.26
Q25   1   0.0856  0.1402 -0.0356  11.00000  0.05    0.22
;
_shelx_res_checksum              9344
_shelx_hkl_file
;
   2   0   0  280.15    5.99
   2   0   0  284.05    5.82
   2   0   0  280.45    5.62
   3   0   0    1.63    0.09
   3   0   0    1.78    0.09
   3   0   0    1.83    0.09
   4   0   0    7.74    0.22
   4   0   0    7.76    0.23
   4   0   0    7.76    0.23
   5   0   0    1.42    0.12
   5   0   0    1.29    0.11
   5   0   0    1.35    0.12
   6   0   0    1.67    0.15
   6   0   0    2.00    0.15
   6   0   0    1.73    0.17
   7   0   0   26.89    0.68
   7   0   0   27.12    0.65
   7   0   0   26.68    0.68
   8   0   0    3.01    0.26
   8   0   0    2.62    0.24
   8   0   0    2.50    0.25
   8  -1   0    7.93    0.33
   8  -1   0    8.27    0.32
   8  -1   0    8.31    0.36
   7  -1   0   15.43    0.42
   7  -1   0   15.80    0.47
   7  -1   0   15.88    0.44
   6  -1   0    3.00    0.16
   6  -1   0    2.87    0.17
   6  -1   0    3.05    0.19
   5  -1   0   28.08    0.63
   5  -1   0   28.87    0.66
   5  -1   0   28.86    0.69
   4  -1   0   42.39    0.97
   4  -1   0   42.30    0.89
   4  -1   0   42.36    0.92
   3  -1   0   93.46    1.90
   3  -1   0   91.66    1.84
   3  -1   0   89.80    1.98
   2  -1   0  239.19    4.83
   2  -1   0  240.79    5.15
   2  -1   0  236.42    4.79
  -2   1   0  244.48    4.80
  -2   1   0  243.39    4.84
   1  -1   0  333.63    6.69
   1  -1   0  318.25    6.62
   1  -1   0  332.31    6.70
  -1   1   0  338.40    6.61
  -1   1   0  338.40    6.70
  -1  -1   0  226.76    4.46
  -1  -1   0  212.21    4.56
   1   1   0  226.57    4.46
   1   1   0  225.18    4.46
   1   1   0  213.75    4.55
  -2  -1   0  811.31   16.08
   2   1   0  808.76   16.09
   2   1   0  790.36   16.50
   3   1   0  168.62    3.51
   3   1   0  162.77    3.41
   4   1   0   79.46    1.71
   4   1   0   78.66    1.68
   5   1   0    0.67    0.09
   5   1   0    0.56    0.07
   5   1   0    0.64    0.08
   6   1   0    2.57    0.15
   6   1   0    2.75    0.19
   6   1   0    2.48    0.17
   7   1   0    2.78    0.23
   7   1   0    2.35    0.19
   7   1   0    2.73    0.21
   8   1   0    4.23    0.30
   8   1   0    4.76    0.26
   8   1   0    3.93    0.28
   8  -2   0    6.28    0.35
   8  -2   0    5.97    0.29
   8  -2   0    6.41    0.28
   7  -2   0    2.10    0.18
   7  -2   0    2.19    0.22
   7  -2   0    2.55    0.18
   6  -2   0    3.12    0.20
   6  -2   0    3.16    0.17
   6  -2   0    3.15    0.16
   5  -2   0   50.96    1.07
   5  -2   0   51.93    1.10
   5  -2   0   51.17    1.18
   4  -2   0    2.86    0.08
   4  -2   0    2.78    0.11
   4  -2   0    2.81    0.15
   4  -2   0    2.85    0.11
   3  -2   0   22.24    0.47
   3  -2   0   22.28    0.47
   3  -2   0   21.88    0.47
   3  -2   0   21.60    0.54
  -3   2   0   22.58    0.47
  -3   2   0   22.54    0.47
   2  -2   0  243.50    4.83
   2  -2   0  247.57    4.89
   2  -2   0  231.99    5.15
   2  -2   0  246.17    4.89
  -2   2   0  248.40    4.83
  -2   2   0  236.88    4.88
   1  -2   0    5.86    0.13
   1  -2   0    5.85    0.15
   1  -2   0    5.68    0.16
   1  -2   0    5.68    0.15
  -1   2   0    5.48    0.15
  -1   2   0    5.58    0.13
  -1   2   0    5.60    0.15
   0  -2   0  106.17    2.04
   0  -2   0   96.71    2.07
   0  -2   0  102.94    2.04
   0  -2   0   97.89    2.14
   0   2   0   96.21    2.14
   0   2   0  106.24    2.04
   0   2   0  105.53    2.04
   0   2   0   96.55    2.07
  -1  -2   0    3.93    0.11
  -1  -2   0    3.77    0.11
   1   2   0    3.76    0.11
   1   2   0    3.97    0.09
   1   2   0    3.79    0.11
   1   2   0    3.73    0.12
  -2  -2   0    0.92    0.06
  -2  -2   0    1.03    0.08
   2   2   0    0.66    0.06
   2   2   0    0.78    0.06
   2   2   0    0.73    0.08
  -3  -2   0   26.04    0.54
   3   2   0   24.57    0.59
   3   2   0   25.56    0.54
   3   2   0   25.28    0.55
  -4  -2   0    5.01    0.13
  -4  -2   0    5.05    0.13
   4   2   0    4.70    0.20
   4   2   0    4.86    0.13
   4   2   0    4.89    0.15
   5   2   0   11.05    0.34
   5   2   0   11.07    0.29
   6   2   0    0.16    0.09
   6   2   0    0.20    0.08
   6   2   0    0.24    0.07
   7   2   0   21.90    0.62
   7   2   0   23.07    0.56
   7   2   0   22.36    0.58
   8   2   0    3.48    0.30
   8   2   0    4.05    0.27
   8   2   0    3.37    0.23
   8  -3   0    1.15    0.20
   8  -3   0    1.31    0.14
   8  -3   0    1.32    0.14
   7  -3   0    4.17    0.20
   7  -3   0    4.04    0.20
   7  -3   0    3.66    0.27
   6  -3   0   22.24    0.61
   6  -3   0   22.57    0.51
   6  -3   0   22.17    0.52
   5  -3   0    0.85    0.07
   5  -3   0    0.90    0.08
   5  -3   0    0.91    0.07
   5  -3   0    0.94    0.09
   5  -3   0    0.79    0.11
   4  -3   0    5.55    0.16
   4  -3   0    5.72    0.22
   4  -3   0    5.07    0.16
   4  -3   0    5.57    0.15
  -4   3   0    5.58    0.16
  -4   3   0    5.44    0.15
   3  -3   0  105.91    2.15
   3  -3   0  106.98    2.15
   3  -3   0  102.96    2.30
   3  -3   0  106.39    2.12
  -3   3   0  105.40    2.12
  -3   3   0  107.87    2.15
   2  -3   0   11.53    0.25
   2  -3   0   11.41    0.27
   2  -3   0   11.26    0.27
  -2   3   0   11.33    0.27
  -2   3   0   11.26    0.25
   1  -3   0    1.69    0.09
   1  -3   0    1.72    0.07
   1  -3   0    1.79    0.09
   1  -3   0    1.69    0.08
  -1   3   0    1.92    0.07
  -1   3   0    1.84    0.09
  -1   3   0    2.01    0.09
   0  -3   0   63.19    1.31
   0  -3   0   61.85    1.31
   0  -3   0   65.18    1.33
   0  -3   0   64.11    1.37
   0   3   0   61.94    1.31
   0   3   0   62.79    1.33
   0   3   0   64.46    1.31
   0   3   0   65.69    1.37
  -1  -3   0    3.29    0.09
  -1  -3   0    3.02    0.11
  -1  -3   0    3.12    0.11
  -1  -3   0    3.33    0.12
   1   3   0    3.16    0.11
   1   3   0    3.36    0.09
   1   3   0    3.01    0.11
  -2  -3   0    4.04    0.13
  -2  -3   0    4.01    0.15
  -2  -3   0    3.98    0.13
   2   3   0    4.17    0.14
   2   3   0    3.97    0.13
  -3  -3   0  112.40    2.26
   3   3   0  110.23    2.34
  -4  -3   0   30.38    0.65
   4   3   0   30.24    0.65
   4   3   0   29.72    0.71
  -5  -3   0    0.05    0.04
  -5  -3   0    0.09    0.04
   5   3   0    0.03    0.04
   5   3   0    0.04    0.07
   5   3   0    0.15    0.04
   6   3   0   22.08    0.51
   6   3   0   21.68    0.59
   6   3   0   22.24    0.56
   7   3   0    7.68    0.23
   7   3   0    7.44    0.33
   7   3   0    6.94    0.30
   8   3   0    2.63    0.18
   8   3   0    2.12    0.22
   8   3   0    2.48    0.27
   8  -4   0   -0.13    0.17
   8  -4   0    0.08    0.12
   8  -4   0    0.09    0.10
   7  -4   0   18.34    0.45
   7  -4   0   17.70    0.44
   7  -4   0   18.45    0.58
   6  -4   0    1.77    0.14
   6  -4   0    1.89    0.12
   6  -4   0    1.83    0.11
   6  -4   0    1.58    0.16
   6  -4   0    1.54    0.10
   5  -4   0   45.43    0.95
   5  -4   0   44.97    0.93
   5  -4   0   43.14    1.07
   5  -4   0   44.72    0.94
   5  -4   0   44.17    0.94
  -5   4   0   45.71    0.94
   4  -4   0    0.32    0.05
   4  -4   0    0.28    0.06
   4  -4   0    0.17    0.07
  -4   4   0    0.38    0.05
  -4   4   0    0.36    0.06
   3  -4   0   18.91    0.40
   3  -4   0   18.38    0.43
   3  -4   0   18.62    0.49
   3  -4   0   19.04    0.44
  -3   4   0   19.14    0.41
  -3   4   0   18.32    0.43
   2  -4   0   56.99    1.16
   2  -4   0   55.95    1.17
   2  -4   0   53.95    1.25
   2  -4   0   55.86    1.17
  -2   4   0   55.00    1.17
  -2   4   0   57.64    1.14
   1  -4   0    0.40    0.06
   1  -4   0    0.51    0.06
   1  -4   0    0.47    0.06
   1  -4   0    0.46    0.04
  -1   4   0    0.34    0.04
  -1   4   0    0.32    0.05
  -1   4   0    0.45    0.06
   0  -4   0   42.08    0.92
   0  -4   0   43.91    0.92
   0  -4   0   44.11    0.92
   0  -4   0   42.65    0.95
   0   4   0   42.07    0.92
   0   4   0   43.29    0.92
   0   4   0   42.18    0.92
  -1  -4   0   11.27    0.29
  -1  -4   0   11.47    0.27
  -1  -4   0   11.14    0.28
  -1  -4   0   10.92    0.28
   1   4   0   11.09    0.29
   1   4   0   11.27    0.29
   1   4   0   10.85    0.28
  -2  -4   0   65.41    1.37
  -2  -4   0   65.64    1.38
  -2  -4   0   66.76    1.42
   2   4   0   66.28    1.38
   2   4   0   67.09    1.38
   2   4   0   64.98    1.41
  -3  -4   0    0.09    0.05
  -3  -4   0    0.06    0.05
  -3  -4   0    0.10    0.04
   3   4   0    0.20    0.06
   3   4   0    0.17    0.05
  -4  -4   0   27.70    0.61
   4   4   0   26.86    0.66
  -5  -4   0   42.54    0.93
  -5  -4   0   45.54    0.94
   5   4   0   44.21    0.94
   5   4   0   43.83    1.03
  -6  -4   0    4.07    0.14
  -6  -4   0    3.80    0.14
   6   4   0    4.06    0.16
   6   4   0    4.28    0.25
   7   4   0   24.06    0.63
   7   4   0   23.95    0.68
   8   4   0    0.16    0.16
   8   4   0    0.20    0.17
   8  -5   0    2.76    0.28
   7  -5   0    0.01    0.14
   6  -5   0   14.49    0.36
   6  -5   0   14.34    0.36
   6  -5   0   14.67    0.48
   5  -5   0    5.51    0.20
   5  -5   0    5.74    0.19
   5  -5   0    5.46    0.25
  -5   5   0    5.75    0.19
  -5   5   0    5.80    0.17
   4  -5   0   20.78    0.49
   4  -5   0   20.73    0.49
   4  -5   0   20.43    0.56
  -4   5   0   21.21    0.49
  -4   5   0   21.64    0.46
   3  -5   0   26.42    0.55
   3  -5   0   25.96    0.60
   3  -5   0   25.90    0.59
   3  -5   0   25.82    0.65
  -3   5   0   26.47    0.56
  -3   5   0   26.00    0.59
   2  -5   0   20.63    0.50
   2  -5   0   21.04    0.50
   2  -5   0   21.47    0.54
   2  -5   0   21.62    0.46
  -2   5   0   21.36    0.47
  -2   5   0   21.04    0.50
   1  -5   0    8.33    0.25
   1  -5   0    8.58    0.22
   1  -5   0    8.52    0.24
   1  -5   0    8.28    0.25
  -1   5   0    8.31    0.25
  -1   5   0    8.78    0.25
  -1   5   0    8.40    0.22
   0  -5   0    1.22    0.10
   0  -5   0    1.25    0.10
   0  -5   0    1.18    0.09
   0  -5   0    1.20    0.10
   0   5   0    1.24    0.10
   0   5   0    1.18    0.10
   0   5   0    1.18    0.10
  -1  -5   0   58.82    1.26
  -1  -5   0   61.09    1.29
  -1  -5   0   60.12    1.28
  -1  -5   0   59.44    1.26
   1   5   0   57.83    1.26
   1   5   0   59.03    1.28
   1   5   0   59.22    1.26
  -2  -5   0    4.55    0.17
  -2  -5   0    4.55    0.17
  -2  -5   0    4.64    0.18
   2   5   0    4.79    0.19
   2   5   0    4.72    0.18
  -3  -5   0   37.17    0.82
  -3  -5   0   38.37    0.83
  -3  -5   0   37.13    0.86
   3   5   0   37.13    0.86
   3   5   0   37.68    0.83
  -4  -5   0   19.93    0.48
  -4  -5   0   19.84    0.48
   4   5   0   20.46    0.49
   4   5   0   20.20    0.53
  -5  -5   0   -0.02    0.06
   5   5   0    0.08    0.07
  -6  -5   0   32.78    0.72
  -6  -5   0   32.91    0.72
   6   5   0   31.70    0.72
   6   5   0   32.34    0.83
  -7  -5   0    0.40    0.07
  -7  -5   0    0.67    0.08
   7   5   0    0.48    0.13
   7   5   0    0.38    0.14
   8   5   0    5.17    0.34
   8   5   0    5.30    0.39
   7  -6   0   12.56    0.48
   7  -6   0   11.87    0.34
   7  -6   0   11.68    0.33
   6  -6   0    0.11    0.09
   6  -6   0    0.17    0.11
   6  -6   0    0.11    0.08
  -6   6   0    0.07    0.07
   5  -6   0    0.22    0.07
   5  -6   0   -0.09    0.08
  -5   6   0    0.12    0.06
  -5   6   0    0.09    0.06
   4  -6   0    1.97    0.13
   4  -6   0    1.90    0.15
   4  -6   0    2.26    0.17
  -4   6   0    2.07    0.11
  -4   6   0    1.97    0.13
   3  -6   0   60.03    1.28
   3  -6   0   58.98    1.37
   3  -6   0   58.57    1.27
   3  -6   0   59.84    1.24
  -3   6   0   58.69    1.27
  -3   6   0   60.99    1.23
   2  -6   0   37.57    0.80
   2  -6   0   37.24    0.89
   2  -6   0   38.03    0.84
   2  -6   0   36.71    0.83
  -2   6   0   37.08    0.80
  -2   6   0   37.53    0.84
   1  -6   0   33.87    0.74
   1  -6   0   34.13    0.79
   1  -6   0   33.79    0.76
   1  -6   0   33.28    0.76
  -1   6   0   33.65    0.74
  -1   6   0   32.80    0.76
   0  -6   0   40.24    0.91
   0  -6   0   40.59    0.89
   0  -6   0   40.50    0.88
   0  -6   0   38.56    0.88
   0   6   0   40.12    0.89
   0   6   0   39.60    0.89
   0   6   0   39.89    0.88
  -1  -6   0    0.34    0.06
  -1  -6   0    0.17    0.06
  -1  -6   0    0.12    0.06
  -1  -6   0    0.11    0.05
   1   6   0    0.06    0.06
   1   6   0    0.18    0.06
  -2  -6   0   15.06    0.40
  -2  -6   0   15.51    0.40
  -2  -6   0   15.21    0.41
  -2  -6   0   15.47    0.36
   2   6   0   16.04    0.41
   2   6   0   15.91    0.42
  -3  -6   0    2.39    0.14
  -3  -6   0    2.23    0.15
  -3  -6   0    2.58    0.14
   3   6   0    2.49    0.16
   3   6   0    2.20    0.16
  -4  -6   0    0.09    0.06
  -4  -6   0    0.05    0.08
   4   6   0   -0.06    0.08
   4   6   0    0.08    0.07
  -5  -6   0   38.90    0.86
  -5  -6   0   39.80    0.87
   5   6   0   39.29    0.87
   5   6   0   36.12    0.93
  -6  -6   0    0.47    0.09
   6   6   0    0.51    0.11
   6   6   0    0.52    0.12
  -7  -6   0    2.37    0.17
  -7  -6   0    1.89    0.16
   7   6   0    2.32    0.20
   7   6   0    2.90    0.28
   7  -7   0    7.04    0.28
   7  -7   0    7.01    0.29
   7  -7   0    7.30    0.39
   6  -7   0    1.98    0.22
   6  -7   0    1.96    0.19
   6  -7   0    1.78    0.18
  -6   7   0    1.72    0.17
   5  -7   0    0.57    0.11
   5  -7   0    0.60    0.09
   5  -7   0    0.64    0.11
  -5   7   0    0.69    0.08
  -5   7   0    0.65    0.09
   4  -7   0    0.48    0.08
   4  -7   0    0.48    0.11
   4  -7   0    0.60    0.10
  -4   7   0    0.40    0.08
  -4   7   0    0.48    0.07
   3  -7   0    5.33    0.15
   3  -7   0    4.88    0.22
   3  -7   0    5.23    0.24
   3  -7   0    4.76    0.20
  -3   7   0    5.13    0.17
  -3   7   0    4.79    0.20
   2  -7   0   21.68    0.49
   2  -7   0   21.52    0.57
   2  -7   0   21.88    0.54
   2  -7   0   21.60    0.54
  -2   7   0   21.76    0.54
   1  -7   0   54.94    1.20
   1  -7   0   54.59    1.20
   1  -7   0   55.39    1.25
   1  -7   0   55.61    1.18
  -1   7   0   54.99    1.20
  -1   7   0   54.51    1.18
   0  -7   0    3.78    0.17
   0  -7   0    3.75    0.16
   0  -7   0    3.63    0.18
   0   7   0    3.88    0.17
   0   7   0    3.50    0.18
  -1  -7   0  208.38    4.43
  -1  -7   0  209.10    4.25
  -1  -7   0  209.90    4.25
  -1  -7   0  208.20    4.31
   1   7   0  205.71    4.31
   1   7   0  207.99    4.25
  -2  -7   0   26.94    0.65
  -2  -7   0   27.54    0.66
  -2  -7   0   27.67    0.67
  -2  -7   0   27.78    0.63
   2   7   0   27.94    0.68
   2   7   0   27.84    0.67
  -3  -7   0    0.54    0.10
  -3  -7   0    0.57    0.08
   3   7   0    0.43    0.09
   3   7   0    0.68    0.11
  -4  -7   0    5.68    0.25
  -4  -7   0    6.17    0.23
   4   7   0    6.27    0.27
   4   7   0    6.12    0.26
  -5  -7   0    1.81    0.15
  -5  -7   0    1.69    0.15
   5   7   0    1.78    0.19
   5   7   0    2.13    0.19
  -6  -7   0    0.56    0.12
  -6  -7   0    0.47    0.10
   6   7   0    0.41    0.12
   6   7   0    0.63    0.14
  -7  -7   0    2.65    0.22
  -7  -7   0    3.08    0.19
   7   7   0    2.41    0.24
   7   7   0    2.72    0.24
   6  -8   0    1.80    0.16
   6  -8   0    1.86    0.16
   6  -8   0    1.82    0.19
  -6   8   0    1.85    0.19
   5  -8   0    1.38    0.13
   5  -8   0    1.30    0.14
   5  -8   0    1.37    0.16
  -5   8   0    1.30    0.12
  -5   8   0    1.27    0.13
   4  -8   0    4.14    0.23
   4  -8   0    3.95    0.19
   4  -8   0    4.34    0.25
  -4   8   0    3.92    0.17
  -4   8   0    3.93    0.19
   3  -8   0   15.94    0.45
   3  -8   0   15.63    0.48
   3  -8   0   15.90    0.44
   3  -8   0   15.87    0.37
  -3   8   0   15.64    0.39
  -3   8   0   15.58    0.43
   2  -8   0    0.43    0.10
   2  -8   0    0.34    0.07
   2  -8   0    0.41    0.10
   2  -8   0    0.41    0.06
  -2   8   0    0.29    0.07
   1  -8   0    9.81    0.32
   1  -8   0    9.75    0.28
   1  -8   0   10.01    0.33
   1  -8   0    9.89    0.32
  -1   8   0    9.88    0.32
  -1   8   0    9.56    0.29
   0  -8   0   99.60    2.13
   0  -8   0  100.97    2.14
   0  -8   0  101.84    2.13
   0  -8   0  100.38    2.21
   0   8   0  100.50    2.13
   0   8   0  101.67    2.14
  -1  -8   0   22.93    0.56
  -1  -8   0   23.01    0.58
  -1  -8   0   22.85    0.59
  -1  -8   0   23.26    0.58
   1   8   0   22.82    0.59
   1   8   0   22.52    0.58
  -2  -8   0    1.77    0.12
  -2  -8   0    1.93    0.16
  -2  -8   0    1.84    0.15
  -2  -8   0    2.00    0.19
   2   8   0    1.95    0.18
   2   8   0    1.67    0.18
  -3  -8   0   20.17    0.52
  -3  -8   0   19.91    0.54
   3   8   0   20.10    0.55
   3   8   0   19.93    0.54
  -4  -8   0   15.83    0.47
  -4  -8   0   16.77    0.45
   4   8   0   16.36    0.49
   4   8   0   16.98    0.48
  -5  -8   0    0.75    0.10
  -5  -8   0    0.63    0.14
   5   8   0    0.63    0.14
   5   8   0    0.57    0.12
  -6  -8   0    0.31    0.11
  -6  -8   0    0.19    0.14
   6   8   0    0.33    0.14
   6   8   0    0.09    0.12
   6  -9   0    2.14    0.22
   6  -9   0    1.71    0.19
   6  -9   0    2.12    0.20
  -6   9   0    1.95    0.17
   5  -9   0    0.64    0.12
   5  -9   0    0.18    0.12
   5  -9   0    0.57    0.14
  -5   9   0    0.61    0.09
  -5   9   0    0.53    0.11
   4  -9   0   28.40    0.77
   4  -9   0   27.72    0.70
   4  -9   0   26.40    0.68
  -4   9   0   28.85    0.69
  -4   9   0   26.65    0.62
   3  -9   0    0.70    0.13
   3  -9   0    0.71    0.13
   3  -9   0    0.66    0.11
  -3   9   0    0.84    0.10
  -3   9   0    0.74    0.10
   2  -9   0    0.01    0.10
   2  -9   0    0.08    0.10
   2  -9   0    0.13    0.07
   2  -9   0    0.09    0.07
  -2   9   0   -0.09    0.07
   1  -9   0   33.34    0.76
   1  -9   0   33.34    0.80
   1  -9   0   32.29    0.82
   1  -9   0   32.59    0.80
  -1   9   0   32.89    0.80
  -1   9   0   33.09    0.77
   0  -9   0   40.14    1.02
   0  -9   0   44.82    1.03
   0  -9   0   45.62    1.01
   0  -9   0   44.71    1.04
   0   9   0   44.37    1.01
   0   9   0   45.87    1.03
  -1  -9   0   14.27    0.40
  -1  -9   0   14.39    0.44
  -1  -9   0   14.40    0.42
  -1  -9   0   14.13    0.42
   1   9   0   14.29    0.42
   1   9   0   14.17    0.44
  -2  -9   0    1.72    0.17
  -2  -9   0    2.06    0.15
  -2  -9   0    2.11    0.18
  -2  -9   0    2.41    0.22
   2   9   0    2.15    0.20
   2   9   0    1.98    0.20
  -3  -9   0   21.51    0.58
  -3  -9   0   22.40    0.61
   3   9   0   22.10    0.60
   3   9   0   22.30    0.61
  -4  -9   0    3.88    0.20
  -4  -9   0    3.30    0.28
   4   9   0    3.63    0.27
   4   9   0    3.21    0.25
  -5  -9   0    0.79    0.16
  -5  -9   0    1.04    0.12
   5   9   0    1.12    0.16
   5   9   0    0.82    0.17
  -6  -9   0    3.15    0.24
  -6  -9   0    2.86    0.24
   6   9   0    3.42    0.30
   6   9   0    3.28    0.31
   5 -10   0   12.01    0.43
   5 -10   0   13.00    0.47
   5 -10   0   12.67    0.49
  -5  10   0   12.90    0.35
  -5  10   0   13.33    0.42
   4 -10   0    1.50    0.14
   4 -10   0    1.81    0.21
   4 -10   0    1.80    0.20
  -4  10   0    2.02    0.18
  -4  10   0    1.86    0.18
   3 -10   0    5.48    0.30
   3 -10   0    4.91    0.30
   3 -10   0    5.48    0.25
  -3  10   0    5.39    0.23
  -3  10   0    5.12    0.24
   2 -10   0   25.53    0.68
   2 -10   0   25.06    0.67
   2 -10   0   26.07    0.71
  -2  10   0   25.59    0.66
   1 -10   0    6.87    0.26
   1 -10   0    6.72    0.31
   1 -10   0    7.16    0.31
   1 -10   0    6.46    0.30
  -1  10   0    6.53    0.29
  -1  10   0    6.74    0.27
   0 -10   0    4.00    0.25
   0 -10   0    3.91    0.23
   0 -10   0    4.23    0.22
   0 -10   0    3.86    0.26
   0  10   0    3.38    0.23
   0  10   0    3.67    0.23
  -1 -10   0    1.09    0.15
  -1 -10   0    0.78    0.12
  -1 -10   0    0.90    0.14
   1  10   0    0.80    0.13
   1  10   0    0.79    0.13
  -2 -10   0   11.93    0.35
  -2 -10   0   12.11    0.44
  -2 -10   0   12.09    0.40
   2  10   0   12.51    0.43
   2  10   0   12.68    0.42
  -3 -10   0    6.53    0.28
  -3 -10   0    6.01    0.35
   3  10   0    6.42    0.33
   3  10   0    6.85    0.33
  -4 -10   0   12.30    0.47
  -4 -10   0   12.12    0.39
   4  10   0   12.43    0.45
   4  10   0   11.79    0.45
  -5 -10   0    5.14    0.38
  -5 -10   0    4.64    0.25
   5  10   0    6.01    0.37
   5  10   0    5.21    0.34
   4 -11   0    6.09    0.38
   4 -11   0    6.24    0.38
  -4  11   0    5.18    0.27
  -4  11   0    5.48    0.27
   3 -11   0    2.54    0.23
   3 -11   0    2.50    0.24
   3 -11   0    2.31    0.22
  -3  11   0    2.50    0.21
  -3  11   0    2.46    0.23
   2 -11   0    7.27    0.33
   2 -11   0    6.74    0.35
   2 -11   0    7.08    0.36
  -2  11   0    6.46    0.30
  -2  11   0    7.07    0.31
   1 -11   0    1.91    0.20
   1 -11   0    2.41    0.25
   1 -11   0    1.85    0.19
  -1  11   0    2.03    0.17
  -1  11   0    2.42    0.22
   0 -11   0    1.01    0.15
   0 -11   0    0.99    0.17
   0 -11   0    0.88    0.16
   0  11   0    0.94    0.15
   0  11   0    0.77    0.14
  -1 -11   0    1.06    0.19
  -1 -11   0    0.77    0.15
  -1 -11   0    1.07    0.15
   1  11   0    1.20    0.16
   1  11   0    1.00    0.16
  -2 -11   0    4.18    0.27
  -2 -11   0    4.05    0.34
  -2 -11   0    3.54    0.22
   2  11   0    4.14    0.30
   2  11   0    3.96    0.31
  -3 -11   0    5.14    0.27
  -3 -11   0    4.71    0.38
   3  11   0    5.19    0.34
   3  11   0    4.87    0.35
  -4 -11   0    0.89    0.12
  -4 -11   0    1.05    0.23
   4  11   0    0.99    0.19
   4  11   0    0.92    0.21
   2 -12   0    5.36    0.38
   2 -12   0    5.12    0.35
   2 -12   0    5.58    0.37
  -2  12   0    5.14    0.30
  -2  12   0    5.14    0.31
   1 -12   0    3.15    0.32
   1 -12   0    2.77    0.25
   1 -12   0    2.95    0.31
  -1  12   0    2.12    0.20
  -1  12   0    2.06    0.21
   0 -12   0    1.39    0.19
   0 -12   0    1.76    0.20
   0 -12   0    1.62    0.22
   0  12   0    1.17    0.18
   0  12   0    1.41    0.19
  -1 -12   0    0.15    0.20
  -1 -12   0    0.13    0.15
  -1 -12   0    0.10    0.15
   1  12   0    0.07    0.17
   1  12   0    0.13    0.16
  -2 -12   0    6.34    0.46
  -2 -12   0    6.91    0.36
   2  12   0    6.23    0.40
   2  12   0    6.65    0.40
   1  12  -1    5.13    0.36
   1  12  -1    4.99    0.38
  -1 -12   1    5.53    0.44
  -1 -12   1    5.20    0.31
  -1 -12   1    5.51    0.35
   0  12  -1    4.14    0.33
   0  12  -1    4.62    0.35
   0 -12   1    4.28    0.41
   0 -12   1    4.00    0.31
   0 -12   1    4.70    0.35
  -1  12  -1    0.22    0.16
  -1  12  -1    0.15    0.15
   1 -12   1    0.25    0.16
   1 -12   1    0.45    0.18
   1 -12   1    0.28    0.19
   3  11  -1    0.20    0.18
   3  11  -1    0.41    0.17
  -3 -11   1   -0.03    0.12
  -3 -11   1    0.24    0.20
   2  11  -1    3.86    0.32
   2  11  -1    3.83    0.31
  -2 -11   1    4.02    0.36
  -2 -11   1    4.56    0.27
  -2 -11   1    3.37    0.22
   1  11  -1    0.87    0.16
   1  11  -1    1.04    0.17
  -1 -11   1    0.95    0.15
  -1 -11   1    0.83    0.14
  -1 -11   1    1.12    0.19
   0  11  -1    0.78    0.15
   0  11  -1    0.57    0.14
   0 -11   1    0.89    0.17
   0 -11   1    0.78    0.15
   0 -11   1    0.89    0.16
  -1  11  -1   13.31    0.43
  -1  11  -1   13.86    0.46
   1 -11   1   13.83    0.48
   1 -11   1   13.34    0.46
   1 -11   1   13.47    0.48
  -2  11  -1    2.19    0.19
  -2  11  -1    2.37    0.23
   2 -11   1    2.10    0.21
   2 -11   1    2.24    0.22
   2 -11   1    1.82    0.19
  -3  11  -1    3.36    0.26
  -3  11  -1    3.44    0.23
   3 -11   1    3.19    0.31
   3 -11   1    3.10    0.32
   3 -11   1    3.45    0.26
   4  10  -1    0.20    0.15
   4  10  -1    0.15    0.17
  -4 -10   1    0.02    0.18
  -4 -10   1    0.24    0.10
   3  10  -1   20.55    0.62
   3  10  -1   21.25    0.62
  -3 -10   1   21.34    0.57
  -3 -10   1   20.57    0.63
   2  10  -1    1.14    0.16
   2  10  -1    1.51    0.16
  -2 -10   1    1.38    0.18
  -2 -10   1    1.38    0.15
  -2 -10   1    1.43    0.16
   1  10  -1    0.80    0.14
   1  10  -1    0.60    0.13
  -1 -10   1    0.93    0.15
  -1 -10   1    0.84    0.13
  -1 -10   1    0.79    0.12
   0  10  -1    6.30    0.28
   0  10  -1    5.71    0.29
   0 -10   1    6.33    0.30
   0 -10   1    6.05    0.27
   0 -10   1    6.21    0.31
  -1  10  -1   18.43    0.54
  -1  10  -1   18.83    0.50
   1 -10   1   19.17    0.55
   1 -10   1   19.04    0.55
   1 -10   1   18.44    0.54
  -2  10  -1    2.24    0.21
  -2  10  -1    2.34    0.19
  -2  10  -1    2.47    0.20
   2 -10   1    3.05    0.23
   2 -10   1    2.28    0.24
   2 -10   1    2.38    0.24
  -3  10  -1    1.90    0.18
  -3  10  -1    1.97    0.21
   3 -10   1    2.11    0.20
   3 -10   1    2.59    0.20
   3 -10   1    1.81    0.19
  -4  10  -1   15.82    0.45
  -4  10  -1   16.51    0.48
   4 -10   1   16.39    0.49
   4 -10   1   16.93    0.56
   4 -10   1   16.70    0.53
  -5  10  -1    2.90    0.22
  -5  10  -1    2.94    0.24
   5 -10   1    3.26    0.31
   5 -10   1    2.66    0.24
   5 -10   1    2.72    0.26
   5   9  -1    1.89    0.20
   5   9  -1    1.26    0.16
  -5  -9   1    2.21    0.20
  -5  -9   1    1.74    0.21
   4   9  -1   26.70    0.73
   4   9  -1   26.47    0.71
  -4  -9   1   25.99    0.71
  -4  -9   1   27.68    0.68
   3   9  -1   11.19    0.40
   3   9  -1   10.56    0.39
  -3  -9   1   11.15    0.36
  -3  -9   1   10.99    0.40
   2   9  -1    5.34    0.28
   2   9  -1    5.52    0.28
  -2  -9   1    5.35    0.20
  -2  -9   1    5.75    0.29
  -2  -9   1    5.61    0.25
   1   9  -1   15.71    0.46
   1   9  -1   16.07    0.47
  -1  -9   1   15.33    0.43
  -1  -9   1   16.06    0.48
  -1  -9   1   15.83    0.46
   0   9  -1   20.38    0.56
   0   9  -1   20.51    0.53
   0  -9   1   19.97    0.54
   0  -9   1   19.92    0.55
   0  -9   1   20.55    0.56
  -1   9  -1    2.11    0.17
  -1   9  -1    2.14    0.18
   1  -9   1    2.13    0.19
   1  -9   1    2.18    0.19
   1  -9   1    2.51    0.21
  -2   9  -1    2.49    0.16
  -2   9  -1    2.44    0.18
   2  -9   1    2.50    0.22
   2  -9   1    2.77    0.22
   2  -9   1    3.04    0.19
  -3   9  -1   31.57    0.77
  -3   9  -1   30.80    0.73
   3  -9   1   31.50    0.77
   3  -9   1   32.55    0.84
   3  -9   1   32.51    0.79
  -4   9  -1    3.14    0.20
  -4   9  -1    3.29    0.19
   4  -9   1    2.69    0.25
   4  -9   1    2.73    0.25
   4  -9   1    3.14    0.19
  -5   9  -1    8.48    0.32
  -5   9  -1    8.88    0.29
   5  -9   1    8.95    0.36
   5  -9   1    8.91    0.39
   5  -9   1    8.76    0.33
  -6   9  -1    0.97    0.13
  -6   9  -1    0.91    0.14
   6  -9   1    1.11    0.16
   6  -9   1    1.04    0.17
   6  -9   1    1.10    0.16
   6   8  -1    0.05    0.14
   6   8  -1    0.14    0.14
  -6  -8   1    0.12    0.11
  -6  -8   1    0.11    0.15
   5   8  -1   17.73    0.52
   5   8  -1   18.13    0.54
  -5  -8   1   16.98    0.48
  -5  -8   1   16.89    0.51
   4   8  -1    6.94    0.31
   4   8  -1    6.93    0.30
  -4  -8   1    6.99    0.31
  -4  -8   1    6.83    0.26
   3   8  -1   32.30    0.79
   3   8  -1   32.43    0.81
  -3  -8   1   33.17    0.78
  -3  -8   1   31.66    0.78
   2   8  -1   13.61    0.42
   2   8  -1   13.55    0.42
  -2  -8   1   13.33    0.34
  -2  -8   1   13.90    0.40
  -2  -8   1   14.09    0.42
   1   8  -1  105.51    2.25
   1   8  -1  106.64    2.27
   1   8  -1  106.03    2.25
  -1  -8   1  108.19    2.25
  -1  -8   1  104.35    2.24
  -1  -8   1  106.40    2.30
   0   8  -1   27.92    0.69
   0   8  -1   27.58    0.67
   0   8  -1   28.50    0.70
   0  -8   1   28.12    0.69
   0  -8   1   28.07    0.69
   0  -8   1   28.05    0.69
  -1   8  -1    8.02    0.30
  -1   8  -1    8.29    0.29
  -1   8  -1    8.19    0.26
   1  -8   1    8.04    0.29
   1  -8   1    8.02    0.29
   1  -8   1    8.10    0.29
  -2   8  -1    0.86    0.10
  -2   8  -1    0.94    0.09
   2  -8   1    1.01    0.12
   2  -8   1    0.74    0.09
   2  -8   1    0.84    0.12
  -3   8  -1    0.15    0.07
  -3   8  -1    0.04    0.07
   3  -8   1    0.17    0.07
   3  -8   1    0.14    0.09
   3  -8   1    0.20    0.10
  -4   8  -1   25.06    0.63
  -4   8  -1   24.38    0.58
   4  -8   1   25.92    0.63
   4  -8   1   25.24    0.69
   4  -8   1   25.34    0.64
  -5   8  -1    5.95    0.22
  -5   8  -1    5.75    0.24
   5  -8   1    5.45    0.30
   5  -8   1    6.06    0.25
   5  -8   1    6.03    0.28
  -6   8  -1    1.21    0.12
  -6   8  -1    1.06    0.12
   6  -8   1    1.26    0.15
   6  -8   1    1.12    0.15
   6  -8   1    1.08    0.16
   7   7  -1    0.63    0.18
  -7  -7   1    0.61    0.14
  -7  -7   1    0.45    0.11
   6   7  -1    4.08    0.29
   6   7  -1    4.27    0.26
  -6  -7   1    4.13    0.25
  -6  -7   1    4.46    0.22
   5   7  -1    0.24    0.10
   5   7  -1    0.17    0.11
  -5  -7   1    0.13    0.08
  -5  -7   1    0.13    0.11
   4   7  -1    8.73    0.31
   4   7  -1    8.36    0.32
  -4  -7   1    8.59    0.28
  -4  -7   1    8.29    0.30
   3   7  -1   23.17    0.58
   3   7  -1   22.65    0.60
  -3  -7   1   22.82    0.57
  -3  -7   1   22.34    0.58
   2   7  -1   61.52    1.35
   2   7  -1   62.09    1.37
   2   7  -1   60.50    1.34
  -2  -7   1   61.21    1.34
  -2  -7   1   61.14    1.34
  -2  -7   1   62.83    1.33
   1   7  -1   53.22    1.17
   1   7  -1   52.30    1.16
   1   7  -1   51.57    1.16
  -1  -7   1   52.24    1.15
  -1  -7   1   52.06    1.16
  -1  -7   1   52.08    1.15
   0   7  -1   88.29    1.87
   0   7  -1   87.05    1.87
   0   7  -1   88.07    1.87
   0  -7   1   87.85    1.87
   0  -7   1   88.35    1.93
   0  -7   1   89.50    1.87
  -1   7  -1   30.51    0.69
  -1   7  -1   30.47    0.72
  -1   7  -1   30.29    0.72
   1  -7   1   30.56    0.72
   1  -7   1   30.46    0.72
   1  -7   1   31.39    0.74
  -2   7  -1    3.19    0.19
  -2   7  -1    3.64    0.17
  -2   7  -1    3.25    0.14
   2  -7   1    3.44    0.19
   2  -7   1    3.34    0.19
   2  -7   1    3.11    0.16
  -3   7  -1   14.64    0.40
  -3   7  -1   14.55    0.37
   3  -7   1   15.07    0.41
   3  -7   1   15.20    0.45
   3  -7   1   14.76    0.41
  -4   7  -1    1.88    0.14
  -4   7  -1    1.97    0.13
   4  -7   1    2.13    0.14
   4  -7   1    2.05    0.18
   4  -7   1    2.10    0.19
  -5   7  -1    0.38    0.08
  -5   7  -1    0.56    0.08
   5  -7   1    0.50    0.12
   5  -7   1    0.54    0.09
   5  -7   1    0.43    0.10
  -6   7  -1   11.08    0.31
  -6   7  -1   11.36    0.34
   6  -7   1   11.72    0.43
   6  -7   1   11.16    0.35
   6  -7   1   10.84    0.35
   7  -7   1    3.06    0.30
   7  -7   1    2.92    0.23
   7  -7   1    3.21    0.24
   7   6  -1    1.07    0.18
  -7  -6   1    0.80    0.10
  -7  -6   1    0.72    0.11
   6   6  -1    0.62    0.11
   6   6  -1    0.68    0.14
  -6  -6   1    0.63    0.09
   5   6  -1    2.14    0.19
   5   6  -1    1.96    0.18
  -5  -6   1    1.50    0.14
  -5  -6   1    1.78    0.17
   4   6  -1    0.17    0.08
   4   6  -1    0.04    0.08
  -4  -6   1   -0.01    0.06
  -4  -6   1    0.12    0.08
   3   6  -1    4.27    0.20
   3   6  -1    4.03    0.18
   3   6  -1    4.16    0.19
  -3  -6   1    4.38    0.18
  -3  -6   1    3.93    0.19
   2   6  -1   38.29    0.89
   2   6  -1   38.81    0.87
   2   6  -1   39.01    0.88
  -2  -6   1   38.67    0.87
  -2  -6   1   38.32    0.87
  -2  -6   1   39.61    0.84
   1   6  -1   73.64    1.59
   1   6  -1   75.20    1.58
   1   6  -1   74.58    1.58
  -1  -6   1   72.70    1.57
  -1  -6   1   75.08    1.61
  -1  -6   1   74.20    1.58
   0   6  -1   24.84    0.60
   0   6  -1   24.91    0.60
   0   6  -1   25.37    0.59
   0  -6   1   25.27    0.60
   0  -6   1   25.64    0.58
   0  -6   1   25.24    0.60
   0  -6   1   25.00    0.60
  -1   6  -1    6.32    0.22
  -1   6  -1    5.94    0.21
  -1   6  -1    6.07    0.19
   1  -6   1    6.12    0.22
   1  -6   1    6.31    0.19
   1  -6   1    5.99    0.21
   1  -6   1    5.93    0.21
  -2   6  -1   30.65    0.70
  -2   6  -1   30.79    0.71
  -2   6  -1   30.17    0.66
  -2   6  -1   29.88    0.67
   2  -6   1   30.40    0.74
   2  -6   1   31.35    0.71
   2  -6   1   31.04    0.71
  -3   6  -1    2.62    0.13
  -3   6  -1    2.66    0.16
  -3   6  -1    2.50    0.14
   3  -6   1    2.72    0.16
   3  -6   1    2.64    0.14
   3  -6   1    2.78    0.17
  -4   6  -1    1.21    0.11
  -4   6  -1    1.20    0.11
   4  -6   1    1.48    0.14
   4  -6   1    1.17    0.11
   4  -6   1    1.34    0.15
  -5   6  -1    3.46    0.15
  -5   6  -1    3.38    0.17
   5  -6   1    3.12    0.16
   5  -6   1    2.84    0.21
   5  -6   1    3.35    0.18
  -6   6  -1    8.01    0.25
  -6   6  -1    7.87    0.25
   6  -6   1    7.41    0.26
   6  -6   1    7.72    0.27
   6  -6   1    7.74    0.33
   7  -6   1    1.69    0.14
   7  -6   1    1.73    0.20
   7  -6   1    1.69    0.17
   7   5  -1    3.39    0.30
  -7  -5   1    2.52    0.15
  -7  -5   1    2.64    0.15
   6   5  -1    2.66    0.17
   6   5  -1    2.87    0.24
  -6  -5   1    3.00    0.16
  -6  -5   1    2.83    0.15
   5   5  -1    0.06    0.08
  -5  -5   1    0.09    0.06
   4   5  -1    5.14    0.20
   4   5  -1    5.25    0.23
  -4  -5   1    5.53    0.19
  -4  -5   1    5.33    0.20
   3   5  -1   19.64    0.51
   3   5  -1   19.84    0.48
   3   5  -1   20.11    0.48
  -3  -5   1   19.98    0.48
  -3  -5   1   19.58    0.48
   2   5  -1   79.08    1.66
   2   5  -1   80.74    1.66
   2   5  -1   77.31    1.69
  -2  -5   1   79.78    1.65
  -2  -5   1   77.63    1.65
   1   5  -1   34.02    0.79
   1   5  -1   34.61    0.78
   1   5  -1   35.98    0.79
  -1  -5   1   34.82    0.78
  -1  -5   1   35.80    0.78
  -1  -5   1   35.58    0.78
   0   5  -1   25.81    0.59
   0   5  -1   24.98    0.58
   0   5  -1   25.38    0.59
   0  -5   1   25.49    0.60
   0  -5   1   25.88    0.59
   0  -5   1   25.07    0.59
   0  -5   1   26.26    0.58
  -1   5  -1    8.69    0.26
  -1   5  -1    8.58    0.25
  -1   5  -1    8.73    0.23
   1  -5   1    8.33    0.25
   1  -5   1    8.70    0.25
   1  -5   1    8.84    0.23
   1  -5   1    9.08    0.26
  -2   5  -1    3.55    0.15
  -2   5  -1    3.29    0.11
  -2   5  -1    3.47    0.15
  -2   5  -1    3.44    0.13
   2  -5   1    3.61    0.15
   2  -5   1    3.61    0.16
   2  -5   1    3.64    0.11
   2  -5   1    3.59    0.15
  -3   5  -1   74.19    1.57
  -3   5  -1   74.28    1.57
  -3   5  -1   76.34    1.53
   3  -5   1   75.04    1.68
   3  -5   1   75.38    1.57
   3  -5   1   74.49    1.57
  -4   5  -1    0.04    0.05
  -4   5  -1    0.07    0.05
   4  -5   1    0.03    0.05
   4  -5   1   -0.04    0.06
   4  -5   1    0.08    0.07
  -5   5  -1   30.74    0.66
  -5   5  -1   30.91    0.68
   5  -5   1   30.44    0.79
   5  -5   1   30.98    0.68
   5  -5   1   28.67    0.70
  -6   5  -1    3.52    0.16
   6  -5   1    3.26    0.17
   6  -5   1    3.13    0.23
   6  -5   1    3.23    0.16
   7  -5   1   16.96    0.55
   7  -5   1   16.19    0.40
   7  -5   1   16.35    0.40
   8  -5   1    0.54    0.21
   8   4  -1    0.29    0.16
   8   4  -1   -0.06    0.18
   7   4  -1    1.50    0.19
   6   4  -1   10.66    0.39
  -6  -4   1   10.36    0.27
  -6  -4   1   10.58    0.27
   5   4  -1    3.09    0.15
   5   4  -1    3.46    0.21
  -5  -4   1    3.36    0.13
   4   4  -1    0.78    0.10
  -4  -4   1    0.79    0.07
   3   4  -1   44.01    0.95
   3   4  -1   44.77    0.95
   3   4  -1   43.88    1.00
  -3  -4   1   44.74    0.95
  -3  -4   1   43.72    0.95
   2   4  -1    0.18    0.06
   2   4  -1    0.13    0.05
   2   4  -1    0.22    0.06
  -2  -4   1    0.08    0.05
  -2  -4   1    0.11    0.05
   1   4  -1   27.19    0.61
   1   4  -1   27.80    0.62
   1   4  -1   27.12    0.62
  -1  -4   1   27.14    0.61
  -1  -4   1   27.72    0.60
  -1  -4   1   27.26    0.61
   0   4  -1   14.41    0.35
   0   4  -1   14.87    0.36
   0   4  -1   14.95    0.37
   0  -4   1   15.08    0.36
   0  -4   1   15.27    0.35
   0  -4   1   14.66    0.36
  -1   4  -1   38.56    0.82
  -1   4  -1   36.62    0.82
  -1   4  -1   37.85    0.80
   1  -4   1   39.60    0.80
   1  -4   1   37.18    0.82
   1  -4   1   37.33    0.82
   1  -4   1   37.36    0.86
  -2   4  -1   56.25    1.19
  -2   4  -1   56.21    1.19
  -2   4  -1   57.12    1.16
   2  -4   1   55.31    1.26
   2  -4   1   56.81    1.19
   2  -4   1   56.16    1.19
  -3   4  -1   20.99    0.49
  -3   4  -1   21.66    0.47
  -3   4  -1   20.82    0.49
   3  -4   1   21.72    0.49
   3  -4   1   21.69    0.49
   3  -4   1   21.04    0.54
  -4   4  -1   71.42    1.42
  -4   4  -1   69.14    1.44
   4  -4   1   69.46    1.44
   4  -4   1   66.88    1.56
  -5   4  -1   29.61    0.64
  -5   4  -1   30.34    0.65
   5  -4   1   29.44    0.65
   5  -4   1   29.24    0.75
   5  -4   1   29.06    0.65
   5  -4   1   28.86    0.65
   6  -4   1   91.39    2.12
   6  -4   1   95.43    1.92
   6  -4   1   94.14    1.92
   6  -4   1   93.84    1.91
   7  -4   1    0.40    0.10
   7  -4   1    0.43    0.14
   8  -4   1    8.31    0.31
   8  -4   1    7.91    0.42
   8   3  -1    0.02    0.15
   8   3  -1    0.18    0.18
   7   3  -1   19.92    0.60
   7   3  -1   20.32    0.55
   6   3  -1    2.00    0.21
   5   3  -1    0.64    0.10
  -5  -3   1    0.63    0.06
  -5  -3   1    0.91    0.08
   4   3  -1   14.32    0.40
   4   3  -1   14.53    0.34
  -4  -3   1   14.51    0.34
   3   3  -1   17.29    0.44
   3   3  -1   17.39    0.40
  -3  -3   1   17.41    0.40
   2   3  -1   57.34    1.24
   2   3  -1   57.68    1.21
   2   3  -1   59.57    1.21
  -2  -3   1   57.68    1.20
  -2  -3   1   57.25    1.21
   1   3  -1   81.33    1.73
   1   3  -1   80.90    1.70
   1   3  -1   81.68    1.70
  -1  -3   1   82.03    1.70
  -1  -3   1   84.81    1.70
  -1  -3   1   85.82    1.76
   0   3  -1   35.20    0.75
   0   3  -1   34.64    0.75
   0   3  -1   35.27    0.75
   0  -3   1   34.21    0.74
  -1   3  -1  135.32    2.89
  -1   3  -1  142.48    2.87
  -1   3  -1  144.63    2.87
   1  -3   1  146.04    2.87
   1  -3   1  140.74    2.87
  -2   3  -1   16.64    0.39
  -2   3  -1   16.71    0.39
  -2   3  -1   17.40    0.37
   2  -3   1   16.54    0.39
   2  -3   1   17.26    0.39
  -3   3  -1  185.75    3.65
  -3   3  -1  183.36    3.69
   3  -3   1  176.85    3.92
   3  -3   1  183.60    3.65
   3  -3   1  186.18    3.70
  -4   3  -1   55.71    1.12
  -4   3  -1   54.43    1.12
   4  -3   1   55.60    1.13
   4  -3   1   53.09    1.12
   4  -3   1   53.31    1.12
   4  -3   1   52.95    1.24
  -5   3  -1  134.66    2.76
   5  -3   1  134.26    2.76
   5  -3   1  138.90    2.77
   5  -3   1  140.04    2.76
   5  -3   1  138.43    2.80
   5  -3   1  135.21    2.99
   6  -3   1    0.78    0.09
   6  -3   1    0.77    0.12
   6  -3   1    0.68    0.07
   7  -3   1    2.77    0.19
   7  -3   1    2.60    0.15
   7  -3   1    2.63    0.25
   8  -3   1   13.98    0.52
   8  -3   1   14.19    0.38
   8  -3   1   14.76    0.42
   8   2  -1    3.18    0.33
   8   2  -1    2.71    0.22
   8   2  -1    2.90    0.28
   7   2  -1    1.56    0.15
   7   2  -1    1.72    0.18
   7   2  -1    1.69    0.16
   6   2  -1   29.95    0.76
   6   2  -1   30.47    0.70
   5   2  -1    3.56    0.13
   5   2  -1    3.37    0.20
   4   2  -1  136.78    2.99
   4   2  -1  143.77    3.02
  -4  -2   1  144.09    2.87
  -4  -2   1  146.21    2.87
   3   2  -1  102.35    2.07
   3   2  -1  103.21    2.07
   3   2  -1  102.89    2.16
   3   2  -1   98.54    2.14
  -3  -2   1  103.17    2.06
   2   2  -1   10.65    0.26
   2   2  -1   10.80    0.28
  -2  -2   1   10.83    0.25
   1   2  -1  248.45    4.99
   1   2  -1  250.82    4.97
   1   2  -1  243.43    5.08
  -1  -2   1  244.21    5.00
  -1  -2   1  239.11    4.99
   0   2  -1  190.93    3.83
   0   2  -1  195.97    3.74
   0  -2   1  176.22    3.76
   0  -2   1  180.65    3.76
  -1   2  -1   36.16    0.75
  -1   2  -1   36.49    0.76
  -1   2  -1   36.83    0.76
  -1   2  -1   37.09    0.75
   1  -2   1   35.96    0.76
   1  -2   1   35.66    0.76
  -2   2  -1    2.96    0.10
  -2   2  -1    2.95    0.10
   2  -2   1    3.23    0.10
   2  -2   1    3.16    0.10
  -3   2  -1    1.10    0.06
  -3   2  -1    1.07    0.07
   3  -2   1    1.02    0.07
   3  -2   1    0.97    0.07
   3  -2   1    0.98    0.05
   3  -2   1    1.10    0.07
  -4   2  -1  229.39    4.56
   4  -2   1  224.24    4.55
   4  -2   1  235.77    4.66
   4  -2   1  236.15    4.58
   4  -2   1  221.36    4.88
   4  -2   1  224.36    4.58
   5  -2   1   14.52    0.34
   5  -2   1   14.19    0.35
   5  -2   1   14.05    0.41
   6  -2   1    8.22    0.25
   6  -2   1    7.99    0.30
   6  -2   1    7.81    0.23
   7  -2   1   10.80    0.32
   7  -2   1   10.17    0.38
   7  -2   1   10.81    0.31
   8  -2   1    0.22    0.12
   8  -2   1    0.33    0.11
   8  -2   1    0.19    0.15
   8   1  -1    0.87    0.15
   8   1  -1    0.93    0.18
   8   1  -1    0.86    0.15
   7   1  -1   10.19    0.34
   7   1  -1   10.29    0.32
   7   1  -1   10.06    0.38
   6   1  -1    0.16    0.08
   6   1  -1    0.16    0.09
   6   1  -1    0.09    0.07
   5   1  -1    4.26    0.20
   5   1  -1    3.94    0.16
   4   1  -1  103.03    2.20
   4   1  -1  105.71    2.23
   3   1  -1  165.27    3.27
   3   1  -1  156.57    3.37
   3   1  -1  160.90    3.45
  -3  -1   1  166.71    3.27
  -3  -1   1  166.42    3.27
   2   1  -1  546.31   10.97
   2   1  -1  544.51   10.96
   2   1  -1  554.37   11.52
  -2  -1   1  543.15   10.95
  -2  -1   1  539.15   11.53
   1   1  -1    1.37    0.06
  -1  -1   1    1.60    0.06
  -1  -1   1    1.52    0.05
   0   1  -1  450.47    8.86
   0   1  -1  436.20    8.86
   0  -1   1  437.61    8.86
   0  -1   1  429.63    8.85
  -1   1  -1  111.77    2.26
  -1   1  -1  113.57    2.24
  -1   1  -1  106.88    2.27
   1  -1   1  110.67    2.29
   1  -1   1  119.10    2.24
  -2   1  -1  157.53    3.05
   2  -1   1  150.53    3.09
   2  -1   1  156.28    3.08
   2  -1   1  151.17    3.13
   2  -1   1  150.81    3.05
  -3   1  -1   16.85    0.37
  -3   1  -1   17.18    0.35
   3  -1   1   16.97    0.36
   3  -1   1   16.47    0.35
   3  -1   1   16.68    0.37
   3  -1   1   16.08    0.37
   4  -1   1    9.59    0.24
   4  -1   1    9.68    0.25
   5  -1   1   35.73    0.77
   5  -1   1   35.24    0.85
   5  -1   1   36.25    0.79
   6  -1   1    3.94    0.18
   6  -1   1    3.73    0.21
   6  -1   1    3.75    0.17
   7  -1   1    5.01    0.27
   7  -1   1    5.40    0.23
   7  -1   1    5.31    0.24
   8  -1   1    6.61    0.28
   8  -1   1    6.41    0.33
   8  -1   1    7.10    0.30
   8   0  -1    4.93    0.29
   8   0  -1    4.43    0.32
   8   0  -1    5.25    0.29
   7   0  -1    3.19    0.20
   7   0  -1    2.50    0.21
   7   0  -1    2.77    0.23
   6   0  -1    0.71    0.11
   6   0  -1    0.59    0.10
   6   0  -1    0.61    0.09
   5   0  -1   30.50    0.68
   5   0  -1   30.34    0.72
   5   0  -1   30.80    0.72
   4   0  -1   17.01    0.42
   4   0  -1   16.98    0.42
   3   0  -1   19.70    0.46
   2   0  -1   90.84    1.82
   2   0  -1   90.17    1.94
  -2   0   1   89.69    1.82
  -2   0   1   92.08    1.94
  -2   0   1   92.34    1.82
   1   0  -1  734.75   14.67
   1   0  -1  734.85   15.47
  -1   0   1  733.51   15.48
  -1   0   1  729.44   14.67
  -1   0  -1  145.09    2.90
  -1   0  -1  145.63    2.96
   1   0   1  138.95    2.87
   1   0   1  142.58    2.96
   1   0   1  145.12    2.90
  -2   0  -1   13.54    0.30
  -2   0  -1   13.60    0.30
   2   0   1   13.48    0.28
   2   0   1   13.11    0.30
   2   0   1   13.35    0.30
   3   0   1   11.26    0.27
   3   0   1   11.17    0.27
   4   0   1   37.43    0.80
   4   0   1   37.53    0.82
   5   0   1    1.34    0.11
   5   0   1    1.31    0.12
   5   0   1    1.49    0.11
   6   0   1    3.21    0.17
   6   0   1    3.00    0.18
   6   0   1    3.24    0.17
   7   0   1   19.31    0.52
   7   0   1   19.50    0.54
   7   0   1   19.56    0.50
   8   0   1    7.65    0.33
   8   0   1    7.99    0.32
   8   0   1    7.67    0.33
   9   0   1    0.37    0.17
   9   0   1    0.24    0.18
   9   0   1    0.36    0.17
   8  -1  -1    5.78    0.28
   8  -1  -1    5.16    0.31
   8  -1  -1    5.23    0.31
   7  -1  -1    2.33    0.21
   7  -1  -1    2.15    0.20
   7  -1  -1    2.08    0.18
   6  -1  -1    2.73    0.16
   6  -1  -1    2.80    0.18
   6  -1  -1    2.78    0.18
   5  -1  -1    9.66    0.29
   5  -1  -1    9.56    0.28
   5  -1  -1    9.30    0.26
   4  -1  -1    0.24    0.06
   4  -1  -1    0.22    0.05
   3  -1  -1    2.34    0.11
   3  -1  -1    2.45    0.09
   2  -1  -1  259.86    5.67
   2  -1  -1  265.87    5.32
  -2   1   1  265.44    5.33
  -2   1   1  271.63    5.66
   1  -1  -1   60.00    1.22
  -1   1   1   59.81    1.29
  -1   1   1   60.56    1.22
   0  -1  -1  452.51    8.79
   0   1   1  434.00    8.92
  -1  -1  -1   81.17    1.64
   1   1   1   78.57    1.59
   1   1   1   79.01    1.64
  -2  -1  -1   77.33    1.60
   2   1   1   76.61    1.56
   2   1   1   76.80    1.60
   2   1   1   78.07    1.55
  -3  -1  -1   17.48    0.36
  -3  -1  -1   17.49    0.41
   3   1   1   17.75    0.36
   3   1   1   17.19    0.40
   3   1   1   17.48    0.41
   4   1   1   10.87    0.28
   4   1   1   11.03    0.29
   5   1   1    1.12    0.12
   5   1   1    1.14    0.11
   5   1   1    1.11    0.11
   6   1   1    7.44    0.25
   6   1   1    7.43    0.25
   6   1   1    7.49    0.27
   7   1   1   26.63    0.65
   7   1   1   26.31    0.67
   7   1   1   26.11    0.66
   8   1   1    2.87    0.24
   8   1   1    2.86    0.26
   8   1   1    3.27    0.24
   9   1   1    0.01    0.17
   9   1   1    0.26    0.18
   9   1   1    0.23    0.18
   8  -2  -1    1.39    0.16
   8  -2  -1    1.37    0.17
   8  -2  -1    1.63    0.20
   7  -2  -1    0.16    0.12
   7  -2  -1    0.16    0.10
   7  -2  -1    0.11    0.09
   6  -2  -1   16.99    0.41
   6  -2  -1   16.39    0.48
   6  -2  -1   16.50    0.44
   5  -2  -1   19.49    0.51
   5  -2  -1   18.69    0.46
   5  -2  -1   19.02    0.43
   4  -2  -1    9.69    0.24
   4  -2  -1    9.61    0.29
   3  -2  -1  120.87    2.41
   3  -2  -1  117.98    2.39
   3  -2  -1  115.99    2.58
   3  -2  -1  120.79    2.41
  -3   2   1  124.49    2.41
   2  -2  -1    9.64    0.22
   2  -2  -1    9.36    0.26
   2  -2  -1    9.85    0.21
  -2   2   1    9.89    0.26
  -2   2   1   10.12    0.22
   1  -2  -1  222.96    4.59
   1  -2  -1  227.67    4.83
  -1   2   1  228.63    4.61
  -1   2   1  228.98    4.84
   0  -2  -1  222.07    4.54
   0  -2  -1  222.16    4.70
   0  -2  -1  215.63    4.45
   0   2   1  218.14    4.72
   0   2   1  219.64    4.53
   0   2   1  219.72    4.47
  -1  -2  -1   87.48    1.87
  -1  -2  -1  101.25    1.92
   1   2   1   94.77    1.92
   1   2   1   91.37    1.96
   1   2   1   88.47    1.87
  -2  -2  -1  225.79    4.37
   2   2   1  200.32    4.36
  -3  -2  -1    5.96    0.15
  -3  -2  -1    5.61    0.18
   3   2   1    5.56    0.18
   3   2   1    5.60    0.15
  -4  -2  -1   55.07    1.12
  -4  -2  -1   56.38    1.12
   4   2   1   53.04    1.19
   4   2   1   53.55    1.15
   4   2   1   55.99    1.12
   5   2   1    3.38    0.16
   5   2   1    3.41    0.14
   5   2   1    3.39    0.17
   6   2   1   17.36    0.45
   6   2   1   17.44    0.44
   6   2   1   16.70    0.47
   7   2   1    5.48    0.23
   7   2   1    5.46    0.26
   7   2   1    5.58    0.28
   8   2   1    0.17    0.12
   8   2   1    0.24    0.14
   8   2   1    0.32    0.13
   8  -3  -1    2.32    0.24
   8  -3  -1    2.66    0.23
   8  -3  -1    2.40    0.25
   7  -3  -1    9.03    0.38
   7  -3  -1    9.41    0.31
   7  -3  -1    9.38    0.29
   6  -3  -1   10.09    0.36
   6  -3  -1   10.43    0.28
   6  -3  -1   10.17    0.30
   5  -3  -1   17.63    0.50
   5  -3  -1   18.06    0.40
   4  -3  -1   43.64    0.89
   4  -3  -1   43.22    0.89
   4  -3  -1   41.56    1.00
   4  -3  -1   42.08    0.88
  -4   3   1   43.77    0.89
   3  -3  -1    3.24    0.11
   3  -3  -1    3.30    0.16
   3  -3  -1    3.29    0.11
   3  -3  -1    3.23    0.09
  -3   3   1    3.09    0.11
   2  -3  -1  210.54    4.09
   2  -3  -1  202.49    4.10
   2  -3  -1  201.67    4.33
  -2   3   1  210.14    4.09
  -2   3   1  202.59    4.33
  -2   3   1  193.82    4.03
   1  -3  -1   15.25    0.38
   1  -3  -1   15.13    0.35
   1  -3  -1   15.82    0.34
   1  -3  -1   15.40    0.35
  -1   3   1   15.57    0.35
  -1   3   1   15.57    0.38
   0  -3  -1    0.25    0.04
   0  -3  -1    0.13    0.04
   0  -3  -1    0.23    0.03
   0  -3  -1    0.12    0.03
   0   3   1    0.12    0.03
   0   3   1    0.15    0.03
   0   3   1    0.16    0.03
  -1  -3  -1  116.22    2.29
  -1  -3  -1  106.32    2.35
  -1  -3  -1  113.22    2.25
  -1  -3  -1  111.80    2.25
   1   3   1  113.46    2.25
   1   3   1  106.56    2.35
   1   3   1  108.38    2.29
  -2  -3  -1   17.31    0.39
  -2  -3  -1   17.20    0.41
  -2  -3  -1   17.57    0.39
   2   3   1   17.05    0.41
   2   3   1   17.99    0.39
   2   3   1   17.30    0.39
  -3  -3  -1   48.21    1.06
  -3  -3  -1   49.61    1.01
   3   3   1   47.79    1.06
  -4  -3  -1    7.46    0.20
  -4  -3  -1    7.58    0.24
   4   3   1    7.45    0.25
   4   3   1    7.43    0.20
  -5  -3  -1   51.44    1.04
  -5  -3  -1   52.01    1.05
   5   3   1   49.74    1.09
   5   3   1   50.64    1.05
   5   3   1   49.39    1.13
   5   3   1   49.68    1.10
   6   3   1    0.14    0.06
   6   3   1    0.28    0.10
   6   3   1    0.25    0.08
   7   3   1   11.37    0.32
   7   3   1   10.81    0.37
   7   3   1   11.29    0.40
   8   3   1    0.22    0.13
   8   3   1    0.11    0.10
   8   3   1   -0.02    0.14
   8  -4  -1    1.49    0.15
   8  -4  -1    1.64    0.23
   8  -4  -1    1.61    0.14
   7  -4  -1    0.00    0.08
   7  -4  -1   -0.02    0.14
   7  -4  -1    0.09    0.09
   6  -4  -1   28.82    0.76
   6  -4  -1   28.61    0.62
   6  -4  -1   28.07    0.65
   5  -4  -1    0.53    0.06
   5  -4  -1    0.53    0.06
   5  -4  -1    0.58    0.10
   5  -4  -1    0.51    0.07
  -5   4   1    0.56    0.06
   4  -4  -1    0.47    0.05
   4  -4  -1    0.48    0.06
   4  -4  -1    0.40    0.08
  -4   4   1    0.50    0.06
   3  -4  -1   50.40    1.18
   3  -4  -1   51.24    1.08
  -3   4   1   52.90    1.04
  -3   4   1   52.68    1.09
   2  -4  -1    2.04    0.08
   2  -4  -1    1.92    0.12
   2  -4  -1    1.94    0.10
   2  -4  -1    1.97    0.10
  -2   4   1    2.04    0.10
  -2   4   1    1.95    0.12
  -2   4   1    1.83    0.07
   1  -4  -1    4.48    0.16
   1  -4  -1    4.47    0.15
   1  -4  -1    4.57    0.15
   1  -4  -1    4.52    0.14
  -1   4   1    4.61    0.16
  -1   4   1    4.41    0.15
   0  -4  -1    0.33    0.05
   0  -4  -1    0.37    0.05
   0  -4  -1    0.68    0.07
   0  -4  -1    0.31    0.05
   0   4   1    0.37    0.05
   0   4   1    0.47    0.06
   0   4   1    0.32    0.05
  -1  -4  -1   31.17    0.69
  -1  -4  -1   31.97    0.69
  -1  -4  -1   30.96    0.68
  -1  -4  -1   31.24    0.68
   1   4   1   32.67    0.69
   1   4   1   30.43    0.69
   1   4   1   31.05    0.68
  -2  -4  -1   50.08    1.10
  -2  -4  -1   50.64    1.07
  -2  -4  -1   49.83    1.07
   2   4   1   48.68    1.10
   2   4   1   54.40    1.09
   2   4   1   51.16    1.07
  -3  -4  -1    8.08    0.25
  -3  -4  -1    7.99    0.22
  -3  -4  -1    7.76    0.22
   3   4   1    8.31    0.23
   3   4   1    8.35    0.19
   3   4   1    7.89    0.25
  -4  -4  -1   42.73    0.97
  -4  -4  -1   44.09    0.92
   4   4   1   42.66    0.98
  -5  -4  -1   -0.04    0.05
   5   4   1   -0.09    0.06
   5   4   1    0.07    0.08
  -6  -4  -1   29.80    0.64
  -6  -4  -1   30.36    0.64
   6   4   1   30.17    0.65
   6   4   1   29.19    0.71
   6   4   1   29.31    0.75
   7   4   1    5.53    0.27
   7   4   1    5.11    0.30
   8   4   1   -0.09    0.14
   8   4   1    0.07    0.13
   7  -5  -1    8.00    0.26
   7  -5  -1    7.83    0.39
   6  -5  -1    0.01    0.07
   6  -5  -1   -0.08    0.06
   6  -5  -1    0.00    0.07
   6  -5  -1   -0.01    0.11
  -6   5   1   -0.02    0.06
   5  -5  -1   17.85    0.44
   5  -5  -1   18.06    0.43
   5  -5  -1   18.26    0.53
  -5   5   1   18.22    0.43
   4  -5  -1    8.94    0.32
   4  -5  -1    9.13    0.25
   4  -5  -1    9.34    0.23
  -4   5   1    9.45    0.26
   3  -5  -1   59.70    1.25
   3  -5  -1   59.30    1.26
   3  -5  -1   57.82    1.36
   3  -5  -1   60.11    1.26
  -3   5   1   59.75    1.26
  -3   5   1   61.20    1.20
   2  -5  -1    0.26    0.05
   2  -5  -1    0.28    0.07
   2  -5  -1    0.18    0.05
   2  -5  -1    0.21    0.04
  -2   5   1    0.45    0.06
   1  -5  -1    8.73    0.26
   1  -5  -1    8.96    0.25
   1  -5  -1    8.98    0.23
   1  -5  -1    8.69    0.25
  -1   5   1    8.80    0.25
  -1   5   1    8.68    0.26
  -1   5   1    8.58    0.23
   0  -5  -1   19.77    0.47
   0  -5  -1   20.16    0.46
   0  -5  -1   19.50    0.47
   0  -5  -1   20.17    0.48
   0   5   1   20.36    0.48
   0   5   1   19.62    0.46
   0   5   1   19.91    0.47
  -1  -5  -1   39.98    0.88
  -1  -5  -1   42.29    0.90
  -1  -5  -1   40.91    0.90
  -1  -5  -1   40.10    0.88
   1   5   1   39.70    0.90
   1   5   1   42.67    0.90
   1   5   1   40.27    0.88
  -2  -5  -1   96.31    2.01
  -2  -5  -1   96.81    2.01
  -2  -5  -1   96.60    2.05
   2   5   1   95.78    2.05
   2   5   1   95.55    2.01
   2   5   1  102.25    2.07
  -3  -5  -1   10.73    0.29
  -3  -5  -1   11.07    0.29
  -3  -5  -1   10.91    0.32
   3   5   1   10.68    0.32
   3   5   1   10.79    0.29
  -4  -5  -1    8.79    0.25
  -4  -5  -1    8.76    0.25
  -4  -5  -1    9.15    0.29
   4   5   1    8.74    0.26
   4   5   1    8.75    0.29
  -5  -5  -1   55.05    1.14
   5   5   1   51.67    1.22
  -6  -5  -1    5.64    0.19
  -6  -5  -1    5.89    0.20
   6   5   1    5.52    0.21
   6   5   1    5.31    0.28
  -7  -5  -1    1.58    0.12
  -7  -5  -1    1.57    0.13
   7   5   1    1.63    0.16
   7   5   1    1.21    0.17
   7   5   1    1.55    0.15
   8   5   1    4.41    0.32
   8   5   1    4.62    0.36
   7  -6  -1    0.35    0.10
   7  -6  -1    0.13    0.09
   7  -6  -1    0.24    0.16
   6  -6  -1    5.18    0.16
   6  -6  -1    4.91    0.16
   6  -6  -1    5.04    0.20
   6  -6  -1    5.18    0.30
   6  -6  -1    4.89    0.21
  -6   6   1    4.40    0.19
   5  -6  -1   -0.05    0.05
   5  -6  -1    0.11    0.07
   5  -6  -1    0.03    0.08
   5  -6  -1   -0.01    0.08
  -5   6   1    0.08    0.07
   4  -6  -1   21.06    0.47
   4  -6  -1   20.06    0.58
   4  -6  -1   20.91    0.51
   4  -6  -1   21.49    0.51
  -4   6   1   21.29    0.45
  -4   6   1   21.60    0.51
   3  -6  -1   58.66    1.37
   3  -6  -1   59.83    1.27
   3  -6  -1   58.90    1.27
   3  -6  -1   60.16    1.25
  -3   6   1   58.65    1.27
  -3   6   1   60.04    1.20
   2  -6  -1   42.30    0.89
   2  -6  -1   41.57    0.91
   2  -6  -1   40.60    0.97
   2  -6  -1   41.80    0.91
  -2   6   1   41.81    0.91
  -2   6   1   40.55    0.86
   1  -6  -1   41.26    0.91
   1  -6  -1   41.87    0.91
   1  -6  -1   42.25    0.89
   1  -6  -1   40.53    0.95
  -1   6   1   41.11    0.91
  -1   6   1   40.53    0.89
  -1   6   1   41.05    0.95
   0  -6  -1    1.67    0.12
   0  -6  -1    1.66    0.11
   0  -6  -1    1.79    0.11
   0   6   1    1.80    0.12
   0   6   1    1.73    0.11
  -1  -6  -1  135.38    2.80
  -1  -6  -1  133.54    2.80
  -1  -6  -1  140.10    2.91
  -1  -6  -1  138.51    2.84
   1   6   1  133.51    2.84
   1   6   1  139.79    2.91
   1   6   1  132.61    2.80
  -2  -6  -1   14.79    0.39
  -2  -6  -1   15.17    0.40
  -2  -6  -1   15.08    0.39
   2   6   1   15.27    0.39
   2   6   1   15.14    0.41
   2   6   1   15.70    0.36
  -3  -6  -1    0.36    0.07
  -3  -6  -1    0.28    0.06
  -3  -6  -1    0.32    0.08
   3   6   1    0.42    0.08
   3   6   1    0.45    0.04
   3   6   1    0.27    0.07
  -4  -6  -1   60.84    1.31
  -4  -6  -1   62.96    1.32
  -4  -6  -1   61.57    1.37
   4   6   1   60.16    1.38
   4   6   1   61.70    1.32
  -5  -6  -1    2.97    0.16
  -5  -6  -1    2.71    0.16
   5   6   1    2.76    0.20
   5   6   1    2.58    0.17
  -6  -6  -1    9.27    0.28
   6   6   1    9.41    0.31
   6   6   1    9.90    0.37
  -7  -6  -1    1.03    0.10
  -7  -6  -1    1.09    0.11
   7   6   1    1.15    0.13
   7   6   1    1.00    0.14
   7   6   1    0.99    0.16
   8   6   1    6.96    0.44
   8   6   1    7.38    0.39
   7  -7  -1    4.74    0.35
   7  -7  -1    4.22    0.24
   7  -7  -1    4.10    0.24
   6  -7  -1   -0.14    0.11
   6  -7  -1    0.02    0.09
   6  -7  -1    0.11    0.11
  -6   7   1   -0.05    0.09
   5  -7  -1    0.19    0.08
   5  -7  -1    0.07    0.09
   5  -7  -1    0.18    0.09
  -5   7   1    0.09    0.07
   4  -7  -1    9.32    0.30
   4  -7  -1    9.19    0.24
   4  -7  -1    9.08    0.34
   4  -7  -1    8.86    0.28
  -4   7   1    9.18    0.29
  -4   7   1    9.50    0.22
   3  -7  -1   88.70    2.01
   3  -7  -1   84.72    1.88
   3  -7  -1   91.27    1.86
   3  -7  -1   90.45    1.89
  -3   7   1   90.68    1.89
  -3   7   1   90.70    1.81
   2  -7  -1   32.55    0.71
   2  -7  -1   31.81    0.74
   2  -7  -1   32.62    0.75
   2  -7  -1   32.13    0.79
  -2   7   1   32.00    0.74
   1  -7  -1    0.49    0.08
   1  -7  -1    0.41    0.08
   1  -7  -1    0.44    0.09
   1  -7  -1    0.39    0.06
  -1   7   1    0.38    0.07
  -1   7   1    0.35    0.07
   0  -7  -1  179.67    3.68
   0  -7  -1  180.65    3.68
   0  -7  -1  181.47    3.72
   0  -7  -1  180.58    3.85
   0   7   1  177.80    3.72
   0   7   1  178.45    3.68
  -1  -7  -1    0.35    0.08
  -1  -7  -1    0.35    0.07
  -1  -7  -1    0.32    0.07
  -1  -7  -1    0.29    0.08
   1   7   1    0.52    0.08
   1   7   1    0.41    0.08
  -2  -7  -1    7.05    0.24
  -2  -7  -1    6.75    0.21
  -2  -7  -1    6.77    0.25
  -2  -7  -1    7.18    0.25
   2   7   1    7.06    0.26
   2   7   1    7.32    0.25
  -3  -7  -1   25.12    0.61
  -3  -7  -1   26.19    0.64
  -3  -7  -1   25.23    0.62
   3   7   1   25.99    0.62
   3   7   1   25.26    0.65
  -4  -7  -1   14.52    0.41
  -4  -7  -1   14.88    0.40
  -4  -7  -1   14.94    0.43
   4   7   1   14.35    0.44
   4   7   1   14.82    0.42
  -5  -7  -1   16.42    0.43
  -5  -7  -1   14.84    0.43
   5   7   1   15.93    0.44
   5   7   1   16.16    0.48
  -6  -7  -1    0.49    0.10
  -6  -7  -1    0.31    0.11
   6   7   1    0.52    0.12
   6   7   1    0.47    0.12
  -7  -7  -1    1.68    0.14
  -7  -7  -1    1.54    0.14
   7   7   1    1.82    0.20
   7   7   1    1.31    0.16
   7   7   1    1.53    0.16
   6  -8  -1    3.04    0.23
   6  -8  -1    2.95    0.27
  -6   8   1    3.14    0.22
   5  -8  -1   16.38    0.46
   5  -8  -1   16.91    0.54
   5  -8  -1   17.11    0.47
  -5   8   1   16.87    0.46
   4  -8  -1   16.13    0.44
   4  -8  -1   16.46    0.46
   4  -8  -1   16.20    0.38
   4  -8  -1   15.71    0.50
  -4   8   1   16.46    0.44
  -4   8   1   16.66    0.37
   3  -8  -1    3.39    0.22
   3  -8  -1    3.47    0.18
   3  -8  -1    3.36    0.21
   3  -8  -1    3.28    0.15
  -3   8   1    3.21    0.14
  -3   8   1    3.25    0.17
   2  -8  -1    2.21    0.18
   2  -8  -1    1.58    0.17
   2  -8  -1    2.05    0.13
   2  -8  -1    1.80    0.14
  -2   8   1    1.73    0.15
   1  -8  -1  117.46    2.44
   1  -8  -1  116.05    2.44
   1  -8  -1  116.87    2.44
   1  -8  -1  117.39    2.56
  -1   8   1  116.89    2.44
  -1   8   1  114.92    2.44
   0  -8  -1    8.50    0.27
   0  -8  -1    8.38    0.29
   0  -8  -1    8.40    0.28
   0  -8  -1    8.41    0.29
   0   8   1    8.98    0.29
   0   8   1    8.35    0.28
  -1  -8  -1   35.58    0.84
  -1  -8  -1   35.94    0.84
  -1  -8  -1   35.79    0.83
  -1  -8  -1   36.03    0.84
   1   8   1   35.38    0.84
   1   8   1   36.45    0.84
  -2  -8  -1   13.80    0.39
  -2  -8  -1   13.69    0.40
  -2  -8  -1   13.54    0.39
  -2  -8  -1   13.28    0.35
   2   8   1   13.54    0.40
   2   8   1   13.52    0.40
  -3  -8  -1    0.47    0.11
  -3  -8  -1    0.39    0.08
  -3  -8  -1    0.48    0.10
   3   8   1    0.42    0.10
   3   8   1    0.27    0.10
  -4  -8  -1   14.11    0.42
  -4  -8  -1   13.47    0.41
  -4  -8  -1   13.86    0.39
   4   8   1   13.66    0.43
   4   8   1   13.88    0.42
  -5  -8  -1    0.20    0.11
  -5  -8  -1    0.21    0.09
   5   8   1    0.44    0.11
   5   8   1    0.26    0.12
  -6  -8  -1    3.38    0.21
  -6  -8  -1    2.52    0.25
   6   8   1    2.79    0.25
   6   8   1    3.11    0.26
  -7  -8  -1    1.90    0.16
   7   8   1    1.93    0.21
   7   8   1    1.82    0.20
   6  -9  -1    1.69    0.20
   6  -9  -1    1.16    0.18
  -6   9   1    1.44    0.16
   5  -9  -1    8.18    0.33
   5  -9  -1    7.32    0.31
   5  -9  -1    7.88    0.36
  -5   9   1    7.85    0.29
   4  -9  -1    3.42    0.14
   4  -9  -1    3.40    0.25
   4  -9  -1    3.58    0.25
   4  -9  -1    3.57    0.20
  -4   9   1    3.87    0.19
  -4   9   1    3.61    0.15
   3  -9  -1    0.79    0.14
   3  -9  -1    1.21    0.14
   3  -9  -1    1.01    0.09
   3  -9  -1    1.02    0.12
  -3   9   1    1.05    0.09
  -3   9   1    1.01    0.10
   2  -9  -1   45.56    1.00
   2  -9  -1   46.26    1.11
   2  -9  -1   45.48    1.05
   2  -9  -1   44.47    1.04
  -2   9   1   45.90    1.05
   1  -9  -1    3.18    0.18
   1  -9  -1    3.07    0.21
   1  -9  -1    3.08    0.20
   1  -9  -1    2.95    0.21
  -1   9   1    3.04    0.20
  -1   9   1    3.10    0.19
   0  -9  -1   30.79    0.75
   0  -9  -1   31.53    0.73
   0  -9  -1   31.36    0.76
   0  -9  -1   28.36    0.75
   0   9   1   31.21    0.74
   0   9   1   30.49    0.75
  -1  -9  -1    1.33    0.14
  -1  -9  -1    1.14    0.12
  -1  -9  -1    1.06    0.11
  -1  -9  -1    1.09    0.12
   1   9   1    1.20    0.13
   1   9   1    1.27    0.14
  -2  -9  -1    3.51    0.20
  -2  -9  -1    3.50    0.24
  -2  -9  -1    3.60    0.17
  -2  -9  -1    3.74    0.21
   2   9   1    3.94    0.23
   2   9   1    3.56    0.23
  -3  -9  -1   26.49    0.68
  -3  -9  -1   26.64    0.69
  -3  -9  -1   27.23    0.67
   3   9   1   26.83    0.68
   3   9   1   25.54    0.69
  -4  -9  -1    8.69    0.30
  -4  -9  -1    8.65    0.35
   4   9   1    8.72    0.35
   4   9   1    8.97    0.35
  -5  -9  -1    0.92    0.12
  -5  -9  -1    0.93    0.16
   5   9   1    0.66    0.13
   5   9   1    1.09    0.16
  -6  -9  -1    0.19    0.17
  -6  -9  -1    0.19    0.11
   6   9   1    0.15    0.16
   6   9   1    0.27    0.13
   5 -10  -1    1.75    0.19
   5 -10  -1    2.06    0.18
   5 -10  -1    1.85    0.20
  -5  10   1    1.73    0.16
   4 -10  -1    4.18    0.16
   4 -10  -1    4.00    0.29
   4 -10  -1    4.31    0.23
   4 -10  -1    4.25    0.30
  -4  10   1    3.99    0.18
  -4  10   1    4.43    0.22
   3 -10  -1    2.31    0.16
   3 -10  -1    2.10    0.19
   3 -10  -1    2.92    0.20
   3 -10  -1    2.10    0.21
  -3  10   1    2.34    0.18
  -3  10   1    2.23    0.16
   2 -10  -1    0.45    0.09
   2 -10  -1    0.61    0.14
   2 -10  -1    0.38    0.14
   2 -10  -1    0.39    0.11
  -2  10   1    0.39    0.10
   1 -10  -1    6.39    0.28
   1 -10  -1    5.98    0.29
   1 -10  -1    5.92    0.24
   1 -10  -1    6.41    0.30
  -1  10   1    5.78    0.26
  -1  10   1    6.56    0.28
   0 -10  -1    0.03    0.09
   0 -10  -1   -0.02    0.09
   0 -10  -1    0.02    0.09
   0 -10  -1   -0.01    0.11
   0  10   1    0.06    0.10
   0  10   1    0.02    0.10
  -1 -10  -1    3.45    0.22
  -1 -10  -1    2.89    0.25
  -1 -10  -1    2.94    0.20
  -1 -10  -1    2.77    0.21
   1  10   1    3.29    0.23
   1  10   1    3.38    0.24
  -2 -10  -1   25.40    0.68
  -2 -10  -1   24.82    0.62
  -2 -10  -1   25.81    0.67
  -2 -10  -1   26.20    0.67
   2  10   1   24.54    0.68
   2  10   1   25.39    0.68
  -3 -10  -1   19.23    0.57
  -3 -10  -1   19.84    0.56
  -3 -10  -1   19.60    0.54
   3  10   1   18.92    0.57
   3  10   1   19.01    0.57
  -4 -10  -1    2.82    0.23
  -4 -10  -1    2.89    0.20
   4  10   1    2.64    0.27
   4  10   1    2.34    0.21
  -5 -10  -1    0.13    0.10
  -5 -10  -1   -0.06    0.17
   5  10   1   -0.16    0.13
   5  10   1    0.25    0.16
   4 -11  -1    0.48    0.16
   4 -11  -1    1.03    0.19
  -4  11   1    0.84    0.11
  -4  11   1    0.64    0.12
   3 -11  -1    0.73    0.11
   3 -11  -1    0.60    0.17
   3 -11  -1    0.57    0.17
   3 -11  -1    0.48    0.12
  -3  11   1    0.80    0.11
  -3  11   1    0.73    0.12
   2 -11  -1   16.03    0.52
   2 -11  -1   15.75    0.50
   2 -11  -1   15.46    0.44
   2 -11  -1   15.72    0.52
  -2  11   1   15.80    0.48
  -2  11   1   15.62    0.44
   1 -11  -1    6.04    0.31
   1 -11  -1    5.69    0.32
   1 -11  -1    5.69    0.27
   1 -11  -1    5.42    0.32
  -1  11   1    5.40    0.28
   0 -11  -1    0.36    0.15
   0 -11  -1    0.22    0.13
   0 -11  -1    0.40    0.13
   0 -11  -1    0.29    0.12
   0  11   1    0.39    0.13
   0  11   1    0.46    0.13
  -1 -11  -1    1.72    0.17
  -1 -11  -1    1.72    0.18
  -1 -11  -1    1.75    0.17
  -1 -11  -1    1.69    0.20
   1  11   1    1.45    0.17
   1  11   1    1.47    0.17
  -2 -11  -1    5.92    0.29
  -2 -11  -1    5.87    0.36
  -2 -11  -1    6.12    0.31
   2  11   1    5.35    0.32
   2  11   1    4.85    0.32
  -3 -11  -1    0.70    0.13
  -3 -11  -1    0.85    0.19
   3  11   1    1.10    0.19
   3  11   1    1.05    0.17
  -4 -11  -1    2.77    0.26
  -4 -11  -1    2.31    0.22
   4  11   1    3.36    0.33
   4  11   1    2.98    0.30
   2 -12  -1    3.84    0.34
   2 -12  -1    3.33    0.28
   2 -12  -1    2.90    0.30
  -2  12   1    3.61    0.26
  -2  12   1    3.58    0.27
   1 -12  -1    1.10    0.20
   1 -12  -1    0.70    0.17
   1 -12  -1    1.01    0.15
   1 -12  -1    1.06    0.19
  -1  12   1    0.82    0.16
   0 -12  -1    0.53    0.16
   0 -12  -1    0.70    0.17
   0 -12  -1    0.52    0.18
   0 -12  -1    0.65    0.15
   0  12   1    0.62    0.16
   0  12   1    0.14    0.15
  -1 -12  -1   17.22    0.56
  -1 -12  -1   17.23    0.59
  -1 -12  -1   16.47    0.52
  -1 -12  -1   16.93    0.54
   1  12   1   16.14    0.56
   1  12   1   17.57    0.55
  -2 -12  -1    1.49    0.23
  -2 -12  -1    1.06    0.17
   2  12   1    1.54    0.21
   2  12   1    1.59    0.21
  -3 -12  -1    5.94    0.33
  -3 -12  -1    6.33    0.47
   3  12   1    8.06    0.43
   3  12   1    6.80    0.42
   2  11  -2    0.18    0.16
   2  11  -2    0.24    0.18
  -2 -11   2    0.20    0.11
  -2 -11   2    0.42    0.20
  -2 -11   2    0.37    0.13
   1  11  -2    2.86    0.30
   1  11  -2    3.24    0.29
  -1 -11   2    3.27    0.33
  -1 -11   2    2.96    0.24
  -1 -11   2    2.88    0.27
   0  11  -2   14.94    0.51
   0  11  -2   14.47    0.48
   0 -11   2   14.43    0.50
   0 -11   2   14.45    0.47
   0 -11   2   15.44    0.53
  -1  11  -2    0.17    0.13
  -1  11  -2    0.06    0.13
   1 -11   2    0.09    0.14
   1 -11   2    0.05    0.15
   1 -11   2    0.12    0.15
  -2  11  -2    7.31    0.33
  -2  11  -2    6.40    0.28
  -2  11  -2    7.00    0.33
   2 -11   2    6.56    0.34
   2 -11   2    6.47    0.35
   2 -11   2    6.49    0.37
  -3  11  -2   11.26    0.42
  -3  11  -2   11.51    0.42
   3 -11   2   12.19    0.48
   3 -11   2   11.18    0.47
   3 -11   2   11.78    0.43
   4  10  -2   12.02    0.49
   4  10  -2   13.35    0.50
  -4 -10   2   12.78    0.41
  -4 -10   2   12.59    0.52
   3  10  -2   -0.02    0.16
   3  10  -2   -0.03    0.14
  -3 -10   2    0.26    0.10
  -3 -10   2    0.13    0.17
   2  10  -2   -0.03    0.14
   2  10  -2    0.20    0.14
  -2 -10   2    0.02    0.09
  -2 -10   2    0.09    0.15
  -2 -10   2    0.01    0.10
   1  10  -2    3.46    0.28
   1  10  -2    3.09    0.26
  -1 -10   2    3.50    0.25
  -1 -10   2    3.74    0.22
  -1 -10   2    3.43    0.29
   0  10  -2    0.88    0.14
   0  10  -2    0.55    0.13
   0 -10   2    0.77    0.15
   0 -10   2    0.66    0.14
   0 -10   2    0.72    0.13
  -1  10  -2   32.95    0.79
  -1  10  -2   34.19    0.84
   1 -10   2   31.78    0.84
   1 -10   2   33.53    0.85
   1 -10   2   34.12    0.85
  -2  10  -2    5.26    0.27
  -2  10  -2    5.09    0.23
  -2  10  -2    4.57    0.27
   2 -10   2    5.08    0.30
   2 -10   2    5.10    0.27
   2 -10   2    5.33    0.31
  -3  10  -2   10.55    0.37
  -3  10  -2   11.54    0.38
   3 -10   2   10.72    0.42
   3 -10   2   10.94    0.43
   3 -10   2   10.67    0.38
  -4  10  -2   14.17    0.45
  -4  10  -2   14.79    0.45
   4 -10   2   14.65    0.46
   4 -10   2   15.20    0.51
   4 -10   2   14.98    0.53
  -5  10  -2    3.02    0.23
   5 -10   2    3.33    0.33
   5 -10   2    2.60    0.24
   5   9  -2   12.99    0.48
   5   9  -2   12.53    0.48
  -5  -9   2   11.99    0.49
  -5  -9   2   11.97    0.40
   4   9  -2    1.03    0.16
   4   9  -2    0.65    0.16
  -4  -9   2    0.81    0.18
  -4  -9   2    0.98    0.11
   3   9  -2   10.03    0.39
   3   9  -2   10.23    0.39
  -3  -9   2   10.25    0.34
  -3  -9   2    9.79    0.40
   2   9  -2    2.84    0.24
   2   9  -2    2.14    0.20
   2   9  -2    2.37    0.23
  -2  -9   2    2.31    0.18
  -2  -9   2    2.15    0.14
  -2  -9   2    1.90    0.18
   1   9  -2    0.30    0.11
   1   9  -2    0.18    0.11
   1   9  -2    0.33    0.11
  -1  -9   2    0.25    0.12
  -1  -9   2    0.40    0.10
  -1  -9   2    0.25    0.09
   0   9  -2    5.18    0.24
   0   9  -2    4.90    0.26
   0   9  -2    4.98    0.28
   0  -9   2    4.96    0.23
   0  -9   2    4.77    0.27
   0  -9   2    5.24    0.26
  -1   9  -2   -0.02    0.11
  -1   9  -2    0.20    0.10
  -1   9  -2    0.30    0.09
   1  -9   2    0.19    0.10
   1  -9   2    0.12    0.11
   1  -9   2    0.21    0.10
  -2   9  -2    6.76    0.27
  -2   9  -2    6.74    0.24
  -2   9  -2    6.59    0.31
  -2   9  -2    6.92    0.28
   2  -9   2    6.84    0.30
   2  -9   2    6.45    0.28
   2  -9   2    6.34    0.30
  -3   9  -2   36.99    0.86
  -3   9  -2   38.26    0.90
   3  -9   2   37.49    0.96
   3  -9   2   37.59    0.91
   3  -9   2   37.80    0.90
  -4   9  -2   32.21    0.78
  -4   9  -2   30.28    0.74
   4  -9   2   32.01    0.85
   4  -9   2   31.53    0.78
   4  -9   2   31.76    0.80
  -5   9  -2    2.40    0.22
  -5   9  -2    2.29    0.19
   5  -9   2    2.55    0.27
   5  -9   2    2.56    0.27
   5  -9   2    2.30    0.20
  -6   9  -2   -0.17    0.12
   6  -9   2   -0.26    0.14
   6   8  -2    4.61    0.33
   6   8  -2    4.32    0.32
  -6  -8   2    3.85    0.25
  -6  -8   2    4.52    0.33
   5   8  -2   -0.16    0.12
   5   8  -2    0.01    0.13
  -5  -8   2    0.21    0.15
  -5  -8   2   -0.06    0.09
   4   8  -2   27.74    0.71
   4   8  -2   27.06    0.73
  -4  -8   2   27.16    0.70
  -4  -8   2   27.50    0.68
   3   8  -2    0.03    0.08
   3   8  -2    0.01    0.11
   3   8  -2    0.18    0.11
  -3  -8   2   -0.04    0.11
  -3  -8   2    0.02    0.07
   2   8  -2    3.46    0.22
   2   8  -2    3.64    0.23
   2   8  -2    3.27    0.19
  -2  -8   2    3.61    0.23
  -2  -8   2    3.24    0.14
  -2  -8   2    3.08    0.18
   1   8  -2   17.30    0.49
   1   8  -2   17.75    0.50
   1   8  -2   17.87    0.50
  -1  -8   2   17.49    0.45
  -1  -8   2   18.04    0.49
  -1  -8   2   18.27    0.50
   0   8  -2    1.75    0.18
   0   8  -2    1.91    0.18
   0   8  -2    1.95    0.17
   0  -8   2    1.73    0.15
   0  -8   2    1.72    0.17
   0  -8   2    1.52    0.14
  -1   8  -2    0.20    0.07
  -1   8  -2    0.16    0.09
  -1   8  -2    0.09    0.08
   1  -8   2    0.01    0.08
   1  -8   2    0.00    0.08
   1  -8   2    0.14    0.09
  -2   8  -2    7.59    0.30
  -2   8  -2    7.32    0.26
  -2   8  -2    7.53    0.28
  -2   8  -2    7.21    0.23
   2  -8   2    7.25    0.29
   2  -8   2    7.27    0.27
   2  -8   2    7.10    0.29
  -3   8  -2   41.70    0.99
  -3   8  -2   41.49    0.94
  -3   8  -2   43.10    0.98
   3  -8   2   42.67    0.98
   3  -8   2   43.62    0.99
   3  -8   2   42.49    1.04
  -4   8  -2    1.02    0.12
  -4   8  -2    1.08    0.11
   4  -8   2    1.02    0.11
   4  -8   2    1.05    0.14
   4  -8   2    0.94    0.15
  -5   8  -2    0.04    0.09
  -5   8  -2   -0.02    0.08
   5  -8   2   -0.10    0.11
   5  -8   2    0.14    0.08
   5  -8   2    0.00    0.11
  -6   8  -2   13.27    0.39
  -6   8  -2   13.17    0.41
   6  -8   2   13.27    0.42
   6  -8   2   13.03    0.42
   6  -8   2   13.64    0.48
   6   7  -2    0.26    0.13
   6   7  -2    0.32    0.12
  -6  -7   2    0.13    0.14
  -6  -7   2    0.14    0.10
   5   7  -2    5.48    0.28
   5   7  -2    5.36    0.28
  -5  -7   2    5.16    0.23
  -5  -7   2    5.37    0.27
   4   7  -2    2.17    0.20
   4   7  -2    2.40    0.20
  -4  -7   2    2.09    0.21
  -4  -7   2    1.97    0.15
   3   7  -2    9.07    0.30
   3   7  -2    9.08    0.32
   3   7  -2    9.43    0.33
  -3  -7   2    9.09    0.32
  -3  -7   2    9.23    0.30
   2   7  -2   45.55    1.04
   2   7  -2   45.70    1.06
   2   7  -2   45.77    1.04
  -2  -7   2   45.33    1.00
  -2  -7   2   47.16    1.04
  -2  -7   2   46.26    1.04
   1   7  -2   78.98    1.73
   1   7  -2   79.22    1.72
   1   7  -2   81.85    1.72
  -1  -7   2   80.28    1.72
  -1  -7   2   80.58    1.75
  -1  -7   2   80.41    1.72
   0   7  -2    1.68    0.15
   0   7  -2    1.69    0.14
   0   7  -2    1.51    0.15
   0  -7   2    1.62    0.16
   0  -7   2    1.63    0.15
   0  -7   2    1.63    0.14
  -1   7  -2    2.62    0.18
  -1   7  -2    2.45    0.14
  -1   7  -2    2.84    0.17
   1  -7   2    2.46    0.17
   1  -7   2    2.58    0.17
   1  -7   2    2.54    0.16
  -2   7  -2    0.74    0.09
  -2   7  -2    0.80    0.10
  -2   7  -2    0.87    0.08
  -2   7  -2    0.92    0.11
   2  -7   2    0.81    0.10
   2  -7   2    0.79    0.10
   2  -7   2    0.70    0.10
  -3   7  -2    0.47    0.10
  -3   7  -2    0.35    0.07
  -3   7  -2    0.47    0.08
   3  -7   2    0.40    0.10
   3  -7   2    0.48    0.08
   3  -7   2    0.32    0.09
  -4   7  -2    3.27    0.21
  -4   7  -2    3.68    0.18
  -4   7  -2    2.91    0.16
   4  -7   2    3.40    0.21
   4  -7   2    3.71    0.20
   4  -7   2    3.52    0.17
  -5   7  -2   19.88    0.49
  -5   7  -2   20.44    0.52
   5  -7   2   19.77    0.59
   5  -7   2   19.83    0.52
   5  -7   2   20.29    0.52
  -6   7  -2    1.29    0.12
   6  -7   2    1.98    0.19
   6  -7   2    1.48    0.14
   6  -7   2    1.33    0.16
  -7   7  -2    9.80    0.34
   7  -7   2   10.09    0.35
   7  -7   2    9.53    0.35
   7  -7   2   10.70    0.44
   7   6  -2    0.44    0.17
  -7  -6   2    0.14    0.11
  -7  -6   2    0.07    0.10
   6   6  -2   15.27    0.49
  -6  -6   2   14.25    0.39
   5   6  -2    1.14    0.14
   5   6  -2    1.20    0.13
  -5  -6   2    1.42    0.13
  -5  -6   2    1.31    0.13
   4   6  -2   13.27    0.38
   4   6  -2   13.55    0.41
   4   6  -2   12.52    0.36
  -4  -6   2   12.98    0.36
  -4  -6   2   12.41    0.38
   3   6  -2    6.89    0.25
   3   6  -2    5.92    0.22
   3   6  -2    6.35    0.26
  -3  -6   2    6.28    0.22
  -3  -6   2    6.37    0.25
   2   6  -2   75.30    1.62
   2   6  -2   74.70    1.65
   2   6  -2   76.45    1.62
  -2  -6   2   75.87    1.62
  -2  -6   2   77.93    1.62
   1   6  -2    0.48    0.08
   1   6  -2    0.39    0.07
   1   6  -2    0.38    0.08
  -1  -6   2    0.56    0.07
  -1  -6   2    0.44    0.08
  -1  -6   2    0.45    0.07
   0   6  -2   11.88    0.34
   0   6  -2   11.80    0.34
   0   6  -2   11.61    0.32
   0  -6   2   12.14    0.34
   0  -6   2   12.62    0.33
   0  -6   2   11.82    0.34
  -1   6  -2   71.53    1.53
  -1   6  -2   71.49    1.54
  -1   6  -2   71.83    1.52
   1  -6   2   72.99    1.54
   1  -6   2   72.46    1.54
   1  -6   2   70.94    1.59
  -2   6  -2    3.02    0.12
  -2   6  -2    3.11    0.15
  -2   6  -2    3.10    0.16
  -2   6  -2    3.40    0.17
   2  -6   2    3.15    0.16
   2  -6   2    3.35    0.17
   2  -6   2    3.50    0.17
  -3   6  -2   13.83    0.36
  -3   6  -2   14.02    0.38
  -3   6  -2   14.49    0.39
   3  -6   2   13.59    0.38
   3  -6   2   14.19    0.38
   3  -6   2   13.92    0.41
  -4   6  -2    4.17    0.17
  -4   6  -2    3.91    0.20
  -4   6  -2    4.13    0.18
   4  -6   2    4.06    0.17
   4  -6   2    4.10    0.21
   4  -6   2    3.84    0.19
  -5   6  -2    0.35    0.07
  -5   6  -2    0.42    0.08
   5  -6   2    0.39    0.08
   5  -6   2    0.35    0.09
   5  -6   2    0.13    0.09
  -6   6  -2    6.98    0.25
   6  -6   2    7.41    0.32
   6  -6   2    7.26    0.26
  -7   6  -2    0.28    0.11
   7  -6   2    0.29    0.14
   7  -6   2    0.14    0.10
   7  -6   2    0.23    0.11
   7   5  -2   11.91    0.47
  -7  -5   2   11.27    0.31
  -7  -5   2   11.38    0.31
   6   5  -2    2.44    0.24
  -6  -5   2    2.15    0.17
  -6  -5   2    1.99    0.14
   5   5  -2    5.46    0.26
  -5  -5   2    5.47    0.20
   4   5  -2    3.03    0.16
   4   5  -2    3.57    0.18
   4   5  -2    3.50    0.20
  -4  -5   2    3.57    0.16
  -4  -5   2    3.44    0.18
   3   5  -2   74.29    1.52
   3   5  -2   72.30    1.57
   3   5  -2   70.20    1.52
  -3  -5   2   70.25    1.51
  -3  -5   2   70.77    1.51
   2   5  -2   19.55    0.49
   2   5  -2   18.86    0.47
   2   5  -2   19.38    0.48
  -2  -5   2   19.00    0.47
  -2  -5   2   18.98    0.47
   1   5  -2   51.99    1.15
   1   5  -2   51.99    1.13
   1   5  -2   52.55    1.14
  -1  -5   2   51.90    1.13
  -1  -5   2   54.19    1.14
  -1  -5   2   52.24    1.13
   0   5  -2   27.19    0.64
   0   5  -2   27.50    0.64
   0   5  -2   27.06    0.63
   0  -5   2   27.64    0.64
   0  -5   2   28.26    0.64
   0  -5   2   28.25    0.64
  -1   5  -2    0.14    0.05
  -1   5  -2    0.19    0.06
  -1   5  -2    0.14    0.06
   1  -5   2    0.11    0.06
   1  -5   2    0.06    0.05
   1  -5   2    0.12    0.06
  -2   5  -2   58.74    1.26
  -2   5  -2   59.74    1.29
  -2   5  -2   60.86    1.26
  -2   5  -2   61.37    1.29
   2  -5   2   60.99    1.36
   2  -5   2   60.56    1.29
   2  -5   2   60.84    1.29
  -3   5  -2    0.13    0.05
  -3   5  -2    0.21    0.06
  -3   5  -2    0.11    0.06
   3  -5   2    0.13    0.06
   3  -5   2    0.10    0.05
   3  -5   2    0.15    0.07
  -4   5  -2   42.43    0.91
  -4   5  -2   42.05    0.93
  -4   5  -2   42.32    0.93
   4  -5   2   41.90    0.93
   4  -5   2   42.16    1.02
   4  -5   2   43.04    0.93
  -5   5  -2    8.21    0.24
  -5   5  -2    7.02    0.25
  -5   5  -2    7.94    0.24
   5  -5   2    8.05    0.25
   5  -5   2    7.29    0.24
   5  -5   2    7.87    0.30
  -6   5  -2   30.32    0.69
   6  -5   2   30.76    0.69
   6  -5   2   30.00    0.80
   6  -5   2   30.16    0.69
   7  -5   2    0.48    0.14
   7  -5   2    0.64    0.10
   7  -5   2    0.71    0.10
   8  -5   2    1.50    0.22
   7   4  -2    0.06    0.14
   6   4  -2    8.48    0.36
  -6  -4   2    8.52    0.24
  -6  -4   2    8.78    0.25
   5   4  -2   19.76    0.55
  -5  -4   2   19.93    0.46
   4   4  -2   17.10    0.41
   4   4  -2   16.74    0.41
   4   4  -2   17.67    0.47
  -4  -4   2   16.61    0.40
  -4  -4   2   16.19    0.41
   3   4  -2    2.03    0.12
   3   4  -2    2.12    0.11
   3   4  -2    2.11    0.14
  -3  -4   2    1.91    0.13
  -3  -4   2    1.95    0.11
   2   4  -2   60.95    1.33
   2   4  -2   61.28    1.30
   2   4  -2   62.95    1.30
  -2  -4   2   60.95    1.29
  -2  -4   2   60.32    1.29
   1   4  -2    9.40    0.27
   1   4  -2    9.85    0.27
   1   4  -2    9.49    0.26
  -1  -4   2    8.98    0.26
  -1  -4   2    9.28    0.26
   0   4  -2    6.70    0.20
   0  -4   2    6.35    0.20
   0  -4   2    6.61    0.21
  -1   4  -2  194.62    3.92
  -1   4  -2  196.01    3.96
  -1   4  -2  188.97    3.92
   1  -4   2  193.36    3.92
   1  -4   2  193.86    3.92
  -2   4  -2    4.90    0.13
  -2   4  -2    5.16    0.16
  -2   4  -2    4.83    0.17
  -2   4  -2    4.79    0.17
   2  -4   2    4.89    0.17
   2  -4   2    4.78    0.17
  -3   4  -2   48.09    0.99
  -3   4  -2   46.92    1.00
  -3   4  -2   45.98    1.00
   3  -4   2   46.51    1.00
   3  -4   2   46.75    1.01
  -4   4  -2   25.56    0.59
  -4   4  -2   26.15    0.58
  -4   4  -2   26.20    0.59
   4  -4   2   26.25    0.59
   4  -4   2   24.96    0.66
   4  -4   2   26.40    0.59
  -5   4  -2   42.03    0.90
   5  -4   2   42.44    0.91
   5  -4   2   42.19    0.91
   5  -4   2   41.28    1.02
   5  -4   2   42.74    0.91
  -6   4  -2    1.08    0.10
   6  -4   2    1.15    0.11
   6  -4   2    1.11    0.12
   6  -4   2    1.31    0.12
   6  -4   2    1.10    0.14
   7  -4   2    3.21    0.20
   7  -4   2    3.01    0.25
   7  -4   2    2.87    0.14
   7  -4   2    2.96    0.15
   8  -4   2    2.81    0.24
   8  -4   2    2.53    0.25
   8   3  -2    1.63    0.24
   8   3  -2    1.97    0.21
   7   3  -2    0.22    0.15
   6   3  -2   17.72    0.53
   5   3  -2    0.25    0.09
  -5  -3   2    0.36    0.06
  -5  -3   2    0.30    0.06
   4   3  -2    1.34    0.10
   4   3  -2    1.58    0.14
  -4  -3   2    1.27    0.09
   3   3  -2    7.93    0.22
   3   3  -2    7.84    0.22
   3   3  -2    7.92    0.26
  -3  -3   2    7.72    0.22
  -3  -3   2    7.78    0.21
   2   3  -2    3.62    0.14
   2   3  -2    3.57    0.15
   2   3  -2    3.47    0.13
  -2  -3   2    3.74    0.13
  -2  -3   2    3.58    0.14
   1   3  -2   11.35    0.29
   1   3  -2   11.31    0.29
   1   3  -2   11.74    0.29
  -1  -3   2   11.44    0.29
  -1  -3   2   11.05    0.29
   0   3  -2   33.54    0.72
   0   3  -2   33.37    0.72
   0  -3   2   33.10    0.72
   0  -3   2   33.04    0.72
  -1   3  -2   37.78    0.81
  -1   3  -2   38.63    0.79
  -1   3  -2   36.36    0.80
   1  -3   2   37.50    0.80
   1  -3   2   37.24    0.80
  -2   3  -2  167.91    3.40
  -2   3  -2  165.01    3.40
  -2   3  -2  171.85    3.37
   2  -3   2  168.23    3.40
   2  -3   2  167.87    3.40
  -3   3  -2    1.80    0.10
  -3   3  -2    1.91    0.10
  -3   3  -2    1.98    0.11
   3  -3   2    2.30    0.10
   3  -3   2    2.13    0.10
   3  -3   2    1.89    0.10
  -4   3  -2  125.12    2.52
   4  -3   2  122.17    2.52
   4  -3   2  127.27    2.54
  -5   3  -2    0.49    0.06
  -5   3  -2    0.39    0.07
   5  -3   2    0.40    0.09
   5  -3   2    0.47    0.06
   5  -3   2    0.57    0.06
   5  -3   2    0.51    0.07
  -6   3  -2    4.95    0.19
   6  -3   2    4.93    0.16
   6  -3   2    4.75    0.25
   6  -3   2    5.21    0.20
   6  -3   2    5.08    0.16
   7  -3   2    0.60    0.14
   7  -3   2    0.79    0.07
   7  -3   2    0.82    0.11
   8  -3   2    3.64    0.16
   8  -3   2    3.91    0.26
   8  -3   2    3.50    0.32
   8   2  -2    2.65    0.23
   8   2  -2    2.62    0.26
   7   2  -2   12.04    0.34
   7   2  -2   12.55    0.45
   7   2  -2   12.21    0.40
   6   2  -2    4.42    0.18
   6   2  -2    4.83    0.26
   5   2  -2   15.62    0.38
   5   2  -2   15.98    0.46
  -5  -2   2   16.47    0.35
   4   2  -2  106.40    2.11
   4   2  -2  101.00    2.21
  -4  -2   2  104.02    2.10
  -4  -2   2  103.70    2.11
   3   2  -2  119.88    2.40
   3   2  -2  115.91    2.48
  -3  -2   2  118.85    2.39
   2   2  -2    2.48    0.10
   2   2  -2    3.14    0.11
  -2  -2   2    2.79    0.11
  -2  -2   2    2.54    0.08
  -2  -2   2    2.38    0.10
   1   2  -2    4.78    0.14
   1   2  -2    5.12    0.15
  -1  -2   2    4.82    0.15
  -1  -2   2    4.93    0.14
   0   2  -2  101.33    2.08
   0   2  -2  106.65    2.09
   0  -2   2   98.91    2.08
   0  -2   2  103.60    2.08
  -1   2  -2  289.39    6.01
  -1   2  -2  299.09    5.95
  -1   2  -2  291.69    6.03
   1  -2   2  295.76    6.00
   1  -2   2  298.75    5.96
  -2   2  -2    8.23    0.21
  -2   2  -2    7.96    0.21
  -2   2  -2    8.13    0.21
   2  -2   2    8.13    0.21
   2  -2   2    7.71    0.20
   2  -2   2    8.36    0.21
  -3   2  -2  226.21    4.73
   3  -2   2  237.19    4.77
   3  -2   2  249.84    4.74
  -4   2  -2   11.02    0.28
   4  -2   2   11.59    0.27
   4  -2   2   11.39    0.25
   4  -2   2   11.10    0.27
   4  -2   2   11.16    0.29
  -5   2  -2   99.02    2.05
  -5   2  -2  100.29    2.04
   5  -2   2   98.18    2.07
   5  -2   2  104.18    2.04
   5  -2   2   98.93    2.05
   5  -2   2  102.98    2.04
   6  -2   2    2.21    0.18
   6  -2   2    2.31    0.15
   6  -2   2    2.40    0.12
   7  -2   2    1.38    0.13
   7  -2   2    1.37    0.13
   7  -2   2    1.20    0.15
   8  -2   2    8.76    0.33
   8  -2   2    9.40    0.40
   8  -2   2    8.83    0.28
   8   1  -2    3.35    0.25
   8   1  -2    3.44    0.35
   8   1  -2    3.66    0.29
   7   1  -2    0.25    0.11
   7   1  -2    0.27    0.11
   7   1  -2    0.32    0.13
   6   1  -2    0.90    0.10
   6   1  -2    0.68    0.10
   6   1  -2    0.92    0.13
   5   1  -2   76.60    1.67
   5   1  -2   77.23    1.68
   4   1  -2   19.66    0.46
   4   1  -2   19.85    0.43
   4   1  -2   19.66    0.50
  -4  -1   2   20.00    0.42
  -4  -1   2   19.85    0.42
   3   1  -2  316.89    6.26
   3   1  -2  307.63    6.56
  -3  -1   2  305.51    6.57
  -3  -1   2  316.56    6.23
   2   1  -2   49.05    1.02
  -2  -1   2   49.53    1.02
  -2  -1   2   50.61    1.07
   1   1  -2   24.34    0.51
  -1  -1   2   23.73    0.51
  -1  -1   2   23.45    0.51
   0   1  -2   39.06    0.82
   0  -1   2   40.15    0.82
   0  -1   2   39.18    0.82
  -1   1  -2  120.47    2.46
  -1   1  -2  122.40    2.44
   1  -1   2  131.11    2.44
   1  -1   2  118.12    2.47
   1  -1   2  117.68    2.46
  -2   1  -2  303.17    6.15
  -2   1  -2  306.52    6.20
  -2   1  -2  315.33    6.12
   2  -1   2  310.14    6.14
   2  -1   2  301.18    6.08
   2  -1   2  284.07    6.15
  -3   1  -2    5.92    0.15
  -3   1  -2    5.64    0.16
   3  -1   2    5.64    0.17
   3  -1   2    5.86    0.15
   3  -1   2    5.61    0.14
   3  -1   2    5.78    0.15
  -4   1  -2  419.00    8.65
  -4   1  -2  427.54    8.61
   4  -1   2  445.31    8.64
   4  -1   2  421.81    8.61
   4  -1   2  430.41    8.81
   4  -1   2  440.86    8.63
   5  -1   2    3.47    0.10
   5  -1   2    3.63    0.14
   5  -1   2    3.78    0.15
   6  -1   2    1.39    0.12
   6  -1   2    1.77    0.17
   6  -1   2    1.51    0.14
   7  -1   2   24.85    0.59
   7  -1   2   25.06    0.61
   7  -1   2   24.94    0.67
   8  -1   2    3.43    0.27
   8  -1   2    4.34    0.26
   8  -1   2    3.77    0.22
   9  -1   2    3.17    0.34
   9  -1   2    2.33    0.21
   9  -1   2    2.31    0.19
   8   0  -2    0.04    0.17
   8   0  -2    0.20    0.15
   8   0  -2    0.21    0.14
   7   0  -2    0.57    0.12
   7   0  -2    0.78    0.14
   7   0  -2    0.65    0.13
   6   0  -2   10.95    0.37
   6   0  -2   10.99    0.32
   6   0  -2   11.52    0.34
   5   0  -2    3.23    0.16
   5   0  -2    2.95    0.18
   4   0  -2   28.63    0.66
   3   0  -2    0.20    0.03
   3   0  -2    0.22    0.05
  -3   0   2    0.16    0.03
  -3   0   2    0.18    0.03
  -3   0   2    0.21    0.05
   2   0  -2  183.50    3.65
   2   0  -2  179.36    3.85
  -2   0   2  184.44    3.85
  -2   0   2  180.72    3.64
   1   0  -2  995.53   19.97
  -1   0   2  993.34   21.03
  -1   0   2 1000.00   19.97
   0   0  -2  115.96    2.37
   0   0  -2  121.27    2.40
   0   0   2  120.32    2.39
  -1   0  -2   49.94    1.01
  -1   0  -2   50.44    1.02
   1   0   2   50.70    1.02
   1   0   2   49.25    1.01
  -2   0  -2  158.54    3.16
  -2   0  -2  158.50    3.07
   2   0   2  144.37    3.11
   2   0   2  152.58    3.07
   2   0   2  154.87    3.16
  -3   0  -2   31.28    0.66
  -3   0  -2   30.54    0.66
   3   0   2   30.80    0.64
   3   0   2   29.62    0.66
   3   0   2   31.29    0.66
  -4   0  -2    0.69    0.08
  -4   0  -2    0.65    0.05
  -4   0  -2    0.50    0.06
   4   0   2    0.57    0.06
   4   0   2    0.48    0.04
   4   0   2    0.46    0.05
   4   0   2    0.55    0.06
   5   0   2    4.27    0.17
   5   0   2    4.33    0.16
   6   0   2   83.64    1.78
   6   0   2   83.79    1.75
   7   0   2   12.70    0.38
   7   0   2   12.28    0.40
   7   0   2   13.10    0.37
   8   0   2    7.56    0.33
   8   0   2    7.59    0.32
   8   0   2    7.40    0.30
   9   0   2    0.22    0.17
   9   0   2    0.05    0.16
   9   0   2    0.18    0.14
   8  -1  -2    1.87    0.21
   8  -1  -2    2.02    0.18
   8  -1  -2    1.74    0.20
   7  -1  -2    0.53    0.11
   7  -1  -2    0.51    0.12
   7  -1  -2    0.76    0.13
   6  -1  -2    0.20    0.09
   6  -1  -2    0.16    0.09
   6  -1  -2    0.17    0.08
   5  -1  -2   33.57    0.80
   5  -1  -2   34.78    0.74
   4  -1  -2    0.32    0.05
   4  -1  -2    0.32    0.06
   3  -1  -2   44.33    1.01
   3  -1  -2   46.32    0.93
  -3   1   2   45.43    1.02
  -3   1   2   45.77    0.93
   2  -1  -2   37.18    0.84
   2  -1  -2   37.49    0.78
  -2   1   2   38.21    0.84
  -2   1   2   38.12    0.77
   1  -1  -2  247.40    5.01
   1  -1  -2  251.15    5.31
  -1   1   2  243.30    5.02
  -1   1   2  253.87    5.29
   0  -1  -2    6.57    0.16
   0  -1  -2    6.85    0.15
   0   1   2    6.83    0.16
   0   1   2    7.19    0.15
  -1  -1  -2   83.82    1.63
  -1  -1  -2   81.85    1.62
  -1  -1  -2   83.01    1.66
   1   1   2   79.63    1.62
   1   1   2   81.26    1.66
   1   1   2   74.96    1.63
  -2  -1  -2  253.24    5.19
  -2  -1  -2  256.32    5.06
   2   1   2  248.24    5.06
   2   1   2  250.89    5.21
  -3  -1  -2    9.40    0.24
   3   1   2    9.42    0.22
   3   1   2    9.24    0.24
   3   1   2    9.38    0.24
  -4  -1  -2    0.23    0.05
  -4  -1  -2    0.20    0.03
   4   1   2    0.23    0.05
   4   1   2    0.19    0.03
   4   1   2    0.22    0.05
   5   1   2    2.23    0.14
   5   1   2    2.25    0.13
   6   1   2    0.09    0.07
   6   1   2    0.09    0.07
   7   1   2    3.69    0.22
   7   1   2    3.76    0.22
   7   1   2    3.86    0.22
   8   1   2    0.03    0.12
   8   1   2   -0.03    0.12
   8   1   2    0.12    0.12
   9   1   2    5.58    0.34
   9   1   2    5.23    0.35
   9   1   2    5.44    0.34
   8  -2  -2    0.04    0.13
   8  -2  -2    0.13    0.17
   8  -2  -2    0.26    0.15
   7  -2  -2    0.40    0.12
   7  -2  -2    0.41    0.10
   7  -2  -2    0.51    0.13
   6  -2  -2   32.27    0.70
   6  -2  -2   30.43    0.75
   6  -2  -2   32.41    0.79
   5  -2  -2   14.23    0.41
   5  -2  -2   14.28    0.34
   4  -2  -2    3.37    0.10
   4  -2  -2    3.24    0.16
   4  -2  -2    3.10    0.10
   4  -2  -2    3.26    0.11
   3  -2  -2    2.83    0.09
   3  -2  -2    2.88    0.14
   3  -2  -2    2.79    0.09
  -3   2   2    2.89    0.14
  -3   2   2    2.70    0.09
   2  -2  -2  137.65    3.05
   2  -2  -2  143.98    2.88
   2  -2  -2  146.35    2.83
  -2   2   2  147.08    2.88
  -2   2   2  139.95    3.05
   1  -2  -2   10.43    0.26
   1  -2  -2   10.23    0.24
  -1   2   2   10.28    0.24
   0  -2  -2    1.72    0.06
   0  -2  -2    1.59    0.07
   0  -2  -2    1.71    0.08
   0   2   2    1.71    0.07
   0   2   2    1.68    0.06
  -1  -2  -2  150.90    3.23
   1   2   2  155.69    3.22
   1   2   2  158.50    3.29
   1   2   2  177.95    3.23
  -2  -2  -2   63.73    1.29
  -2  -2  -2   62.78    1.33
   2   2   2   62.77    1.29
   2   2   2   61.62    1.33
   2   2   2   65.11    1.30
  -3  -2  -2    5.85    0.18
   3   2   2    5.83    0.18
   3   2   2    5.87    0.18
   3   2   2    5.87    0.15
  -4  -2  -2    6.06    0.20
  -4  -2  -2    6.19    0.16
   4   2   2    6.37    0.16
   4   2   2    6.32    0.20
   4   2   2    6.22    0.21
  -5  -2  -2   33.16    0.67
  -5  -2  -2   32.01    0.74
  -5  -2  -2   31.80    0.67
   5   2   2   32.65    0.67
   5   2   2   32.13    0.75
   5   2   2   31.77    0.73
   6   2   2    1.69    0.15
   6   2   2    1.59    0.16
   7   2   2   17.35    0.49
   7   2   2   17.41    0.48
   7   2   2   16.93    0.47
   8   2   2    0.20    0.13
   8   2   2    0.24    0.12
   8   2   2    0.19    0.12
   9   2   2    0.69    0.18
   9   2   2    1.05    0.19
   9   2   2    0.96    0.18
   8  -3  -2    0.32    0.15
   8  -3  -2    0.62    0.19
   8  -3  -2    0.15    0.12
   7  -3  -2    2.38    0.22
   7  -3  -2    2.38    0.26
   7  -3  -2    2.33    0.17
   6  -3  -2    2.01    0.17
   6  -3  -2    2.43    0.21
   6  -3  -2    2.35    0.14
   5  -3  -2    9.51    0.32
   5  -3  -2    9.71    0.24
   4  -3  -2   17.19    0.37
   4  -3  -2   17.53    0.39
   4  -3  -2   17.50    0.47
   4  -3  -2   17.23    0.39
  -4   3   2   17.83    0.39
   3  -3  -2  138.27    2.76
   3  -3  -2  134.39    2.95
  -3   3   2  134.90    2.95
  -3   3   2  138.86    2.76
   2  -3  -2   13.85    0.37
   2  -3  -2   14.59    0.33
  -2   3   2   14.23    0.33
  -2   3   2   14.36    0.37
   1  -3  -2   59.75    1.24
   1  -3  -2   60.66    1.32
  -1   3   2   60.22    1.32
  -1   3   2   60.73    1.24
   0  -3  -2    1.89    0.09
   0  -3  -2    1.96    0.08
   0  -3  -2    1.78    0.08
   0   3   2    2.04    0.09
  -1  -3  -2    5.16    0.15
  -1  -3  -2    5.10    0.15
   1   3   2    5.11    0.15
   1   3   2    5.27    0.14
   1   3   2    4.90    0.15
  -2  -3  -2  215.04    4.39
  -2  -3  -2  210.43    4.29
   2   3   2  219.87    4.39
   2   3   2  209.20    4.31
  -3  -3  -2    5.03    0.17
  -3  -3  -2    4.74    0.15
   3   3   2    4.94    0.18
   3   3   2    5.03    0.17
   3   3   2    4.94    0.15
  -4  -3  -2  114.66    2.29
  -4  -3  -2  110.58    2.37
   4   3   2  112.96    2.30
   4   3   2  115.24    2.29
   4   3   2  109.20    2.37
  -5  -3  -2    0.97    0.08
  -5  -3  -2    1.05    0.08
  -5  -3  -2    0.78    0.09
   5   3   2    0.93    0.10
   5   3   2    0.89    0.09
   5   3   2    0.90    0.08
  -6  -3  -2   31.01    0.64
   6   3   2   29.78    0.71
   6   3   2   30.16    0.65
   6   3   2   30.16    0.74
   7   3   2    0.87    0.12
   7   3   2    0.94    0.11
   7   3   2    0.78    0.13
   8   3   2    0.41    0.14
   8   3   2    0.31    0.15
   8   3   2    0.29    0.11
   7  -4  -2   10.49    0.35
   7  -4  -2   10.93    0.28
   7  -4  -2   11.04    0.44
   6  -4  -2    3.24    0.24
   6  -4  -2    3.30    0.13
   5  -4  -2    2.01    0.18
   5  -4  -2    2.02    0.11
   5  -4  -2    2.31    0.12
  -5   4   2    2.17    0.11
   4  -4  -2    1.80    0.15
   4  -4  -2    1.62    0.10
   4  -4  -2    1.79    0.10
  -4   4   2    1.84    0.10
   3  -4  -2    0.09    0.04
   3  -4  -2    0.04    0.06
  -3   4   2    0.10    0.05
  -3   4   2    0.07    0.04
   2  -4  -2    0.31    0.05
   2  -4  -2    0.27    0.06
  -2   4   2    0.36    0.05
  -2   4   2    0.27    0.05
   1  -4  -2   18.36    0.41
   1  -4  -2   17.09    0.44
   1  -4  -2   17.28    0.41
  -1   4   2   17.99    0.41
  -1   4   2   17.56    0.44
   0  -4  -2   20.24    0.45
   0  -4  -2   19.49    0.45
   0  -4  -2   19.73    0.47
   0   4   2   20.11    0.45
   0   4   2   19.95    0.45
   0   4   2   19.47    0.47
  -1  -4  -2  329.22    7.23
  -1  -4  -2  344.45    7.01
  -1  -4  -2  329.96    6.90
   1   4   2  346.43    7.29
   1   4   2  343.14    6.90
   1   4   2  351.10    6.98
  -2  -4  -2  104.18    2.24
  -2  -4  -2  104.64    2.18
   2   4   2  114.86    2.28
   2   4   2  106.68    2.24
   2   4   2  104.93    2.18
  -3  -4  -2   84.28    1.75
  -3  -4  -2   85.52    1.75
  -3  -4  -2   85.35    1.81
   3   4   2   82.95    1.81
   3   4   2   87.46    1.75
  -4  -4  -2    3.89    0.14
  -4  -4  -2    4.03    0.17
  -4  -4  -2    4.13    0.14
   4   4   2    4.14    0.19
   4   4   2    4.19    0.15
  -5  -4  -2   86.39    1.74
  -5  -4  -2   83.63    1.82
   5   4   2   82.67    1.77
   5   4   2   85.37    1.74
   5   4   2   83.10    1.83
  -6  -4  -2    3.06    0.13
  -6  -4  -2    2.68    0.13
   6   4   2    3.78    0.15
   6   4   2    2.96    0.19
   6   4   2    2.73    0.21
   7   4   2    0.00    0.07
   7   4   2    0.03    0.11
   7   4   2   -0.08    0.09
   8   4   2    7.44    0.26
   8   4   2    7.82    0.34
   8   4   2    7.56    0.38
   7  -5  -2    0.34    0.11
   7  -5  -2    0.33    0.17
   6  -5  -2   17.35    0.41
   6  -5  -2   17.85    0.55
   6  -5  -2   16.72    0.41
   5  -5  -2    5.23    0.18
   5  -5  -2    5.08    0.26
   5  -5  -2    5.18    0.19
  -5   5   2    5.43    0.19
   4  -5  -2    0.51    0.07
   4  -5  -2    0.51    0.10
  -4   5   2    0.56    0.07
   3  -5  -2   33.94    0.75
   3  -5  -2   34.13    0.75
   3  -5  -2   33.73    0.83
  -3   5   2   35.35    0.75
  -3   5   2   33.80    0.82
   2  -5  -2    4.83    0.15
   2  -5  -2    4.80    0.19
   2  -5  -2    4.55    0.16
   2  -5  -2    4.65    0.16
  -2   5   2    4.70    0.16
  -2   5   2    4.61    0.18
   1  -5  -2    1.89    0.11
   1  -5  -2    2.00    0.12
   1  -5  -2    2.02    0.10
   1  -5  -2    1.92    0.11
  -1   5   2    1.92    0.11
  -1   5   2    1.85    0.10
   0  -5  -2   18.36    0.45
   0  -5  -2   18.41    0.43
   0  -5  -2   17.71    0.43
   0  -5  -2   17.92    0.43
   0   5   2   17.82    0.43
   0   5   2   17.76    0.43
   0   5   2   18.15    0.44
  -1  -5  -2   70.41    1.51
  -1  -5  -2   67.57    1.45
  -1  -5  -2   69.41    1.45
  -1  -5  -2   70.11    1.48
   1   5   2   70.61    1.51
   1   5   2   69.14    1.48
   1   5   2   69.87    1.45
  -2  -5  -2  124.79    2.55
  -2  -5  -2  120.60    2.60
  -2  -5  -2  125.15    2.55
   2   5   2  120.11    2.61
   2   5   2  126.02    2.55
   2   5   2  131.17    2.66
  -3  -5  -2    2.62    0.14
  -3  -5  -2    2.55    0.12
  -3  -5  -2    2.50    0.13
   3   5   2    2.48    0.10
   3   5   2    2.44    0.14
   3   5   2    2.51    0.13
  -4  -5  -2   85.45    1.79
  -4  -5  -2   86.96    1.86
  -4  -5  -2   86.95    1.80
   4   5   2   88.65    1.84
   4   5   2   83.65    1.86
   4   5   2   86.70    1.79
  -5  -5  -2    0.53    0.07
  -5  -5  -2    0.70    0.08
  -5  -5  -2    0.72    0.10
   5   5   2    0.71    0.09
   5   5   2    0.83    0.12
  -6  -5  -2   16.22    0.40
   6   5   2   16.04    0.45
   6   5   2   15.94    0.49
   6   5   2   16.06    0.41
  -7  -5  -2    4.47    0.17
  -7  -5  -2    4.42    0.17
   7   5   2    4.72    0.20
   7   5   2    4.10    0.28
   7   5   2    4.53    0.26
   8   5   2    0.18    0.15
   8   5   2    0.14    0.16
   7  -6  -2    1.75    0.22
   7  -6  -2    2.57    0.19
   6  -6  -2    0.97    0.11
   6  -6  -2    0.90    0.15
   6  -6  -2    0.79    0.10
  -6   6   2    0.97    0.10
   5  -6  -2    3.83    0.17
   5  -6  -2    3.85    0.24
   5  -6  -2    3.53    0.19
   5  -6  -2    3.54    0.16
  -5   6   2    3.70    0.17
   4  -6  -2   22.62    0.50
   4  -6  -2   18.62    0.51
   4  -6  -2   22.59    0.53
   4  -6  -2   22.01    0.60
  -4   6   2   22.97    0.52
   3  -6  -2   26.51    0.59
   3  -6  -2   26.48    0.61
   3  -6  -2   26.12    0.68
   3  -6  -2   26.00    0.60
  -3   6   2   26.21    0.61
   2  -6  -2   12.07    0.36
   2  -6  -2   12.38    0.33
   2  -6  -2   12.40    0.31
   2  -6  -2   11.85    0.33
  -2   6   2   12.31    0.27
  -2   6   2   12.72    0.36
  -2   6   2   12.75    0.33
   1  -6  -2   40.09    0.95
   1  -6  -2   42.09    0.90
   1  -6  -2   41.81    0.89
   1  -6  -2   40.94    0.90
  -1   6   2   40.43    0.90
  -1   6   2   40.86    0.95
   0  -6  -2   23.39    0.54
   0  -6  -2   23.88    0.57
   0  -6  -2   23.40    0.55
   0  -6  -2   23.39    0.55
   0   6   2   23.19    0.55
   0   6   2   23.69    0.57
   0   6   2   22.75    0.55
  -1  -6  -2   35.26    0.80
  -1  -6  -2   34.62    0.78
  -1  -6  -2   34.76    0.78
  -1  -6  -2   35.53    0.79
   1   6   2   34.68    0.79
   1   6   2   34.07    0.78
   1   6   2   35.11    0.79
  -2  -6  -2   25.21    0.61
  -2  -6  -2   24.94    0.59
  -2  -6  -2   26.15    0.60
   2   6   2   26.30    0.59
   2   6   2   24.99    0.59
   2   6   2   25.87    0.61
  -3  -6  -2   39.37    0.89
  -3  -6  -2   39.91    0.89
  -3  -6  -2   40.12    0.92
   3   6   2   41.07    0.89
   3   6   2   39.35    0.93
   3   6   2   41.78    0.89
  -4  -6  -2    0.08    0.05
  -4  -6  -2    0.07    0.07
  -4  -6  -2    0.09    0.07
   4   6   2    0.08    0.07
   4   6   2    0.08    0.08
   4   6   2    0.24    0.04
  -5  -6  -2   12.20    0.33
  -5  -6  -2   11.91    0.33
  -5  -6  -2   11.94    0.37
   5   6   2   12.08    0.34
   5   6   2   11.84    0.39
  -6  -6  -2    1.66    0.14
   6   6   2    1.31    0.13
   6   6   2    1.54    0.17
  -7  -6  -2    0.79    0.10
  -7  -6  -2    0.78    0.11
   7   6   2    0.56    0.14
   7   6   2    0.77    0.13
   7   6   2    0.64    0.12
  -8  -6  -2   15.63    0.39
   8   6   2   16.28    0.42
   8   6   2   16.00    0.53
   8   6   2   15.97    0.58
   6  -7  -2    3.50    0.17
   6  -7  -2    3.41    0.22
   6  -7  -2    3.65    0.28
   6  -7  -2    3.31    0.21
  -6   7   2    3.76    0.20
   5  -7  -2    6.30    0.25
   5  -7  -2    5.65    0.23
   5  -7  -2    6.09    0.30
   5  -7  -2    5.64    0.20
  -5   7   2    5.76    0.23
   4  -7  -2   19.33    0.49
   4  -7  -2   19.57    0.48
   4  -7  -2   17.05    0.54
   4  -7  -2   19.77    0.45
  -4   7   2   19.85    0.49
   3  -7  -2   10.52    0.31
   3  -7  -2   10.73    0.36
   3  -7  -2   11.08    0.29
   3  -7  -2   10.91    0.32
  -3   7   2   10.56    0.31
   2  -7  -2    0.48    0.10
   2  -7  -2    0.51    0.07
   2  -7  -2    0.52    0.08
   2  -7  -2    0.37    0.08
  -2   7   2    0.45    0.07
  -2   7   2    0.37    0.08
   1  -7  -2   48.16    1.07
   1  -7  -2   48.41    1.12
   1  -7  -2   49.06    1.07
   1  -7  -2   49.72    1.06
  -1   7   2   49.06    1.12
  -1   7   2   47.08    1.06
   0  -7  -2   10.11    0.29
   0  -7  -2   10.21    0.30
   0  -7  -2   10.06    0.30
   0  -7  -2    9.78    0.30
   0   7   2    9.94    0.29
   0   7   2    9.93    0.30
   0   7   2    9.85    0.30
  -1  -7  -2   37.19    0.84
  -1  -7  -2   38.52    0.86
  -1  -7  -2   36.93    0.84
  -1  -7  -2   37.40    0.85
   1   7   2   37.56    0.86
   1   7   2   36.41    0.85
   1   7   2   37.07    0.84
  -2  -7  -2    1.52    0.14
  -2  -7  -2    1.32    0.12
  -2  -7  -2    1.42    0.12
   2   7   2    1.43    0.13
   2   7   2    1.57    0.13
   2   7   2    1.45    0.10
  -3  -7  -2    2.97    0.16
  -3  -7  -2    3.02    0.17
  -3  -7  -2    2.81    0.18
   3   7   2    2.90    0.17
   3   7   2    3.05    0.12
   3   7   2    2.94    0.17
  -4  -7  -2   41.73    0.99
  -4  -7  -2   42.51    0.95
  -4  -7  -2   41.52    0.95
   4   7   2   44.18    0.92
   4   7   2   41.71    1.00
   4   7   2   42.84    0.96
  -5  -7  -2    0.32    0.08
  -5  -7  -2    0.23    0.09
  -5  -7  -2    0.22    0.07
   5   7   2    0.35    0.10
   5   7   2    0.15    0.09
  -6  -7  -2    0.70    0.12
  -6  -7  -2    0.64    0.10
   6   7   2    0.64    0.12
   6   7   2    0.68    0.12
  -7  -7  -2    7.10    0.27
   7   7   2    6.77    0.32
   7   7   2    7.12    0.30
   7   7   2    7.09    0.36
   6  -8  -2    2.14    0.22
   6  -8  -2    2.46    0.23
   6  -8  -2    2.19    0.18
  -6   8   2    2.12    0.20
   5  -8  -2    3.61    0.22
   5  -8  -2    4.11    0.17
   5  -8  -2    3.83    0.24
   5  -8  -2    3.88    0.26
  -5   8   2    4.21    0.21
   4  -8  -2   14.56    0.41
   4  -8  -2   15.16    0.37
   4  -8  -2   14.64    0.43
   4  -8  -2   14.30    0.48
  -4   8   2   15.04    0.41
   3  -8  -2   12.64    0.37
   3  -8  -2   13.39    0.34
   3  -8  -2   12.68    0.42
   3  -8  -2   13.08    0.39
  -3   8   2   12.24    0.37
  -3   8   2   13.49    0.29
   2  -8  -2   61.11    1.29
   2  -8  -2   59.84    1.31
   2  -8  -2   59.08    1.39
   2  -8  -2   59.33    1.31
  -2   8   2   60.13    1.31
   1  -8  -2    4.67    0.22
   1  -8  -2    4.80    0.20
   1  -8  -2    4.52    0.21
   1  -8  -2    4.99    0.23
  -1   8   2    4.79    0.21
  -1   8   2    4.81    0.21
   0  -8  -2   56.93    1.25
   0  -8  -2   57.53    1.29
   0  -8  -2   57.09    1.25
   0  -8  -2   56.31    1.24
   0   8   2   56.07    1.24
   0   8   2   56.55    1.29
   0   8   2   56.35    1.25
  -1  -8  -2    1.18    0.11
  -1  -8  -2    0.94    0.11
  -1  -8  -2    1.24    0.12
  -1  -8  -2    0.97    0.10
   1   8   2    0.96    0.10
   1   8   2    1.09    0.12
   1   8   2    1.02    0.11
  -2  -8  -2    1.81    0.17
  -2  -8  -2    1.95    0.15
  -2  -8  -2    1.84    0.15
   2   8   2    1.89    0.12
   2   8   2    1.55    0.16
   2   8   2    1.82    0.16
  -3  -8  -2   36.00    0.84
  -3  -8  -2   36.16    0.86
  -3  -8  -2   36.39    0.85
   3   8   2   36.07    0.87
   3   8   2   36.50    0.85
   3   8   2   36.17    0.82
  -4  -8  -2    9.44    0.30
  -4  -8  -2    9.84    0.33
  -4  -8  -2    9.88    0.33
   4   8   2    8.70    0.33
   4   8   2    9.62    0.33
  -5  -8  -2    0.82    0.13
  -5  -8  -2    0.73    0.10
  -5  -8  -2    0.85    0.11
   5   8   2    0.73    0.13
   5   8   2    0.88    0.13
  -6  -8  -2    9.78    0.33
  -6  -8  -2    9.77    0.35
   6   8   2   10.23    0.39
   6   8   2    9.52    0.36
  -7  -8  -2    8.88    0.32
   7   8   2    9.01    0.36
   7   8   2    8.29    0.36
   7   8   2    8.44    0.41
   5  -9  -2    4.73    0.18
   5  -9  -2    4.83    0.30
   5  -9  -2    4.57    0.29
   5  -9  -2    4.91    0.26
  -5   9   2    5.14    0.24
   4  -9  -2    1.60    0.16
   4  -9  -2    1.27    0.16
   4  -9  -2    1.45    0.16
   4  -9  -2    1.58    0.14
  -4   9   2    1.61    0.16
   3  -9  -2    1.44    0.16
   3  -9  -2    2.08    0.15
   3  -9  -2    1.79    0.16
   3  -9  -2    1.34    0.14
  -3   9   2    1.39    0.15
  -3   9   2    1.52    0.11
   2  -9  -2    5.03    0.26
   2  -9  -2    5.05    0.20
   2  -9  -2    4.77    0.22
   2  -9  -2    4.74    0.25
  -2   9   2    5.37    0.23
   1  -9  -2   60.53    1.34
   1  -9  -2   59.40    1.32
   1  -9  -2   59.26    1.40
   1  -9  -2   62.09    1.34
  -1   9   2   60.54    1.34
   0  -9  -2   -0.02    0.08
   0  -9  -2    0.01    0.08
   0  -9  -2   -0.14    0.07
   0  -9  -2    0.07    0.09
   0   9   2    0.17    0.08
   0   9   2   -0.10    0.08
  -1  -9  -2    4.23    0.21
  -1  -9  -2    4.28    0.21
  -1  -9  -2    4.30    0.22
  -1  -9  -2    4.44    0.24
   1   9   2    4.31    0.23
   1   9   2    4.35    0.23
  -2  -9  -2   47.95    1.09
  -2  -9  -2   47.83    1.09
  -2  -9  -2   47.60    1.10
   2   9   2   48.26    1.09
   2   9   2   46.69    1.10
  -3  -9  -2    2.63    0.22
  -3  -9  -2    2.52    0.17
  -3  -9  -2    2.72    0.20
   3   9   2    2.69    0.22
   3   9   2    2.90    0.22
  -4  -9  -2    1.44    0.16
  -4  -9  -2    1.35    0.14
  -4  -9  -2    1.45    0.14
   4   9   2    1.58    0.16
   4   9   2    1.22    0.14
  -5  -9  -2    4.74    0.22
  -5  -9  -2    4.26    0.28
  -5  -9  -2    4.77    0.25
   5   9   2    4.67    0.27
   5   9   2    4.34    0.29
  -6  -9  -2    7.17    0.30
  -6  -9  -2    7.48    0.36
   6   9   2    7.73    0.36
   6   9   2    7.63    0.36
   5 -10  -2    5.74    0.31
   5 -10  -2    6.53    0.35
   5 -10  -2    5.97    0.35
  -5  10   2    5.73    0.28
   4 -10  -2    2.31    0.20
   4 -10  -2    3.18    0.28
   4 -10  -2    2.76    0.26
   4 -10  -2    2.62    0.17
  -4  10   2    2.36    0.19
   3 -10  -2    0.27    0.09
   3 -10  -2    0.32    0.13
   3 -10  -2    0.30    0.13
   3 -10  -2    0.38    0.11
  -3  10   2    0.42    0.10
  -3  10   2    0.36    0.07
   2 -10  -2   20.61    0.61
   2 -10  -2   20.31    0.52
   2 -10  -2   21.44    0.57
   2 -10  -2   20.67    0.58
  -2  10   2   19.90    0.55
   1 -10  -2    2.10    0.21
   1 -10  -2    2.14    0.22
   1 -10  -2    1.96    0.20
   1 -10  -2    1.92    0.18
  -1  10   2    2.09    0.19
   0 -10  -2    1.96    0.21
   0 -10  -2    1.85    0.18
   0 -10  -2    1.68    0.16
   0 -10  -2    1.91    0.20
   0  10   2    1.75    0.16
   0  10   2    1.81    0.20
  -1 -10  -2   12.50    0.42
  -1 -10  -2   12.36    0.39
  -1 -10  -2   11.92    0.39
  -1 -10  -2   12.84    0.41
   1  10   2   12.60    0.40
   1  10   2   12.51    0.42
  -2 -10  -2    6.73    0.29
  -2 -10  -2    6.66    0.29
  -2 -10  -2    6.56    0.32
   2  10   2    6.61    0.31
   2  10   2    6.18    0.30
  -3 -10  -2    8.10    0.31
  -3 -10  -2    8.59    0.36
  -3 -10  -2    8.39    0.33
   3  10   2    8.01    0.34
   3  10   2    7.61    0.34
  -4 -10  -2    0.42    0.15
  -4 -10  -2    0.31    0.11
  -4 -10  -2    0.41    0.09
   4  10   2    0.50    0.13
   4  10   2    0.45    0.14
  -5 -10  -2    2.65    0.23
  -5 -10  -2    2.42    0.20
   5  10   2    2.86    0.30
   5  10   2    3.11    0.26
  -6 -10  -2    0.69    0.13
  -6 -10  -2    0.73    0.21
   6  10   2    0.50    0.16
   4 -11  -2    0.18    0.10
   4 -11  -2    0.40    0.17
   4 -11  -2    0.13    0.18
  -4  11   2    0.21    0.11
   3 -11  -2    6.13    0.35
   3 -11  -2    5.37    0.25
   3 -11  -2    5.19    0.27
   3 -11  -2    5.51    0.35
  -3  11   2    5.23    0.26
  -3  11   2    5.03    0.21
   2 -11  -2    5.70    0.26
   2 -11  -2    5.95    0.33
   2 -11  -2    5.68    0.29
   2 -11  -2    6.57    0.34
  -2  11   2    5.94    0.28
  -2  11   2    5.97    0.25
   1 -11  -2    6.70    0.33
   1 -11  -2    6.46    0.32
   1 -11  -2    6.60    0.28
   1 -11  -2    7.18    0.34
  -1  11   2    6.69    0.30
   0 -11  -2    0.44    0.14
   0 -11  -2    0.53    0.15
   0 -11  -2    0.68    0.14
   0 -11  -2    0.38    0.12
   0  11   2    0.49    0.13
   0  11   2    0.52    0.13
  -1 -11  -2    6.03    0.31
  -1 -11  -2    5.69    0.34
  -1 -11  -2    5.57    0.29
  -1 -11  -2    5.54    0.29
   1  11   2    5.86    0.31
   1  11   2    6.14    0.32
  -2 -11  -2    2.88    0.29
  -2 -11  -2    2.69    0.24
  -2 -11  -2    2.91    0.23
   2  11   2    2.98    0.27
   2  11   2    2.34    0.21
  -3 -11  -2    5.05    0.27
  -3 -11  -2    5.34    0.35
  -3 -11  -2    5.06    0.31
   3  11   2    5.55    0.34
   3  11   2    5.94    0.33
  -4 -11  -2    3.28    0.22
  -4 -11  -2    3.04    0.26
  -4 -11  -2    3.04    0.28
   4  11   2    3.61    0.33
   4  11   2    2.77    0.29
  -5 -11  -2    0.18    0.12
  -5 -11  -2    0.04    0.21
   5  11   2    0.24    0.17
   2 -12  -2    6.34    0.37
   2 -12  -2    4.74    0.33
   2 -12  -2    5.44    0.30
   2 -12  -2    6.31    0.39
  -2  12   2    5.40    0.27
  -2  12   2    5.47    0.30
   1 -12  -2    0.66    0.14
   1 -12  -2    0.68    0.18
   1 -12  -2    0.71    0.17
   1 -12  -2    0.53    0.17
  -1  12   2    0.78    0.15
   0 -12  -2    5.45    0.31
   0 -12  -2    5.42    0.34
   0 -12  -2    5.61    0.34
   0 -12  -2    5.87    0.38
   0  12   2    5.48    0.33
   0  12   2    5.26    0.33
  -1 -12  -2    4.52    0.31
  -1 -12  -2    4.82    0.37
  -1 -12  -2    4.86    0.32
  -1 -12  -2    4.38    0.31
   1  12   2    5.28    0.34
   1  12   2    4.84    0.34
  -2 -12  -2   14.61    0.51
  -2 -12  -2   15.69    0.52
  -2 -12  -2   15.36    0.57
   2  12   2   15.47    0.55
   2  12   2   15.46    0.53
  -3 -12  -2    0.19    0.22
  -3 -12  -2    0.42    0.17
  -3 -12  -2    0.57    0.14
   3  12   2    0.44    0.18
   3  12   2    0.43    0.19
   1  11  -3    7.27    0.40
   1  11  -3    8.03    0.41
  -1 -11   3    7.86    0.38
  -1 -11   3    8.12    0.33
  -1 -11   3    7.81    0.45
   0  11  -3    0.37    0.19
   0  11  -3    0.45    0.15
   0  11  -3    0.55    0.17
   0 -11   3    0.57    0.15
   0 -11   3    0.40    0.19
   0 -11   3    0.17    0.14
  -1  11  -3   15.14    0.47
  -1  11  -3   15.30    0.52
   1 -11   3   15.32    0.52
   1 -11   3   14.70    0.50
   1 -11   3   14.82    0.54
  -2  11  -3    0.22    0.15
  -2  11  -3    0.61    0.15
  -2  11  -3    0.39    0.13
   2 -11   3    0.14    0.17
   2 -11   3    0.44    0.17
   2 -11   3    0.38    0.17
  -3  11  -3    0.01    0.12
   3 -11   3   -0.01    0.17
   3 -11   3    0.02    0.16
   3 -11   3    0.07    0.18
   3  10  -3    5.72    0.38
   3  10  -3    4.74    0.37
  -3 -10   3    4.82    0.39
  -3 -10   3    4.92    0.25
   2  10  -3   -0.38    0.13
   2  10  -3   -0.07    0.14
   2  10  -3    0.28    0.15
  -2 -10   3    0.01    0.16
  -2 -10   3   -0.13    0.10
   1  10  -3   -0.10    0.14
   1  10  -3    0.00    0.13
   1  10  -3   -0.04    0.14
  -1 -10   3   -0.15    0.15
  -1 -10   3    0.18    0.11
  -1 -10   3   -0.06    0.11
   0  10  -3   42.46    1.04
   0  10  -3   43.04    1.05
   0  10  -3   41.86    1.01
   0 -10   3   43.45    1.04
   0 -10   3   43.40    1.04
   0 -10   3   41.32    1.01
  -1  10  -3    1.37    0.19
  -1  10  -3    1.60    0.15
  -1  10  -3    1.42    0.17
   1 -10   3    1.40    0.19
   1 -10   3    1.25    0.16
   1 -10   3    1.68    0.18
  -2  10  -3    9.94    0.32
  -2  10  -3   10.30    0.38
  -2  10  -3   10.14    0.38
  -2  10  -3   10.13    0.43
   2 -10   3    9.81    0.39
   2 -10   3    9.65    0.40
   2 -10   3    9.85    0.40
  -3  10  -3   15.71    0.49
  -3  10  -3   15.18    0.54
  -3  10  -3   16.07    0.49
   3 -10   3   15.52    0.52
   3 -10   3   16.56    0.54
   3 -10   3   15.75    0.50
  -4  10  -3   16.41    0.50
  -4  10  -3   16.66    0.51
   4 -10   3   17.08    0.51
   4 -10   3   17.79    0.56
   4 -10   3   17.94    0.59
   4   9  -3   13.56    0.49
   4   9  -3   13.71    0.49
  -4  -9   3   13.74    0.50
  -4  -9   3   12.86    0.41
   3   9  -3   -0.05    0.14
   3   9  -3   -0.07    0.10
   3   9  -3    0.17    0.13
  -3  -9   3   -0.16    0.08
  -3  -9   3    0.13    0.15
   2   9  -3    7.18    0.31
   2   9  -3    7.90    0.35
   2   9  -3    7.82    0.35
  -2  -9   3    7.47    0.36
  -2  -9   3    7.81    0.30
   1   9  -3   31.65    0.80
   1   9  -3   30.83    0.78
   1   9  -3   30.60    0.78
  -1  -9   3   31.11    0.78
  -1  -9   3   30.11    0.79
  -1  -9   3   30.11    0.73
   0   9  -3    0.86    0.13
   0   9  -3    0.91    0.14
   0   9  -3    0.99    0.14
   0  -9   3    0.68    0.13
   0  -9   3    1.04    0.14
   0  -9   3    0.93    0.12
  -1   9  -3   31.25    0.74
  -1   9  -3   31.01    0.79
  -1   9  -3   31.18    0.79
   1  -9   3   30.93    0.79
   1  -9   3   30.84    0.79
   1  -9   3   31.71    0.79
  -2   9  -3   37.13    0.91
  -2   9  -3   36.89    0.87
  -2   9  -3   36.17    0.83
  -2   9  -3   37.52    0.90
   2  -9   3   37.30    0.93
   2  -9   3   37.07    0.90
   2  -9   3   36.41    0.90
  -3   9  -3   31.95    0.82
  -3   9  -3   33.33    0.81
  -3   9  -3   31.75    0.78
   3  -9   3   32.69    0.82
   3  -9   3   32.53    0.81
   3  -9   3   33.24    0.86
  -4   9  -3    4.76    0.24
  -4   9  -3    5.03    0.33
  -4   9  -3    5.23    0.26
   4  -9   3    5.07    0.25
   4  -9   3    5.24    0.30
   4  -9   3    5.43    0.32
  -5   9  -3    0.30    0.14
  -5   9  -3    0.50    0.11
   5  -9   3    0.47    0.16
   5  -9   3    0.35    0.15
   5  -9   3    0.61    0.11
   5   8  -3   15.12    0.51
   5   8  -3   15.80    0.52
  -5  -8   3   14.64    0.45
  -5  -8   3   15.27    0.51
   4   8  -3    0.16    0.12
   4   8  -3    0.06    0.13
   4   8  -3   -0.07    0.09
  -4  -8   3   -0.04    0.08
  -4  -8   3   -0.05    0.14
   3   8  -3    0.39    0.09
   3   8  -3    0.35    0.13
   3   8  -3    0.15    0.11
  -3  -8   3    0.15    0.13
  -3  -8   3    0.07    0.07
   2   8  -3   29.10    0.73
   2   8  -3   29.97    0.75
   2   8  -3   29.93    0.75
  -2  -8   3   29.72    0.73
  -2  -8   3   28.22    0.66
  -2  -8   3   29.56    0.74
   1   8  -3    0.68    0.12
   1   8  -3    0.68    0.12
   1   8  -3    0.86    0.12
  -1  -8   3    0.70    0.12
  -1  -8   3    0.74    0.11
  -1  -8   3    0.70    0.10
   0   8  -3    0.65    0.12
   0   8  -3    0.63    0.11
   0   8  -3    0.58    0.11
   0  -8   3    0.49    0.12
   0  -8   3    0.73    0.11
   0  -8   3    0.86    0.12
  -1   8  -3   31.43    0.77
  -1   8  -3   30.93    0.72
  -1   8  -3   30.24    0.77
   1  -8   3   30.93    0.76
   1  -8   3   31.30    0.76
   1  -8   3   31.31    0.77
  -2   8  -3   32.44    0.81
  -2   8  -3   33.48    0.78
  -2   8  -3   32.69    0.74
  -2   8  -3   33.22    0.80
   2  -8   3   33.79    0.81
   2  -8   3   31.91    0.80
   2  -8   3   32.62    0.83
  -3   8  -3   20.28    0.53
  -3   8  -3   21.32    0.56
  -3   8  -3   20.78    0.57
   3  -8   3   20.75    0.55
   3  -8   3   21.33    0.60
   3  -8   3   20.94    0.56
  -4   8  -3    5.90    0.26
  -4   8  -3    5.84    0.24
  -4   8  -3    5.79    0.30
   4  -8   3    5.98    0.30
   4  -8   3    6.04    0.28
   4  -8   3    5.97    0.25
  -5   8  -3   10.50    0.35
  -5   8  -3   10.73    0.35
   5  -8   3   11.19    0.42
   5  -8   3   10.64    0.38
   5  -8   3   10.72    0.35
  -6   8  -3    1.86    0.17
   6  -8   3    1.69    0.18
   6  -8   3    2.04    0.21
   6  -8   3    1.40    0.18
   6   7  -3   11.53    0.44
  -6  -7   3   10.37    0.35
  -6  -7   3    9.83    0.40
   5   7  -3    0.42    0.14
   5   7  -3    0.46    0.13
  -5  -7   3    0.30    0.14
  -5  -7   3    0.34    0.10
   4   7  -3    0.38    0.12
   4   7  -3    0.50    0.09
   4   7  -3    0.41    0.11
  -4  -7   3    0.33    0.13
  -4  -7   3    0.38    0.08
   3   7  -3   14.46    0.46
   3   7  -3   15.80    0.46
   3   7  -3   15.56    0.43
  -3  -7   3   15.02    0.42
  -3  -7   3   15.10    0.45
   2   7  -3    3.34    0.18
   2   7  -3    3.34    0.21
   2   7  -3    3.37    0.21
  -2  -7   3    3.38    0.22
  -2  -7   3    3.44    0.13
  -2  -7   3    3.37    0.18
   1   7  -3    7.58    0.28
   1   7  -3    6.63    0.27
   1   7  -3    7.43    0.29
  -1  -7   3    7.25    0.27
  -1  -7   3    7.55    0.23
  -1  -7   3    7.48    0.29
   0   7  -3    0.03    0.07
   0   7  -3   -0.05    0.08
   0   7  -3   -0.06    0.07
   0  -7   3    0.00    0.07
   0  -7   3   -0.09    0.07
   0  -7   3   -0.16    0.08
  -1   7  -3    3.17    0.19
  -1   7  -3    3.19    0.20
  -1   7  -3    3.05    0.16
   1  -7   3    2.83    0.18
   1  -7   3    3.27    0.18
   1  -7   3    2.98    0.19
  -2   7  -3    0.15    0.07
  -2   7  -3    0.31    0.10
  -2   7  -3    0.30    0.08
  -2   7  -3    0.28    0.06
   2  -7   3    0.24    0.09
   2  -7   3    0.34    0.09
   2  -7   3    0.14    0.07
  -3   7  -3    1.67    0.14
  -3   7  -3    1.64    0.16
  -3   7  -3    1.76    0.18
   3  -7   3    1.90    0.14
   3  -7   3    1.61    0.17
   3  -7   3    1.73    0.17
  -4   7  -3    3.92    0.19
  -4   7  -3    3.73    0.23
  -4   7  -3    3.60    0.20
   4  -7   3    3.96    0.22
   4  -7   3    3.76    0.22
   4  -7   3    4.01    0.19
  -5   7  -3    4.24    0.20
  -5   7  -3    4.05    0.21
  -5   7  -3    4.31    0.24
   5  -7   3    3.83    0.25
   5  -7   3    4.46    0.23
   5  -7   3    4.18    0.20
  -6   7  -3   23.72    0.59
   6  -7   3   23.94    0.62
   6  -7   3   24.02    0.69
   6  -7   3   23.79    0.61
  -7   7  -3    0.02    0.13
   7  -7   3    0.05    0.12
   7  -7   3    0.10    0.14
   6   6  -3    1.10    0.15
  -6  -6   3    1.11    0.12
   5   6  -3    2.66    0.22
   5   6  -3    2.31    0.19
  -5  -6   3    2.68    0.16
  -5  -6   3    2.56    0.22
   4   6  -3    1.53    0.14
   4   6  -3    1.27    0.14
   4   6  -3    1.51    0.14
  -4  -6   3    1.36    0.14
  -4  -6   3    1.68    0.13
   3   6  -3   13.49    0.38
   3   6  -3   13.17    0.41
   3   6  -3   13.45    0.39
  -3  -6   3   13.59    0.38
  -3  -6   3   13.34    0.39
   2   6  -3   30.75    0.74
   2   6  -3   30.17    0.72
   2   6  -3   29.55    0.71
  -2  -6   3   29.62    0.72
  -2  -6   3   30.55    0.71
   1   6  -3    2.16    0.17
   1   6  -3    2.34    0.15
   1   6  -3    2.93    0.16
  -1  -6   3    2.45    0.12
  -1  -6   3    2.06    0.14
  -1  -6   3    2.05    0.16
   0   6  -3   22.59    0.57
   0   6  -3   22.62    0.55
   0   6  -3   22.75    0.56
   0  -6   3   22.62    0.56
   0  -6   3   22.87    0.55
   0  -6   3   22.08    0.56
  -1   6  -3    0.38    0.08
  -1   6  -3    0.47    0.08
  -1   6  -3    0.51    0.07
   1  -6   3    0.55    0.08
   1  -6   3    0.64    0.09
  -2   6  -3   40.70    0.91
  -2   6  -3   40.47    0.93
  -2   6  -3   40.99    0.93
  -2   6  -3   41.71    0.88
   2  -6   3   41.72    0.93
   2  -6   3   41.39    0.93
  -3   6  -3   22.35    0.56
  -3   6  -3   22.43    0.54
  -3   6  -3   22.72    0.56
   3  -6   3   22.71    0.60
   3  -6   3   22.50    0.56
   3  -6   3   22.27    0.56
  -4   6  -3    3.43    0.17
  -4   6  -3    3.39    0.19
  -4   6  -3    3.29    0.17
   4  -6   3    3.37    0.17
   4  -6   3    3.31    0.19
   4  -6   3    2.93    0.19
  -5   6  -3    9.52    0.29
  -5   6  -3    9.41    0.31
  -5   6  -3    9.27    0.29
   5  -6   3    8.96    0.30
   5  -6   3    9.24    0.29
   5  -6   3    9.13    0.34
  -6   6  -3    0.18    0.09
   6  -6   3    0.14    0.10
   6  -6   3    0.19    0.08
   6  -6   3    0.31    0.10
  -7   6  -3    9.39    0.33
   7  -6   3    9.05    0.31
   7  -6   3    9.77    0.40
   7  -6   3    9.11    0.32
   7   5  -3    0.85    0.18
  -7  -5   3    0.63    0.10
  -7  -5   3    0.68    0.11
   6   5  -3    6.47    0.33
  -6  -5   3    6.63    0.24
  -6  -5   3    6.60    0.26
   5   5  -3    0.86    0.12
   5   5  -3    0.62    0.09
  -5  -5   3    0.30    0.09
  -5  -5   3    0.58    0.08
   4   5  -3    7.60    0.26
   4   5  -3    7.27    0.25
   4   5  -3    7.29    0.29
  -4  -5   3    6.89    0.26
  -4  -5   3    6.97    0.23
   3   5  -3    7.60    0.26
   3   5  -3    7.35    0.27
   3   5  -3    7.15    0.24
  -3  -5   3    7.35    0.24
  -3  -5   3    7.26    0.26
   2   5  -3   55.90    1.26
   2   5  -3   55.50    1.23
   2   5  -3   57.35    1.23
  -2  -5   3   58.25    1.23
  -2  -5   3   55.85    1.22
   1   5  -3    8.85    0.27
   1   5  -3    8.70    0.27
   1   5  -3    8.87    0.27
  -1  -5   3    8.63    0.27
  -1  -5   3    8.77    0.27
   0   5  -3    0.27    0.06
   0   5  -3    0.26    0.06
   0   5  -3    0.36    0.07
   0  -5   3    0.30    0.07
   0  -5   3    0.30    0.07
  -1   5  -3   94.63    1.96
  -1   5  -3   93.21    1.97
  -1   5  -3   95.89    1.97
   1  -5   3   93.74    1.97
   1  -5   3   93.24    1.97
  -2   5  -3   10.25    0.30
  -2   5  -3    9.81    0.28
  -2   5  -3   10.09    0.25
  -2   5  -3    9.96    0.29
   2  -5   3   10.14    0.30
   2  -5   3   10.17    0.29
  -3   5  -3   46.60    1.00
  -3   5  -3   46.00    1.02
  -3   5  -3   46.70    1.02
   3  -5   3   46.40    1.02
   3  -5   3   46.33    1.02
  -4   5  -3   31.70    0.70
  -4   5  -3   30.37    0.71
  -4   5  -3   31.13    0.71
   4  -5   3   30.39    0.71
   4  -5   3   31.08    0.71
  -5   5  -3   30.96    0.70
  -5   5  -3   29.49    0.70
   5  -5   3   29.80    0.79
   5  -5   3   31.53    0.71
   5  -5   3   30.68    0.70
  -6   5  -3   10.23    0.31
   6  -5   3    9.77    0.37
   6  -5   3   10.53    0.31
  -7   5  -3    0.73    0.13
   7  -5   3    0.95    0.11
   7  -5   3    0.93    0.11
   7  -5   3    0.71    0.15
   8  -5   3    6.74    0.26
   8  -5   3    7.35    0.40
   8  -5   3    7.33    0.26
   7   4  -3    0.99    0.19
   6   4  -3    0.12    0.11
  -6  -4   3    0.01    0.07
  -6  -4   3    0.08    0.08
   5   4  -3    0.91    0.10
   5   4  -3    1.61    0.17
  -5  -4   3    0.87    0.08
   4   4  -3    7.22    0.24
   4   4  -3    7.34    0.28
  -4  -4   3    6.93    0.24
  -4  -4   3    7.36    0.22
   3   4  -3   40.55    0.90
   3   4  -3   41.03    0.94
   3   4  -3   41.88    0.90
  -3  -4   3   40.22    0.89
  -3  -4   3   40.09    0.90
   2   4  -3   11.93    0.32
   2   4  -3   11.13    0.31
   2   4  -3   11.64    0.33
  -2  -4   3   11.64    0.32
  -2  -4   3   11.77    0.31
   1   4  -3    0.12    0.06
   1   4  -3    0.10    0.05
   1   4  -3    0.12    0.05
  -1  -4   3    0.14    0.06
  -1  -4   3    0.13    0.05
   0   4  -3  133.25    2.77
   0   4  -3  136.74    2.81
   0   4  -3  135.83    2.78
   0  -4   3  134.44    2.77
   0  -4   3  136.59    2.78
  -1   4  -3    0.37    0.06
  -1   4  -3    0.33    0.05
  -1   4  -3    0.32    0.06
   1  -4   3    0.39    0.07
   1  -4   3    0.41    0.07
  -2   4  -3   99.39    2.06
  -2   4  -3  100.65    2.05
  -2   4  -3   99.28    2.06
  -2   4  -3   98.35    2.04
   2  -4   3  100.24    2.07
   2  -4   3  100.27    2.06
  -3   4  -3    1.39    0.10
  -3   4  -3    1.48    0.12
  -3   4  -3    1.44    0.10
   3  -4   3    1.60    0.11
   3  -4   3    1.37    0.10
  -4   4  -3   11.14    0.30
  -4   4  -3   10.88    0.30
   4  -4   3   10.67    0.30
   4  -4   3   10.90    0.30
  -5   4  -3   89.42    1.82
  -5   4  -3   84.29    1.83
   5  -4   3   88.50    1.82
   5  -4   3   88.68    1.82
   5  -4   3   88.46    1.83
  -6   4  -3    0.14    0.08
   6  -4   3    0.10    0.10
   6  -4   3    0.16    0.07
   6  -4   3    0.11    0.07
   6  -4   3    0.12    0.09
  -7   4  -3   12.84    0.38
   7  -4   3   13.67    0.46
   7  -4   3   12.69    0.34
   7  -4   3   12.41    0.34
   7  -4   3   13.01    0.38
   8  -4   3    5.68    0.36
   8  -4   3    5.52    0.29
   7   3  -3   11.09    0.46
   6   3  -3    1.10    0.14
  -6  -3   3    1.05    0.11
   5   3  -3    1.25    0.11
   5   3  -3    0.98    0.12
  -5  -3   3    1.10    0.12
  -5  -3   3    1.14    0.10
   4   3  -3    1.61    0.14
   4   3  -3    1.45    0.11
  -4  -3   3    1.59    0.10
   3   3  -3    0.44    0.07
   3   3  -3    0.50    0.06
  -3  -3   3    0.55    0.07
  -3  -3   3    0.53    0.06
   2   3  -3   31.47    0.69
   2   3  -3   30.50    0.69
  -2  -3   3   32.56    0.68
  -2  -3   3   30.94    0.69
  -2  -3   3   31.19    0.69
   1   3  -3   47.24    0.97
   1   3  -3   45.38    0.97
  -1  -3   3   44.68    0.97
  -1  -3   3   43.69    0.96
   0   3  -3    0.48    0.06
   0   3  -3    0.55    0.06
   0  -3   3    0.40    0.06
   0  -3   3    0.38    0.06
  -1   3  -3  379.34    7.59
  -1   3  -3  394.61    7.55
   1  -3   3  361.29    7.63
   1  -3   3  369.12    7.61
  -2   3  -3   60.89    1.30
  -2   3  -3   62.19    1.30
  -2   3  -3   62.69    1.29
   2  -3   3   60.87    1.30
   2  -3   3   62.90    1.30
  -3   3  -3    9.62    0.26
  -3   3  -3    9.06    0.25
   3  -3   3    9.42    0.25
   3  -3   3    9.71    0.25
   3  -3   3    9.27    0.26
  -4   3  -3   38.92    0.83
  -4   3  -3   37.46    0.83
   4  -3   3   38.56    0.83
   4  -3   3   38.55    0.83
   4  -3   3   38.00    0.83
  -5   3  -3   34.40    0.77
   5  -3   3   34.91    0.76
   5  -3   3   34.82    0.77
   5  -3   3   35.47    0.76
  -6   3  -3    0.17    0.08
  -6   3  -3    0.37    0.07
   6  -3   3    0.21    0.06
   6  -3   3    0.24    0.06
   6  -3   3    0.12    0.08
   6  -3   3    0.06    0.09
   7  -3   3   17.82    0.45
   7  -3   3   17.63    0.39
   7  -3   3   14.63    0.39
   7  -3   3   17.12    0.53
   8  -3   3    9.56    0.43
   8  -3   3    9.81    0.35
   7   2  -3    3.47    0.30
   6   2  -3    2.59    0.23
   5   2  -3   55.67    1.28
   5   2  -3   55.92    1.18
  -5  -2   3   57.46    1.17
   4   2  -3    0.14    0.06
   4   2  -3    0.18    0.05
  -4  -2   3    0.23    0.05
   3   2  -3    6.51    0.19
  -3  -2   3    6.55    0.18
  -3  -2   3    6.74    0.18
   2   2  -3    0.82    0.08
  -2  -2   3    0.90    0.08
  -2  -2   3    0.81    0.07
  -2  -2   3    0.78    0.06
   1   2  -3  100.52    2.01
  -1  -2   3   98.82    2.01
  -1  -2   3   95.87    2.01
   0   2  -3  409.48    8.20
   0  -2   3  400.72    8.20
   0  -2   3  399.36    8.21
  -1   2  -3   78.18    1.62
  -1   2  -3   77.90    1.63
   1  -2   3   79.81    1.63
   1  -2   3   81.64    1.63
  -2   2  -3  275.96    5.37
  -2   2  -3  264.80    5.41
   2  -2   3  271.70    5.42
   2  -2   3  273.62    5.37
   2  -2   3  261.62    5.45
  -3   2  -3   47.27    1.00
  -3   2  -3   47.17    1.00
   3  -2   3   48.47    1.00
   3  -2   3   47.48    1.00
   3  -2   3   48.25    1.00
  -4   2  -3   55.53    1.17
   4  -2   3   56.92    1.16
   4  -2   3   54.93    1.17
  -5   2  -3    0.14    0.06
   5  -2   3    0.21    0.06
   5  -2   3    0.20    0.05
   5  -2   3    0.15    0.05
  -6   2  -3   18.41    0.46
  -6   2  -3   18.65    0.41
   6  -2   3   18.42    0.42
   6  -2   3   18.43    0.46
   6  -2   3   18.06    0.41
   6  -2   3   18.28    0.41
   7  -2   3   16.46    0.51
   7  -2   3   16.66    0.40
   7  -2   3   17.18    0.45
   8  -2   3    0.33    0.13
   8  -2   3    0.24    0.14
   8  -2   3    0.14    0.08
   9  -2   3    0.84    0.17
   9  -2   3    0.59    0.21
   9  -2   3    0.71    0.12
   7   1  -3    3.00    0.21
   7   1  -3    3.52    0.28
   7   1  -3    3.33    0.24
   6   1  -3    2.51    0.22
   6   1  -3    2.60    0.17
   5   1  -3    0.11    0.07
   5   1  -3    0.07    0.05
   5   1  -3    0.05    0.08
   4   1  -3   35.49    0.74
   4   1  -3   33.96    0.78
  -4  -1   3   34.33    0.73
  -4  -1   3   34.69    0.73
   3   1  -3    4.57    0.14
  -3  -1   3    4.66    0.15
  -3  -1   3    4.55    0.14
   2   1  -3    1.58    0.08
  -2  -1   3    1.43    0.08
  -2  -1   3    1.31    0.08
  -2  -1   3    1.32    0.08
   1   1  -3  270.75    5.39
  -1  -1   3  271.54    5.44
  -1  -1   3  264.27    5.44
   0   1  -3   34.22    0.71
   0  -1   3   32.29    0.71
   0  -1   3   33.63    0.71
  -1   1  -3   -0.02    0.04
  -1   1  -3    0.15    0.04
   1  -1   3   -0.03    0.04
  -2   1  -3  199.83    4.22
  -2   1  -3  201.34    4.24
   2  -1   3  229.18    4.25
   2  -1   3  224.70    4.21
   2  -1   3  200.39    4.25
  -3   1  -3  169.83    3.37
  -3   1  -3  164.35    3.43
  -3   1  -3  168.18    3.38
   3  -1   3  169.00    3.38
   3  -1   3  171.13    3.38
   3  -1   3  165.12    3.37
  -4   1  -3    4.01    0.12
  -4   1  -3    4.01    0.15
   4  -1   3    4.03    0.15
   4  -1   3    3.95    0.13
   4  -1   3    4.25    0.13
   4  -1   3    3.95    0.12
  -5   1  -3    5.66    0.20
  -5   1  -3    5.86    0.16
   5  -1   3    6.03    0.17
   5  -1   3    5.76    0.16
   5  -1   3    5.97    0.17
   5  -1   3    5.82    0.20
   6  -1   3   25.15    0.53
   6  -1   3   24.98    0.56
   6  -1   3   24.65    0.59
   6  -1   3   24.68    0.53
   7  -1   3    2.26    0.21
   7  -1   3    1.79    0.14
   7  -1   3    1.77    0.19
   8  -1   3   10.13    0.40
   8  -1   3   10.13    0.31
   8  -1   3   10.26    0.36
   9  -1   3    0.18    0.16
   9  -1   3    0.30    0.12
   9  -1   3    0.27    0.18
   8   0  -3    1.47    0.23
   8   0  -3    1.48    0.18
   8   0  -3    1.78    0.19
   7   0  -3   -0.01    0.13
   7   0  -3    0.06    0.11
   7   0  -3    0.18    0.12
   6   0  -3    0.10    0.10
   6   0  -3    0.11    0.09
   6   0  -3    0.03    0.08
   5   0  -3   50.97    1.15
   4   0  -3   11.23    0.31
   4   0  -3   11.38    0.27
  -4   0   3   11.56    0.31
  -4   0   3   11.40    0.26
  -4   0   3   11.38    0.26
   3   0  -3    4.25    0.13
   3   0  -3    4.35    0.15
  -3   0   3    4.41    0.15
  -3   0   3    4.25    0.13
   2   0  -3  105.18    2.18
  -2   0   3  109.47    2.30
  -2   0   3  108.19    2.18
   1   0  -3   28.35    0.61
  -1   0   3   29.20    0.64
  -1   0   3   28.15    0.60
   0   0  -3    0.72    0.06
   0   0  -3    0.63    0.06
   0   0   3    0.86    0.06
  -1   0  -3    0.84    0.06
   1   0   3    0.82    0.07
  -2   0  -3  164.30    3.26
  -2   0  -3  153.32    3.31
  -2   0  -3  163.27    3.24
   2   0   3  165.82    3.26
   2   0   3  162.92    3.24
  -3   0  -3    3.65    0.12
   3   0   3    3.62    0.12
   3   0   3    3.67    0.14
  -4   0  -3    1.11    0.09
  -4   0  -3    1.20    0.08
   4   0   3    1.04    0.08
   4   0   3    0.99    0.07
   4   0   3    1.02    0.10
  -5   0  -3   58.11    1.17
  -5   0  -3   57.04    1.21
  -5   0  -3   56.74    1.22
   5   0   3   57.53    1.22
   5   0   3   57.38    1.18
   5   0   3   56.28    1.21
   5   0   3   58.78    1.18
   6   0   3    3.75    0.16
   6   0   3    3.61    0.19
   7   0   3   37.89    0.86
   7   0   3   37.96    0.87
   8   0   3    3.60    0.22
   8   0   3    3.84    0.26
   8   0   3    3.59    0.26
   9   0   3    6.62    0.37
   9   0   3    6.95    0.36
   9   0   3    6.46    0.32
   8  -1  -3    0.77    0.16
   8  -1  -3    0.72    0.19
   8  -1  -3    0.61    0.19
   7  -1  -3    1.37    0.17
   7  -1  -3    1.56    0.14
   7  -1  -3    1.43    0.16
   6  -1  -3   14.11    0.42
   6  -1  -3   14.80    0.38
   6  -1  -3   13.67    0.43
   5  -1  -3   13.76    0.35
   5  -1  -3   14.16    0.39
   4  -1  -3    1.21    0.11
   4  -1  -3    0.89    0.07
  -4   1   3    1.38    0.12
  -4   1   3    1.02    0.07
  -4   1   3    1.06    0.06
   3  -1  -3   64.19    1.44
   3  -1  -3   65.48    1.34
  -3   1   3   67.08    1.45
  -3   1   3   66.28    1.34
   2  -1  -3  194.14    4.13
   2  -1  -3  195.35    3.91
  -2   1   3  196.37    4.13
  -2   1   3  192.64    3.91
   1  -1  -3   87.42    1.78
  -1   1   3   87.18    1.78
  -1   1   3   88.18    1.88
   0  -1  -3   22.59    0.46
   0  -1  -3   21.50    0.47
   0   1   3   21.52    0.47
   0   1   3   22.23    0.46
  -1  -1  -3   16.40    0.36
  -1  -1  -3   16.24    0.35
   1   1   3   15.76    0.36
   1   1   3   16.09    0.35
  -2  -1  -3   19.74    0.44
  -2  -1  -3   19.30    0.43
   2   1   3   19.54    0.44
   2   1   3   19.71    0.44
   2   1   3   19.63    0.43
  -3  -1  -3    0.76    0.08
  -3  -1  -3    0.72    0.08
   3   1   3    0.82    0.08
   3   1   3    0.89    0.09
  -4  -1  -3    0.20    0.05
  -4  -1  -3    0.18    0.05
   4   1   3    0.15    0.05
   4   1   3    0.20    0.05
   4   1   3    0.16    0.04
  -5  -1  -3    6.16    0.20
  -5  -1  -3    6.33    0.16
   5   1   3    6.39    0.20
   5   1   3    5.73    0.21
   5   1   3    6.00    0.16
   6   1   3   70.90    1.50
   6   1   3   71.03    1.52
   7   1   3    2.30    0.18
   7   1   3    2.08    0.19
   8   1   3    6.68    0.29
   8   1   3    6.15    0.30
   8   1   3    6.12    0.30
   9   1   3    3.49    0.31
   9   1   3    4.00    0.32
   9   1   3    4.33    0.30
   7  -2  -3    9.90    0.39
   7  -2  -3    9.09    0.37
   7  -2  -3    9.98    0.31
   6  -2  -3    1.75    0.15
   6  -2  -3    1.92    0.20
   5  -2  -3   21.15    0.48
   5  -2  -3   21.28    0.55
   4  -2  -3    1.96    0.10
   4  -2  -3    2.04    0.14
   4  -2  -3    1.85    0.09
  -4   2   3    1.76    0.08
  -4   2   3    2.03    0.14
   3  -2  -3  117.40    2.53
   3  -2  -3  116.93    2.37
  -3   2   3  116.69    2.54
  -3   2   3  118.38    2.37
   2  -2  -3    0.29    0.04
   2  -2  -3    0.38    0.06
  -2   2   3    0.39    0.04
  -2   2   3    0.45    0.06
   1  -2  -3   18.99    0.42
   1  -2  -3   19.58    0.39
   1  -2  -3   19.13    0.45
  -1   2   3   19.08    0.45
  -1   2   3   18.97    0.42
   0  -2  -3    4.42    0.12
   0  -2  -3    4.53    0.13
   0   2   3    4.62    0.12
   0   2   3    4.46    0.13
   0   2   3    4.62    0.14
  -1  -2  -3    0.73    0.06
  -1  -2  -3    0.81    0.07
  -1  -2  -3    0.74    0.06
   1   2   3    0.76    0.06
   1   2   3    0.83    0.06
  -2  -2  -3  140.97    2.90
  -2  -2  -3  145.75    2.88
  -2  -2  -3  146.23    2.96
   2   2   3  146.80    2.90
   2   2   3  138.97    2.88
   2   2   3  144.19    2.96
  -3  -2  -3    9.83    0.24
  -3  -2  -3   10.36    0.27
  -3  -2  -3   10.18    0.26
   3   2   3    9.89    0.26
   3   2   3    9.69    0.26
   3   2   3   10.30    0.24
  -4  -2  -3    2.74    0.13
   4   2   3    2.66    0.13
   4   2   3    2.75    0.13
   4   2   3    2.56    0.10
  -5  -2  -3   18.60    0.47
  -5  -2  -3   18.82    0.41
   5   2   3   18.30    0.41
   5   2   3   18.59    0.46
   5   2   3   18.69    0.46
  -6  -2  -3   15.11    0.41
   6   2   3   15.13    0.41
   6   2   3   14.87    0.41
   6   2   3   14.73    0.34
   7   2   3    4.11    0.23
   7   2   3    3.77    0.22
   8   2   3    0.15    0.12
   8   2   3    0.15    0.12
   8   2   3    0.12    0.12
   9   2   3   10.69    0.43
   9   2   3   10.45    0.43
   9   2   3   10.12    0.41
   7  -3  -3    0.65    0.10
   7  -3  -3    0.65    0.14
   7  -3  -3    0.64    0.17
   6  -3  -3    6.65    0.20
   6  -3  -3    6.67    0.30
   5  -3  -3    0.62    0.10
   5  -3  -3    0.66    0.06
   5  -3  -3    0.62    0.06
   5  -3  -3    0.69    0.06
   4  -3  -3    8.13    0.28
   4  -3  -3    8.55    0.22
   4  -3  -3    8.33    0.20
  -4   3   3    8.89    0.29
  -4   3   3    8.59    0.22
   3  -3  -3    1.02    0.08
   3  -3  -3    1.09    0.11
  -3   3   3    1.33    0.11
  -3   3   3    1.14    0.08
   2  -3  -3  112.65    2.43
   2  -3  -3  113.77    2.29
  -2   3   3  114.12    2.29
  -2   3   3  110.21    2.43
   1  -3  -3   23.18    0.51
   1  -3  -3   23.24    0.55
  -1   3   3   23.57    0.55
  -1   3   3   23.53    0.51
   0  -3  -3   19.22    0.43
   0  -3  -3   19.23    0.44
   0  -3  -3   18.89    0.45
   0   3   3   18.95    0.43
   0   3   3   18.71    0.45
   0   3   3   19.49    0.40
  -1  -3  -3   79.33    1.63
  -1  -3  -3   77.52    1.59
   1   3   3   75.86    1.63
   1   3   3   76.98    1.59
   1   3   3   77.49    1.57
   1   3   3   78.63    1.67
  -2  -3  -3   69.71    1.42
  -2  -3  -3   68.07    1.46
   2   3   3   69.22    1.46
   2   3   3   68.53    1.41
   2   3   3   69.89    1.42
  -3  -3  -3   23.31    0.51
  -3  -3  -3   23.20    0.54
   3   3   3   23.37    0.51
   3   3   3   22.43    0.52
   3   3   3   22.78    0.54
  -4  -3  -3    8.52    0.26
   4   3   3    8.54    0.26
   4   3   3    8.30    0.25
  -5  -3  -3   12.41    0.35
   5   3   3   11.85    0.34
   5   3   3   12.41    0.35
   5   3   3   11.89    0.29
  -6  -3  -3   10.93    0.27
  -6  -3  -3   11.24    0.34
  -6  -3  -3   10.91    0.27
   6   3   3   11.01    0.28
   6   3   3   10.79    0.33
   6   3   3   11.30    0.35
   7   3   3    0.18    0.11
   7   3   3    0.20    0.09
   8   3   3    4.53    0.28
   8   3   3    4.60    0.24
   8   3   3    4.80    0.29
   9   3   3    0.34    0.16
   9   3   3    0.25    0.17
   9   3   3    0.40    0.17
   7  -4  -3    3.49    0.25
   7  -4  -3    3.74    0.32
   6  -4  -3    4.48    0.27
   5  -4  -3    8.11    0.22
   5  -4  -3    8.20    0.31
   5  -4  -3    8.33    0.23
  -5   4   3    8.63    0.23
   4  -4  -3    4.14    0.20
   4  -4  -3    4.10    0.15
   4  -4  -3    4.27    0.15
  -4   4   3    4.36    0.15
  -4   4   3    4.49    0.20
   3  -4  -3   36.93    0.88
   3  -4  -3   37.62    0.80
  -3   4   3   37.77    0.80
  -3   4   3   37.54    0.89
   2  -4  -3    4.57    0.18
   2  -4  -3    4.79    0.15
  -2   4   3    4.63    0.15
  -2   4   3    4.67    0.18
   1  -4  -3   24.77    0.60
   1  -4  -3   25.36    0.56
  -1   4   3   25.04    0.56
  -1   4   3   25.35    0.60
  -1   4   3   25.25    0.51
   0  -4  -3   38.23    0.82
   0  -4  -3   38.32    0.86
   0  -4  -3   38.01    0.83
   0   4   3   38.12    0.82
   0   4   3   39.01    0.79
   0   4   3   38.54    0.86
  -1  -4  -3    8.23    0.23
   1   4   3    8.15    0.22
   1   4   3    8.11    0.21
   1   4   3    7.88    0.23
   1   4   3    7.96    0.22
  -2  -4  -3  167.67    3.49
  -2  -4  -3  169.80    3.42
   2   4   3  168.58    3.42
   2   4   3  166.16    3.39
   2   4   3  172.39    3.59
   2   4   3  169.14    3.49
  -3  -4  -3    0.06    0.05
  -3  -4  -3    0.02    0.04
   3   4   3    0.10    0.05
   3   4   3    0.05    0.05
   3   4   3    0.08    0.05
  -4  -4  -3   96.95    2.08
  -4  -4  -3   97.49    2.01
   4   4   3   97.23    2.08
   4   4   3   97.00    2.02
   4   4   3  101.08    2.01
  -5  -4  -3    6.48    0.19
  -5  -4  -3    6.16    0.24
   5   4   3    6.07    0.20
   5   4   3    6.06    0.24
   5   4   3    6.55    0.23
  -6  -4  -3   14.54    0.35
  -6  -4  -3   15.22    0.36
  -6  -4  -3   15.10    0.43
   6   4   3   14.75    0.44
   6   4   3   14.69    0.41
   6   4   3   14.41    0.36
  -7  -4  -3    0.17    0.06
  -7  -4  -3    0.04    0.06
   7   4   3    0.09    0.07
   7   4   3    0.24    0.09
   7   4   3   -0.01    0.11
   8   4   3    1.17    0.16
   8   4   3    1.10    0.13
   8   4   3    1.17    0.18
   7  -5  -3    3.01    0.34
   7  -5  -3    2.55    0.24
   6  -5  -3    3.65    0.16
   6  -5  -3    3.79    0.27
   6  -5  -3    3.48    0.17
   5  -5  -3    0.00    0.10
   5  -5  -3    0.02    0.06
   5  -5  -3   -0.01    0.07
  -5   5   3    0.00    0.06
   4  -5  -3   27.80    0.65
   4  -5  -3   29.53    0.74
   4  -5  -3   29.61    0.65
  -4   5   3   30.68    0.65
  -4   5   3   27.10    0.73
   3  -5  -3    4.36    0.17
   3  -5  -3    4.32    0.16
  -3   5   3    4.28    0.19
  -3   5   3    4.36    0.16
   2  -5  -3   16.46    0.44
   2  -5  -3   16.68    0.40
   2  -5  -3   16.76    0.40
  -2   5   3   16.41    0.40
  -2   5   3   16.53    0.44
   1  -5  -3   30.86    0.73
   1  -5  -3   30.64    0.68
   1  -5  -3   31.16    0.69
  -1   5   3   30.82    0.68
  -1   5   3   30.49    0.63
  -1   5   3   30.55    0.72
   0  -5  -3   30.06    0.69
   0  -5  -3   29.25    0.66
   0  -5  -3   29.28    0.66
   0   5   3   29.69    0.69
   0   5   3   29.30    0.66
  -1  -5  -3  269.63    5.32
  -1  -5  -3  273.47    5.58
  -1  -5  -3  271.69    5.41
   1   5   3  248.20    5.41
   1   5   3  274.62    5.32
   1   5   3  243.76    5.58
  -2  -5  -3   45.29    0.99
  -2  -5  -3   43.23    0.96
   2   5   3   44.16    0.96
   2   5   3   45.83    0.99
   2   5   3   44.37    0.99
  -3  -5  -3   16.57    0.42
  -3  -5  -3   15.91    0.40
   3   5   3   16.44    0.39
   3   5   3   16.15    0.40
   3   5   3   16.30    0.43
  -4  -5  -3   13.19    0.37
  -4  -5  -3   12.90    0.33
  -4  -5  -3   12.72    0.33
   4   5   3   12.80    0.37
   4   5   3   12.67    0.33
   4   5   3   13.13    0.35
  -5  -5  -3   35.72    0.79
  -5  -5  -3   36.57    0.80
  -5  -5  -3   36.28    0.86
   5   5   3   35.89    0.86
   5   5   3   37.00    0.80
   5   5   3   34.99    0.82
  -6  -5  -3   11.13    0.37
  -6  -5  -3   11.03    0.30
   6   5   3   11.06    0.35
   6   5   3   10.54    0.31
   6   5   3   10.95    0.38
  -7  -5  -3    3.12    0.15
  -7  -5  -3    3.34    0.16
   7   5   3    2.74    0.22
   7   5   3    2.52    0.24
   7   5   3    2.99    0.18
   8   5   3   18.83    0.55
   8   5   3   17.60    0.47
   8   5   3   18.58    0.59
   7  -6  -3   -0.14    0.17
   7  -6  -3    0.19    0.12
   6  -6  -3    3.52    0.28
   6  -6  -3    3.21    0.18
   6  -6  -3    3.34    0.19
  -6   6   3    3.17    0.17
   5  -6  -3   16.29    0.41
   5  -6  -3   16.42    0.43
   5  -6  -3   16.17    0.51
  -5   6   3   16.69    0.42
   4  -6  -3    0.30    0.08
   4  -6  -3    0.38    0.07
   4  -6  -3    0.54    0.10
  -4   6   3    0.41    0.07
   3  -6  -3   18.96    0.47
   3  -6  -3   18.70    0.46
   3  -6  -3   18.90    0.46
  -3   6   3   18.46    0.46
  -3   6   3   19.45    0.52
   2  -6  -3    6.25    0.20
   2  -6  -3    5.78    0.20
   2  -6  -3    6.03    0.21
  -2   6   3    5.94    0.20
  -2   6   3    6.05    0.22
   1  -6  -3   10.17    0.31
   1  -6  -3   10.47    0.29
   1  -6  -3   10.07    0.28
   1  -6  -3   10.28    0.28
  -1   6   3    9.84    0.30
  -1   6   3    9.86    0.28
   0  -6  -3   68.12    1.45
   0  -6  -3   69.86    1.53
   0  -6  -3   69.67    1.47
   0   6   3   68.37    1.52
   0   6   3   67.96    1.45
  -1  -6  -3  114.71    2.45
  -1  -6  -3  109.96    2.34
  -1  -6  -3  114.07    2.38
   1   6   3  115.14    2.44
   1   6   3  114.33    2.34
   1   6   3  111.94    2.38
  -2  -6  -3   36.98    0.85
  -2  -6  -3   37.40    0.83
  -2  -6  -3   37.08    0.83
   2   6   3   38.00    0.85
   2   6   3   37.95    0.83
   2   6   3   37.09    0.85
  -3  -6  -3   23.14    0.57
  -3  -6  -3   23.31    0.55
  -3  -6  -3   22.86    0.54
   3   6   3   23.39    0.55
   3   6   3   22.30    0.58
   3   6   3   23.58    0.54
  -4  -6  -3   64.01    1.35
  -4  -6  -3   63.23    1.35
  -4  -6  -3   62.43    1.40
   4   6   3   63.40    1.35
   4   6   3   61.08    1.40
   4   6   3   65.93    1.38
  -5  -6  -3    0.73    0.10
  -5  -6  -3    0.63    0.08
  -5  -6  -3    0.75    0.09
   5   6   3    0.73    0.07
   5   6   3    0.63    0.10
   5   6   3    0.74    0.11
   5   6   3    0.62    0.09
  -6  -6  -3    0.97    0.10
  -6  -6  -3    1.28    0.13
  -6  -6  -3    1.06    0.13
   6   6   3    1.10    0.11
   6   6   3    1.54    0.16
   6   6   3    1.20    0.10
   6   6   3    1.07    0.14
  -7  -6  -3   21.82    0.52
  -7  -6  -3   21.80    0.53
   7   6   3   21.02    0.63
   7   6   3   21.97    0.60
   7   6   3   21.74    0.54
  -8  -6  -3    0.09    0.09
  -8  -6  -3    0.20    0.09
   8   6   3    0.20    0.12
   8   6   3    0.29    0.17
   8   6   3    0.15    0.14
   6  -7  -3    3.01    0.23
   6  -7  -3    3.12    0.20
   6  -7  -3    3.34    0.21
   6  -7  -3    3.41    0.30
  -6   7   3    2.58    0.19
   5  -7  -3    4.75    0.22
   5  -7  -3    4.80    0.28
   5  -7  -3    5.17    0.21
  -5   7   3    4.45    0.21
   4  -7  -3   42.86    1.05
   4  -7  -3   42.33    0.95
   4  -7  -3   43.48    0.95
   4  -7  -3   44.02    0.94
  -4   7   3   39.80    0.94
   3  -7  -3    4.10    0.17
   3  -7  -3    4.12    0.18
   3  -7  -3    3.99    0.19
  -3   7   3    4.33    0.18
  -3   7   3    4.23    0.21
   2  -7  -3   20.74    0.50
   2  -7  -3   21.00    0.56
   2  -7  -3   21.39    0.52
   2  -7  -3   20.77    0.51
  -2   7   3   20.57    0.51
  -2   7   3   20.99    0.55
   1  -7  -3   97.14    2.02
   1  -7  -3   96.93    2.13
   1  -7  -3   96.67    2.02
   1  -7  -3   97.27    2.03
  -1   7   3   96.03    2.13
  -1   7   3   94.80    2.02
   0  -7  -3   37.84    0.89
   0  -7  -3   38.34    0.85
   0  -7  -3   36.84    0.85
   0  -7  -3   37.79    0.85
   0   7   3   37.76    0.86
   0   7   3   37.74    0.88
   0   7   3   38.36    0.85
  -1  -7  -3    1.90    0.13
  -1  -7  -3    1.79    0.13
  -1  -7  -3    1.72    0.13
  -1  -7  -3    1.83    0.13
   1   7   3    1.84    0.12
   1   7   3    2.03    0.14
   1   7   3    2.04    0.13
  -2  -7  -3    2.59    0.16
  -2  -7  -3    2.76    0.15
  -2  -7  -3    2.55    0.14
   2   7   3    2.62    0.16
   2   7   3    2.48    0.15
   2   7   3    2.57    0.13
  -3  -7  -3   67.51    1.47
  -3  -7  -3   66.30    1.43
  -3  -7  -3   65.84    1.42
   3   7   3   65.41    1.43
   3   7   3   68.06    1.45
   3   7   3   65.86    1.47
  -4  -7  -3    1.54    0.15
  -4  -7  -3    1.37    0.12
  -4  -7  -3    1.42    0.12
   4   7   3    1.57    0.15
   4   7   3    1.17    0.12
   4   7   3    1.44    0.10
  -5  -7  -3    1.46    0.13
  -5  -7  -3    1.29    0.12
  -5  -7  -3    1.34    0.13
   5   7   3    1.22    0.12
   5   7   3    1.08    0.13
   5   7   3    1.61    0.16
   5   7   3    1.39    0.10
  -6  -7  -3   15.27    0.41
  -6  -7  -3   14.57    0.41
  -6  -7  -3   15.35    0.47
   6   7   3   14.43    0.47
   6   7   3   15.22    0.45
   6   7   3   15.10    0.43
  -7  -7  -3    4.26    0.22
   7   7   3    4.02    0.30
   7   7   3    3.77    0.25
  -8  -7  -3    1.70    0.15
  -8  -7  -3    1.30    0.14
   8   7   3    1.63    0.17
   8   7   3    1.22    0.19
   8   7   3    1.62    0.23
   6  -8  -3    0.16    0.14
   6  -8  -3    0.15    0.16
   6  -8  -3    0.01    0.12
   6  -8  -3    0.13    0.10
  -6   8   3    0.08    0.11
   5  -8  -3   15.45    0.45
   5  -8  -3   15.67    0.41
   5  -8  -3   15.35    0.44
   5  -8  -3   15.48    0.52
  -5   8   3   15.87    0.44
   4  -8  -3    0.09    0.10
   4  -8  -3    0.06    0.07
   4  -8  -3   -0.02    0.08
   4  -8  -3    0.06    0.09
  -4   8   3    0.04    0.07
   3  -8  -3    7.95    0.32
   3  -8  -3    8.47    0.28
   3  -8  -3    8.54    0.26
   3  -8  -3    8.47    0.30
  -3   8   3    8.54    0.28
   2  -8  -3   26.21    0.69
   2  -8  -3   26.11    0.63
   2  -8  -3   25.93    0.64
   2  -8  -3   26.25    0.62
  -2   8   3   26.39    0.63
  -2   8   3   25.31    0.55
  -2   8   3   26.18    0.68
   1  -8  -3  102.23    2.14
   1  -8  -3  102.96    2.15
   1  -8  -3  100.21    2.26
   1  -8  -3  103.68    2.15
  -1   8   3  100.26    2.14
  -1   8   3  101.70    2.25
   0  -8  -3    5.02    0.22
   0  -8  -3    5.14    0.21
   0  -8  -3    5.39    0.23
   0  -8  -3    5.11    0.22
   0   8   3    5.28    0.21
   0   8   3    5.15    0.22
   0   8   3    5.46    0.22
  -1  -8  -3    0.22    0.08
  -1  -8  -3    0.33    0.08
  -1  -8  -3    0.35    0.07
  -1  -8  -3    0.37    0.08
   1   8   3    0.34    0.07
   1   8   3    0.39    0.09
   1   8   3    0.21    0.07
  -2  -8  -3   51.71    1.17
  -2  -8  -3   50.71    1.15
  -2  -8  -3   52.35    1.15
   2   8   3   53.11    1.17
   2   8   3   51.61    1.15
   2   8   3   50.72    1.17
  -3  -8  -3    0.06    0.08
  -3  -8  -3    0.04    0.06
  -3  -8  -3    0.04    0.06
   3   8   3   -0.01    0.08
   3   8   3    0.01    0.06
   3   8   3   -0.02    0.08
  -4  -8  -3    4.49    0.23
  -4  -8  -3    4.00    0.21
  -4  -8  -3    4.47    0.20
   4   8   3    4.63    0.23
   4   8   3    4.64    0.17
   4   8   3    4.70    0.23
  -5  -8  -3    6.44    0.28
  -5  -8  -3    6.27    0.24
  -5  -8  -3    6.92    0.28
   5   8   3    6.32    0.28
   5   8   3    6.35    0.28
  -6  -8  -3    8.55    0.33
  -6  -8  -3    8.19    0.30
  -6  -8  -3    8.35    0.33
   6   8   3    7.81    0.32
   6   8   3    8.56    0.36
   6   8   3    8.61    0.34
  -7  -8  -3    7.52    0.30
  -7  -8  -3    6.54    0.31
   7   8   3    7.76    0.33
   7   8   3    7.44    0.34
   7   8   3    7.56    0.39
   5  -9  -3    6.02    0.24
   5  -9  -3    6.09    0.31
   5  -9  -3    7.02    0.35
   5  -9  -3    6.06    0.29
  -5   9   3    6.14    0.28
   4  -9  -3    3.09    0.20
   4  -9  -3    3.35    0.25
   4  -9  -3    2.71    0.24
   4  -9  -3    2.92    0.18
  -4   9   3    2.76    0.18
   3  -9  -3    8.81    0.36
   3  -9  -3    8.98    0.31
   3  -9  -3    9.24    0.34
   3  -9  -3    9.24    0.29
  -3   9   3    9.30    0.30
   2  -9  -3   25.83    0.65
   2  -9  -3   25.81    0.64
   2  -9  -3   26.53    0.62
   2  -9  -3   22.70    0.68
  -2   9   3   25.91    0.64
  -2   9   3   26.42    0.69
   1  -9  -3    2.62    0.18
   1  -9  -3    2.64    0.17
   1  -9  -3    2.81    0.21
   1  -9  -3    2.96    0.21
  -1   9   3    2.87    0.19
  -1   9   3    3.12    0.18
   0  -9  -3    0.24    0.10
   0  -9  -3    0.02    0.08
   0  -9  -3    0.23    0.08
   0  -9  -3    0.14    0.09
   0   9   3    0.15    0.09
   0   9   3    0.18    0.08
   0   9   3    0.25    0.08
  -1  -9  -3   18.58    0.51
  -1  -9  -3   18.61    0.51
  -1  -9  -3   18.42    0.50
  -1  -9  -3   18.68    0.50
   1   9   3   18.86    0.51
   1   9   3   18.70    0.50
   1   9   3   18.11    0.50
  -2  -9  -3    0.17    0.08
  -2  -9  -3   -0.03    0.07
  -2  -9  -3    0.05    0.09
   2   9   3    0.06    0.09
   2   9   3    0.02    0.07
   2   9   3    0.07    0.09
  -3  -9  -3   10.57    0.35
  -3  -9  -3   10.15    0.34
  -3  -9  -3   10.95    0.37
   3   9   3   10.59    0.31
   3   9   3   10.19    0.37
   3   9   3   10.73    0.36
  -4  -9  -3    2.34    0.17
  -4  -9  -3    2.42    0.18
  -4  -9  -3    2.04    0.18
   4   9   3    2.44    0.14
   4   9   3    2.29    0.22
   4   9   3    2.26    0.20
  -5  -9  -3    4.70    0.25
  -5  -9  -3    4.25    0.29
  -5  -9  -3    4.60    0.22
   5   9   3    4.51    0.26
   5   9   3    4.12    0.27
  -6  -9  -3    8.20    0.33
  -6  -9  -3    7.75    0.30
  -6  -9  -3    7.24    0.35
   6   9   3    7.21    0.32
   6   9   3    7.35    0.35
   6   9   3    7.12    0.35
   4 -10  -3   -0.05    0.10
   4 -10  -3    0.34    0.14
   4 -10  -3    0.23    0.11
   4 -10  -3   -0.08    0.15
  -4  10   3    0.10    0.09
   3 -10  -3    9.16    0.33
   3 -10  -3    8.89    0.30
   3 -10  -3    9.05    0.37
   3 -10  -3    8.72    0.38
  -3  10   3    9.04    0.32
   2 -10  -3    0.54    0.11
   2 -10  -3    0.75    0.15
   2 -10  -3    0.37    0.13
   2 -10  -3    0.59    0.10
  -2  10   3    0.60    0.09
  -2  10   3    0.67    0.09
   1 -10  -3    1.52    0.17
   1 -10  -3    1.46    0.13
   1 -10  -3    1.57    0.16
   1 -10  -3    1.34    0.14
  -1  10   3    1.54    0.14
   0 -10  -3    6.24    0.28
   0 -10  -3    5.92    0.26
   0 -10  -3    6.26    0.28
   0 -10  -3    5.96    0.28
   0  10   3    5.88    0.27
   0  10   3    6.03    0.27
   0  10   3    5.31    0.26
  -1 -10  -3    0.73    0.13
  -1 -10  -3    0.58    0.13
  -1 -10  -3    0.71    0.12
  -1 -10  -3    0.74    0.13
   1  10   3    0.52    0.12
   1  10   3    0.83    0.12
   1  10   3    0.72    0.13
  -2 -10  -3   34.59    0.84
  -2 -10  -3   34.25    0.83
  -2 -10  -3   33.78    0.84
   2  10   3   30.48    0.83
   2  10   3   35.01    0.82
   2  10   3   35.45    0.85
  -3 -10  -3    3.11    0.27
  -3 -10  -3    2.80    0.20
  -3 -10  -3    2.50    0.21
   3  10   3    3.08    0.18
   3  10   3    2.73    0.24
   3  10   3    3.19    0.25
  -4 -10  -3    1.13    0.18
  -4 -10  -3    1.01    0.12
  -4 -10  -3    1.21    0.15
   4  10   3    1.17    0.16
   4  10   3    1.31    0.17
  -5 -10  -3    0.73    0.18
  -5 -10  -3    0.74    0.10
  -5 -10  -3    0.72    0.12
   5  10   3    0.77    0.13
   5  10   3    0.89    0.18
  -6 -10  -3    3.02    0.22
  -6 -10  -3    2.28    0.24
  -6 -10  -3    2.51    0.28
   6  10   3    2.62    0.24
   6  10   3    1.97    0.19
   6  10   3    2.08    0.19
   3 -11  -3    0.12    0.15
   3 -11  -3    0.02    0.16
   3 -11  -3    0.02    0.12
   3 -11  -3    0.09    0.12
  -3  11   3    0.16    0.10
   2 -11  -3    7.39    0.31
   2 -11  -3    7.54    0.36
   2 -11  -3    8.02    0.37
   2 -11  -3    7.20    0.32
  -2  11   3    7.98    0.32
  -2  11   3    7.35    0.25
   1 -11  -3   -0.01    0.11
   1 -11  -3    0.09    0.13
   1 -11  -3    0.02    0.14
   1 -11  -3    0.04    0.11
  -1  11   3   -0.07    0.09
   0 -11  -3    0.00    0.12
   0 -11  -3    0.01    0.13
   0 -11  -3    0.17    0.13
   0 -11  -3   -0.02    0.11
   0  11   3    0.03    0.11
  -1 -11  -3    6.56    0.31
  -1 -11  -3    6.67    0.32
  -1 -11  -3    6.75    0.34
  -1 -11  -3    6.53    0.31
   1  11   3    6.77    0.32
   1  11   3    6.83    0.32
  -2 -11  -3    5.65    0.30
  -2 -11  -3    6.06    0.30
  -2 -11  -3    5.62    0.34
   2  11   3    5.44    0.32
   2  11   3    5.92    0.32
  -3 -11  -3   15.38    0.48
  -3 -11  -3   14.74    0.52
  -3 -11  -3   15.31    0.50
   3  11   3   15.13    0.51
   3  11   3   15.13    0.51
  -4 -11  -3    1.56    0.23
  -4 -11  -3    1.68    0.18
  -4 -11  -3    1.30    0.14
   4  11   3    1.40    0.18
   4  11   3    1.67    0.21
  -5 -11  -3   21.20    0.68
  -5 -11  -3   21.71    0.60
  -5 -11  -3   21.12    0.64
   5  11   3   22.15    0.67
   5  11   3   21.31    0.67
   2 -12  -3    2.72    0.26
   2 -12  -3    2.68    0.28
   2 -12  -3    2.62    0.27
   2 -12  -3    2.50    0.24
  -2  12   3    2.39    0.21
  -2  12   3    2.95    0.24
   1 -12  -3    1.13    0.20
   1 -12  -3    1.44    0.18
   1 -12  -3    1.45    0.20
   1 -12  -3    1.44    0.18
  -1  12   3    1.27    0.16
   0 -12  -3   10.72    0.44
   0 -12  -3   11.25    0.41
   0 -12  -3   11.04    0.46
   0 -12  -3   11.21    0.44
   0  12   3   10.93    0.44
  -1 -12  -3    2.93    0.28
  -1 -12  -3    3.30    0.29
  -1 -12  -3    3.02    0.26
  -1 -12  -3    3.26    0.28
   1  12   3    3.30    0.30
   1  12   3    3.75    0.31
  -2 -12  -3    4.46    0.31
  -2 -12  -3    4.53    0.39
  -2 -12  -3    3.97    0.31
   2  12   3    5.24    0.34
   2  12   3    4.75    0.35
  -3 -12  -3    0.93    0.23
  -3 -12  -3    0.84    0.15
  -3 -12  -3    0.62    0.17
   3  12   3    0.78    0.20
   3  12   3    1.09    0.19
   0  11  -4   13.32    0.49
   0  11  -4   13.81    0.55
   0  11  -4   14.02    0.53
   0 -11   4   12.43    0.45
   0 -11   4   13.65    0.56
   0 -11   4   13.50    0.51
  -1  11  -4    0.29    0.21
  -1  11  -4    0.18    0.16
  -1  11  -4    0.37    0.16
   1 -11   4    0.37    0.18
   1 -11   4    0.07    0.19
   1 -11   4    0.32    0.17
   2  10  -4    1.19    0.19
   2  10  -4    1.08    0.21
   2  10  -4    1.12    0.17
  -2 -10   4    1.18    0.22
  -2 -10   4    1.03    0.15
   1  10  -4   29.69    0.78
   1  10  -4   29.01    0.79
   1  10  -4   29.29    0.80
  -1 -10   4   28.84    0.77
  -1 -10   4   28.67    0.72
  -1 -10   4   28.38    0.80
   0  10  -4    1.33    0.17
   0  10  -4    1.00    0.18
   0  10  -4    1.12    0.18
   0 -10   4    1.12    0.16
   0 -10   4    1.24    0.20
   0 -10   4    1.07    0.16
  -1  10  -4    3.76    0.33
  -1  10  -4    4.40    0.27
  -1  10  -4    4.20    0.30
   1 -10   4    4.25    0.29
   1 -10   4    3.95    0.31
   1 -10   4    3.94    0.29
  -2  10  -4   10.99    0.41
  -2  10  -4   10.08    0.45
  -2  10  -4   10.64    0.40
  -2  10  -4   10.18    0.34
   2 -10   4   10.36    0.42
   2 -10   4   10.35    0.43
   2 -10   4   10.91    0.42
  -3  10  -4    1.14    0.21
  -3  10  -4    1.21    0.11
  -3  10  -4    1.09    0.17
  -3  10  -4    1.01    0.14
   3 -10   4    1.15    0.20
   3 -10   4    1.17    0.16
   3 -10   4    1.10    0.19
  -4  10  -4    0.22    0.15
  -4  10  -4    0.36    0.11
  -4  10  -4    0.20    0.21
   4 -10   4    0.58    0.18
   4 -10   4    0.52    0.13
   4 -10   4    0.42    0.19
   4   9  -4   -0.02    0.16
   4   9  -4    0.15    0.18
  -4  -9   4   -0.16    0.11
  -4  -9   4    0.17    0.19
   3   9  -4    4.57    0.26
   3   9  -4    4.80    0.35
   3   9  -4    4.90    0.34
  -3  -9   4    5.00    0.36
  -3  -9   4    4.85    0.24
   2   9  -4    9.75    0.40
   2   9  -4    9.33    0.36
   2   9  -4    9.39    0.40
  -2  -9   4    8.85    0.40
  -2  -9   4    9.40    0.35
   1   9  -4    4.02    0.26
   1   9  -4    3.30    0.27
   1   9  -4    3.44    0.26
  -1  -9   4    3.56    0.23
  -1  -9   4    3.40    0.29
  -1  -9   4    3.49    0.20
   0   9  -4   20.67    0.60
   0   9  -4   20.31    0.56
   0   9  -4   19.35    0.58
   0  -9   4   20.46    0.58
   0  -9   4   20.43    0.59
   0  -9   4   20.57    0.55
  -1   9  -4   14.68    0.49
  -1   9  -4   15.15    0.43
  -1   9  -4   14.45    0.47
   1  -9   4   14.89    0.48
   1  -9   4   14.71    0.47
   1  -9   4   13.97    0.45
  -2   9  -4    6.82    0.25
  -2   9  -4    6.83    0.35
  -2   9  -4    7.17    0.31
  -2   9  -4    6.64    0.30
   2  -9   4    6.96    0.32
   2  -9   4    6.18    0.31
   2  -9   4    6.65    0.31
  -3   9  -4   11.36    0.30
  -3   9  -4   10.64    0.43
  -3   9  -4   11.29    0.39
  -3   9  -4   11.60    0.39
   3  -9   4   11.68    0.42
   3  -9   4   11.35    0.39
   3  -9   4   11.30    0.42
  -4   9  -4    2.86    0.20
  -4   9  -4    2.51    0.24
  -4   9  -4    3.16    0.30
   4  -9   4    3.01    0.27
   4  -9   4    2.41    0.21
   4  -9   4    2.62    0.27
  -5   9  -4    0.27    0.11
  -5   9  -4    0.25    0.17
  -5   9  -4    0.36    0.15
   5  -9   4    0.31    0.11
   5  -9   4    0.36    0.15
   5  -9   4    0.48    0.17
   4   8  -4    0.51    0.15
   4   8  -4    0.62    0.11
   4   8  -4    0.51    0.16
  -4  -8   4    0.45    0.17
  -4  -8   4    0.36    0.10
   3   8  -4    1.48    0.18
   3   8  -4    0.84    0.12
   3   8  -4    1.12    0.15
  -3  -8   4    1.60    0.16
  -3  -8   4    1.02    0.17
   2   8  -4    0.38    0.12
   2   8  -4    0.27    0.13
   2   8  -4    0.49    0.10
  -2  -8   4    0.27    0.07
  -2  -8   4    0.26    0.08
  -2  -8   4    0.19    0.13
   1   8  -4    0.88    0.13
   1   8  -4    0.85    0.13
   1   8  -4    0.91    0.13
  -1  -8   4    0.77    0.14
  -1  -8   4    0.88    0.11
  -1  -8   4    0.88    0.11
   0   8  -4    1.23    0.15
   0   8  -4    1.43    0.14
   0   8  -4    1.38    0.15
   0  -8   4    1.11    0.14
   0  -8   4    1.07    0.12
   0  -8   4    0.94    0.12
  -1   8  -4    5.42    0.28
  -1   8  -4    5.04    0.26
  -1   8  -4    5.00    0.23
   1  -8   4    5.16    0.24
   1  -8   4    5.06    0.26
   1  -8   4    4.93    0.26
  -2   8  -4   39.44    0.92
  -2   8  -4   39.09    0.94
  -2   8  -4   39.65    0.95
  -2   8  -4   39.27    0.88
   2  -8   4   39.63    0.94
   2  -8   4   39.15    0.94
   2  -8   4   38.93    0.96
  -3   8  -4   10.78    0.40
  -3   8  -4   11.05    0.37
  -3   8  -4   11.61    0.37
  -3   8  -4   11.43    0.29
   3  -8   4   11.14    0.40
   3  -8   4   11.06    0.37
   3  -8   4   11.17    0.39
  -4   8  -4    3.24    0.22
  -4   8  -4    3.26    0.28
  -4   8  -4    3.38    0.20
   4  -8   4    3.26    0.20
   4  -8   4    3.46    0.25
   4  -8   4    3.73    0.26
  -5   8  -4    3.88    0.29
  -5   8  -4    3.80    0.25
   5  -8   4    3.73    0.27
   5  -8   4    3.69    0.20
   5  -8   4    3.37    0.27
  -6   8  -4   11.13    0.41
   6  -8   4   11.03    0.41
   6  -8   4   11.79    0.45
   6  -8   4   10.46    0.38
   5   7  -4    2.80    0.24
   5   7  -4    3.97    0.28
  -5  -7   4    3.44    0.21
  -5  -7   4    3.57    0.30
   4   7  -4    2.72    0.19
   4   7  -4    2.45    0.24
  -4  -7   4    3.08    0.18
  -4  -7   4    3.35    0.27
   3   7  -4    0.10    0.09
   3   7  -4    0.06    0.10
   3   7  -4    0.00    0.11
  -3  -7   4    0.00    0.12
  -3  -7   4    0.14    0.07
   2   7  -4   47.38    1.07
   2   7  -4   45.63    1.09
   2   7  -4   46.74    1.08
  -2  -7   4   47.00    1.06
  -2  -7   4   46.85    1.02
  -2  -7   4   46.01    1.07
   1   7  -4    5.14    0.25
   1   7  -4    4.74    0.24
   1   7  -4    4.99    0.24
  -1  -7   4    4.76    0.22
  -1  -7   4    4.65    0.25
  -1  -7   4    5.16    0.19
   0   7  -4    6.05    0.26
   0   7  -4    6.17    0.24
   0   7  -4    5.91    0.26
   0  -7   4    6.44    0.26
   0  -7   4    6.37    0.27
   0  -7   4    6.24    0.23
  -1   7  -4    0.91    0.10
  -1   7  -4    1.04    0.12
  -1   7  -4    0.85    0.12
   1  -7   4    1.00    0.12
   1  -7   4    1.04    0.12
   1  -7   4    1.04    0.12
  -2   7  -4    8.40    0.25
  -2   7  -4    8.92    0.30
  -2   7  -4    7.96    0.31
  -2   7  -4    8.86    0.31
   2  -7   4    8.54    0.30
   2  -7   4    8.62    0.31
   2  -7   4    8.37    0.31
  -3   7  -4    0.06    0.10
  -3   7  -4    0.08    0.05
  -3   7  -4    0.08    0.07
  -3   7  -4    0.06    0.08
   3  -7   4    0.20    0.10
   3  -7   4    0.05    0.10
   3  -7   4    0.13    0.07
  -4   7  -4    5.42    0.27
  -4   7  -4    5.16    0.22
  -4   7  -4    5.00    0.23
   4  -7   4    4.95    0.26
   4  -7   4    4.74    0.22
   4  -7   4    5.48    0.25
  -5   7  -4   46.14    1.05
  -5   7  -4   43.84    1.02
   5  -7   4   45.14    1.13
   5  -7   4   46.31    1.04
   5  -7   4   46.17    1.05
  -6   7  -4    1.73    0.17
  -6   7  -4    1.49    0.15
   6  -7   4    1.36    0.14
   6  -7   4    2.00    0.22
   6  -7   4    1.83    0.17
  -7   7  -4    8.28    0.36
   7  -7   4    8.58    0.36
   7  -7   4    8.77    0.39
   7  -7   4    8.41    0.35
   6   6  -4    6.86    0.35
  -6  -6   4    6.25    0.28
   5   6  -4    0.93    0.12
   5   6  -4    0.70    0.13
  -5  -6   4    0.66    0.10
  -5  -6   4    0.65    0.14
   4   6  -4    1.21    0.12
   4   6  -4    0.84    0.13
  -4  -6   4    0.87    0.13
  -4  -6   4    0.92    0.10
   3   6  -4   23.05    0.58
   3   6  -4   20.57    0.59
   3   6  -4   22.16    0.57
  -3  -6   4   22.63    0.56
  -3  -6   4   22.34    0.58
   2   6  -4    6.08    0.25
   2   6  -4    5.88    0.26
   2   6  -4    5.58    0.23
  -2  -6   4    5.71    0.17
  -2  -6   4    5.74    0.25
  -2  -6   4    5.88    0.22
   1   6  -4   11.03    0.35
   1   6  -4   10.58    0.33
   1   6  -4   10.65    0.33
  -1  -6   4   10.68    0.34
  -1  -6   4   10.62    0.33
   0   6  -4    7.49    0.28
   0   6  -4    7.89    0.27
   0   6  -4    7.94    0.28
   0  -6   4    7.86    0.28
   0  -6   4    8.15    0.28
  -1   6  -4   81.36    1.71
  -1   6  -4   81.50    1.73
  -1   6  -4   80.45    1.73
   1  -6   4   80.32    1.73
   1  -6   4   79.43    1.72
  -2   6  -4    6.32    0.24
  -2   6  -4    6.27    0.20
  -2   6  -4    6.83    0.25
  -2   6  -4    6.42    0.26
   2  -6   4    6.64    0.25
   2  -6   4    6.65    0.25
  -3   6  -4    9.13    0.22
  -3   6  -4    9.30    0.29
  -3   6  -4    9.31    0.32
  -3   6  -4    9.18    0.29
   3  -6   4    9.32    0.31
   3  -6   4    9.33    0.29
  -4   6  -4    5.35    0.23
  -4   6  -4    5.84    0.22
  -4   6  -4    5.92    0.25
   4  -6   4    5.75    0.25
   4  -6   4    5.29    0.22
  -5   6  -4    0.71    0.10
  -5   6  -4    0.57    0.12
   5  -6   4    0.62    0.11
   5  -6   4    0.39    0.08
   5  -6   4    0.60    0.11
  -6   6  -4   20.39    0.54
  -6   6  -4   18.91    0.53
   6  -6   4   21.08    0.53
   6  -6   4   21.05    0.54
   6  -6   4   20.69    0.61
  -7   6  -4    3.01    0.25
   7  -6   4    4.05    0.27
   7  -6   4    3.47    0.23
   6   5  -4    0.41    0.14
  -6  -5   4    0.27    0.10
  -6  -5   4   -0.02    0.11
   5   5  -4    2.02    0.18
   5   5  -4    1.93    0.21
  -5  -5   4    1.99    0.20
  -5  -5   4    1.92    0.16
   4   5  -4   13.68    0.43
   4   5  -4   13.34    0.38
  -4  -5   4   13.84    0.37
  -4  -5   4   12.96    0.39
   3   5  -4    7.62    0.29
   3   5  -4    7.57    0.26
  -3  -5   4    7.76    0.28
  -3  -5   4    8.02    0.25
   2   5  -4   33.75    0.82
   2   5  -4   36.03    0.80
   2   5  -4   33.34    0.79
  -2  -5   4   33.82    0.80
  -2  -5   4   35.12    0.79
   1   5  -4    0.58    0.09
   1   5  -4    0.64    0.08
   1   5  -4    0.65    0.09
  -1  -5   4    0.49    0.07
  -1  -5   4    0.60    0.10
   0   5  -4    9.86    0.30
   0   5  -4    9.92    0.29
   0   5  -4   10.06    0.31
   0  -5   4   10.07    0.31
   0  -5   4    9.89    0.30
  -1   5  -4    0.56    0.09
  -1   5  -4    0.85    0.09
  -1   5  -4    0.65    0.07
   1  -5   4    0.57    0.09
   1  -5   4    0.50    0.08
  -2   5  -4    8.66    0.28
  -2   5  -4    8.71    0.27
  -2   5  -4    8.31    0.27
  -2   5  -4    8.67    0.23
   2  -5   4    8.39    0.27
   2  -5   4    8.43    0.27
  -3   5  -4   28.22    0.65
  -3   5  -4   27.87    0.67
  -3   5  -4   28.32    0.66
  -3   5  -4   28.24    0.60
   3  -5   4   27.52    0.66
   3  -5   4   28.48    0.66
  -4   5  -4    2.37    0.17
  -4   5  -4    2.21    0.15
   4  -5   4    1.79    0.13
   4  -5   4    2.06    0.16
  -5   5  -4   92.88    2.02
  -5   5  -4   97.96    2.00
   5  -5   4   98.33    2.02
   5  -5   4   96.37    2.03
  -6   5  -4    0.94    0.12
  -6   5  -4    1.15    0.12
   6  -5   4    1.00    0.11
   6  -5   4    1.37    0.15
   6  -5   4    1.10    0.12
  -7   5  -4    4.72    0.26
   7  -5   4    5.37    0.30
   7  -5   4    4.71    0.24
   7  -5   4    5.16    0.24
  -8   5  -4    6.32    0.33
   8  -5   4    6.01    0.37
   8  -5   4    6.02    0.26
   8  -5   4    5.72    0.26
   6   4  -4    0.41    0.13
   6   4  -4   -0.01    0.10
  -6  -4   4   -0.05    0.09
  -6  -4   4    0.17    0.08
   5   4  -4    5.85    0.27
   5   4  -4    5.61    0.23
  -5  -4   4    5.73    0.21
   4   4  -4   15.30    0.45
   4   4  -4   15.55    0.41
  -4  -4   4   15.03    0.41
  -4  -4   4   15.08    0.39
   3   4  -4    5.70    0.20
   3   4  -4    5.46    0.23
  -3  -4   4    5.35    0.22
  -3  -4   4    5.57    0.19
   2   4  -4   52.73    1.19
   2   4  -4   52.93    1.15
  -2  -4   4   53.29    1.15
  -2  -4   4   54.10    1.15
   1   4  -4   16.33    0.41
   1   4  -4   16.59    0.42
  -1  -4   4   15.86    0.41
  -1  -4   4   16.23    0.42
   0   4  -4   16.52    0.41
   0   4  -4   15.57    0.40
   0  -4   4   15.57    0.40
   0  -4   4   15.75    0.41
  -1   4  -4   52.96    1.15
  -1   4  -4   53.33    1.15
   1  -4   4   53.93    1.15
   1  -4   4   53.16    1.15
  -2   4  -4    4.28    0.17
  -2   4  -4    4.06    0.16
  -2   4  -4    4.08    0.13
  -2   4  -4    4.21    0.18
   2  -4   4    4.28    0.17
   2  -4   4    4.18    0.16
  -3   4  -4    0.12    0.05
  -3   4  -4    0.21    0.07
  -3   4  -4    0.21    0.03
   3  -4   4    0.08    0.05
   3  -4   4    0.17    0.06
  -4   4  -4   45.89    1.02
  -4   4  -4   47.41    1.01
   4  -4   4   46.84    1.02
   4  -4   4   46.46    1.02
  -5   4  -4    4.00    0.19
  -5   4  -4    4.53    0.19
   5  -4   4    4.50    0.19
   5  -4   4    3.95    0.17
  -6   4  -4    3.04    0.18
   6  -4   4    2.89    0.16
   6  -4   4    2.93    0.19
  -7   4  -4    6.99    0.24
  -7   4  -4    7.16    0.29
   7  -4   4    7.45    0.29
   7  -4   4    7.12    0.25
   7  -4   4    7.08    0.25
   7  -4   4    7.33    0.34
   8  -4   4   13.05    0.36
   8  -4   4   13.73    0.44
   8  -4   4   13.85    0.51
   8  -4   4   13.44    0.36
   7   3  -4    5.52    0.38
   6   3  -4   -0.03    0.08
   6   3  -4    0.21    0.12
  -6  -3   4   -0.01    0.07
  -6  -3   4    0.05    0.07
   5   3  -4    5.72    0.27
   5   3  -4    5.37    0.21
  -5  -3   4    5.35    0.21
  -5  -3   4    5.42    0.19
   4   3  -4    4.96    0.19
   4   3  -4    4.68    0.22
  -4  -3   4    4.66    0.17
   3   3  -4   22.89    0.54
  -3  -3   4   23.80    0.52
  -3  -3   4   22.79    0.54
  -3  -3   4   22.66    0.53
   2   3  -4   23.82    0.55
  -2  -3   4   24.75    0.54
  -2  -3   4   23.27    0.55
  -2  -3   4   23.43    0.55
   1   3  -4    0.19    0.05
  -1  -3   4    0.18    0.05
  -1  -3   4    0.15    0.05
   0   3  -4  346.77    6.90
   0  -3   4  340.45    6.90
   0  -3   4  341.99    6.90
  -1   3  -4   27.64    0.63
  -1   3  -4   27.96    0.63
   1  -3   4   27.98    0.63
   1  -3   4   27.67    0.63
  -2   3  -4   17.72    0.42
  -2   3  -4   17.42    0.43
   2  -3   4   17.57    0.42
   2  -3   4   17.41    0.42
  -3   3  -4   59.87    1.25
  -3   3  -4   58.77    1.26
   3  -3   4   58.22    1.26
   3  -3   4   60.66    1.26
  -4   3  -4   24.12    0.55
  -4   3  -4   23.46    0.55
   4  -3   4   23.75    0.55
   4  -3   4   24.31    0.55
   4  -3   4   23.52    0.55
  -5   3  -4   20.68    0.50
  -5   3  -4   19.55    0.48
   5  -3   4   20.25    0.48
   5  -3   4   20.70    0.48
   5  -3   4   20.46    0.50
  -6   3  -4    7.05    0.25
   6  -3   4    7.25    0.23
   6  -3   4    7.27    0.26
   6  -3   4    6.63    0.22
  -7   3  -4    5.13    0.19
  -7   3  -4    4.24    0.23
   7  -3   4    4.89    0.25
   7  -3   4    4.72    0.19
   7  -3   4    4.76    0.19
   8  -3   4    0.03    0.13
   8  -3   4    0.48    0.17
   7   2  -4    0.30    0.16
   6   2  -4    3.67    0.27
   6   2  -4    3.80    0.16
   5   2  -4   16.40    0.48
   5   2  -4   15.42    0.40
  -5  -2   4   16.01    0.39
  -5  -2   4   16.48    0.38
   4   2  -4   25.66    0.59
  -4  -2   4   26.30    0.60
  -4  -2   4   25.89    0.58
   3   2  -4    1.77    0.10
  -3  -2   4    1.65    0.09
  -3  -2   4    1.55    0.11
  -3  -2   4    1.62    0.10
   2   2  -4    0.16    0.04
  -2  -2   4    0.03    0.04
  -2  -2   4    0.07    0.05
  -2  -2   4    0.03    0.04
   1   2  -4  373.01    6.78
  -1  -2   4  309.41    6.79
  -1  -2   4  329.61    6.78
   0   2  -4    2.11    0.11
   0  -2   4    2.01    0.11
  -1   2  -4  185.02    3.78
  -1   2  -4  189.28    3.75
   1  -2   4  188.47    3.78
   1  -2   4  184.43    3.78
  -2   2  -4  201.48    4.06
  -2   2  -4  208.18    4.10
   2  -2   4  201.10    4.10
   2  -2   4  200.55    4.10
  -3   2  -4   78.35    1.65
  -3   2  -4   80.50    1.66
  -3   2  -4   82.85    1.66
   3  -2   4   78.82    1.65
   3  -2   4   81.87    1.66
   3  -2   4   79.92    1.66
  -4   2  -4    3.89    0.11
  -4   2  -4    4.03    0.16
  -4   2  -4    3.68    0.15
   4  -2   4    4.02    0.16
   4  -2   4    3.86    0.15
   4  -2   4    4.00    0.14
  -5   2  -4    9.51    0.28
   5  -2   4    9.42    0.28
   5  -2   4    9.45    0.26
  -6   2  -4   16.01    0.38
  -6   2  -4   16.12    0.42
   6  -2   4   15.89    0.42
   6  -2   4   15.34    0.38
   6  -2   4   16.02    0.39
  -7   2  -4    7.18    0.20
  -7   2  -4    6.43    0.26
   7  -2   4    7.00    0.21
   7  -2   4    6.22    0.21
   7  -2   4    7.26    0.28
   8  -2   4    7.90    0.33
   8  -2   4    7.16    0.37
   9  -2   4    0.69    0.18
   9  -2   4    0.46    0.20
   7   1  -4    1.15    0.16
   7   1  -4    1.15    0.19
   6   1  -4    2.16    0.23
   5   1  -4   37.91    0.82
  -5  -1   4   37.58    0.81
  -5  -1   4   39.36    0.81
   4   1  -4    1.03    0.10
  -4  -1   4    0.93    0.09
  -4  -1   4    0.88    0.08
  -4  -1   4    1.27    0.11
   3   1  -4    8.06    0.22
  -3  -1   4    7.95    0.22
  -3  -1   4    7.77    0.21
   2   1  -4   84.66    1.74
  -2  -1   4   84.33    1.73
  -2  -1   4   82.25    1.73
  -2  -1   4   86.66    1.82
   1   1  -4    0.86    0.08
  -1  -1   4    0.85    0.08
  -1  -1   4    0.78    0.07
   0   1  -4   60.63    1.26
   0  -1   4   60.47    1.26
  -1   1  -4   32.65    0.71
   1  -1   4   33.28    0.71
  -2   1  -4  165.21    3.33
  -2   1  -4  164.19    3.36
   2  -1   4  172.02    3.36
   2  -1   4  163.29    3.33
  -3   1  -4  151.99    3.11
  -3   1  -4  153.07    3.12
  -3   1  -4  158.65    3.16
   3  -1   4  153.56    3.12
   3  -1   4  153.44    3.11
   3  -1   4  155.48    3.13
  -4   1  -4    1.90    0.10
  -4   1  -4    1.84    0.09
  -4   1  -4    2.19    0.11
   4  -1   4    1.82    0.10
   4  -1   4    1.87    0.12
   4  -1   4    2.13    0.10
  -5   1  -4   14.25    0.33
  -5   1  -4   13.82    0.36
   5  -1   4   13.36    0.36
   5  -1   4   13.67    0.33
   5  -1   4   13.75    0.33
  -6   1  -4    9.11    0.24
  -6   1  -4    8.91    0.28
   6  -1   4    8.80    0.24
   6  -1   4    8.64    0.28
   6  -1   4    8.70    0.23
   6  -1   4    8.84    0.24
   7  -1   4   23.08    0.59
   7  -1   4   23.24    0.51
   7  -1   4   23.33    0.54
   7  -1   4   23.44    0.51
   8  -1   4    1.48    0.16
   8  -1   4    1.37    0.18
   8  -1   4    1.07    0.15
   9  -1   4    0.65    0.13
   9  -1   4    0.85    0.20
   9  -1   4    0.61    0.18
   7   0  -4    0.03    0.12
   7   0  -4    0.04    0.14
   7   0  -4   -0.11    0.12
   6   0  -4    7.97    0.34
   6   0  -4    9.87    0.31
   5   0  -4    0.36    0.09
   5   0  -4    0.38    0.06
   4   0  -4    1.26    0.12
   4   0  -4    1.39    0.09
  -4   0   4    1.51    0.12
  -4   0   4    1.56    0.09
  -4   0   4    1.38    0.09
   3   0  -4   85.82    1.76
  -3   0   4   86.83    1.86
  -3   0   4   85.08    1.76
   2   0  -4   14.63    0.34
  -2   0   4   14.53    0.34
  -2   0   4   14.91    0.36
   1   0  -4  131.36    2.73
  -1   0   4  136.42    2.73
  -1   0   4  136.68    2.87
   0   0  -4    1.50    0.08
   0   0  -4    1.55    0.09
   0   0   4    1.50    0.09
  -1   0  -4    0.82    0.07
  -1   0  -4    0.68    0.07
   1   0   4    0.68    0.07
  -2   0  -4    2.02    0.10
  -2   0  -4    2.15    0.10
   2   0   4    2.33    0.10
   2   0   4    2.31    0.11
  -3   0  -4   18.32    0.42
  -3   0  -4   18.53    0.43
  -3   0  -4   19.19    0.42
   3   0   4   19.01    0.42
   3   0   4   18.68    0.43
  -4   0  -4    7.69    0.23
  -4   0  -4    7.85    0.21
   4   0   4    7.91    0.23
   4   0   4    7.72    0.21
  -5   0  -4    2.55    0.13
  -5   0  -4    2.52    0.14
   5   0   4    2.60    0.12
   5   0   4    2.63    0.11
   5   0   4    2.62    0.14
  -6   0  -4  101.58    2.06
  -6   0  -4  101.90    2.13
  -6   0  -4  100.16    2.10
   6   0   4  101.24    2.06
   6   0   4  103.78    2.07
   6   0   4  100.36    2.11
   6   0   4  101.75    2.12
   7   0   4    0.95    0.11
   7   0   4    1.02    0.12
   8   0   4    1.02    0.14
   8   0   4    1.01    0.12
   9   0   4    1.83    0.16
   9   0   4    1.65    0.20
   9   0   4    1.65    0.22
   7  -1  -4    4.19    0.25
   7  -1  -4    4.12    0.31
   7  -1  -4    4.22    0.28
   6  -1  -4    0.88    0.13
   6  -1  -4    0.80    0.11
   5  -1  -4   13.91    0.39
   5  -1  -4   13.58    0.32
   4  -1  -4   11.43    0.28
   4  -1  -4   11.55    0.33
  -4   1   4   11.33    0.27
  -4   1   4   11.41    0.27
  -4   1   4   11.95    0.34
   3  -1  -4    5.23    0.15
   3  -1  -4    5.04    0.18
  -3   1   4    4.60    0.15
  -3   1   4    5.17    0.18
   2  -1  -4   50.69    1.06
  -2   1   4   52.02    1.13
  -2   1   4   50.81    1.06
   1  -1  -4    3.43    0.11
   1  -1  -4    3.29    0.12
  -1   1   4    3.04    0.12
  -1   1   4    3.15    0.11
   0  -1  -4   27.99    0.62
   0  -1  -4   29.35    0.61
   0   1   4   28.88    0.62
  -1  -1  -4   72.13    1.47
  -1  -1  -4   71.85    1.48
   1   1   4   72.62    1.47
  -2  -1  -4  130.62    2.63
  -2  -1  -4  129.99    2.62
  -2  -1  -4  131.13    2.68
   2   1   4  125.79    2.61
   2   1   4  132.45    2.64
  -3  -1  -4    1.66    0.09
  -3  -1  -4    1.89    0.10
   3   1   4    1.83    0.11
   3   1   4    1.81    0.09
   3   1   4    1.85    0.10
  -4  -1  -4    1.73    0.10
  -4  -1  -4    1.84    0.11
   4   1   4    1.93    0.11
   4   1   4    1.52    0.11
  -5  -1  -4   52.45    1.14
  -5  -1  -4   52.26    1.13
   5   1   4   52.91    1.13
   5   1   4   53.39    1.14
   5   1   4   52.92    1.10
  -6  -1  -4   10.90    0.32
  -6  -1  -4   10.94    0.26
   6   1   4   10.75    0.27
   6   1   4   11.22    0.33
   6   1   4   11.11    0.32
   7   1   4   15.78    0.43
   7   1   4   15.71    0.45
   8   1   4    0.36    0.11
   8   1   4    0.49    0.12
   9   1   4    4.48    0.33
   9   1   4    5.27    0.30
   9   1   4    4.64    0.33
   7  -2  -4    0.49    0.11
   7  -2  -4    0.65    0.16
   7  -2  -4    0.48    0.15
   6  -2  -4    6.52    0.30
   6  -2  -4    7.22    0.23
   5  -2  -4    0.05    0.06
   5  -2  -4   -0.03    0.09
   5  -2  -4   -0.11    0.05
  -5   2   4   -0.09    0.08
   4  -2  -4    3.71    0.13
   4  -2  -4    3.72    0.18
  -4   2   4    3.89    0.13
  -4   2   4    4.09    0.19
   3  -2  -4   42.97    0.99
   3  -2  -4   43.91    0.91
  -3   2   4   43.43    0.99
  -3   2   4   42.80    0.91
   2  -2  -4   37.50    0.80
   2  -2  -4   37.69    0.86
  -2   2   4   37.39    0.79
  -2   2   4   37.29    0.86
   1  -2  -4   21.75    0.49
   1  -2  -4   23.28    0.47
  -1   2   4   21.50    0.49
  -1   2   4   21.93    0.52
   0  -2  -4    1.61    0.08
   0  -2  -4    1.57    0.07
   0   2   4    1.62    0.08
   0   2   4    1.66    0.09
   0   2   4    1.70    0.07
  -1  -2  -4   74.00    1.48
  -1  -2  -4   72.12    1.50
   1   2   4   73.27    1.50
   1   2   4   71.86    1.48
  -2  -2  -4    1.06    0.08
  -2  -2  -4    1.22    0.08
  -2  -2  -4    1.17    0.08
   2   2   4    1.28    0.08
   2   2   4    1.22    0.09
  -3  -2  -4    0.18    0.04
  -3  -2  -4    0.18    0.05
  -3  -2  -4    0.13    0.04
   3   2   4    0.10    0.05
   3   2   4    0.06    0.04
   3   2   4    0.06    0.05
  -4  -2  -4   68.93    1.47
  -4  -2  -4   68.78    1.44
  -4  -2  -4   68.39    1.42
   4   2   4   67.98    1.44
   4   2   4   70.29    1.42
   4   2   4   69.06    1.47
  -5  -2  -4   20.07    0.50
   5   2   4   20.32    0.45
   5   2   4   20.32    0.49
   5   2   4   19.50    0.49
  -6  -2  -4   76.39    1.67
  -6  -2  -4   80.39    1.59
   6   2   4   76.73    1.64
   6   2   4   77.15    1.67
   6   2   4   76.99    1.59
   7   2   4    1.99    0.19
   7   2   4    1.77    0.19
   7   2   4    1.93    0.11
   8   2   4    6.30    0.31
   8   2   4    6.95    0.30
   9   2   4    2.79    0.29
   9   2   4    2.37    0.22
   9   2   4    2.53    0.21
   7  -3  -4    2.20    0.20
   7  -3  -4    3.07    0.31
   7  -3  -4    2.99    0.18
   6  -3  -4    0.50    0.13
   6  -3  -4    0.45    0.08
   5  -3  -4    2.36    0.11
   5  -3  -4    2.35    0.12
   5  -3  -4    2.47    0.20
  -5   3   4    2.33    0.11
  -5   3   4    2.13    0.19
   4  -3  -4   10.69    0.27
   4  -3  -4   10.65    0.33
   4  -3  -4   10.73    0.24
  -4   3   4   10.49    0.33
  -4   3   4   10.50    0.27
   3  -3  -4   33.49    0.80
   3  -3  -4   34.15    0.73
  -3   3   4   34.09    0.81
  -3   3   4   34.27    0.73
   2  -3  -4    1.04    0.10
   2  -3  -4    1.09    0.08
  -2   3   4    1.11    0.08
  -2   3   4    0.98    0.10
   1  -3  -4    4.12    0.11
   1  -3  -4    4.17    0.16
   1  -3  -4    4.22    0.14
  -1   3   4    4.08    0.15
  -1   3   4    4.02    0.14
   0  -3  -4   30.74    0.66
   0  -3  -4   31.36    0.63
   0   3   4   29.95    0.66
   0   3   4   30.20    0.70
   0   3   4   30.59    0.63
  -1  -3  -4    1.12    0.08
  -1  -3  -4    1.10    0.07
  -1  -3  -4    1.02    0.09
   1   3   4    1.09    0.08
   1   3   4    1.12    0.08
  -2  -3  -4  331.18    5.90
  -2  -3  -4  288.82    5.84
  -2  -3  -4  283.58    6.01
   2   3   4  289.90    5.90
   2   3   4  287.26    5.86
   2   3   4  281.00    6.01
  -3  -3  -4   37.90    0.84
  -3  -3  -4   38.49    0.81
   3   3   4   37.54    0.84
   3   3   4   38.77    0.81
   3   3   4   36.00    0.81
  -4  -3  -4   24.13    0.57
  -4  -3  -4   23.59    0.54
   4   3   4   24.64    0.57
   4   3   4   23.72    0.56
   4   3   4   24.62    0.54
  -5  -3  -4   25.33    0.60
   5   3   4   25.44    0.60
   5   3   4   23.68    0.56
   5   3   4   24.77    0.59
  -6  -3  -4   14.81    0.42
  -6  -3  -4   15.16    0.36
   6   3   4   14.82    0.36
   6   3   4   15.30    0.42
   6   3   4   14.91    0.41
  -7  -3  -4    3.32    0.22
  -7  -3  -4    3.71    0.14
  -7  -3  -4    3.79    0.14
   7   3   4    3.90    0.23
   7   3   4    3.69    0.15
   7   3   4    3.60    0.22
   8   3   4    8.51    0.35
   8   3   4    8.06    0.34
   9   3   4   13.03    0.48
   9   3   4   12.27    0.44
   9   3   4   12.77    0.47
   7  -4  -4    0.40    0.18
   6  -4  -4    0.97    0.15
   5  -4  -4    0.03    0.09
   5  -4  -4    0.12    0.06
   5  -4  -4    0.10    0.06
  -5   4   4    0.10    0.06
   4  -4  -4    9.78    0.32
   4  -4  -4    9.61    0.26
  -4   4   4    9.71    0.26
  -4   4   4    9.62    0.32
   3  -4  -4    4.30    0.19
   3  -4  -4    4.48    0.16
  -3   4   4    4.41    0.15
  -3   4   4    4.62    0.19
   2  -4  -4   23.73    0.59
   2  -4  -4   24.35    0.54
  -2   4   4   24.04    0.54
  -2   4   4   23.70    0.59
   1  -4  -4   55.90    1.16
   1  -4  -4   55.19    1.24
  -1   4   4   54.41    1.23
  -1   4   4   54.86    1.16
  -1   4   4   55.65    1.10
   0  -4  -4   25.34    0.57
   0  -4  -4   25.28    0.60
   0  -4  -4   26.22    0.58
   0   4   4   25.48    0.54
   0   4   4   25.37    0.60
   0   4   4   25.13    0.57
  -1  -4  -4  176.45    3.74
  -1  -4  -4  183.05    3.67
   1   4   4  181.40    3.67
   1   4   4  182.50    3.86
   1   4   4  183.04    3.62
  -2  -4  -4    7.83    0.23
  -2  -4  -4    7.80    0.23
   2   4   4    7.90    0.22
   2   4   4    7.99    0.24
   2   4   4    7.90    0.22
  -3  -4  -4   53.29    1.18
  -3  -4  -4   53.87    1.14
   3   4   4   54.78    1.14
   3   4   4   55.57    1.14
   3   4   4   53.14    1.18
  -4  -4  -4  163.55    3.44
  -4  -4  -4  167.46    3.35
   4   4   4  162.95    3.35
   4   4   4  164.12    3.44
   4   4   4  168.32    3.36
  -5  -4  -4   28.68    0.65
  -5  -4  -4   29.52    0.71
   5   4   4   29.60    0.69
   5   4   4   29.95    0.66
   5   4   4   29.39    0.71
  -6  -4  -4    6.73    0.27
  -6  -4  -4    7.04    0.21
   6   4   4    6.93    0.22
   6   4   4    6.72    0.25
   6   4   4    6.80    0.28
  -7  -4  -4    3.60    0.23
  -7  -4  -4    3.68    0.15
  -7  -4  -4    3.67    0.15
   7   4   4    3.50    0.24
   7   4   4    3.39    0.22
   7   4   4    3.37    0.17
   8   4   4   11.79    0.41
   8   4   4   11.79    0.44
   9   4   4    0.10    0.15
   9   4   4    0.05    0.17
   9   4   4    0.08    0.16
   7  -5  -4    1.18    0.22
   6  -5  -4    0.76    0.16
   6  -5  -4    0.62    0.09
   6  -5  -4    0.73    0.10
   5  -5  -4    9.17    0.37
   5  -5  -4    9.63    0.28
   5  -5  -4    9.66    0.28
  -5   5   4   10.42    0.28
   4  -5  -4    1.89    0.18
   4  -5  -4    2.25    0.13
  -4   5   4    2.35    0.17
  -4   5   4    2.00    0.13
   3  -5  -4    9.50    0.26
   3  -5  -4    9.33    0.31
  -3   5   4    9.20    0.26
  -3   5   4    9.34    0.30
   2  -5  -4    0.89    0.10
   2  -5  -4    0.81    0.08
  -2   5   4    0.91    0.09
  -2   5   4    0.84    0.09
   1  -5  -4    1.69    0.11
   1  -5  -4    1.87    0.11
   1  -5  -4    1.87    0.12
  -1   5   4    1.75    0.06
  -1   5   4    1.64    0.10
  -1   5   4    1.75    0.11
   0  -5  -4  185.67    3.94
   0  -5  -4  187.80    3.81
   0  -5  -4  181.89    3.74
   0   5   4  182.44    3.94
   0   5   4  184.81    3.67
   0   5   4  182.76    3.74
  -1  -5  -4   12.10    0.32
  -1  -5  -4   12.43    0.32
   1   5   4   11.97    0.32
   1   5   4   11.99    0.29
   1   5   4   12.14    0.32
  -2  -5  -4   20.77    0.49
  -2  -5  -4   20.54    0.50
   2   5   4   20.26    0.50
   2   5   4   21.09    0.50
   2   5   4   20.59    0.48
   2   5   4   20.89    0.49
  -3  -5  -4   91.73    1.94
  -3  -5  -4   92.94    2.00
   3   5   4   94.94    2.00
   3   5   4   96.65    2.03
   3   5   4   94.77    1.95
   3   5   4   93.20    1.94
  -4  -5  -4   23.54    0.55
  -4  -5  -4   23.63    0.59
   4   5   4   24.17    0.55
   4   5   4   23.06    0.59
   4   5   4   24.07    0.57
  -5  -5  -4   16.49    0.45
  -5  -5  -4   16.03    0.40
   5   5   4   16.54    0.46
   5   5   4   15.89    0.43
   5   5   4   16.18    0.41
  -6  -5  -4    5.94    0.26
  -6  -5  -4    6.18    0.21
   6   5   4    5.82    0.27
   6   5   4    6.43    0.25
  -7  -5  -4   16.91    0.41
  -7  -5  -4   16.33    0.41
  -7  -5  -4   16.54    0.50
   7   5   4   16.81    0.51
   7   5   4   16.49    0.48
   7   5   4   16.01    0.42
  -8  -5  -4    0.28    0.08
  -8  -5  -4    0.11    0.08
   8   5   4    0.38    0.10
   8   5   4    0.34    0.13
   8   5   4    0.26    0.16
   6  -6  -4    5.01    0.33
   6  -6  -4    4.77    0.23
   6  -6  -4    4.66    0.21
  -6   6   4    4.59    0.20
   5  -6  -4    2.12    0.23
   5  -6  -4    1.95    0.17
   5  -6  -4    2.05    0.16
  -5   6   4    1.90    0.15
   4  -6  -4   41.69    1.02
   4  -6  -4   41.76    0.92
   4  -6  -4   41.53    0.91
  -4   6   4   40.70    1.01
  -4   6   4   41.73    0.91
   3  -6  -4    0.81    0.08
   3  -6  -4    0.73    0.11
  -3   6   4    0.82    0.08
  -3   6   4    0.69    0.08
   2  -6  -4    0.04    0.06
   2  -6  -4    0.11    0.05
   2  -6  -4    0.07    0.06
  -2   6   4    0.08    0.05
  -2   6   4    0.03    0.05
   1  -6  -4  107.94    2.24
   1  -6  -4  105.55    2.34
   1  -6  -4  105.65    2.21
  -1   6   4  107.84    2.33
  -1   6   4  106.96    2.21
  -1   6   4  106.06    2.13
   0  -6  -4    6.95    0.22
   0  -6  -4    7.07    0.24
   0  -6  -4    7.10    0.22
   0   6   4    6.81    0.23
   0   6   4    6.81    0.22
   0   6   4    6.79    0.19
  -1  -6  -4   20.34    0.49
  -1  -6  -4   20.04    0.50
   1   6   4   20.07    0.50
   1   6   4   20.27    0.50
   1   6   4   20.75    0.46
   1   6   4   20.70    0.49
  -2  -6  -4   11.73    0.32
  -2  -6  -4   11.52    0.32
   2   6   4   11.46    0.31
   2   6   4   11.75    0.31
   2   6   4   11.41    0.32
   2   6   4   11.72    0.33
  -3  -6  -4   58.58    1.27
  -3  -6  -4   57.11    1.23
   3   6   4   56.08    1.27
   3   6   4   57.85    1.27
   3   6   4   57.17    1.22
   3   6   4   57.73    1.23
  -4  -6  -4    0.28    0.08
  -4  -6  -4    0.24    0.07
   4   6   4    0.32    0.07
   4   6   4    0.33    0.06
   4   6   4    0.29    0.07
   4   6   4    0.31    0.08
  -5  -6  -4    0.07    0.06
  -5  -6  -4    0.00    0.07
  -5  -6  -4    0.01    0.06
   5   6   4    0.07    0.07
   5   6   4    0.17    0.06
   5   6   4   -0.06    0.07
   5   6   4    0.03    0.07
  -6  -6  -4   11.57    0.39
  -6  -6  -4   11.83    0.33
  -6  -6  -4   11.44    0.33
   6   6   4   10.62    0.39
   6   6   4   11.51    0.34
   6   6   4   11.64    0.36
  -7  -6  -4    5.50    0.30
  -7  -6  -4    5.92    0.23
   7   6   4    5.63    0.25
   7   6   4    5.77    0.31
   7   6   4    5.82    0.27
  -8  -6  -4    7.88    0.27
  -8  -6  -4    8.47    0.28
   8   6   4    8.38    0.31
   8   6   4    8.36    0.35
   8   6   4    7.84    0.28
   8   6   4    8.28    0.41
   6  -7  -4    0.19    0.16
   6  -7  -4    0.28    0.13
   6  -7  -4    0.35    0.12
  -6   7   4    0.13    0.10
   5  -7  -4   30.36    0.72
   5  -7  -4   29.96    0.71
   5  -7  -4   30.39    0.83
  -5   7   4   30.44    0.71
   4  -7  -4    0.39    0.11
   4  -7  -4    0.26    0.09
   4  -7  -4    0.18    0.09
   4  -7  -4    0.10    0.07
  -4   7   4    0.24    0.07
  -4   7   4    0.22    0.09
   3  -7  -4    1.02    0.12
   3  -7  -4    1.27    0.14
   3  -7  -4    1.29    0.12
   3  -7  -4    1.25    0.12
  -3   7   4    1.23    0.11
  -3   7   4    1.30    0.13
   2  -7  -4   44.49    1.05
   2  -7  -4   50.50    1.06
   2  -7  -4   49.72    1.14
   2  -7  -4   50.97    1.06
  -2   7   4   49.52    1.05
  -2   7   4   41.74    1.11
   1  -7  -4   34.40    0.78
   1  -7  -4   34.10    0.83
   1  -7  -4   34.63    0.78
  -1   7   4   33.75    0.83
  -1   7   4   34.12    0.71
  -1   7   4   34.48    0.78
   0  -7  -4   28.53    0.71
   0  -7  -4   29.27    0.68
   0  -7  -4   29.00    0.68
   0   7   4   28.94    0.63
   0   7   4   29.08    0.68
   0   7   4   29.60    0.71
  -1  -7  -4    0.18    0.07
  -1  -7  -4    0.14    0.06
  -1  -7  -4    0.22    0.07
   1   7   4    0.19    0.07
   1   7   4    0.16    0.07
   1   7   4    0.22    0.06
   1   7   4    0.24    0.06
  -2  -7  -4   28.67    0.70
  -2  -7  -4   29.34    0.68
   2   7   4   29.21    0.68
   2   7   4   29.59    0.69
   2   7   4   28.54    0.66
   2   7   4   29.33    0.70
  -3  -7  -4    8.91    0.29
  -3  -7  -4    9.09    0.29
  -3  -7  -4    9.01    0.28
   3   7   4    9.44    0.29
   3   7   4    9.35    0.29
   3   7   4    9.30    0.31
   3   7   4    9.56    0.27
  -4  -7  -4    5.14    0.20
  -4  -7  -4    4.80    0.22
  -4  -7  -4    5.15    0.22
   4   7   4    5.27    0.22
   4   7   4    5.25    0.19
   4   7   4    5.12    0.22
   4   7   4    4.80    0.23
  -5  -7  -4   10.54    0.32
  -5  -7  -4   11.29    0.35
  -5  -7  -4   10.15    0.33
   5   7   4   10.93    0.37
   5   7   4   10.66    0.29
   5   7   4   10.74    0.33
   5   7   4   10.85    0.34
  -6  -7  -4   -0.09    0.07
  -6  -7  -4    0.03    0.10
  -6  -7  -4    0.02    0.10
   6   7   4   -0.01    0.10
   6   7   4    0.13    0.07
   6   7   4   -0.05    0.10
   6   7   4   -0.07    0.08
  -7  -7  -4   17.06    0.46
  -7  -7  -4   17.04    0.54
   7   7   4   17.18    0.42
   7   7   4   17.13    0.47
   7   7   4   17.08    0.51
   7   7   4   17.12    0.56
  -8  -7  -4    1.39    0.14
  -8  -7  -4    1.26    0.14
   8   7   4    1.62    0.17
   8   7   4    1.23    0.17
   8   7   4    0.91    0.21
   6  -8  -4    6.36    0.39
   6  -8  -4    6.21    0.31
  -6   8   4    6.28    0.28
   5  -8  -4    0.09    0.13
   5  -8  -4    0.00    0.12
   5  -8  -4   -0.14    0.11
   5  -8  -4    0.25    0.11
  -5   8   4    0.18    0.10
   4  -8  -4    7.97    0.30
   4  -8  -4    7.97    0.28
   4  -8  -4    7.69    0.28
   4  -8  -4    7.90    0.34
  -4   8   4    7.93    0.28
   3  -8  -4   17.91    0.53
   3  -8  -4   17.90    0.49
   3  -8  -4   17.62    0.47
   3  -8  -4   17.73    0.46
  -3   8   4   17.79    0.47
  -3   8   4   18.06    0.52
   2  -8  -4   16.73    0.45
   2  -8  -4   17.46    0.45
   2  -8  -4   17.01    0.50
   2  -8  -4   17.24    0.47
  -2   8   4   16.82    0.45
  -2   8   4   16.94    0.49
   1  -8  -4   11.43    0.33
   1  -8  -4   11.18    0.37
   1  -8  -4   11.29    0.35
   1  -8  -4   11.29    0.34
  -1   8   4   11.09    0.27
  -1   8   4   10.21    0.35
  -1   8   4   11.36    0.33
   0  -8  -4    2.93    0.17
   0  -8  -4    3.20    0.17
   0  -8  -4    3.23    0.19
   0  -8  -4    3.20    0.19
   0   8   4    3.12    0.14
   0   8   4    2.98    0.17
   0   8   4    2.98    0.17
  -1  -8  -4    2.95    0.17
  -1  -8  -4    2.61    0.18
  -1  -8  -4    3.05    0.17
  -1  -8  -4    2.86    0.17
   1   8   4    2.69    0.18
   1   8   4    2.91    0.16
   1   8   4    2.97    0.17
  -2  -8  -4   13.65    0.39
  -2  -8  -4   13.54    0.39
  -2  -8  -4   13.44    0.39
   2   8   4   12.88    0.40
   2   8   4   13.52    0.38
   2   8   4   13.57    0.39
  -3  -8  -4   28.28    0.71
  -3  -8  -4   28.94    0.70
  -3  -8  -4   28.85    0.69
   3   8   4   29.28    0.70
   3   8   4   27.63    0.72
   3   8   4   29.62    0.69
  -4  -8  -4    0.44    0.08
  -4  -8  -4    0.63    0.09
  -4  -8  -4    0.37    0.10
   4   8   4    0.71    0.12
   4   8   4    0.60    0.08
   4   8   4    0.48    0.10
   4   8   4    0.75    0.11
  -5  -8  -4    0.52    0.12
  -5  -8  -4    0.39    0.09
  -5  -8  -4    0.61    0.11
   5   8   4    0.58    0.08
   5   8   4    0.47    0.11
   5   8   4    0.55    0.11
   5   8   4    0.38    0.12
  -6  -8  -4   27.90    0.69
  -6  -8  -4   27.79    0.68
  -6  -8  -4   27.74    0.74
   6   8   4   28.21    0.64
   6   8   4   28.32    0.76
   6   8   4   28.75    0.72
   6   8   4   27.72    0.70
  -7  -8  -4    1.39    0.14
  -7  -8  -4    1.36    0.17
  -7  -8  -4    1.14    0.16
   7   8   4    1.18    0.17
   7   8   4    1.23    0.15
   7   8   4    0.87    0.17
   5  -9  -4    1.01    0.14
   5  -9  -4    0.82    0.16
   5  -9  -4    0.80    0.14
   5  -9  -4    0.97    0.16
  -5   9   4    1.20    0.14
   4  -9  -4    0.33    0.10
   4  -9  -4    0.26    0.10
   4  -9  -4    0.25    0.13
   4  -9  -4    0.27    0.12
  -4   9   4    0.24    0.09
   3  -9  -4    0.40    0.09
   3  -9  -4    0.40    0.12
   3  -9  -4    0.53    0.12
   3  -9  -4    0.54    0.10
  -3   9   4    0.62    0.09
  -3   9   4    0.60    0.11
   2  -9  -4    7.01    0.31
   2  -9  -4    7.43    0.27
   2  -9  -4    6.89    0.29
   2  -9  -4    7.15    0.26
  -2   9   4    7.34    0.29
  -2   9   4    7.04    0.26
   1  -9  -4   21.09    0.54
   1  -9  -4   21.50    0.55
   1  -9  -4   21.25    0.56
   1  -9  -4   20.62    0.59
  -1   9   4   21.30    0.55
  -1   9   4   21.19    0.48
  -1   9   4   20.45    0.57
   0  -9  -4   11.12    0.36
   0  -9  -4   11.06    0.35
   0  -9  -4   10.99    0.37
   0  -9  -4   11.11    0.34
   0   9   4    9.74    0.34
   0   9   4   10.85    0.34
  -1  -9  -4    0.01    0.09
  -1  -9  -4    0.14    0.08
  -1  -9  -4    0.23    0.09
  -1  -9  -4    0.06    0.09
   1   9   4    0.05    0.09
   1   9   4    0.21    0.08
   1   9   4    0.17    0.08
  -2  -9  -4    4.62    0.23
  -2  -9  -4    4.92    0.25
  -2  -9  -4    4.91    0.23
   2   9   4    5.08    0.25
   2   9   4    5.35    0.24
   2   9   4    4.81    0.21
  -3  -9  -4    0.52    0.12
  -3  -9  -4    0.43    0.10
  -3  -9  -4    0.56    0.09
   3   9   4    0.67    0.12
   3   9   4    0.68    0.11
   3   9   4    0.61    0.09
  -4  -9  -4    7.55    0.29
  -4  -9  -4    7.91    0.32
  -4  -9  -4    7.78    0.28
   4   9   4    7.46    0.31
   4   9   4    7.19    0.30
   4   9   4    7.82    0.25
   4   9   4    7.45    0.31
  -5  -9  -4   13.20    0.44
  -5  -9  -4   13.94    0.40
  -5  -9  -4   13.14    0.43
   5   9   4   13.42    0.43
   5   9   4   13.10    0.43
   5   9   4   13.35    0.44
   5   9   4   13.50    0.36
  -6  -9  -4    7.78    0.35
  -6  -9  -4    7.93    0.31
  -6  -9  -4    7.66    0.33
   6   9   4    7.52    0.35
   6   9   4    8.29    0.33
   6   9   4    7.38    0.34
  -7  -9  -4    5.20    0.34
  -7  -9  -4    4.12    0.33
  -7  -9  -4    4.30    0.26
   7   9   4    4.51    0.29
   7   9   4    3.62    0.33
   7   9   4    4.18    0.33
   4 -10  -4    4.38    0.25
   4 -10  -4    4.55    0.25
   4 -10  -4    4.06    0.32
   4 -10  -4    4.11    0.29
  -4  10   4    4.12    0.24
   3 -10  -4    3.24    0.28
   3 -10  -4    3.15    0.21
   3 -10  -4    3.15    0.26
   3 -10  -4    3.74    0.23
  -3  10   4    3.58    0.20
   2 -10  -4    7.27    0.29
   2 -10  -4    7.42    0.34
   2 -10  -4    7.46    0.29
   2 -10  -4    7.85    0.33
  -2  10   4    7.20    0.32
  -2  10   4    7.64    0.28
  -2  10   4    7.53    0.20
   1 -10  -4    0.15    0.12
   1 -10  -4   -0.03    0.11
   1 -10  -4    0.02    0.09
   1 -10  -4   -0.05    0.09
  -1  10   4    0.01    0.10
  -1  10   4    0.20    0.08
  -1  10   4    0.11    0.07
   0 -10  -4   -0.10    0.10
   0 -10  -4   -0.01    0.10
   0 -10  -4    0.09    0.09
   0 -10  -4    0.10    0.11
   0  10   4   -0.06    0.08
   0  10   4   -0.14    0.09
  -1 -10  -4   46.10    1.05
  -1 -10  -4   46.45    1.05
  -1 -10  -4   44.62    1.07
  -1 -10  -4   44.86    1.04
   1  10   4   39.95    1.05
   1  10   4   46.37    1.05
   1  10   4   43.76    1.05
  -2 -10  -4    5.86    0.28
  -2 -10  -4    6.71    0.28
  -2 -10  -4    6.16    0.31
   2  10   4    6.49    0.30
   2  10   4    6.30    0.30
   2  10   4    6.64    0.26
  -3 -10  -4   26.18    0.70
  -3 -10  -4   26.47    0.68
  -3 -10  -4   26.56    0.70
   3  10   4   26.19    0.66
   3  10   4   26.20    0.71
   3  10   4   26.00    0.69
  -4 -10  -4    0.15    0.08
  -4 -10  -4    0.05    0.14
  -4 -10  -4    0.05    0.09
   4  10   4    0.01    0.10
   4  10   4    0.28    0.13
   4  10   4    0.20    0.09
   4  10   4    0.20    0.11
  -5 -10  -4    5.41    0.25
  -5 -10  -4    5.32    0.34
  -5 -10  -4    5.75    0.28
   5  10   4    5.56    0.21
   5  10   4    5.62    0.30
   5  10   4    5.53    0.33
   5  10   4    5.17    0.29
  -6 -10  -4    0.77    0.12
  -6 -10  -4    0.66    0.19
  -6 -10  -4    0.74    0.15
   6  10   4    0.59    0.14
   6  10   4    0.39    0.14
   6  10   4    0.80    0.19
   3 -11  -4    6.26    0.30
   3 -11  -4    6.10    0.30
   3 -11  -4    6.34    0.36
   3 -11  -4    6.63    0.38
  -3  11   4    6.60    0.29
   2 -11  -4    0.74    0.17
   2 -11  -4    0.81    0.13
   2 -11  -4    0.69    0.14
   2 -11  -4    0.61    0.16
  -2  11   4    0.68    0.10
  -2  11   4    0.71    0.09
  -2  11   4    0.76    0.09
   1 -11  -4    0.09    0.13
   1 -11  -4    0.25    0.12
   1 -11  -4    0.01    0.14
   1 -11  -4    0.34    0.12
  -1  11   4    0.01    0.12
  -1  11   4   -0.02    0.10
  -1  11   4    0.00    0.09
   0 -11  -4   25.79    0.69
   0 -11  -4   24.57    0.70
   0 -11  -4   24.99    0.69
   0 -11  -4   24.78    0.66
   0  11   4   25.22    0.68
   0  11   4   25.68    0.69
  -1 -11  -4    3.44    0.25
  -1 -11  -4    2.79    0.28
  -1 -11  -4    3.25    0.24
  -1 -11  -4    3.58    0.26
   1  11   4    3.26    0.27
   1  11   4    3.23    0.24
   1  11   4    3.80    0.26
  -2 -11  -4   22.24    0.62
  -2 -11  -4   23.24    0.62
  -2 -11  -4   22.23    0.64
   2  11   4   21.80    0.63
   2  11   4   22.09    0.63
   2  11   4   19.83    0.59
  -3 -11  -4    1.35    0.15
  -3 -11  -4    1.49    0.20
  -3 -11  -4    1.64    0.17
   3  11   4    1.49    0.15
   3  11   4    1.90    0.20
   3  11   4    1.50    0.17
  -4 -11  -4   11.97    0.41
  -4 -11  -4   11.46    0.49
  -4 -11  -4   12.36    0.44
   4  11   4   13.02    0.48
   4  11   4   12.13    0.44
   4  11   4   12.06    0.46
   4  11   4   12.48    0.38
  -5 -11  -4    7.16    0.43
  -5 -11  -4    7.11    0.30
  -5 -11  -4    7.02    0.35
   5  11   4    6.87    0.37
   5  11   4    7.21    0.41
   5  11   4    7.39    0.38
   2 -12  -4    1.75    0.19
   2 -12  -4    1.81    0.23
   2 -12  -4    2.15    0.25
   2 -12  -4    2.37    0.20
  -2  12   4    2.16    0.17
  -2  12   4    2.23    0.17
  -2  12   4    2.36    0.23
   1 -12  -4    4.07    0.30
   1 -12  -4    4.16    0.34
   1 -12  -4    4.49    0.34
   1 -12  -4    3.65    0.32
  -1  12   4    3.82    0.23
  -1  12   4    3.67    0.27
   0 -12  -4   -0.02    0.15
   0 -12  -4   -0.19    0.14
   0 -12  -4    0.12    0.16
   0 -12  -4    0.00    0.17
   0  12   4    0.10    0.13
  -1 -12  -4   14.35    0.53
  -1 -12  -4   13.56    0.48
  -1 -12  -4   14.15    0.50
   1  12   4   14.41    0.50
  -2 -12  -4    0.70    0.20
  -2 -12  -4    1.17    0.18
  -2 -12  -4    0.78    0.16
   2  12   4    1.15    0.19
   2  12   4    1.11    0.18
  -3 -12  -4    7.01    0.37
  -3 -12  -4    7.01    0.35
  -3 -12  -4    7.26    0.45
   3  12   4    6.90    0.40
   3  12   4    7.76    0.39
  -4 -12  -4    8.61    0.42
  -4 -12  -4    9.22    0.51
  -4 -12  -4    8.72    0.37
   4  12   4    8.23    0.46
   4  12   4    8.90    0.44
   1  10  -5    5.73    0.40
   1  10  -5    4.41    0.36
   1  10  -5    5.39    0.38
  -1 -10   5    6.00    0.33
  -1 -10   5    5.42    0.41
  -1 -10   5    5.10    0.27
   0  10  -5    6.94    0.38
   0  10  -5    6.63    0.36
   0  10  -5    5.90    0.39
   0 -10   5    5.76    0.40
   0 -10   5    6.02    0.31
   0 -10   5    6.65    0.34
  -1  10  -5    3.86    0.31
  -1  10  -5    3.75    0.36
  -1  10  -5    3.81    0.29
   1 -10   5    3.04    0.29
   1 -10   5    4.04    0.35
   1 -10   5    3.85    0.30
  -2  10  -5    1.28    0.18
  -2  10  -5    1.10    0.18
  -2  10  -5    1.34    0.15
  -2  10  -5    1.10    0.22
   2 -10   5    1.18    0.19
   2 -10   5    0.86    0.18
   2 -10   5    1.20    0.18
  -3  10  -5   13.69    0.37
  -3  10  -5   13.58    0.47
  -3  10  -5   13.57    0.49
  -3  10  -5   12.92    0.55
   3 -10   5   14.81    0.52
   3 -10   5   12.99    0.49
   3 -10   5   13.95    0.52
   3   9  -5   -0.04    0.14
   3   9  -5    0.04    0.16
  -3  -9   5    0.20    0.19
  -3  -9   5   -0.12    0.11
   2   9  -5   13.29    0.50
   2   9  -5   13.34    0.48
   2   9  -5   12.03    0.44
  -2  -9   5   12.28    0.42
  -2  -9   5   12.26    0.49
   1   9  -5   13.87    0.48
   1   9  -5   12.87    0.49
   1   9  -5   14.76    0.48
  -1  -9   5   13.17    0.50
  -1  -9   5   13.83    0.40
  -1  -9   5   14.45    0.46
   0   9  -5   12.25    0.42
   0   9  -5   12.41    0.46
   0   9  -5   12.84    0.46
   0  -9   5   12.18    0.40
   0  -9   5   11.82    0.46
   0  -9   5   12.07    0.43
  -1   9  -5    0.80    0.17
  -1   9  -5    0.85    0.14
  -1   9  -5    0.87    0.15
   1  -9   5    0.89    0.14
   1  -9   5    0.84    0.16
   1  -9   5    0.72    0.14
  -2   9  -5   31.11    0.82
  -2   9  -5   30.04    0.73
  -2   9  -5   30.97    0.80
  -2   9  -5   30.99    0.78
   2  -9   5   30.33    0.81
   2  -9   5   30.64    0.81
   2  -9   5   31.28    0.80
  -3   9  -5    1.18    0.20
  -3   9  -5    1.24    0.11
  -3   9  -5    1.17    0.15
  -3   9  -5    1.39    0.17
   3  -9   5    1.22    0.18
   3  -9   5    1.31    0.18
   3  -9   5    1.15    0.15
  -4   9  -5    0.31    0.18
  -4   9  -5   -0.05    0.13
   4  -9   5    0.00    0.11
   4  -9   5   -0.16    0.15
   4  -9   5    0.03    0.15
  -5   9  -5    3.62    0.38
  -5   9  -5    3.89    0.33
   5  -9   5    3.71    0.34
   5  -9   5    3.54    0.35
   4   8  -5    1.14    0.19
   4   8  -5    0.77    0.13
  -4  -8   5    1.23    0.13
  -4  -8   5    1.25    0.21
   3   8  -5    0.84    0.17
   3   8  -5    0.88    0.12
  -3  -8   5    0.73    0.11
  -3  -8   5    0.82    0.18
   2   8  -5   10.39    0.41
   2   8  -5   10.50    0.37
   2   8  -5    9.90    0.39
  -2  -8   5    9.84    0.41
  -2  -8   5    9.60    0.35
  -2  -8   5    9.71    0.27
   1   8  -5    0.81    0.14
   1   8  -5    1.00    0.14
   1   8  -5    0.85    0.13
  -1  -8   5    0.82    0.16
  -1  -8   5    1.12    0.12
  -1  -8   5    1.07    0.13
   0   8  -5    2.52    0.24
   0   8  -5    3.08    0.24
   0   8  -5    3.02    0.23
   0  -8   5    2.90    0.20
   0  -8   5    3.17    0.22
   0  -8   5    2.79    0.25
  -1   8  -5   19.60    0.56
  -1   8  -5   20.29    0.58
  -1   8  -5   20.02    0.53
   1  -8   5   19.93    0.57
   1  -8   5   19.82    0.55
   1  -8   5   20.16    0.56
  -2   8  -5    2.42    0.21
  -2   8  -5    2.55    0.18
  -2   8  -5    2.28    0.20
  -2   8  -5    2.38    0.21
   2  -8   5    2.73    0.22
   2  -8   5    2.05    0.22
   2  -8   5    2.09    0.22
  -3   8  -5   10.52    0.28
  -3   8  -5   10.67    0.37
  -3   8  -5   10.61    0.38
  -3   8  -5   10.95    0.41
   3  -8   5   10.40    0.37
   3  -8   5   10.74    0.39
   3  -8   5   10.47    0.40
  -4   8  -5    0.47    0.12
  -4   8  -5    0.40    0.15
   4  -8   5    0.30    0.13
   4  -8   5    0.42    0.14
   4  -8   5    0.50    0.10
  -5   8  -5    6.72    0.33
  -5   8  -5    7.44    0.38
   5  -8   5    7.39    0.35
   5  -8   5    6.94    0.36
   5  -8   5    6.99    0.29
  -6   8  -5    0.47    0.19
  -6   8  -5    0.29    0.16
   6  -8   5    0.45    0.13
   6  -8   5    0.67    0.16
   6  -8   5    0.62    0.17
   5   7  -5    0.54    0.15
   5   7  -5    0.28    0.15
  -5  -7   5    0.22    0.18
  -5  -7   5    0.56    0.13
   4   7  -5    2.42    0.20
   4   7  -5    1.93    0.19
  -4  -7   5    2.01    0.20
  -4  -7   5    2.14    0.18
   3   7  -5   12.25    0.43
   3   7  -5   11.97    0.39
  -3  -7   5   11.79    0.37
  -3  -7   5   12.18    0.43
   2   7  -5    0.31    0.08
   2   7  -5    0.01    0.10
   2   7  -5    0.15    0.11
  -2  -7   5    0.07    0.12
  -2  -7   5    0.01    0.08
   1   7  -5   15.90    0.46
   1   7  -5   15.03    0.46
   1   7  -5   15.38    0.47
  -1  -7   5   15.32    0.47
  -1  -7   5   15.86    0.41
  -1  -7   5   15.62    0.45
   0   7  -5    4.97    0.24
   0   7  -5    5.13    0.26
   0   7  -5    5.23    0.26
   0  -7   5    5.29    0.24
   0  -7   5    5.44    0.27
  -1   7  -5   27.29    0.75
  -1   7  -5   30.97    0.72
  -1   7  -5   30.89    0.76
   1  -7   5   30.54    0.75
   1  -7   5   31.22    0.76
  -2   7  -5    1.74    0.17
  -2   7  -5    1.43    0.14
  -2   7  -5    1.36    0.14
  -2   7  -5    1.70    0.18
   2  -7   5    1.70    0.18
   2  -7   5    1.89    0.19
  -3   7  -5    0.02    0.11
  -3   7  -5    0.04    0.07
  -3   7  -5    0.13    0.06
  -3   7  -5    0.20    0.09
   3  -7   5    0.11    0.08
   3  -7   5    0.00    0.10
  -4   7  -5   10.66    0.36
  -4   7  -5   10.40    0.38
   4  -7   5   10.47    0.37
   4  -7   5   10.46    0.34
  -5   7  -5    6.33    0.29
  -5   7  -5    6.57    0.32
   5  -7   5    6.50    0.30
   5  -7   5    6.19    0.26
   5  -7   5    6.58    0.32
  -6   7  -5   21.02    0.59
  -6   7  -5   21.51    0.60
   6  -7   5   20.74    0.64
   6  -7   5   21.38    0.58
   6  -7   5   21.30    0.59
   5   6  -5    0.24    0.12
   5   6  -5    0.24    0.13
  -5  -6   5    0.11    0.10
  -5  -6   5    0.06    0.15
   4   6  -5   16.82    0.52
   4   6  -5   16.02    0.47
  -4  -6   5   16.30    0.50
  -4  -6   5   16.89    0.45
   3   6  -5    0.34    0.10
   3   6  -5    0.38    0.09
  -3  -6   5    0.45    0.12
  -3  -6   5    0.46    0.08
   2   6  -5   13.21    0.40
   2   6  -5   12.08    0.38
  -2  -6   5   12.79    0.40
  -2  -6   5   12.69    0.37
   1   6  -5    1.72    0.18
   1   6  -5    1.76    0.17
   1   6  -5    1.79    0.16
  -1  -6   5    1.89    0.19
  -1  -6   5    1.64    0.15
   0   6  -5   11.00    0.33
   0   6  -5   10.66    0.35
   0   6  -5   10.98    0.35
   0  -6   5   10.70    0.35
   0  -6   5   10.66    0.34
  -1   6  -5   17.97    0.45
  -1   6  -5   17.54    0.49
  -1   6  -5   17.18    0.48
   1  -6   5   17.95    0.48
   1  -6   5   17.67    0.49
  -2   6  -5   14.29    0.40
  -2   6  -5   13.85    0.35
  -2   6  -5   13.58    0.41
  -2   6  -5   13.69    0.39
   2  -6   5   13.95    0.41
   2  -6   5   12.27    0.39
  -3   6  -5   29.56    0.72
  -3   6  -5   29.14    0.64
  -3   6  -5   28.53    0.70
   3  -6   5   29.73    0.72
   3  -6   5   29.37    0.71
  -4   6  -5    1.45    0.15
  -4   6  -5    1.30    0.13
   4  -6   5    1.48    0.14
   4  -6   5    1.07    0.11
  -5   6  -5   68.62    1.50
  -5   6  -5   68.40    1.51
   5  -6   5   70.18    1.51
   5  -6   5   69.78    1.51
  -6   6  -5    4.65    0.27
  -6   6  -5    4.28    0.25
   6  -6   5    3.78    0.21
   6  -6   5    4.29    0.25
   6  -6   5    4.23    0.26
  -7   6  -5    2.52    0.27
  -7   6  -5    2.20    0.19
   7  -6   5    2.29    0.24
   7  -6   5    2.57    0.23
   7  -6   5    2.64    0.25
   6   5  -5    0.29    0.14
   6   5  -5    0.44    0.16
  -6  -5   5    0.45    0.16
  -6  -5   5    0.64    0.12
   5   5  -5    1.62    0.17
   5   5  -5    1.77    0.16
  -5  -5   5    1.80    0.17
  -5  -5   5    1.56    0.16
   4   5  -5    1.04    0.11
   4   5  -5    0.95    0.12
  -4  -5   5    1.03    0.13
  -4  -5   5    1.14    0.10
   3   5  -5    8.43    0.32
   3   5  -5    9.27    0.30
  -3  -5   5    9.75    0.29
  -3  -5   5    9.26    0.33
   2   5  -5    0.29    0.08
   2   5  -5    0.14    0.09
  -2  -5   5    0.37    0.07
  -2  -5   5    0.25    0.09
   1   5  -5    5.84    0.23
   1   5  -5    5.72    0.22
  -1  -5   5    5.86    0.24
  -1  -5   5    6.30    0.22
   0   5  -5   25.73    0.63
   0   5  -5   25.76    0.62
   0   5  -5   26.10    0.63
   0  -5   5   25.41    0.63
   0  -5   5   25.86    0.63
  -1   5  -5   21.14    0.54
  -1   5  -5   21.42    0.51
  -1   5  -5   21.17    0.54
   1  -5   5   21.11    0.54
   1  -5   5   21.49    0.54
  -2   5  -5   36.31    0.79
  -2   5  -5   35.51    0.82
  -2   5  -5   36.63    0.83
   2  -5   5   36.42    0.83
   2  -5   5   35.28    0.83
  -3   5  -5   16.32    0.45
  -3   5  -5   16.26    0.38
  -3   5  -5   16.41    0.44
   3  -5   5   16.71    0.44
   3  -5   5   16.78    0.45
  -4   5  -5   65.33    1.40
  -4   5  -5   64.90    1.41
   4  -5   5   64.10    1.41
   4  -5   5   65.99    1.41
  -5   5  -5    0.25    0.10
  -5   5  -5    0.19    0.08
   5  -5   5    0.24    0.07
   5  -5   5    0.27    0.09
  -6   5  -5   17.03    0.48
  -6   5  -5   18.34    0.49
   6  -5   5   18.01    0.48
   6  -5   5   18.10    0.47
  -7   5  -5   13.78    0.44
   7  -5   5   14.24    0.42
   7  -5   5   14.71    0.50
   7  -5   5   14.66    0.42
  -8   5  -5    0.59    0.18
   8  -5   5    0.41    0.16
   8  -5   5    0.38    0.14
   8  -5   5    0.62    0.14
   6   4  -5   -0.06    0.11
   6   4  -5    0.05    0.14
  -6  -4   5    0.09    0.11
  -6  -4   5    0.11    0.10
   5   4  -5    1.60    0.14
   5   4  -5    1.88    0.20
  -5  -4   5    2.07    0.16
   4   4  -5   15.56    0.47
   4   4  -5   15.38    0.42
  -4  -4   5   15.63    0.41
  -4  -4   5   15.37    0.43
   3   4  -5   13.10    0.37
   3   4  -5   13.14    0.40
  -3  -4   5   13.39    0.38
  -3  -4   5   13.48    0.36
   2   4  -5    7.02    0.24
  -2  -4   5    7.17    0.23
  -2  -4   5    7.34    0.26
   1   4  -5   11.28    0.32
  -1  -4   5   11.16    0.31
  -1  -4   5   11.18    0.33
   0   4  -5   12.05    0.34
   0  -4   5   12.64    0.34
   0  -4   5   12.69    0.35
  -1   4  -5    2.66    0.15
  -1   4  -5    2.76    0.15
   1  -4   5    2.78    0.15
   1  -4   5    3.13    0.15
  -2   4  -5    0.55    0.08
  -2   4  -5    0.49    0.08
   2  -4   5    0.44    0.07
   2  -4   5    0.65    0.08
  -3   4  -5  125.99    2.60
  -3   4  -5  125.68    2.58
   3  -4   5  125.60    2.60
   3  -4   5  125.00    2.60
  -4   4  -5    6.57    0.24
  -4   4  -5    6.75    0.23
   4  -4   5    6.21    0.22
   4  -4   5    6.38    0.23
  -5   4  -5   23.43    0.56
  -5   4  -5   22.21    0.56
   5  -4   5   23.24    0.56
   5  -4   5   22.24    0.55
  -6   4  -5    4.02    0.21
  -6   4  -5    3.86    0.21
   6  -4   5    4.24    0.23
   6  -4   5    4.27    0.19
   6  -4   5    4.28    0.20
  -7   4  -5    1.04    0.14
   7  -4   5    1.00    0.12
   7  -4   5    1.15    0.12
   7  -4   5    1.16    0.14
  -8   4  -5    5.10    0.31
   8  -4   5    5.12    0.34
   8  -4   5    5.16    0.25
   8  -4   5    5.28    0.32
   8  -4   5    5.13    0.25
   6   3  -5    0.31    0.11
   6   3  -5    0.16    0.13
  -6  -3   5    0.23    0.10
  -6  -3   5    0.26    0.08
   5   3  -5    7.08    0.26
   5   3  -5    7.02    0.31
  -5  -3   5    7.11    0.23
   4   3  -5   14.57    0.39
   4   3  -5   13.98    0.43
  -4  -3   5   15.20    0.38
  -4  -3   5   14.49    0.35
  -4  -3   5   14.67    0.40
   3   3  -5    9.20    0.27
  -3  -3   5    9.33    0.27
  -3  -3   5    9.07    0.29
  -3  -3   5    9.61    0.25
   2   3  -5    0.05    0.05
  -2  -3   5    0.05    0.05
  -2  -3   5    0.00    0.06
  -2  -3   5    0.13    0.05
   1   3  -5  115.77    2.38
  -1  -3   5  114.14    2.38
  -1  -3   5  115.31    2.37
   0   3  -5   30.29    0.68
   0  -3   5   29.99    0.68
   0  -3   5   29.79    0.68
  -1   3  -5    1.88    0.12
  -1   3  -5    1.93    0.13
   1  -3   5    1.90    0.12
   1  -3   5    1.92    0.12
  -2   3  -5   38.69    0.85
  -2   3  -5   39.21    0.85
   2  -3   5   37.64    0.85
   2  -3   5   37.90    0.85
  -3   3  -5    0.27    0.06
  -3   3  -5    0.24    0.07
   3  -3   5    0.33    0.06
   3  -3   5    0.15    0.06
  -4   3  -5   53.52    1.14
  -4   3  -5   51.67    1.13
   4  -3   5   52.51    1.13
   4  -3   5   53.48    1.14
   4  -3   5   52.01    1.13
  -5   3  -5    2.22    0.15
  -5   3  -5    2.37    0.15
   5  -3   5    2.32    0.15
   5  -3   5    2.39    0.13
   5  -3   5    2.29    0.16
  -6   3  -5    1.52    0.16
  -6   3  -5    1.00    0.10
   6  -3   5    1.25    0.13
   6  -3   5    1.31    0.14
   6  -3   5    1.21    0.13
  -7   3  -5   14.14    0.42
  -7   3  -5   14.55    0.38
   7  -3   5   13.78    0.38
   7  -3   5   14.44    0.43
   7  -3   5   14.46    0.39
  -8   3  -5    4.16    0.19
  -8   3  -5    4.02    0.28
   8  -3   5    4.49    0.29
   8  -3   5    4.24    0.32
   8  -3   5    4.11    0.21
   8  -3   5    4.02    0.21
   7   2  -5    2.49    0.26
   6   2  -5    3.32    0.18
   6   2  -5    3.19    0.27
  -6  -2   5    2.18    0.14
  -6  -2   5    2.67    0.16
   5   2  -5   11.87    0.41
   5   2  -5   11.97    0.34
  -5  -2   5   12.24    0.32
  -5  -2   5   11.75    0.33
   4   2  -5    0.29    0.07
  -4  -2   5    0.32    0.07
  -4  -2   5    0.39    0.07
   3   2  -5    2.53    0.13
  -3  -2   5    2.72    0.12
  -3  -2   5    2.29    0.14
  -3  -2   5    2.59    0.13
   2   2  -5   14.36    0.36
  -2  -2   5   13.78    0.36
  -2  -2   5   14.17    0.36
  -2  -2   5   14.57    0.35
   1   2  -5   37.72    0.82
  -1  -2   5   37.03    0.82
  -1  -2   5   37.61    0.82
   0   2  -5  105.34    2.16
   0  -2   5  103.51    2.16
   0  -2   5  105.61    2.16
  -1   2  -5   75.82    1.57
  -1   2  -5   76.74    1.59
   1  -2   5   75.38    1.58
   1  -2   5   75.46    1.58
  -2   2  -5   15.10    0.38
  -2   2  -5   14.90    0.37
   2  -2   5   15.14    0.37
   2  -2   5   14.96    0.37
  -3   2  -5  121.86    2.50
  -3   2  -5  121.43    2.49
   3  -2   5  122.26    2.50
   3  -2   5  119.05    2.49
   3  -2   5  125.50    2.50
  -4   2  -5    3.74    0.12
  -4   2  -5    3.63    0.16
  -4   2  -5    3.71    0.16
   4  -2   5    3.52    0.15
   4  -2   5    3.62    0.14
   4  -2   5    3.53    0.16
  -5   2  -5    0.33    0.04
  -5   2  -5    0.32    0.07
  -5   2  -5    0.36    0.07
   5  -2   5    0.26    0.08
   5  -2   5    0.22    0.06
   5  -2   5    0.30    0.07
  -6   2  -5   28.63    0.66
   6  -2   5   26.45    0.62
   6  -2   5   28.54    0.66
   6  -2   5   26.36    0.63
  -7   2  -5   15.44    0.39
  -7   2  -5   15.61    0.44
   7  -2   5   15.76    0.40
   7  -2   5   15.70    0.45
   7  -2   5   15.52    0.39
   8  -2   5   -0.02    0.08
   8  -2   5    0.08    0.08
   8  -2   5    0.07    0.13
   7   1  -5    0.97    0.20
   6   1  -5    7.02    0.34
   6   1  -5    6.61    0.22
   5   1  -5    3.84    0.17
  -5  -1   5    3.42    0.15
  -5  -1   5    3.85    0.17
   4   1  -5    1.81    0.12
  -4  -1   5    1.87    0.11
  -4  -1   5    1.77    0.14
   3   1  -5   12.59    0.32
  -3  -1   5   13.16    0.32
  -3  -1   5   12.78    0.33
  -3  -1   5   12.07    0.32
   2   1  -5    1.95    0.10
  -2  -1   5    2.24    0.11
  -2  -1   5    2.09    0.12
  -2  -1   5    2.12    0.11
   1   1  -5   69.25    1.43
  -1  -1   5   67.41    1.43
  -1  -1   5   68.74    1.43
   0   1  -5    0.08    0.05
   0   1  -5    0.07    0.05
   0  -1   5    0.13    0.05
  -1   1  -5    8.26    0.23
  -1   1  -5    7.84    0.23
   1  -1   5    7.73    0.23
  -2   1  -5  122.59    2.48
  -2   1  -5  126.35    2.47
   2  -1   5  116.42    2.46
   2  -1   5  120.54    2.48
  -3   1  -5   13.25    0.34
  -3   1  -5   13.25    0.33
  -3   1  -5   13.71    0.32
   3  -1   5   13.26    0.34
   3  -1   5   13.20    0.33
  -4   1  -5    5.33    0.16
  -4   1  -5    5.48    0.18
  -4   1  -5    5.44    0.19
   4  -1   5    5.38    0.18
   4  -1   5    5.41    0.17
   4  -1   5    5.22    0.19
  -5   1  -5   16.20    0.42
  -5   1  -5   16.08    0.39
  -5   1  -5   16.62    0.38
   5  -1   5   16.75    0.40
   5  -1   5   16.19    0.42
   5  -1   5   16.40    0.40
  -6   1  -5   43.13    0.94
  -6   1  -5   44.33    0.97
   6  -1   5   42.88    0.94
   6  -1   5   43.89    0.94
   6  -1   5   44.60    0.98
  -7   1  -5    2.22    0.13
  -7   1  -5    2.24    0.19
   7  -1   5    2.38    0.20
   7  -1   5    2.30    0.14
   7  -1   5    1.91    0.13
   8  -1   5    0.08    0.12
   8  -1   5    0.14    0.07
   9  -1   5    7.04    0.38
   9  -1   5    6.60    0.41
   7   0  -5    3.56    0.34
   7   0  -5    2.90    0.27
   5   0  -5    9.25    0.27
  -5   0   5   10.19    0.26
  -5   0   5   10.08    0.33
  -5   0   5   10.19    0.27
   4   0  -5    3.16    0.14
  -4   0   5    3.35    0.17
  -4   0   5    3.07    0.13
   3   0  -5    6.26    0.19
  -3   0   5    6.63    0.21
  -3   0   5    5.75    0.19
  -3   0   5    6.20    0.19
   2   0  -5   60.80    1.28
  -2   0   5   61.96    1.34
  -2   0   5   60.64    1.28
   1   0  -5    0.01    0.04
  -1   0   5    0.02    0.04
  -1   0   5    0.08    0.05
   0   0  -5    1.81    0.10
   0   0  -5    1.74    0.10
   0   0   5    1.76    0.10
  -1   0  -5   29.86    0.66
  -1   0  -5   30.11    0.65
   1   0   5   30.35    0.65
   1   0   5   29.93    0.66
  -2   0  -5  155.23    3.09
  -2   0  -5  152.83    3.11
   2   0   5  149.72    3.08
   2   0   5  155.09    3.11
  -3   0  -5    2.30    0.11
  -3   0  -5    2.25    0.11
  -3   0  -5    2.45    0.12
   3   0   5    2.35    0.12
   3   0   5    2.32    0.12
  -4   0  -5   17.00    0.40
  -4   0  -5   16.94    0.41
  -4   0  -5   16.76    0.40
   4   0   5   17.03    0.40
   4   0   5   16.74    0.42
  -5   0  -5   25.08    0.57
  -5   0  -5   25.00    0.58
   5   0   5   25.23    0.59
   5   0   5   24.13    0.56
  -6   0  -5    5.17    0.22
  -6   0  -5    5.31    0.19
   6   0   5    5.09    0.19
   6   0   5    5.37    0.18
   6   0   5    5.20    0.22
   6   0   5    5.20    0.18
  -7   0  -5    9.07    0.24
   7   0   5    8.89    0.31
   7   0   5    8.17    0.24
   7   0   5    8.87    0.24
   7   0   5    8.95    0.27
   8   0   5    3.49    0.25
   8   0   5    3.40    0.20
   9   0   5    1.41    0.15
   9   0   5    1.33    0.19
   9   0   5    1.46    0.21
   7  -1  -5    0.46    0.17
   7  -1  -5    0.48    0.14
   6  -1  -5    7.25    0.30
   5  -1  -5    0.17    0.06
   5  -1  -5    0.02    0.09
  -5   1   5    0.07    0.05
  -5   1   5    0.09    0.06
  -5   1   5    0.08    0.09
   4  -1  -5    0.25    0.06
  -4   1   5    0.33    0.06
  -4   1   5    0.41    0.06
  -4   1   5    0.30    0.08
   3  -1  -5   42.29    0.91
  -3   1   5   43.92    0.98
  -3   1   5   42.46    0.91
   2  -1  -5   40.62    0.86
  -2   1   5   40.36    0.92
  -2   1   5   39.98    0.86
   1  -1  -5   16.77    0.38
   1  -1  -5   16.64    0.39
  -1   1   5   16.25    0.39
  -1   1   5   16.47    0.41
   0  -1  -5    2.48    0.11
   0  -1  -5    2.44    0.11
   0   1   5    2.41    0.11
  -1  -1  -5   10.35    0.26
  -1  -1  -5   10.61    0.27
   1   1   5   10.72    0.27
   1   1   5   10.63    0.27
  -2  -1  -5   12.97    0.32
  -2  -1  -5   12.81    0.32
   2   1   5   13.55    0.32
   2   1   5   13.36    0.32
  -3  -1  -5    0.21    0.05
  -3  -1  -5    0.04    0.05
  -3  -1  -5    0.07    0.05
   3   1   5    0.08    0.05
   3   1   5    0.11    0.05
  -4  -1  -5   92.30    1.92
  -4  -1  -5   87.50    1.88
  -4  -1  -5   92.79    1.88
   4   1   5   91.14    1.89
   4   1   5   93.10    1.88
  -5  -1  -5    0.10    0.06
  -5  -1  -5    0.09    0.06
  -5  -1  -5   -0.04    0.04
   5   1   5    0.15    0.07
   5   1   5    0.11    0.06
  -6  -1  -5   75.34    1.60
  -6  -1  -5   74.19    1.58
   6   1   5   73.45    1.58
   6   1   5   75.69    1.54
   6   1   5   74.37    1.59
  -7  -1  -5    1.69    0.11
  -7  -1  -5    1.88    0.16
   7   1   5    1.71    0.15
   7   1   5    1.68    0.12
   7   1   5    1.53    0.16
   7   1   5    1.81    0.12
   8   1   5    0.44    0.13
   8   1   5    0.33    0.10
   9   1   5    3.83    0.32
   9   1   5    3.88    0.28
   7  -2  -5    3.63    0.32
   7  -2  -5    4.03    0.33
   7  -2  -5    4.08    0.24
   6  -2  -5    0.24    0.09
   6  -2  -5    0.30    0.13
   5  -2  -5    3.75    0.15
   5  -2  -5    4.01    0.23
  -5   2   5    3.80    0.15
  -5   2   5    3.83    0.14
  -5   2   5    4.31    0.23
   4  -2  -5   39.40    0.93
   4  -2  -5   39.54    0.85
  -4   2   5   39.45    0.84
  -4   2   5   40.07    0.94
   3  -2  -5   14.17    0.34
   3  -2  -5   13.76    0.38
  -3   2   5   13.84    0.38
  -3   2   5   13.88    0.34
   2  -2  -5   20.45    0.47
   2  -2  -5   20.68    0.45
  -2   2   5   20.50    0.51
  -2   2   5   20.18    0.47
   1  -2  -5   22.40    0.48
   1  -2  -5   22.40    0.50
  -1   2   5   21.65    0.50
  -1   2   5   22.02    0.53
   0  -2  -5  126.11    2.50
   0  -2  -5  122.22    2.54
   0   2   5  125.06    2.67
   0   2   5  123.39    2.54
   0   2   5  125.97    2.50
  -1  -2  -5    2.84    0.12
  -1  -2  -5    2.90    0.12
   1   2   5    3.07    0.12
  -2  -2  -5   48.04    1.02
  -2  -2  -5   46.62    1.00
  -2  -2  -5   46.91    0.99
   2   2   5   47.66    0.99
   2   2   5   46.69    1.00
  -3  -2  -5    5.46    0.17
  -3  -2  -5    5.65    0.18
   3   2   5    5.59    0.18
   3   2   5    5.58    0.18
  -4  -2  -5    1.38    0.10
  -4  -2  -5    1.57    0.11
  -4  -2  -5    1.57    0.11
   4   2   5    1.56    0.10
   4   2   5    1.49    0.12
   4   2   5    1.57    0.12
  -5  -2  -5   49.87    1.08
  -5  -2  -5   52.48    1.11
  -5  -2  -5   51.32    1.13
   5   2   5   50.55    1.11
   5   2   5   51.95    1.09
   5   2   5   52.03    1.12
  -6  -2  -5    1.05    0.11
   6   2   5    1.12    0.11
   6   2   5    1.02    0.11
   6   2   5    1.10    0.09
  -7  -2  -5    8.16    0.22
  -7  -2  -5    8.01    0.29
   7   2   5    7.82    0.30
   7   2   5    8.17    0.29
   7   2   5    7.85    0.23
   8   2   5   21.74    0.58
   8   2   5   21.13    0.59
   9   2   5    2.71    0.28
   9   2   5    2.16    0.22
   7  -3  -5   -0.05    0.18
   7  -3  -5    0.02    0.09
   6  -3  -5    0.69    0.09
   6  -3  -5    0.91    0.16
   5  -3  -5    0.21    0.11
   5  -3  -5    0.29    0.06
   5  -3  -5    0.14    0.07
  -5   3   5    0.11    0.06
  -5   3   5    0.32    0.11
   4  -3  -5   10.71    0.29
   4  -3  -5   10.77    0.35
   4  -3  -5   11.09    0.26
  -4   3   5   10.95    0.28
  -4   3   5   11.29    0.35
   3  -3  -5   26.34    0.65
   3  -3  -5   26.03    0.59
   3  -3  -5   26.55    0.54
  -3   3   5   25.75    0.58
  -3   3   5   26.27    0.65
   2  -3  -5    1.28    0.07
   2  -3  -5    1.30    0.09
   2  -3  -5    1.14    0.11
  -2   3   5    1.18    0.11
  -2   3   5    1.35    0.09
   1  -3  -5  171.04    3.30
   1  -3  -5  165.49    3.36
  -1   3   5  160.50    3.36
  -1   3   5  166.24    3.55
   0  -3  -5   42.87    0.86
   0  -3  -5   40.90    0.89
   0   3   5   41.59    0.89
   0   3   5   41.09    0.86
   0   3   5   40.96    0.94
  -1  -3  -5  326.79    6.67
  -1  -3  -5  333.97    6.79
  -1  -3  -5  345.43    6.62
   1   3   5  327.24    6.67
   1   3   5  326.59    6.63
  -2  -3  -5   18.63    0.42
  -2  -3  -5   17.85    0.43
  -2  -3  -5   18.43    0.44
   2   3   5   18.30    0.43
   2   3   5   18.33    0.43
  -3  -3  -5   10.59    0.28
  -3  -3  -5   10.37    0.29
  -3  -3  -5   10.51    0.28
   3   3   5   11.09    0.28
   3   3   5   10.54    0.29
   3   3   5   10.27    0.28
  -4  -3  -5   63.80    1.38
  -4  -3  -5   63.27    1.35
  -4  -3  -5   62.49    1.34
   4   3   5   65.17    1.35
   4   3   5   65.65    1.34
   4   3   5   63.92    1.38
  -5  -3  -5   11.12    0.30
  -5  -3  -5   11.00    0.33
   5   3   5   11.45    0.30
   5   3   5   11.58    0.33
   5   3   5   11.34    0.33
  -6  -3  -5   12.69    0.38
   6   3   5   12.62    0.38
   6   3   5   12.88    0.33
   6   3   5   13.06    0.38
  -7  -3  -5    5.51    0.26
  -7  -3  -5    5.66    0.19
   7   3   5    5.37    0.26
   7   3   5    5.43    0.26
   7   3   5    5.55    0.20
   8   3   5    5.04    0.29
   8   3   5    5.15    0.19
   8   3   5    5.50    0.29
   9   3   5    3.62    0.32
   9   3   5    4.58    0.34
   7  -4  -5    3.17    0.36
   6  -4  -5    0.36    0.08
   6  -4  -5    0.54    0.09
   6  -4  -5    0.51    0.16
   5  -4  -5    1.02    0.14
   5  -4  -5    1.22    0.13
  -5   4   5    1.31    0.11
  -5   4   5    1.08    0.14
   4  -4  -5   18.42    0.52
   4  -4  -5   18.71    0.44
  -4   4   5   17.82    0.51
  -4   4   5   18.62    0.44
   3  -4  -5    7.68    0.23
   3  -4  -5    8.25    0.28
  -3   4   5    7.73    0.27
  -3   4   5    8.35    0.23
   2  -4  -5   13.12    0.33
   2  -4  -5   12.66    0.36
  -2   4   5   12.56    0.32
  -2   4   5   12.49    0.36
   1  -4  -5    4.02    0.17
   1  -4  -5    3.99    0.15
   1  -4  -5    3.94    0.11
  -1   4   5    3.82    0.16
  -1   4   5    3.80    0.15
   0  -4  -5  101.70    2.09
   0  -4  -5  103.71    2.04
   0   4   5   99.42    2.20
   0   4   5   99.64    2.09
   0   4   5  102.12    2.04
  -1  -4  -5   31.16    0.65
  -1  -4  -5   29.66    0.69
  -1  -4  -5   30.34    0.67
   1   4   5   30.33    0.71
   1   4   5   29.89    0.65
   1   4   5   30.07    0.67
  -2  -4  -5   37.89    0.84
  -2  -4  -5   38.12    0.82
  -2  -4  -5   37.88    0.81
   2   4   5   37.95    0.82
   2   4   5   36.90    0.81
  -3  -4  -5  290.72    6.05
  -3  -4  -5  295.64    5.94
   3   4   5  293.27    5.89
   3   4   5  298.61    5.94
   3   4   5  295.26    6.06
  -4  -4  -5   12.85    0.36
  -4  -4  -5   12.87    0.33
   4   4   5   12.84    0.33
   4   4   5   12.36    0.35
   4   4   5   12.66    0.34
  -5  -4  -5   11.84    0.32
  -5  -4  -5   12.41    0.36
   5   4   5   11.88    0.35
   5   4   5   12.69    0.33
   5   4   5   12.25    0.36
  -6  -4  -5    0.06    0.05
  -6  -4  -5    0.26    0.09
   6   4   5    0.29    0.09
   6   4   5    0.19    0.07
  -7  -4  -5    1.35    0.15
  -7  -4  -5    1.27    0.13
   7   4   5    1.37    0.14
   7   4   5    1.39    0.14
   7   4   5    1.20    0.14
  -8  -4  -5    8.99    0.37
  -8  -4  -5    9.25    0.25
  -8  -4  -5    7.73    0.25
   8   4   5    9.12    0.38
   8   4   5    8.82    0.36
   8   4   5    9.08    0.27
   9   4   5    1.82    0.22
   9   4   5    1.53    0.21
   6  -5  -5    0.66    0.10
   6  -5  -5    0.73    0.11
   6  -5  -5    0.64    0.17
  -6   5   5    0.63    0.09
   5  -5  -5    0.15    0.11
   5  -5  -5    0.14    0.08
   5  -5  -5    0.24    0.09
  -5   5   5    0.28    0.07
  -5   5   5    0.28    0.13
   4  -5  -5   12.13    0.40
   4  -5  -5   11.81    0.32
  -4   5   5   12.12    0.39
  -4   5   5   11.70    0.32
   3  -5  -5    0.32    0.06
   3  -5  -5    0.23    0.08
  -3   5   5    0.11    0.06
  -3   5   5    0.19    0.06
   2  -5  -5    9.44    0.30
   2  -5  -5    8.61    0.25
  -2   5   5    8.58    0.28
  -2   5   5    8.62    0.25
   1  -5  -5  137.04    2.94
   1  -5  -5  137.32    2.78
  -1   5   5  134.57    2.94
  -1   5   5  135.63    2.78
  -1   5   5  133.54    2.69
   0  -5  -5   14.09    0.36
   0  -5  -5   13.95    0.36
   0   5   5   14.03    0.36
   0   5   5   13.97    0.38
   0   5   5   13.87    0.32
  -1  -5  -5   53.63    1.14
  -1  -5  -5   53.37    1.17
   1   5   5   53.48    1.11
   1   5   5   53.46    1.20
   1   5   5   53.59    1.14
  -2  -5  -5    1.46    0.11
  -2  -5  -5    1.42    0.11
   2   5   5    1.51    0.12
   2   5   5    1.74    0.11
   2   5   5    1.70    0.11
   2   5   5    1.52    0.11
  -3  -5  -5    7.26    0.23
  -3  -5  -5    7.29    0.24
   3   5   5    7.12    0.23
   3   5   5    7.28    0.23
   3   5   5    7.18    0.24
  -4  -5  -5   25.74    0.63
  -4  -5  -5   25.34    0.59
   4   5   5   25.13    0.60
   4   5   5   25.59    0.63
   4   5   5   25.86    0.59
  -5  -5  -5    1.49    0.14
  -5  -5  -5    1.37    0.14
   5   5   5    1.41    0.13
   5   5   5    1.57    0.13
   5   5   5    1.43    0.13
  -6  -5  -5    4.10    0.22
  -6  -5  -5    3.80    0.18
   6   5   5    3.84    0.18
   6   5   5    4.06    0.23
   6   5   5    3.87    0.20
  -7  -5  -5    7.14    0.32
  -7  -5  -5    7.21    0.23
   7   5   5    6.79    0.29
   7   5   5    6.83    0.32
   7   5   5    6.89    0.25
  -8  -5  -5   10.13    0.41
  -8  -5  -5    9.83    0.29
  -8  -5  -5   10.10    0.29
   8   5   5   10.17    0.38
   8   5   5    9.77    0.32
   8   5   5    9.77    0.41
   6  -6  -5   -0.02    0.11
   6  -6  -5    0.30    0.17
   6  -6  -5    0.22    0.12
  -6   6   5    0.23    0.10
   5  -6  -5    5.99    0.31
   5  -6  -5    5.57    0.23
   5  -6  -5    5.40    0.24
  -5   6   5    5.64    0.30
  -5   6   5    5.70    0.22
   4  -6  -5    2.29    0.15
   4  -6  -5    2.26    0.21
  -4   6   5    2.18    0.19
  -4   6   5    1.97    0.14
   3  -6  -5    0.08    0.06
   3  -6  -5    0.17    0.08
  -3   6   5    0.11    0.07
  -3   6   5    0.12    0.06
   2  -6  -5   35.66    0.88
   2  -6  -5   35.64    0.81
  -2   6   5   35.74    0.87
  -2   6   5   36.78    0.81
   1  -6  -5   19.63    0.52
   1  -6  -5   19.65    0.48
   1  -6  -5   19.25    0.48
  -1   6   5   19.84    0.51
  -1   6   5   19.26    0.41
  -1   6   5   18.81    0.47
   0  -6  -5   81.96    1.85
   0  -6  -5   83.47    1.75
   0  -6  -5   83.31    1.78
   0   6   5   84.59    1.75
   0   6   5   82.94    1.85
   0   6   5   85.00    1.69
  -1  -6  -5    0.15    0.06
  -1  -6  -5    0.15    0.05
   1   6   5    0.05    0.05
   1   6   5    0.06    0.05
   1   6   5    0.10    0.05
  -2  -6  -5   11.35    0.33
  -2  -6  -5   11.79    0.33
   2   6   5   11.74    0.34
   2   6   5   11.63    0.31
   2   6   5   11.59    0.32
   2   6   5   11.66    0.32
  -3  -6  -5   77.37    1.64
  -3  -6  -5   77.05    1.68
   3   6   5   75.95    1.68
   3   6   5   77.11    1.62
   3   6   5   80.42    1.71
   3   6   5   78.05    1.64
  -4  -6  -5   17.19    0.44
  -4  -6  -5   17.74    0.47
   4   6   5   17.41    0.45
   4   6   5   17.30    0.47
   4   6   5   17.86    0.45
   4   6   5   17.14    0.44
  -5  -6  -5    0.47    0.09
  -5  -6  -5    0.43    0.09
   5   6   5    0.52    0.10
   5   6   5    0.50    0.09
   5   6   5    0.31    0.07
  -6  -6  -5    5.56    0.23
  -6  -6  -5    5.53    0.21
  -6  -6  -5    5.63    0.26
   6   6   5    5.30    0.23
   6   6   5    5.26    0.23
   6   6   5    4.83    0.27
  -7  -6  -5   19.15    0.57
  -7  -6  -5   18.70    0.48
   7   6   5   19.05    0.57
   7   6   5   18.82    0.53
  -8  -6  -5    1.31    0.13
  -8  -6  -5    0.91    0.17
  -8  -6  -5    1.18    0.12
   8   6   5    1.14    0.15
   8   6   5    0.98    0.15
   8   6   5    0.70    0.18
   6  -7  -5    9.31    0.33
   6  -7  -5    9.81    0.47
   6  -7  -5    9.22    0.35
  -6   7   5    9.93    0.32
   5  -7  -5    0.21    0.13
   5  -7  -5    0.24    0.10
  -5   7   5    0.17    0.09
   4  -7  -5    9.28    0.31
   4  -7  -5    9.36    0.36
   4  -7  -5    9.47    0.30
  -4   7   5    9.15    0.35
  -4   7   5    9.55    0.29
   3  -7  -5   13.48    0.45
   3  -7  -5   14.90    0.39
   3  -7  -5   15.41    0.41
  -3   7   5   13.67    0.39
  -3   7   5   15.77    0.45
   2  -7  -5    6.65    0.24
   2  -7  -5    6.54    0.27
   2  -7  -5    6.28    0.23
  -2   7   5    6.32    0.25
  -2   7   5    6.45    0.23
   1  -7  -5   65.97    1.42
   1  -7  -5   64.42    1.49
   1  -7  -5   64.88    1.40
  -1   7   5   65.35    1.32
  -1   7   5   66.64    1.41
  -1   7   5   65.06    1.49
   0  -7  -5    1.19    0.13
   0  -7  -5    1.38    0.13
   0  -7  -5    1.32    0.12
   0   7   5    1.16    0.12
   0   7   5    1.36    0.12
   0   7   5    1.17    0.10
  -1  -7  -5   17.83    0.46
  -1  -7  -5   17.95    0.46
   1   7   5   17.80    0.46
   1   7   5   17.90    0.47
   1   7   5   18.19    0.43
  -2  -7  -5   12.56    0.36
  -2  -7  -5   12.18    0.35
   2   7   5   12.95    0.35
   2   7   5   12.51    0.33
   2   7   5   12.24    0.37
   2   7   5   12.52    0.35
  -3  -7  -5   75.49    1.61
  -3  -7  -5   75.99    1.66
   3   7   5   76.56    1.67
   3   7   5   75.87    1.60
   3   7   5   75.83    1.62
   3   7   5   75.02    1.66
  -4  -7  -5    3.80    0.20
  -4  -7  -5    3.75    0.19
   4   7   5    3.85    0.20
   4   7   5    3.71    0.17
   4   7   5    3.65    0.19
   4   7   5    3.84    0.19
  -5  -7  -5    9.02    0.29
  -5  -7  -5   10.20    0.34
  -5  -7  -5    9.91    0.32
   5   7   5   10.31    0.32
   5   7   5   10.09    0.29
   5   7   5   10.03    0.35
   5   7   5    9.74    0.32
  -6  -7  -5   54.82    1.26
  -6  -7  -5   54.32    1.18
  -6  -7  -5   53.03    1.18
   6   7   5   53.42    1.20
   6   7   5   54.54    1.19
   6   7   5   53.18    1.21
   6   7   5   52.93    1.26
  -7  -7  -5    0.56    0.12
  -7  -7  -5    0.51    0.10
  -7  -7  -5    0.68    0.14
   7   7   5    0.59    0.10
   7   7   5    0.59    0.15
   7   7   5    0.75    0.12
   7   7   5    0.56    0.13
  -8  -7  -5    2.57    0.21
  -8  -7  -5    2.37    0.24
  -8  -7  -5    2.74    0.23
   8   7   5    2.16    0.25
   8   7   5    2.52    0.26
   8   7   5    2.99    0.26
   8   7   5    2.45    0.20
   5  -8  -5    1.35    0.16
   5  -8  -5    1.34    0.14
   5  -8  -5    0.96    0.17
   5  -8  -5    1.49    0.16
  -5   8   5    1.32    0.14
   4  -8  -5    3.55    0.23
   4  -8  -5    3.64    0.26
   4  -8  -5    3.84    0.21
   4  -8  -5    4.04    0.24
  -4   8   5    3.83    0.23
  -4   8   5    3.78    0.20
   3  -8  -5    2.78    0.21
   3  -8  -5    2.74    0.22
   3  -8  -5    3.02    0.19
   3  -8  -5    2.90    0.16
  -3   8   5    3.00    0.16
  -3   8   5    2.53    0.19
   2  -8  -5   40.74    0.93
   2  -8  -5   43.58    0.95
   2  -8  -5   42.31    0.94
   2  -8  -5   38.77    1.00
  -2   8   5   37.80    0.92
  -2   8   5   42.60    1.01
   1  -8  -5   23.91    0.59
   1  -8  -5   22.77    0.62
   1  -8  -5   23.30    0.58
  -1   8   5   23.25    0.62
  -1   8   5   23.67    0.58
  -1   8   5   23.17    0.50
   0  -8  -5    0.38    0.09
   0  -8  -5    0.49    0.09
   0  -8  -5    0.40    0.09
   0   8   5    0.38    0.08
   0   8   5    0.32    0.09
   0   8   5    0.40    0.07
  -1  -8  -5   36.91    0.86
  -1  -8  -5   37.02    0.86
   1   8   5   37.15    0.88
   1   8   5   36.70    0.81
   1   8   5   36.74    0.85
  -2  -8  -5    1.45    0.14
  -2  -8  -5    1.28    0.13
   2   8   5    1.39    0.14
   2   8   5    1.58    0.16
   2   8   5    1.37    0.13
   2   8   5    1.40    0.15
  -3  -8  -5   10.62    0.34
  -3  -8  -5   10.21    0.33
   3   8   5   10.47    0.34
   3   8   5    9.96    0.34
   3   8   5   10.30    0.31
   3   8   5   10.87    0.33
  -4  -8  -5    0.61    0.09
  -4  -8  -5    0.77    0.09
  -4  -8  -5    0.75    0.12
   4   8   5    0.58    0.11
   4   8   5    0.67    0.09
   4   8   5    0.56    0.10
   4   8   5    0.74    0.12
  -5  -8  -5   70.50    1.51
  -5  -8  -5   69.22    1.50
  -5  -8  -5   69.39    1.56
   5   8   5   68.01    1.57
   5   8   5   69.50    1.51
   5   8   5   69.33    1.53
   5   8   5   68.38    1.51
  -6  -8  -5    1.70    0.17
  -6  -8  -5    2.19    0.16
  -6  -8  -5    1.52    0.14
   6   8   5    1.56    0.15
   6   8   5    1.49    0.16
   6   8   5    1.75    0.16
   6   8   5    1.91    0.16
  -7  -8  -5    8.54    0.35
  -7  -8  -5    8.99    0.32
  -7  -8  -5    8.79    0.39
   7   8   5    9.05    0.28
   7   8   5    9.14    0.36
   7   8   5    8.33    0.34
   7   8   5    8.98    0.41
   5  -9  -5    0.18    0.15
   5  -9  -5    0.31    0.15
   5  -9  -5    0.58    0.16
   5  -9  -5    0.61    0.17
  -5   9   5    0.41    0.12
   4  -9  -5    0.10    0.12
   4  -9  -5    0.23    0.13
   4  -9  -5    0.07    0.10
   4  -9  -5    0.31    0.12
  -4   9   5    0.22    0.10
   3  -9  -5   20.38    0.54
   3  -9  -5   20.88    0.57
   3  -9  -5   20.41    0.61
   3  -9  -5   21.23    0.55
  -3   9   5   20.88    0.54
  -3   9   5   20.36    0.59
   2  -9  -5   10.25    0.33
   2  -9  -5   10.15    0.33
   2  -9  -5    9.29    0.37
   2  -9  -5   10.17    0.36
  -2   9   5    9.91    0.35
  -2   9   5   10.67    0.33
   1  -9  -5    6.80    0.29
   1  -9  -5    6.79    0.27
   1  -9  -5    6.92    0.26
   1  -9  -5    6.72    0.30
  -1   9   5    6.79    0.28
  -1   9   5    6.79    0.20
  -1   9   5    6.78    0.26
   0  -9  -5   -0.01    0.09
   0  -9  -5   -0.05    0.08
   0  -9  -5    0.01    0.08
   0  -9  -5   -0.04    0.08
   0   9   5   -0.05    0.07
   0   9   5    0.03    0.06
   0   9   5    0.04    0.08
  -1  -9  -5   19.96    0.53
  -1  -9  -5   17.67    0.52
  -1  -9  -5   20.20    0.53
   1   9   5   19.86    0.53
   1   9   5   20.06    0.48
   1   9   5   19.33    0.52
  -2  -9  -5    8.20    0.30
  -2  -9  -5    8.84    0.31
  -2  -9  -5    8.16    0.32
   2   9   5    8.10    0.32
   2   9   5    8.69    0.29
   2   9   5    8.68    0.31
   2   9   5    8.40    0.29
  -3  -9  -5    1.60    0.15
  -3  -9  -5    1.40    0.15
  -3  -9  -5    1.64    0.16
   3   9   5    1.55    0.16
   3   9   5    1.70    0.18
   3   9   5    1.77    0.18
   3   9   5    1.67    0.15
  -4  -9  -5    5.58    0.25
  -4  -9  -5    6.03    0.29
  -4  -9  -5    5.74    0.23
   4   9   5    5.62    0.27
   4   9   5    5.67    0.23
   4   9   5    5.50    0.26
   4   9   5    5.76    0.27
  -5  -9  -5    0.12    0.13
  -5  -9  -5    0.18    0.11
  -5  -9  -5    0.12    0.07
   5   9   5    0.15    0.10
   5   9   5    0.10    0.11
   5   9   5    0.22    0.09
   5   9   5    0.19    0.12
  -6  -9  -5   20.05    0.59
  -6  -9  -5   19.52    0.57
  -6  -9  -5   20.48    0.55
   6   9   5   20.47    0.51
   6   9   5   20.69    0.58
   6   9   5   19.96    0.58
   6   9   5   20.11    0.61
  -7  -9  -5    0.65    0.13
  -7  -9  -5    0.87    0.18
  -7  -9  -5    0.66    0.18
   7   9   5    0.66    0.13
   7   9   5    0.68    0.18
   7   9   5    0.27    0.16
   4 -10  -5    6.34    0.30
   4 -10  -5    6.82    0.36
   4 -10  -5    6.63    0.31
   4 -10  -5    6.60    0.36
  -4  10   5    6.44    0.28
   3 -10  -5    2.81    0.28
   3 -10  -5    3.05    0.26
   3 -10  -5    3.19    0.21
   3 -10  -5    3.16    0.24
  -3  10   5    3.59    0.20
  -3  10   5    2.79    0.23
   2 -10  -5    4.51    0.25
   2 -10  -5    4.45    0.23
   2 -10  -5    4.75    0.28
   2 -10  -5    4.43    0.28
  -2  10   5    4.62    0.22
  -2  10   5    4.93    0.26
   1 -10  -5    1.20    0.16
   1 -10  -5    1.15    0.14
   1 -10  -5    1.05    0.12
   1 -10  -5    1.01    0.15
  -1  10   5    1.12    0.12
  -1  10   5    1.45    0.13
  -1  10   5    1.29    0.14
   0 -10  -5   26.46    0.77
   0 -10  -5   29.78    0.75
   0 -10  -5   29.29    0.74
   0 -10  -5   31.42    0.76
   0  10   5   29.95    0.77
   0  10   5   29.75    0.67
   0  10   5   29.83    0.74
  -1 -10  -5    0.97    0.15
  -1 -10  -5    1.04    0.14
  -1 -10  -5    0.77    0.12
   1  10   5    1.03    0.12
   1  10   5    0.98    0.13
   1  10   5    0.76    0.12
  -2 -10  -5   17.92    0.51
  -2 -10  -5   16.90    0.52
  -2 -10  -5   18.39    0.51
   2  10   5   17.12    0.47
   2  10   5   16.66    0.49
   2  10   5   16.86    0.52
   2  10   5   17.06    0.50
  -3 -10  -5    0.95    0.14
  -3 -10  -5    0.71    0.15
  -3 -10  -5    0.72    0.12
   3  10   5    0.93    0.12
   3  10   5    0.75    0.14
   3  10   5    0.82    0.13
   3  10   5    0.92    0.14
  -4 -10  -5    4.47    0.31
  -4 -10  -5    4.75    0.25
  -4 -10  -5    4.34    0.23
   4  10   5    4.26    0.27
   4  10   5    4.58    0.23
   4  10   5    4.28    0.27
   4  10   5    4.43    0.28
  -5 -10  -5    1.81    0.20
  -5 -10  -5    1.38    0.14
  -5 -10  -5    1.80    0.17
   5  10   5    1.79    0.19
   5  10   5    2.14    0.22
   5  10   5    1.66    0.19
   5  10   5    1.97    0.19
  -6 -10  -5    5.54    0.33
  -6 -10  -5    6.09    0.37
  -6 -10  -5    6.42    0.27
   6  10   5    6.53    0.25
   6  10   5    6.39    0.37
   6  10   5    5.92    0.34
   6  10   5    5.70    0.32
   3 -11  -5    1.44    0.20
   3 -11  -5    1.83    0.18
   3 -11  -5    1.52    0.15
   3 -11  -5    1.65    0.21
  -3  11   5    1.68    0.15
   2 -11  -5    0.32    0.15
   2 -11  -5    0.13    0.11
   2 -11  -5    0.19    0.13
   2 -11  -5    0.05    0.15
  -2  11   5    0.36    0.10
  -2  11   5    0.19    0.13
   1 -11  -5    4.69    0.31
   1 -11  -5    4.66    0.31
   1 -11  -5    4.91    0.28
   1 -11  -5    4.43    0.28
  -1  11   5    5.12    0.26
  -1  11   5    4.84    0.20
  -1  11   5    4.49    0.29
   0 -11  -5   -0.16    0.13
   0 -11  -5    0.10    0.13
   0 -11  -5    0.19    0.12
   0 -11  -5    0.13    0.13
   0  11   5    0.21    0.10
   0  11   5   -0.03    0.11
   0  11   5   -0.05    0.12
  -1 -11  -5   27.16    0.74
  -1 -11  -5   28.65    0.76
  -1 -11  -5   27.92    0.73
   1  11   5   28.26    0.74
   1  11   5   27.95    0.68
   1  11   5   28.34    0.75
  -2 -11  -5    0.26    0.12
  -2 -11  -5    0.45    0.13
  -2 -11  -5    0.57    0.16
   2  11   5    0.56    0.12
   2  11   5    0.31    0.13
   2  11   5    0.44    0.14
   2  11   5    0.59    0.13
  -3 -11  -5    2.65    0.25
  -3 -11  -5    3.04    0.31
  -3 -11  -5    2.85    0.24
   3  11   5    3.41    0.27
   3  11   5    3.07    0.28
   3  11   5    3.29    0.23
   3  11   5    3.09    0.28
  -4 -11  -5   21.23    0.64
  -4 -11  -5   23.50    0.63
  -4 -11  -5   22.86    0.68
   4  11   5   22.70    0.60
   4  11   5   22.90    0.66
   4  11   5   22.90    0.64
   4  11   5   22.99    0.67
  -5 -11  -5    5.71    0.40
  -5 -11  -5    5.77    0.27
  -5 -11  -5    4.72    0.30
   5  11   5    5.62    0.26
   5  11   5    5.64    0.33
   5  11   5    5.23    0.37
   5  11   5    5.82    0.35
   1 -12  -5    0.37    0.16
   1 -12  -5    0.17    0.16
   1 -12  -5    0.08    0.16
   1 -12  -5    0.10    0.18
  -1  12   5    0.17    0.12
  -1  12   5    0.31    0.11
  -1  12   5    0.06    0.17
   0 -12  -5   16.04    0.55
   0 -12  -5   14.76    0.54
   0 -12  -5   15.21    0.51
   0 -12  -5   16.21    0.55
   0  12   5   15.26    0.44
   0  12   5   15.78    0.53
   0  12   5   15.71    0.52
  -1 -12  -5    0.63    0.18
  -1 -12  -5    0.60    0.16
  -1 -12  -5    0.75    0.16
   1  12   5    0.76    0.16
   1  12   5    0.72    0.15
   1  12   5    0.76    0.16
  -2 -12  -5    4.99    0.32
  -2 -12  -5    4.26    0.32
  -2 -12  -5    4.96    0.38
   2  12   5    4.97    0.34
   2  12   5    4.80    0.31
   2  12   5    5.34    0.34
   2  12   5    4.96    0.31
  -3 -12  -5    8.26    0.37
  -3 -12  -5    8.76    0.46
  -3 -12  -5    7.30    0.40
   3  12   5    8.55    0.36
   3  12   5    7.54    0.41
   3  12   5    8.33    0.39
   3  12   5    8.62    0.42
  -4 -12  -5    4.83    0.29
  -4 -12  -5    4.40    0.44
  -4 -12  -5    3.30    0.33
   4  12   5    5.10    0.30
   4  12   5    4.49    0.40
   4  12   5    5.05    0.36
   4  12   5    5.08    0.37
   2   9  -6    1.54    0.20
   2   9  -6    1.68    0.23
  -2  -9   6    1.70    0.16
  -2  -9   6    1.31    0.24
   1   9  -6    3.24    0.32
   1   9  -6    3.57    0.32
  -1  -9   6    3.23    0.27
  -1  -9   6    3.25    0.23
  -1  -9   6    2.72    0.26
   0   9  -6    1.44    0.20
   0   9  -6    1.67    0.19
   0  -9   6    1.34    0.18
   0  -9   6    1.61    0.17
   0  -9   6    1.29    0.21
  -1   9  -6   18.80    0.58
  -1   9  -6   17.97    0.56
  -1   9  -6   18.36    0.53
  -1   9  -6   18.50    0.60
   1  -9   6   17.79    0.57
   1  -9   6   17.91    0.59
   1  -9   6   17.76    0.54
  -2   9  -6    0.29    0.12
  -2   9  -6    0.53    0.15
  -2   9  -6    0.10    0.17
   2  -9   6    0.37    0.15
   2  -9   6    0.14    0.16
   2  -9   6    0.21    0.15
  -3   9  -6    2.48    0.19
  -3   9  -6    2.26    0.25
  -3   9  -6    2.86    0.28
   3  -9   6    2.51    0.23
   3  -9   6    2.08    0.22
   3  -9   6    2.00    0.20
  -4   9  -6    0.31    0.16
  -4   9  -6    0.51    0.20
   4  -9   6    0.20    0.16
   4  -9   6    0.37    0.18
   4  -9   6    0.30    0.14
   3   8  -6    5.26    0.29
   3   8  -6    4.46    0.36
  -3  -8   6    5.74    0.40
  -3  -8   6    5.38    0.26
   2   8  -6    0.14    0.12
   2   8  -6    0.15    0.16
  -2  -8   6    0.39    0.10
  -2  -8   6    0.12    0.17
   1   8  -6    1.62    0.17
   1   8  -6    1.97    0.19
  -1  -8   6    2.36    0.19
  -1  -8   6    1.79    0.17
  -1  -8   6    2.10    0.21
   0   8  -6    4.75    0.28
   0   8  -6    4.58    0.30
   0  -8   6    4.75    0.27
   0  -8   6    4.61    0.25
   0  -8   6    4.75    0.31
  -1   8  -6    0.56    0.12
  -1   8  -6    0.31    0.14
  -1   8  -6    0.54    0.12
   1  -8   6    0.40    0.13
   1  -8   6    0.30    0.13
  -2   8  -6   16.21    0.53
  -2   8  -6   17.41    0.51
  -2   8  -6   16.88    0.45
   2  -8   6   14.83    0.51
   2  -8   6   17.13    0.52
  -3   8  -6    0.09    0.09
  -3   8  -6    0.14    0.15
  -3   8  -6    0.23    0.12
   3  -8   6    0.11    0.13
   3  -8   6    0.24    0.11
  -4   8  -6    1.00    0.19
  -4   8  -6    0.85    0.15
   4  -8   6    0.56    0.12
   4  -8   6    0.99    0.17
   4  -8   6    0.79    0.17
  -5   8  -6    2.70    0.22
  -5   8  -6    3.12    0.26
   5  -8   6    2.89    0.29
   5  -8   6    3.27    0.31
   5  -8   6    2.66    0.24
   4   7  -6    4.72    0.28
   4   7  -6    5.20    0.35
  -4  -7   6    5.31    0.37
  -4  -7   6    5.26    0.26
   3   7  -6    1.12    0.13
   3   7  -6    1.42    0.17
  -3  -7   6    1.27    0.12
  -3  -7   6    0.88    0.17
   2   7  -6   11.72    0.42
   2   7  -6   11.24    0.38
  -2  -7   6   10.95    0.31
  -2  -7   6   11.97    0.37
  -2  -7   6   10.83    0.42
   1   7  -6    3.24    0.24
   1   7  -6    3.57    0.23
  -1  -7   6    3.35    0.21
  -1  -7   6    3.35    0.27
   0   7  -6    4.54    0.25
   0   7  -6    3.90    0.25
   0  -7   6    4.23    0.27
   0  -7   6    4.15    0.24
  -1   7  -6   10.26    0.38
  -1   7  -6   10.34    0.34
  -1   7  -6   10.96    0.36
   1  -7   6   10.59    0.37
   1  -7   6   10.23    0.38
  -2   7  -6    7.60    0.30
  -2   7  -6    7.09    0.26
  -2   7  -6    6.98    0.33
   2  -7   6    7.65    0.31
   2  -7   6    7.27    0.31
  -3   7  -6   10.62    0.30
  -3   7  -6   10.33    0.37
  -3   7  -6   10.89    0.41
   3  -7   6   11.03    0.37
   3  -7   6   10.69    0.38
  -4   7  -6   20.12    0.56
  -4   7  -6   20.42    0.59
   4  -7   6   20.75    0.58
   4  -7   6   19.32    0.55
  -5   7  -6   18.11    0.55
  -5   7  -6   17.40    0.52
   5  -7   6   17.61    0.53
   5  -7   6   17.21    0.50
  -6   7  -6    4.01    0.33
  -6   7  -6    4.32    0.31
   6  -7   6    3.56    0.25
   6  -7   6    4.72    0.32
   6  -7   6    4.32    0.31
   4   6  -6    1.64    0.16
   4   6  -6    1.46    0.15
  -4  -6   6    1.65    0.19
  -4  -6   6    1.79    0.18
   3   6  -6   10.96    0.36
   3   6  -6   11.35    0.41
  -3  -6   6   11.23    0.41
  -3  -6   6   12.05    0.36
   2   6  -6   -0.09    0.09
   2   6  -6    0.06    0.08
  -2  -6   6    0.01    0.07
  -2  -6   6    0.14    0.12
   1   6  -6    8.14    0.30
   1   6  -6    8.22    0.31
  -1  -6   6    7.96    0.33
  -1  -6   6    8.20    0.29
   0   6  -6   31.53    0.76
   0   6  -6   31.45    0.78
   0  -6   6   32.01    0.77
   0  -6   6   31.02    0.78
  -1   6  -6    3.58    0.19
  -1   6  -6    3.93    0.20
  -1   6  -6    3.43    0.23
   1  -6   6    3.93    0.23
   1  -6   6    3.76    0.21
  -2   6  -6    9.32    0.34
  -2   6  -6    9.20    0.32
  -2   6  -6    9.72    0.29
   2  -6   6    9.29    0.33
   2  -6   6    9.68    0.34
  -3   6  -6    5.03    0.24
  -3   6  -6    4.74    0.26
  -3   6  -6    4.62    0.17
   3  -6   6    4.89    0.23
   3  -6   6    4.99    0.25
  -4   6  -6   20.21    0.55
  -4   6  -6   19.64    0.54
   4  -6   6   19.73    0.55
   4  -6   6   19.71    0.53
  -5   6  -6   11.59    0.41
  -5   6  -6   11.33    0.38
   5  -6   6   11.64    0.39
   5  -6   6   10.56    0.35
  -6   6  -6    2.57    0.25
  -6   6  -6    2.31    0.20
   6  -6   6    1.66    0.18
   6  -6   6    2.33    0.19
  -7   6  -6   14.94    0.50
  -7   6  -6   14.76    0.49
   7  -6   6   14.44    0.46
   7  -6   6   14.60    0.52
   7  -6   6   15.45    0.48
   5   5  -6    0.02    0.13
   5   5  -6    0.17    0.14
  -5  -5   6    0.07    0.10
  -5  -5   6    0.08    0.15
   4   5  -6   14.61    0.47
   4   5  -6   14.07    0.43
  -4  -5   6   14.06    0.45
  -4  -5   6   14.46    0.41
   3   5  -6    0.18    0.09
   3   5  -6    0.46    0.08
  -3  -5   6    0.33    0.12
  -3  -5   6    0.27    0.07
   2   5  -6    3.18    0.18
   2   5  -6    3.47    0.21
  -2  -5   6    3.46    0.22
  -2  -5   6    3.39    0.17
   1   5  -6    8.72    0.30
   1   5  -6    8.25    0.28
  -1  -5   6    8.24    0.31
  -1  -5   6    8.40    0.28
   0   5  -6   20.48    0.54
   0  -5   6   20.17    0.54
   0  -5   6   20.64    0.53
  -1   5  -6   10.95    0.34
  -1   5  -6   11.70    0.36
   1  -5   6   11.77    0.35
   1  -5   6   11.21    0.35
  -2   5  -6    0.42    0.10
  -2   5  -6    0.25    0.07
  -2   5  -6    0.34    0.07
   2  -5   6    0.36    0.09
   2  -5   6    0.36    0.08
  -3   5  -6   27.44    0.61
  -3   5  -6   27.81    0.67
  -3   5  -6   26.49    0.66
   3  -5   6   27.17    0.67
   3  -5   6   26.75    0.66
  -4   5  -6   18.56    0.50
  -4   5  -6   18.22    0.50
   4  -5   6   19.04    0.50
   4  -5   6   18.68    0.49
  -5   5  -6   23.90    0.61
  -5   5  -6   24.03    0.61
   5  -5   6   23.74    0.60
   5  -5   6   23.88    0.61
  -6   5  -6    5.39    0.26
  -6   5  -6    5.31    0.28
   6  -5   6    5.02    0.23
   6  -5   6    4.84    0.26
  -7   5  -6    1.85    0.18
  -7   5  -6    2.13    0.18
   7  -5   6    2.40    0.21
   7  -5   6    2.00    0.17
   5   4  -6   15.93    0.50
   5   4  -6   15.55    0.46
  -5  -4   6   15.70    0.42
  -5  -4   6   14.56    0.45
   4   4  -6    2.81    0.21
   4   4  -6    2.95    0.19
  -4  -4   6    3.02    0.17
  -4  -4   6    2.87    0.23
   3   4  -6   20.65    0.54
   3   4  -6   21.41    0.58
  -3  -4   6   21.80    0.53
  -3  -4   6   21.29    0.55
  -3  -4   6   21.37    0.50
   2   4  -6    0.98    0.10
  -2  -4   6    1.10    0.12
  -2  -4   6    1.17    0.11
   1   4  -6    9.00    0.28
  -1  -4   6    8.76    0.30
  -1  -4   6    9.07    0.28
   0   4  -6   27.86    0.67
   0  -4   6   28.60    0.67
   0  -4   6   27.98    0.67
  -1   4  -6    0.94    0.09
  -1   4  -6    0.86    0.10
   1  -4   6    1.14    0.11
   1  -4   6    0.87    0.10
  -2   4  -6   34.12    0.79
  -2   4  -6   34.47    0.80
   2  -4   6   33.86    0.79
   2  -4   6   34.75    0.79
  -3   4  -6    9.68    0.30
  -3   4  -6    9.71    0.31
   3  -4   6    9.23    0.30
   3  -4   6    9.06    0.29
  -4   4  -6   45.17    1.03
  -4   4  -6   46.03    0.96
  -4   4  -6   47.07    1.03
   4  -4   6   45.59    1.03
   4  -4   6   45.33    1.03
  -5   4  -6    2.12    0.18
  -5   4  -6    2.19    0.17
   5  -4   6    2.20    0.18
   5  -4   6    2.01    0.14
  -6   4  -6    0.24    0.11
  -6   4  -6    0.19    0.09
   6  -4   6    0.10    0.10
   6  -4   6    0.11    0.08
  -7   4  -6   26.82    0.68
  -7   4  -6   28.54    0.70
   7  -4   6   27.74    0.68
   7  -4   6   28.05    0.71
   7  -4   6   27.55    0.67
  -8   4  -6    0.22    0.16
  -8   4  -6    0.15    0.12
   8  -4   6    0.10    0.16
   8  -4   6   -0.08    0.12
   8  -4   6    0.18    0.13
   6   3  -6    1.34    0.19
   6   3  -6    1.43    0.15
  -6  -3   6    1.46    0.13
  -6  -3   6    1.56    0.15
   5   3  -6    0.34    0.10
   5   3  -6    0.03    0.10
  -5  -3   6    0.11    0.08
   4   3  -6    7.60    0.27
  -4  -3   6    7.73    0.23
  -4  -3   6    7.71    0.29
  -4  -3   6    7.74    0.25
   3   3  -6    5.17    0.20
  -3  -3   6    5.08    0.18
  -3  -3   6    5.35    0.20
  -3  -3   6    5.09    0.22
   2   3  -6   17.26    0.47
  -2  -3   6   19.36    0.49
  -2  -3   6   19.57    0.48
  -2  -3   6   20.36    0.47
   1   3  -6   68.19    1.46
  -1  -3   6   67.78    1.46
  -1  -3   6   68.56    1.45
   0   3  -6   60.29    1.29
   0  -3   6   59.34    1.29
   0  -3   6   60.59    1.29
  -1   3  -6   10.01    0.29
  -1   3  -6    9.71    0.29
   1  -3   6   10.02    0.29
   1  -3   6    9.82    0.29
  -2   3  -6    4.10    0.18
  -2   3  -6    4.04    0.17
   2  -3   6    3.92    0.17
   2  -3   6    3.83    0.17
  -3   3  -6  107.76    2.23
  -3   3  -6  108.74    2.25
   3  -3   6  106.60    2.24
   3  -3   6  108.19    2.25
  -4   3  -6    0.00    0.07
  -4   3  -6    0.07    0.04
  -4   3  -6    0.05    0.05
   4  -3   6    0.18    0.07
   4  -3   6    0.09    0.06
  -5   3  -6    0.02    0.08
  -5   3  -6    0.16    0.07
   5  -3   6    0.12    0.08
   5  -3   6    0.10    0.08
   5  -3   6    0.10    0.06
  -6   3  -6   10.05    0.32
  -6   3  -6   10.57    0.34
   6  -3   6   10.31    0.31
   6  -3   6   10.87    0.35
   6  -3   6   10.69    0.32
  -7   3  -6    7.21    0.30
   7  -3   6    8.04    0.28
   7  -3   6    7.66    0.32
  -8   3  -6    0.87    0.16
  -8   3  -6    0.88    0.12
   8  -3   6    0.82    0.13
   8  -3   6    0.93    0.13
   8  -3   6    0.63    0.16
   6   2  -6    0.02    0.10
   6   2  -6    0.11    0.14
  -6  -2   6   -0.02    0.08
  -6  -2   6   -0.04    0.10
   5   2  -6    3.88    0.21
  -5  -2   6    4.40    0.19
   4   2  -6    0.71    0.09
  -4  -2   6    0.66    0.10
  -4  -2   6    0.85    0.09
  -4  -2   6    0.78    0.10
   3   2  -6    1.86    0.13
  -3  -2   6    2.04    0.13
  -3  -2   6    1.98    0.13
  -3  -2   6    1.87    0.16
   2   2  -6   19.01    0.47
  -2  -2   6   18.79    0.47
  -2  -2   6   18.92    0.46
  -2  -2   6   19.54    0.47
   1   2  -6   46.86    1.02
  -1  -2   6   47.21    1.02
  -1  -2   6   46.95    1.02
   0   2  -6   24.64    0.58
   0   2  -6   24.98    0.58
   0  -2   6   25.00    0.58
   0  -2   6   24.58    0.58
  -1   2  -6   20.83    0.49
  -1   2  -6   20.32    0.49
   1  -2   6   19.71    0.49
   1  -2   6   20.23    0.49
  -2   2  -6  186.28    3.76
  -2   2  -6  181.94    3.72
   2  -2   6  184.95    3.75
   2  -2   6  184.04    3.75
  -3   2  -6   22.56    0.55
  -3   2  -6   23.58    0.55
   3  -2   6   23.18    0.54
   3  -2   6   22.73    0.54
   3  -2   6   22.56    0.55
  -4   2  -6    7.08    0.23
  -4   2  -6    7.16    0.20
  -4   2  -6    7.07    0.24
   4  -2   6    6.78    0.24
   4  -2   6    7.05    0.23
   4  -2   6    6.95    0.23
  -5   2  -6    5.15    0.21
  -5   2  -6    4.96    0.16
  -5   2  -6    4.96    0.20
   5  -2   6    4.88    0.18
   5  -2   6    5.00    0.20
   5  -2   6    5.12    0.21
  -6   2  -6   16.66    0.45
  -6   2  -6   16.78    0.38
  -6   2  -6   16.51    0.43
   6  -2   6   16.64    0.46
   6  -2   6   16.84    0.43
   6  -2   6   16.89    0.43
  -7   2  -6    5.01    0.25
   7  -2   6    4.66    0.26
   7  -2   6    5.17    0.21
   7  -2   6    5.28    0.21
  -8   2  -6    0.03    0.13
  -8   2  -6    0.05    0.09
   8  -2   6   -0.02    0.10
   8  -2   6    0.05    0.10
   8  -2   6   -0.16    0.13
   6   1  -6    1.97    0.20
   6   1  -6    2.65    0.20
  -6  -1   6    2.73    0.15
  -6  -1   6    2.80    0.17
   5   1  -6    4.56    0.21
  -5  -1   6    4.17    0.20
  -5  -1   6    3.94    0.18
  -5  -1   6    4.45    0.22
   4   1  -6    1.39    0.13
  -4  -1   6    1.56    0.12
  -4  -1   6    1.15    0.11
   3   1  -6   25.34    0.59
  -3  -1   6   24.28    0.59
  -3  -1   6   25.68    0.61
  -3  -1   6   26.07    0.59
   2   1  -6   42.34    0.92
  -2  -1   6   41.77    0.92
  -2  -1   6   43.32    0.96
  -2  -1   6   41.88    0.92
   1   1  -6    1.10    0.10
  -1  -1   6    1.16    0.10
  -1  -1   6    1.16    0.11
   0   1  -6   13.67    0.35
   0   1  -6   13.86    0.35
   0  -1   6   13.70    0.35
  -1   1  -6  101.60    2.09
  -1   1  -6  101.67    2.10
   1  -1   6  101.91    2.10
  -2   1  -6   39.88    0.88
  -2   1  -6   40.77    0.89
   2  -1   6   41.28    0.89
  -3   1  -6   12.27    0.33
  -3   1  -6   12.81    0.33
   3  -1   6   12.79    0.33
   3  -1   6   12.48    0.34
  -4   1  -6   27.87    0.62
  -4   1  -6   28.22    0.64
  -4   1  -6   27.91    0.63
   4  -1   6   27.49    0.63
   4  -1   6   27.66    0.63
   4  -1   6   26.93    0.64
  -5   1  -6    9.86    0.28
  -5   1  -6   10.08    0.26
  -5   1  -6   10.02    0.30
   5  -1   6    9.73    0.28
   5  -1   6    9.76    0.28
   5  -1   6    9.75    0.30
  -6   1  -6   10.15    0.29
  -6   1  -6   10.24    0.32
  -6   1  -6   10.27    0.28
   6  -1   6   10.73    0.29
   6  -1   6   10.48    0.29
   6  -1   6   10.36    0.33
  -7   1  -6   23.98    0.60
   7  -1   6   22.94    0.54
   7  -1   6   22.95    0.55
   7  -1   6   22.75    0.60
  -8   1  -6    6.41    0.30
  -8   1  -6    5.75    0.21
   8  -1   6    6.42    0.32
   8  -1   6    5.79    0.23
   8  -1   6    6.15    0.23
   9  -1   6    0.51    0.18
   6   0  -6    2.55    0.17
   5   0  -6    0.08    0.08
  -5   0   6   -0.01    0.07
  -5   0   6   -0.10    0.10
  -5   0   6    0.10    0.06
   4   0  -6    4.67    0.18
  -4   0   6    4.81    0.21
  -4   0   6    4.93    0.18
   3   0  -6   41.96    0.91
  -3   0   6   42.31    0.90
  -3   0   6   42.07    0.96
  -3   0   6   40.29    0.90
   2   0  -6    0.60    0.07
  -2   0   6    0.52    0.06
  -2   0   6    0.79    0.08
   1   0  -6    6.92    0.21
   1   0  -6    6.78    0.21
  -1   0   6    6.63    0.21
  -1   0   6    6.67    0.21
   0   0  -6   26.54    0.59
   0   0  -6   26.41    0.60
   0   0   6   26.74    0.60
  -1   0  -6    8.69    0.25
  -1   0  -6    9.08    0.25
   1   0   6    8.92    0.25
  -2   0  -6   52.34    1.10
  -2   0  -6   51.85    1.09
   2   0   6   50.16    1.09
   2   0   6   52.25    1.10
  -3   0  -6    0.74    0.08
  -3   0  -6    0.87    0.09
  -3   0  -6    0.82    0.09
   3   0   6    0.69    0.08
   3   0   6    0.88    0.10
  -4   0  -6  109.90    2.28
  -4   0  -6  109.29    2.27
  -4   0  -6  110.61    2.30
   4   0   6  113.27    2.28
   4   0   6  110.21    2.27
  -5   0  -6   36.03    0.82
  -5   0  -6   36.94    0.80
  -5   0  -6   36.80    0.81
   5   0   6   35.68    0.82
   5   0   6   36.46    0.80
  -6   0  -6   33.04    0.73
  -6   0  -6   33.29    0.75
   6   0   6   33.18    0.76
   6   0   6   29.31    0.71
  -7   0  -6    1.13    0.10
  -7   0  -6    1.10    0.10
  -7   0  -6    1.00    0.12
   7   0   6    1.08    0.13
   7   0   6    1.09    0.10
   7   0   6    1.04    0.10
  -8   0  -6    0.23    0.08
   8   0   6    0.15    0.08
   8   0   6    0.09    0.12
   8   0   6    0.22    0.09
   9   0   6   13.34    0.49
   5  -1  -6    0.11    0.07
  -5   1   6    0.08    0.07
  -5   1   6    0.08    0.06
  -5   1   6   -0.05    0.10
   4  -1  -6   30.08    0.69
  -4   1   6   31.30    0.76
  -4   1   6   31.56    0.69
   3  -1  -6    1.77    0.12
  -3   1   6    1.79    0.12
  -3   1   6    2.15    0.15
   2  -1  -6    8.61    0.24
  -2   1   6    8.47    0.24
  -2   1   6    8.97    0.27
   1  -1  -6    0.20    0.05
   1  -1  -6    0.25    0.05
  -1   1   6    0.19    0.05
  -1   1   6    0.31    0.06
   0  -1  -6    0.28    0.05
   0  -1  -6    0.21    0.05
   0   1   6    0.14    0.05
  -1  -1  -6    6.29    0.20
  -1  -1  -6    6.47    0.19
   1   1   6    6.32    0.19
  -2  -1  -6    3.17    0.13
  -2  -1  -6    3.00    0.14
   2   1   6    3.08    0.14
   2   1   6    3.15    0.14
  -3  -1  -6   37.53    0.82
  -3  -1  -6   38.01    0.83
  -3  -1  -6   36.98    0.82
   3   1   6   38.44    0.82
   3   1   6   35.98    0.82
  -4  -1  -6   45.10    1.00
  -4  -1  -6   46.39    1.01
  -4  -1  -6   46.89    0.99
   4   1   6   46.20    1.00
   4   1   6   45.87    0.99
  -5  -1  -6  100.05    2.12
  -5  -1  -6  100.93    2.09
  -5  -1  -6   99.34    2.07
   5   1   6  102.42    2.07
   5   1   6   99.81    2.09
  -6  -1  -6   15.76    0.43
  -6  -1  -6   15.67    0.41
   6   1   6   15.67    0.43
  -7  -1  -6    3.21    0.15
  -7  -1  -6    3.36    0.19
   7   1   6    2.68    0.20
   7   1   6    3.11    0.16
   7   1   6    3.22    0.19
  -8  -1  -6   10.26    0.28
   8   1   6   10.50    0.29
   8   1   6    9.99    0.38
   8   1   6   10.42    0.29
   8   1   6   10.67    0.34
   9   1   6    2.10    0.21
   9   1   6    2.18    0.19
   6  -2  -6    0.17    0.08
   6  -2  -6    0.19    0.10
   5  -2  -6    3.08    0.16
  -5   2   6    3.25    0.16
  -5   2   6    2.82    0.22
  -5   2   6    3.26    0.14
   4  -2  -6    1.19    0.12
  -4   2   6    1.23    0.12
  -4   2   6    1.32    0.13
   3  -2  -6   57.75    1.17
   3  -2  -6   55.86    1.20
  -3   2   6   55.88    1.28
  -3   2   6   56.13    1.19
   2  -2  -6    2.38    0.11
   2  -2  -6    2.43    0.12
  -2   2   6    2.69    0.14
  -2   2   6    2.45    0.12
   1  -2  -6   99.52    1.98
   1  -2  -6   97.65    2.02
  -1   2   6   99.13    2.14
  -1   2   6   96.10    2.02
   0  -2  -6    1.81    0.11
   0  -2  -6    1.70    0.10
   0   2   6    1.90    0.11
   0   2   6    1.89    0.11
  -1  -2  -6    0.32    0.05
  -1  -2  -6    0.37    0.06
   1   2   6    0.38    0.06
   1   2   6    0.30    0.05
  -2  -2  -6    3.07    0.14
  -2  -2  -6    2.93    0.13
   2   2   6    3.14    0.14
   2   2   6    2.89    0.13
  -3  -2  -6   18.00    0.43
  -3  -2  -6   17.97    0.44
  -3  -2  -6   18.11    0.43
   3   2   6   18.23    0.43
   3   2   6   17.65    0.43
  -4  -2  -6  152.39    3.16
  -4  -2  -6  155.10    3.23
  -4  -2  -6  153.99    3.16
   4   2   6  154.45    3.16
   4   2   6  161.67    3.17
  -5  -2  -6    5.04    0.20
  -5  -2  -6    4.85    0.19
  -5  -2  -6    5.19    0.20
   5   2   6    5.02    0.20
   5   2   6    5.10    0.18
   5   2   6    5.07    0.20
  -6  -2  -6   40.56    0.93
  -6  -2  -6   40.14    0.92
   6   2   6   40.07    0.90
   6   2   6   41.36    0.92
   6   2   6   40.63    0.92
  -7  -2  -6   14.81    0.42
  -7  -2  -6   15.03    0.37
   7   2   6   14.91    0.38
   7   2   6   14.51    0.44
   7   2   6   14.62    0.42
  -8  -2  -6    0.04    0.07
  -8  -2  -6    0.01    0.11
   8   2   6   -0.02    0.08
   8   2   6   -0.10    0.11
   8   2   6   -0.16    0.11
   9   2   6    3.56    0.31
   9   2   6    2.55    0.21
   6  -3  -6    1.03    0.10
   6  -3  -6    0.85    0.09
   6  -3  -6    0.88    0.17
   5  -3  -6    0.10    0.11
   5  -3  -6   -0.06    0.07
   5  -3  -6   -0.07    0.06
   5  -3  -6    0.01    0.06
  -5   3   6    0.01    0.11
  -5   3   6    0.08    0.06
   4  -3  -6   27.43    0.70
   4  -3  -6   27.11    0.62
   4  -3  -6   27.06    0.58
  -4   3   6   27.08    0.61
  -4   3   6   27.14    0.70
   3  -3  -6    5.06    0.15
   3  -3  -6    4.95    0.22
   3  -3  -6    4.56    0.18
  -3   3   6    4.98    0.22
  -3   3   6    4.66    0.18
   2  -3  -6    0.71    0.07
   2  -3  -6    0.74    0.07
  -2   3   6    0.75    0.08
  -2   3   6    0.88    0.09
   1  -3  -6    1.63    0.09
   1  -3  -6    1.56    0.11
  -1   3   6    1.64    0.11
  -1   3   6    1.52    0.10
   0  -3  -6   56.30    1.12
   0  -3  -6   54.24    1.16
   0   3   6   54.88    1.12
   0   3   6   52.42    1.15
   0   3   6   54.26    1.22
  -1  -3  -6   92.63    1.83
  -1  -3  -6   89.44    1.86
   1   3   6   89.98    1.83
   1   3   6   87.92    1.86
  -2  -3  -6   11.67    0.31
  -2  -3  -6   11.36    0.30
  -2  -3  -6   11.51    0.29
   2   3   6   11.43    0.30
   2   3   6   11.34    0.30
  -3  -3  -6   74.49    1.57
  -3  -3  -6   75.41    1.61
  -3  -3  -6   76.13    1.58
   3   3   6   77.29    1.58
   3   3   6   74.64    1.57
  -4  -3  -6    0.16    0.06
  -4  -3  -6    0.06    0.06
  -4  -3  -6    0.08    0.05
   4   3   6    0.12    0.06
   4   3   6    0.16    0.06
  -5  -3  -6   30.38    0.72
  -5  -3  -6   30.05    0.70
  -5  -3  -6   30.48    0.68
   5   3   6   30.45    0.71
   5   3   6   30.85    0.69
   5   3   6   29.72    0.71
  -6  -3  -6    5.15    0.20
  -6  -3  -6    5.45    0.24
   6   3   6    4.96    0.22
   6   3   6    5.27    0.19
   6   3   6    5.01    0.23
  -7  -3  -6    1.46    0.14
   7   3   6    1.59    0.15
   7   3   6    1.49    0.14
   7   3   6    1.53    0.14
  -8  -3  -6   40.03    0.98
  -8  -3  -6   41.75    0.88
   8   3   6   41.34    0.98
   8   3   6   40.82    0.98
   8   3   6   40.41    0.89
   9   3   6    0.81    0.18
   9   3   6    0.71    0.18
   6  -4  -6   -0.10    0.09
   6  -4  -6    0.09    0.16
   6  -4  -6    0.05    0.09
   5  -4  -6    0.58    0.14
   5  -4  -6    0.51    0.09
  -5   4   6    0.63    0.14
  -5   4   6    0.66    0.08
   4  -4  -6    8.37    0.26
   4  -4  -6    8.61    0.33
  -4   4   6    8.67    0.26
  -4   4   6    9.08    0.33
   3  -4  -6   19.41    0.48
   3  -4  -6   19.68    0.53
  -3   4   6   20.17    0.47
  -3   4   6   19.84    0.54
   2  -4  -6    3.25    0.17
   2  -4  -6    3.38    0.10
   2  -4  -6    3.08    0.14
  -2   4   6    3.19    0.16
  -2   4   6    3.38    0.14
   1  -4  -6   69.06    1.44
   1  -4  -6   70.04    1.38
  -1   4   6   68.10    1.44
  -1   4   6   66.33    1.53
   0  -4  -6   19.50    0.43
   0  -4  -6   19.92    0.47
   0   4   6   19.56    0.43
   0   4   6   19.22    0.50
   0   4   6   19.41    0.47
  -1  -4  -6    9.12    0.27
  -1  -4  -6    9.11    0.24
  -1  -4  -6    9.20    0.26
   1   4   6    9.38    0.26
   1   4   6    9.43    0.28
   1   4   6    9.13    0.24
  -2  -4  -6   23.71    0.53
  -2  -4  -6   22.80    0.56
  -2  -4  -6   23.57    0.54
   2   4   6   23.14    0.53
   2   4   6   23.04    0.54
  -3  -4  -6   10.55    0.29
  -3  -4  -6   10.52    0.29
  -3  -4  -6   10.38    0.30
   3   4   6   10.73    0.29
   3   4   6   10.18    0.29
  -4  -4  -6  101.58    2.09
  -4  -4  -6  100.45    2.14
   4   4   6  104.51    2.09
   4   4   6   99.23    2.14
   4   4   6   97.63    2.08
  -5  -4  -6    2.51    0.15
  -5  -4  -6    2.83    0.17
   5   4   6    2.65    0.15
   5   4   6    2.61    0.18
   5   4   6    2.67    0.16
  -6  -4  -6    0.19    0.09
  -6  -4  -6    0.03    0.07
   6   4   6    0.11    0.07
   6   4   6    0.14    0.08
   6   4   6    0.26    0.09
  -7  -4  -6   21.13    0.59
   7   4   6   21.79    0.53
   7   4   6   22.15    0.58
   7   4   6   21.87    0.59
  -8  -4  -6    1.06    0.11
  -8  -4  -6    1.15    0.11
  -8  -4  -6    1.11    0.17
   8   4   6    1.14    0.16
   8   4   6    1.05    0.12
   8   4   6    1.01    0.15
   9   4   6    3.03    0.33
   9   4   6    3.68    0.32
   6  -5  -6    4.76    0.24
   6  -5  -6    4.53    0.36
   6  -5  -6    4.75    0.23
  -6   5   6    4.89    0.20
   5  -5  -6    2.88    0.26
   5  -5  -6    2.62    0.18
  -5   5   6    2.73    0.16
  -5   5   6    2.85    0.26
   4  -5  -6    8.18    0.34
   4  -5  -6    9.03    0.28
  -4   5   6    9.56    0.34
  -4   5   6    8.23    0.26
   3  -5  -6    6.86    0.28
   3  -5  -6    6.86    0.23
  -3   5   6    6.55    0.22
  -3   5   6    6.27    0.26
   2  -5  -6   14.34    0.42
   2  -5  -6   15.06    0.38
  -2   5   6   14.66    0.38
  -2   5   6   14.67    0.42
   1  -5  -6    1.54    0.12
  -1   5   6    1.45    0.11
   0  -5  -6   95.59    2.00
   0  -5  -6   93.85    1.96
   0   5   6   94.19    2.07
   0   5   6   92.63    1.96
   0   5   6   95.20    1.91
  -1  -5  -6   43.93    0.96
  -1  -5  -6   43.59    0.98
   1   5   6   43.56    0.96
   1   5   6   43.24    1.00
   1   5   6   43.98    0.92
  -2  -5  -6    2.46    0.14
  -2  -5  -6    2.45    0.14
   2   5   6    2.40    0.13
   2   5   6    2.22    0.13
  -3  -5  -6  142.58    2.91
  -3  -5  -6  137.91    2.97
   3   5   6  143.85    2.88
   3   5   6  142.64    2.91
  -4  -5  -6    5.13    0.21
  -4  -5  -6    4.85    0.20
   4   5   6    4.79    0.20
   4   5   6    5.39    0.20
   4   5   6    5.11    0.22
  -5  -5  -6    1.08    0.11
  -5  -5  -6    1.33    0.13
   5   5   6    0.97    0.10
   5   5   6    1.07    0.10
   5   5   6    0.84    0.11
  -6  -5  -6   10.86    0.32
  -6  -5  -6   11.14    0.37
   6   5   6   10.84    0.35
   6   5   6   11.55    0.33
   6   5   6   10.93    0.37
  -7  -5  -6   13.68    0.45
   7   5   6   13.73    0.44
   7   5   6   13.50    0.42
  -8  -5  -6    0.25    0.09
  -8  -5  -6   -0.11    0.09
  -8  -5  -6   -0.04    0.15
   8   5   6   -0.11    0.10
   8   5   6    0.29    0.15
   8   5   6   -0.02    0.12
   6  -6  -6    2.42    0.25
   6  -6  -6    2.64    0.24
   6  -6  -6    2.45    0.23
  -6   6   6    2.50    0.20
   5  -6  -6    4.08    0.23
   5  -6  -6    3.76    0.22
   5  -6  -6    3.91    0.30
  -5   6   6    4.07    0.20
  -5   6   6    4.55    0.30
   4  -6  -6    0.00    0.08
   4  -6  -6    0.18    0.11
  -4   6   6    0.05    0.10
  -4   6   6   -0.08    0.07
   3  -6  -6   24.57    0.60
   3  -6  -6   25.72    0.68
  -3   6   6   25.75    0.60
  -3   6   6   25.07    0.67
   2  -6  -6   30.13    0.69
   2  -6  -6   29.08    0.75
  -2   6   6   29.46    0.75
  -2   6   6   30.00    0.69
   1  -6  -6   90.94    1.93
   1  -6  -6   90.61    2.05
   1  -6  -6   95.39    1.97
  -1   6   6   92.55    1.93
  -1   6   6   91.59    2.04
  -1   6   6   91.15    1.84
   0  -6  -6    0.25    0.06
   0  -6  -6    0.25    0.06
   0   6   6    0.32    0.07
   0   6   6    0.18    0.06
   0   6   6    0.30    0.05
  -1  -6  -6    1.03    0.11
  -1  -6  -6    1.15    0.10
   1   6   6    1.07    0.11
   1   6   6    1.20    0.10
   1   6   6    1.03    0.10
  -2  -6  -6   73.30    1.59
  -2  -6  -6   71.94    1.55
   2   6   6   72.86    1.62
   2   6   6   72.60    1.52
   2   6   6   74.37    1.55
  -3  -6  -6   14.51    0.41
  -3  -6  -6   14.95    0.40
   3   6   6   14.79    0.40
   3   6   6   14.72    0.39
   3   6   6   14.41    0.39
   3   6   6   14.51    0.41
  -4  -6  -6    3.53    0.18
  -4  -6  -6    3.47    0.19
   4   6   6    3.12    0.18
   4   6   6    3.56    0.18
   4   6   6    3.54    0.18
  -5  -6  -6   21.69    0.57
  -5  -6  -6   21.34    0.54
   5   6   6   21.40    0.55
   5   6   6   21.62    0.54
   5   6   6   21.30    0.57
  -6  -6  -6   18.06    0.47
  -6  -6  -6   18.17    0.52
   6   6   6   17.91    0.47
   6   6   6   17.42    0.49
   6   6   6   17.06    0.52
  -7  -6  -6    0.72    0.10
  -7  -6  -6    0.63    0.12
  -7  -6  -6    0.62    0.14
   7   6   6    0.63    0.12
   7   6   6    0.78    0.12
   7   6   6    0.61    0.14
  -8  -6  -6    1.42    0.13
  -8  -6  -6    1.42    0.15
  -8  -6  -6    1.51    0.20
   8   6   6    1.37    0.16
   8   6   6    1.28    0.15
   8   6   6    1.74    0.21
   5  -7  -6    3.00    0.30
   5  -7  -6    2.68    0.22
  -5   7   6    2.74    0.20
  -5   7   6    2.80    0.27
   4  -7  -6    0.23    0.09
   4  -7  -6    0.26    0.11
   4  -7  -6    0.23    0.11
  -4   7   6   -0.10    0.10
  -4   7   6    0.18    0.07
   3  -7  -6    4.59    0.20
   3  -7  -6    4.71    0.25
   3  -7  -6    4.64    0.24
  -3   7   6    4.68    0.19
  -3   7   6    4.73    0.23
   2  -7  -6   12.51    0.37
   2  -7  -6   12.39    0.40
   2  -7  -6   11.85    0.35
  -2   7   6   12.56    0.39
  -2   7   6   12.48    0.35
   1  -7  -6    0.31    0.08
   1  -7  -6    0.36    0.07
   1  -7  -6    0.42    0.09
  -1   7   6    0.43    0.08
  -1   7   6    0.39    0.05
  -1   7   6    0.43    0.08
   0  -7  -6    1.59    0.14
   0  -7  -6    1.55    0.14
   0   7   6    1.38    0.13
   0   7   6    1.42    0.10
   0   7   6    1.55    0.13
  -1  -7  -6   79.36    1.73
  -1  -7  -6   78.88    1.70
   1   7   6   81.83    1.79
   1   7   6   79.21    1.70
   1   7   6   80.84    1.65
  -2  -7  -6   13.82    0.39
  -2  -7  -6   13.97    0.39
   2   7   6   13.83    0.36
   2   7   6   13.86    0.39
   2   7   6   13.81    0.39
  -3  -7  -6   17.61    0.46
  -3  -7  -6   15.76    0.47
   3   7   6   17.97    0.47
   3   7   6   18.03    0.47
   3   7   6   17.99    0.45
   3   7   6   18.07    0.49
  -4  -7  -6    6.99    0.27
  -4  -7  -6    6.96    0.26
   4   7   6    6.66    0.24
   4   7   6    6.91    0.26
   4   7   6    6.95    0.25
   4   7   6    6.55    0.27
  -5  -7  -6   18.27    0.48
  -5  -7  -6   18.35    0.50
   5   7   6   17.87    0.47
   5   7   6   16.50    0.50
   5   7   6   15.81    0.47
   5   7   6   18.28    0.48
  -6  -7  -6   -0.05    0.10
  -6  -7  -6    0.08    0.11
   6   7   6    0.05    0.09
   6   7   6    0.00    0.11
   6   7   6   -0.01    0.10
   6   7   6    0.14    0.09
  -7  -7  -6    6.86    0.34
  -7  -7  -6    7.48    0.27
  -7  -7  -6    6.75    0.30
   7   7   6    7.28    0.35
   7   7   6    7.23    0.31
   7   7   6    7.21    0.30
  -8  -7  -6    0.14    0.11
  -8  -7  -6   -0.04    0.17
   8   7   6    0.51    0.18
   8   7   6    0.45    0.13
   5  -8  -6    0.18    0.14
   5  -8  -6    0.16    0.16
   5  -8  -6    0.31    0.14
   5  -8  -6    0.33    0.16
  -5   8   6    0.48    0.12
   4  -8  -6    1.37    0.13
   4  -8  -6    1.13    0.15
   4  -8  -6    1.19    0.17
   4  -8  -6    1.17    0.15
  -4   8   6    0.98    0.13
  -4   8   6    1.15    0.12
   3  -8  -6   20.65    0.60
   3  -8  -6   20.48    0.52
   3  -8  -6   17.94    0.53
   3  -8  -6   21.30    0.55
  -3   8   6   20.12    0.58
  -3   8   6   20.73    0.52
   2  -8  -6   15.97    0.49
   2  -8  -6   15.26    0.43
   2  -8  -6   16.75    0.45
  -2   8   6   15.93    0.47
  -2   8   6   16.13    0.44
   1  -8  -6    6.56    0.28
   1  -8  -6    6.72    0.25
   1  -8  -6    7.53    0.27
  -1   8   6    6.73    0.26
  -1   8   6    6.91    0.18
  -1   8   6    6.78    0.25
   0  -8  -6    0.41    0.08
   0  -8  -6    0.35    0.09
   0   8   6    0.37    0.09
   0   8   6    0.33    0.07
   0   8   6    0.40    0.07
  -1  -8  -6    2.91    0.18
  -1  -8  -6    3.28    0.20
   1   8   6    3.23    0.16
   1   8   6    3.13    0.18
   1   8   6    3.38    0.19
  -2  -8  -6    2.02    0.15
  -2  -8  -6    1.77    0.18
   2   8   6    1.85    0.15
   2   8   6    2.10    0.15
   2   8   6    1.81    0.16
  -3  -8  -6    0.59    0.11
  -3  -8  -6    0.40    0.08
   3   8   6    0.46    0.09
   3   8   6    0.56    0.10
   3   8   6    0.33    0.08
   3   8   6    0.25    0.09
  -4  -8  -6   53.37    1.20
  -4  -8  -6   54.56    1.24
   4   8   6   53.92    1.20
   4   8   6   54.05    1.19
   4   8   6   51.94    1.24
   4   8   6   53.48    1.22
  -5  -8  -6    3.82    0.25
  -5  -8  -6    4.08    0.22
   5   8   6    3.92    0.23
   5   8   6    4.23    0.24
   5   8   6    3.97    0.20
   5   8   6    3.86    0.24
  -6  -8  -6   16.61    0.49
  -6  -8  -6   17.06    0.46
  -6  -8  -6   17.04    0.51
   6   8   6   16.96    0.49
   6   8   6   16.45    0.45
   6   8   6   16.45    0.52
   6   8   6   16.46    0.49
  -7  -8  -6    0.31    0.14
  -7  -8  -6    0.20    0.13
  -7  -8  -6    0.19    0.10
   7   8   6    0.62    0.11
   7   8   6    0.45    0.12
   7   8   6    0.51    0.15
   7   8   6    0.40    0.14
   4  -9  -6    7.52    0.36
   4  -9  -6    7.08    0.31
   4  -9  -6    7.27    0.33
   4  -9  -6    7.62    0.34
  -4   9   6    7.48    0.29
  -4   9   6    6.99    0.33
   3  -9  -6   13.96    0.42
   3  -9  -6   15.31    0.47
   3  -9  -6   14.91    0.50
   3  -9  -6   14.76    0.45
  -3   9   6   14.86    0.42
  -3   9   6   14.22    0.48
   2  -9  -6   14.32    0.43
   2  -9  -6   13.91    0.47
   2  -9  -6   14.51    0.42
   2  -9  -6   15.23    0.45
  -2   9   6   13.76    0.45
  -2   9   6   14.35    0.41
   1  -9  -6    2.60    0.22
   1  -9  -6    2.68    0.18
   1  -9  -6    2.55    0.20
  -1   9   6    2.88    0.17
  -1   9   6    2.65    0.12
  -1   9   6    2.71    0.19
   0  -9  -6   15.02    0.44
   0  -9  -6   15.64    0.44
   0   9   6   13.76    0.43
   0   9   6   15.18    0.45
   0   9   6   15.37    0.37
  -1  -9  -6    0.01    0.08
  -1  -9  -6    0.14    0.10
   1   9   6    0.19    0.08
   1   9   6    0.16    0.08
   1   9   6    0.29    0.08
  -2  -9  -6    2.39    0.18
  -2  -9  -6    2.45    0.21
   2   9   6    2.62    0.18
   2   9   6    2.81    0.20
   2   9   6    2.42    0.18
  -3  -9  -6    0.05    0.07
  -3  -9  -6    0.13    0.11
   3   9   6    0.19    0.09
   3   9   6    0.31    0.10
   3   9   6    0.16    0.09
   3   9   6    0.18    0.09
  -4  -9  -6    0.17    0.08
  -4  -9  -6   -0.09    0.11
  -4  -9  -6   -0.07    0.08
   4   9   6    0.04    0.08
   4   9   6    0.00    0.10
   4   9   6   -0.12    0.09
   4   9   6   -0.10    0.10
  -5  -9  -6   50.34    1.13
  -5  -9  -6   49.51    1.14
  -5  -9  -6   48.37    1.18
   5   9   6   49.11    1.14
   5   9   6   49.90    1.14
   5   9   6   49.45    1.14
   5   9   6   50.27    1.19
  -6  -9  -6    0.14    0.15
  -6  -9  -6    0.20    0.12
   6   9   6    0.28    0.14
   6   9   6   -0.17    0.12
   6   9   6   -0.13    0.10
   6   9   6    0.10    0.10
  -7  -9  -6    3.15    0.32
  -7  -9  -6    2.56    0.24
  -7  -9  -6    2.68    0.23
   7   9   6    3.02    0.25
   7   9   6    2.50    0.22
   7   9   6    2.39    0.22
   7   9   6    2.73    0.23
   3 -10  -6   11.13    0.40
   3 -10  -6   10.84    0.36
   3 -10  -6   11.48    0.43
   3 -10  -6   10.58    0.43
  -3  10   6   10.90    0.40
  -3  10   6   10.31    0.36
   2 -10  -6    8.02    0.33
   2 -10  -6    8.65    0.36
   2 -10  -6    7.99    0.37
   2 -10  -6    8.05    0.30
  -2  10   6    8.37    0.30
  -2  10   6    8.00    0.33
   1 -10  -6    6.66    0.32
   1 -10  -6    6.38    0.32
   1 -10  -6    6.61    0.28
   1 -10  -6    6.67    0.29
  -1  10   6    6.34    0.19
  -1  10   6    6.14    0.29
  -1  10   6    6.31    0.27
   0 -10  -6    3.23    0.23
   0 -10  -6    3.10    0.25
   0 -10  -6    3.13    0.23
   0  10   6    3.37    0.23
   0  10   6    3.37    0.18
   0  10   6    2.97    0.20
  -1 -10  -6   15.53    0.48
  -1 -10  -6   16.43    0.49
  -1 -10  -6   16.07    0.49
   1  10   6   16.15    0.49
   1  10   6   16.32    0.48
   1  10   6   16.25    0.43
  -2 -10  -6   14.16    0.44
  -2 -10  -6   14.54    0.46
  -2 -10  -6   13.53    0.44
   2  10   6   14.17    0.41
   2  10   6   13.56    0.44
   2  10   6   13.84    0.43
  -3 -10  -6    2.13    0.20
  -3 -10  -6    2.80    0.21
  -3 -10  -6    2.17    0.20
   3  10   6    1.90    0.20
   3  10   6    2.27    0.22
   3  10   6    2.20    0.23
   3  10   6    2.24    0.23
  -4 -10  -6   24.25    0.64
  -4 -10  -6   24.58    0.67
  -4 -10  -6   23.80    0.65
   4  10   6   23.99    0.66
   4  10   6   24.06    0.67
   4  10   6   24.05    0.64
   4  10   6   24.59    0.63
  -5 -10  -6    5.56    0.28
  -5 -10  -6    4.68    0.34
  -5 -10  -6    5.37    0.25
   5  10   6    5.79    0.30
   5  10   6    5.41    0.27
   5  10   6    5.78    0.32
   5  10   6    5.91    0.31
  -6 -10  -6    2.50    0.21
  -6 -10  -6    2.99    0.25
  -6 -10  -6    2.47    0.21
   6  10   6    2.11    0.20
   6  10   6    3.04    0.32
   6  10   6    2.65    0.27
   6  10   6    3.04    0.24
   2 -11  -6    2.28    0.22
   2 -11  -6    2.07    0.17
   2 -11  -6    2.25    0.20
   2 -11  -6    2.18    0.23
  -2  11   6    2.58    0.26
  -2  11   6    2.46    0.20
   1 -11  -6    1.67    0.20
   1 -11  -6    1.63    0.19
   1 -11  -6    1.70    0.18
   1 -11  -6    1.87    0.18
  -1  11   6    2.24    0.21
  -1  11   6    1.57    0.14
  -1  11   6    2.05    0.20
   0 -11  -6   23.65    0.66
   0 -11  -6   21.73    0.66
   0 -11  -6   23.85    0.65
   0  11   6   23.86    0.57
   0  11   6   24.35    0.65
   0  11   6   23.86    0.68
  -1 -11  -6    3.08    0.27
  -1 -11  -6    2.97    0.25
  -1 -11  -6    3.71    0.30
   1  11   6    3.29    0.22
   1  11   6    3.19    0.25
   1  11   6    3.57    0.25
  -2 -11  -6    1.51    0.19
  -2 -11  -6    1.60    0.17
  -2 -11  -6    1.31    0.16
   2  11   6    1.31    0.16
   2  11   6    1.33    0.15
   2  11   6    1.40    0.17
  -3 -11  -6    9.74    0.38
  -3 -11  -6   10.26    0.43
  -3 -11  -6    9.78    0.37
   3  11   6    9.89    0.37
   3  11   6    9.58    0.40
   3  11   6    9.44    0.36
   3  11   6    9.78    0.40
  -4 -11  -6   -0.09    0.10
  -4 -11  -6    0.01    0.18
  -4 -11  -6   -0.02    0.12
   4  11   6    0.01    0.13
   4  11   6   -0.09    0.13
   4  11   6    0.08    0.15
   4  11   6    0.08    0.12
  -5 -11  -6    4.20    0.25
  -5 -11  -6    4.09    0.38
  -5 -11  -6    3.85    0.29
   5  11   6    4.52    0.31
   5  11   6    4.65    0.27
   5  11   6    4.80    0.36
   5  11   6    3.58    0.32
   1 -12  -6    6.04    0.35
   1 -12  -6    5.94    0.37
   1 -12  -6    5.90    0.40
   1 -12  -6    6.05    0.38
  -1  12   6    5.47    0.22
  -1  12   6    5.94    0.37
  -1  12   6    6.56    0.31
   0 -12  -6   -0.02    0.16
   0 -12  -6   -0.04    0.15
   0 -12  -6    0.12    0.16
   0  12   6   -0.13    0.15
   0  12   6   -0.08    0.13
   0  12   6    0.08    0.12
  -1 -12  -6    4.15    0.36
  -1 -12  -6    3.90    0.32
  -1 -12  -6    4.33    0.31
   1  12   6    3.91    0.27
   1  12   6    3.65    0.30
   1  12   6    4.02    0.31
  -2 -12  -6    9.44    0.46
  -2 -12  -6    9.00    0.40
  -2 -12  -6    8.83    0.41
   2  12   6    9.03    0.37
   2  12   6    8.95    0.41
   2  12   6    9.20    0.40
  -3 -12  -6    0.46    0.18
  -3 -12  -6    0.77    0.16
  -3 -12  -6    0.91    0.22
   3  12   6    0.74    0.19
   3  12   6    0.72    0.19
   3  12   6    0.74    0.17
   3  12   6    0.59    0.16
   0   9  -7    7.65    0.40
   0   9  -7    8.03    0.45
   0  -9   7    7.51    0.46
   0  -9   7    8.53    0.36
   0  -9   7    8.30    0.39
  -1   9  -7    1.31    0.18
  -1   9  -7    1.59    0.24
  -1   9  -7    1.60    0.19
   1  -9   7    1.35    0.20
   1  -9   7    1.45    0.23
   1  -9   7    1.72    0.21
  -2   9  -7    7.51    0.47
  -2   9  -7    8.22    0.35
  -2   9  -7    7.58    0.39
   2  -9   7    8.29    0.41
   2  -9   7    8.28    0.44
   2  -9   7    7.76    0.39
  -3   9  -7    0.27    0.12
  -3   9  -7    0.63    0.18
  -3   9  -7    0.47    0.23
   3  -9   7    0.31    0.19
   3  -9   7    0.73    0.19
   3  -9   7    0.11    0.18
   2   8  -7    3.63    0.35
   2   8  -7    2.72    0.27
  -2  -8   7    3.53    0.23
  -2  -8   7    2.42    0.26
   1   8  -7    1.45    0.20
   1   8  -7    1.00    0.18
  -1  -8   7    1.45    0.15
  -1  -8   7    1.11    0.21
  -1  -8   7    0.94    0.14
   0   8  -7    0.70    0.17
   0   8  -7    0.89    0.16
   0  -8   7    0.55    0.18
   0  -8   7    0.90    0.14
  -1   8  -7   26.27    0.71
  -1   8  -7   27.39    0.76
  -1   8  -7   26.20    0.69
   1  -8   7   27.67    0.74
   1  -8   7   27.07    0.75
  -2   8  -7   -0.01    0.15
  -2   8  -7    0.25    0.13
  -2   8  -7   -0.03    0.11
   2  -8   7    0.05    0.15
   2  -8   7    0.12    0.14
  -3   8  -7    7.95    0.28
  -3   8  -7    7.51    0.41
  -3   8  -7    8.02    0.37
   3  -8   7    8.11    0.36
   3  -8   7    7.95    0.38
  -4   8  -7    6.39    0.35
  -4   8  -7    6.96    0.41
   4  -8   7    6.78    0.32
   4  -8   7    6.89    0.38
  -5   8  -7    3.61    0.39
   5  -8   7    3.88    0.35
   5  -8   7    3.97    0.35
   3   7  -7    4.75    0.33
   3   7  -7    4.60    0.27
  -3  -7   7    4.19    0.37
  -3  -7   7    3.73    0.24
   2   7  -7    2.14    0.21
   2   7  -7    2.11    0.20
  -2  -7   7    1.88    0.22
  -2  -7   7    1.96    0.18
   1   7  -7    0.21    0.12
   1   7  -7    0.17    0.12
  -1  -7   7    0.14    0.10
  -1  -7   7    0.08    0.16
   0   7  -7   26.21    0.71
   0   7  -7   26.51    0.69
   0  -7   7   25.78    0.72
   0  -7   7   26.41    0.69
  -1   7  -7    0.10    0.13
  -1   7  -7    0.12    0.10
  -1   7  -7    0.21    0.09
   1  -7   7    0.35    0.12
   1  -7   7    0.09    0.13
  -2   7  -7    8.93    0.31
  -2   7  -7    9.11    0.34
  -2   7  -7    9.46    0.39
   2  -7   7    8.52    0.36
   2  -7   7    9.40    0.37
  -3   7  -7   20.23    0.50
  -3   7  -7   20.51    0.58
  -3   7  -7   20.86    0.61
   3  -7   7   19.85    0.58
   3  -7   7   20.26    0.59
  -4   7  -7    2.84    0.25
  -4   7  -7    3.45    0.32
   4  -7   7    3.20    0.23
   4  -7   7    3.25    0.27
  -5   7  -7   21.18    0.63
  -5   7  -7   20.44    0.60
   5  -7   7   21.02    0.62
   5  -7   7   19.62    0.57
  -6   7  -7    1.62    0.21
  -6   7  -7    2.02    0.24
   6  -7   7    2.25    0.24
   6  -7   7    1.73    0.22
   4   6  -7    3.92    0.27
   4   6  -7    4.09    0.30
  -4  -6   7    3.60    0.23
  -4  -6   7    3.54    0.35
   3   6  -7    0.61    0.14
   3   6  -7    0.72    0.11
  -3  -6   7    0.82    0.17
  -3  -6   7    0.58    0.10
   2   6  -7    1.29    0.16
   2   6  -7    1.48    0.14
  -2  -6   7    1.28    0.18
  -2  -6   7    1.49    0.15
   1   6  -7    4.96    0.27
   1   6  -7    4.74    0.25
  -1  -6   7    4.99    0.23
  -1  -6   7    4.87    0.30
   0   6  -7   -0.03    0.09
   0   6  -7    0.12    0.10
   0  -6   7    0.08    0.12
   0  -6   7    0.04    0.09
  -1   6  -7    4.65    0.27
  -1   6  -7    5.52    0.24
  -1   6  -7    5.33    0.24
   1  -6   7    5.17    0.26
   1  -6   7    5.16    0.28
  -2   6  -7    6.24    0.24
  -2   6  -7    6.02    0.26
  -2   6  -7    6.02    0.30
   2  -6   7    5.91    0.28
   2  -6   7    6.56    0.28
  -3   6  -7   11.35    0.37
  -3   6  -7   11.68    0.41
  -3   6  -7   11.28    0.32
   3  -6   7   11.26    0.39
   3  -6   7   11.27    0.38
  -4   6  -7   53.08    1.15
  -4   6  -7   55.21    1.25
  -4   6  -7   55.04    1.26
   4  -6   7   53.73    1.25
   4  -6   7   56.97    1.26
  -5   6  -7    2.05    0.18
  -5   6  -7    1.70    0.19
   5  -6   7    1.92    0.19
   5  -6   7    2.23    0.19
  -6   6  -7    6.56    0.35
  -6   6  -7    7.40    0.37
   6  -6   7    6.88    0.29
   6  -6   7    7.45    0.36
   4   5  -7    0.39    0.12
   4   5  -7    0.67    0.13
  -4  -5   7    0.29    0.10
  -4  -5   7    0.47    0.16
   3   5  -7    2.45    0.23
   3   5  -7    2.84    0.18
  -3  -5   7    2.62    0.18
  -3  -5   7    2.58    0.26
  -3  -5   7    2.56    0.14
   2   5  -7    0.30    0.11
   2   5  -7    0.10    0.08
  -2  -5   7    0.15    0.12
  -2  -5   7    0.22    0.07
   1   5  -7    0.40    0.09
  -1  -5   7    0.28    0.07
  -1  -5   7    0.29    0.11
   0   5  -7   25.06    0.64
   0  -5   7   25.98    0.64
   0  -5   7   24.47    0.64
  -1   5  -7    0.65    0.12
  -1   5  -7    0.48    0.09
   1  -5   7    0.46    0.09
   1  -5   7    0.37    0.10
  -2   5  -7    1.14    0.13
  -2   5  -7    1.14    0.12
   2  -5   7    1.24    0.13
   2  -5   7    1.22    0.13
  -3   5  -7   24.36    0.63
  -3   5  -7   25.39    0.65
   3  -5   7   24.53    0.63
   3  -5   7   24.71    0.63
  -4   5  -7   23.12    0.60
  -4   5  -7   22.72    0.52
  -4   5  -7   23.01    0.62
   4  -5   7   23.30    0.60
   4  -5   7   23.93    0.61
  -5   5  -7    8.29    0.34
  -5   5  -7    9.20    0.34
   5  -5   7    8.93    0.34
   5  -5   7    8.60    0.31
  -6   5  -7    1.45    0.17
  -6   5  -7    1.51    0.16
   6  -5   7    1.35    0.16
   6  -5   7    1.60    0.17
  -7   5  -7   18.89    0.57
  -7   5  -7   19.45    0.57
   7  -5   7   19.95    0.56
   7  -5   7   19.00    0.54
   5   4  -7    0.30    0.13
   5   4  -7    0.02    0.14
  -5  -4   7    0.02    0.11
  -5  -4   7    0.07    0.15
   4   4  -7   19.70    0.53
   4   4  -7   18.93    0.57
  -4  -4   7   18.98    0.55
  -4  -4   7   19.23    0.50
   3   4  -7    0.68    0.09
  -3  -4   7    0.61    0.08
  -3  -4   7    0.58    0.09
  -3  -4   7    0.82    0.14
   2   4  -7    4.26    0.20
  -2  -4   7    4.58    0.19
  -2  -4   7    3.94    0.24
  -2  -4   7    4.42    0.20
   1   4  -7   13.41    0.39
  -1  -4   7   13.36    0.40
  -1  -4   7   13.86    0.39
   0   4  -7    9.15    0.32
   0  -4   7   10.18    0.32
   0  -4   7    9.97    0.33
  -1   4  -7    2.28    0.18
  -1   4  -7    2.41    0.16
   1  -4   7    2.38    0.17
   1  -4   7    2.17    0.18
  -2   4  -7   36.24    0.85
  -2   4  -7   37.05    0.86
   2  -4   7   37.58    0.86
   2  -4   7   36.93    0.86
  -3   4  -7   42.92    0.98
  -3   4  -7   44.11    0.99
   3  -4   7   42.92    0.99
   3  -4   7   43.44    0.99
  -4   4  -7    6.85    0.28
  -4   4  -7    7.05    0.26
   4  -4   7    6.47    0.24
   4  -4   7    6.76    0.27
  -5   4  -7    0.19    0.11
  -5   4  -7    0.09    0.09
   5  -4   7    0.02    0.06
   5  -4   7   -0.05    0.09
  -6   4  -7   16.29    0.48
  -6   4  -7   17.43    0.49
   6  -4   7   16.48    0.46
   6  -4   7   17.23    0.48
  -7   4  -7    0.22    0.13
  -7   4  -7    0.12    0.12
   7  -4   7    0.17    0.12
   7  -4   7    0.34    0.11
  -8   4  -7    4.20    0.33
   8  -4   7    3.96    0.27
   5   3  -7   10.21    0.37
   5   3  -7   11.10    0.41
  -5  -3   7   10.32    0.33
   4   3  -7    0.64    0.11
  -4  -3   7    0.52    0.10
  -4  -3   7    0.57    0.09
  -4  -3   7    0.47    0.12
   3   3  -7    3.64    0.18
  -3  -3   7    3.47    0.22
  -3  -3   7    3.90    0.18
  -3  -3   7    4.01    0.18
   2   3  -7   29.00    0.70
  -2  -3   7   30.00    0.70
  -2  -3   7   30.80    0.70
  -2  -3   7   28.91    0.71
   1   3  -7    7.01    0.25
  -1  -3   7    7.55    0.25
  -1  -3   7    7.31    0.27
   0   3  -7   18.26    0.48
   0   3  -7   19.11    0.48
   0  -3   7   18.29    0.48
   0  -3   7   18.12    0.48
  -1   3  -7   26.87    0.64
  -1   3  -7   26.26    0.64
   1  -3   7   25.85    0.64
   1  -3   7   26.23    0.63
  -2   3  -7   65.32    1.37
  -2   3  -7   63.19    1.37
   2  -3   7   62.46    1.37
   2  -3   7   62.09    1.37
  -3   3  -7    0.23    0.06
  -3   3  -7    0.17    0.08
   3  -3   7    0.16    0.08
   3  -3   7    0.22    0.07
  -4   3  -7   11.50    0.35
  -4   3  -7   11.93    0.34
  -4   3  -7   11.44    0.29
   4  -3   7   10.98    0.33
   4  -3   7   11.37    0.35
  -5   3  -7    4.12    0.14
  -5   3  -7    4.07    0.22
  -5   3  -7    4.07    0.20
   5  -3   7    3.50    0.21
   5  -3   7    3.97    0.20
   5  -3   7    3.74    0.18
  -6   3  -7    0.14    0.09
  -6   3  -7    0.18    0.10
   6  -3   7    0.27    0.08
   6  -3   7    0.34    0.10
   6  -3   7    0.45    0.11
  -7   3  -7   13.74    0.42
  -7   3  -7   14.55    0.45
   7  -3   7   14.53    0.42
   7  -3   7   14.80    0.46
   7  -3   7   15.34    0.42
  -8   3  -7    5.01    0.32
   8  -3   7    4.99    0.27
   8  -3   7    5.32    0.27
   8  -3   7    5.17    0.32
   5   2  -7    0.38    0.12
  -5  -2   7    0.49    0.11
  -5  -2   7    0.26    0.10
   4   2  -7    1.12    0.12
  -4  -2   7    1.06    0.10
  -4  -2   7    1.47    0.16
  -4  -2   7    1.01    0.13
   3   2  -7   17.17    0.45
  -3  -2   7   17.50    0.47
  -3  -2   7   18.14    0.46
  -3  -2   7   16.97    0.45
   2   2  -7   13.87    0.38
  -2  -2   7   14.40    0.38
  -2  -2   7   14.17    0.40
  -2  -2   7   14.30    0.38
   1   2  -7   12.68    0.35
  -1  -2   7   12.88    0.35
  -1  -2   7   12.77    0.36
   0   2  -7    0.61    0.08
   0   2  -7    0.83    0.09
   0  -2   7    0.77    0.10
   0  -2   7    0.76    0.09
  -1   2  -7   50.06    1.09
  -1   2  -7   49.94    1.09
   1  -2   7   49.42    1.09
   1  -2   7   49.64    1.09
  -2   2  -7    7.17    0.24
  -2   2  -7    7.26    0.25
   2  -2   7    6.93    0.24
   2  -2   7    7.19    0.24
  -3   2  -7    8.59    0.28
  -3   2  -7    8.87    0.27
   3  -2   7    8.68    0.27
   3  -2   7    8.48    0.27
  -4   2  -7    2.42    0.16
  -4   2  -7    2.46    0.15
  -4   2  -7    2.41    0.12
   4  -2   7    2.38    0.14
   4  -2   7    1.99    0.15
   4  -2   7    2.10    0.16
  -5   2  -7    0.17    0.06
  -5   2  -7    0.28    0.08
  -5   2  -7    0.18    0.08
   5  -2   7    0.14    0.08
   5  -2   7    0.07    0.05
   5  -2   7    0.18    0.08
  -6   2  -7   17.43    0.47
  -6   2  -7   18.04    0.48
  -6   2  -7   18.09    0.41
   6  -2   7   17.71    0.46
   6  -2   7   17.39    0.46
   6  -2   7   17.58    0.49
  -7   2  -7    5.73    0.25
  -7   2  -7    5.90    0.28
   7  -2   7    6.28    0.24
   7  -2   7    6.08    0.29
   7  -2   7    6.23    0.25
  -8   2  -7    1.83    0.20
  -8   2  -7    2.04    0.20
   8  -2   7    1.71    0.15
   8  -2   7    1.95    0.20
   8  -2   7    1.89    0.20
   6   1  -7    0.13    0.12
   6   1  -7   -0.13    0.16
  -6  -1   7    0.06    0.12
  -6  -1   7    0.03    0.10
   5   1  -7    0.17    0.10
  -5  -1   7   -0.12    0.08
  -5  -1   7    0.12    0.12
   4   1  -7    6.89    0.25
  -4  -1   7    6.88    0.26
  -4  -1   7    6.91    0.26
  -4  -1   7    7.01    0.24
   3   1  -7    5.88    0.22
  -3  -1   7    6.18    0.21
  -3  -1   7    6.05    0.24
  -3  -1   7    6.40    0.23
   2   1  -7    2.03    0.13
  -2  -1   7    2.48    0.15
  -2  -1   7    2.40    0.13
  -2  -1   7    2.45    0.17
   1   1  -7    2.28    0.15
   1   1  -7    2.41    0.14
  -1  -1   7    2.22    0.15
  -1  -1   7    2.33    0.13
   0   1  -7   30.11    0.69
   0   1  -7   29.89    0.68
   0  -1   7   29.48    0.68
  -1   1  -7    3.56    0.17
  -1   1  -7    3.68    0.16
   1  -1   7    3.59    0.16
  -2   1  -7   73.85    1.54
  -2   1  -7   72.43    1.53
   2  -1   7   71.21    1.53
  -3   1  -7    1.42    0.13
  -3   1  -7    1.27    0.11
   3  -1   7    1.06    0.10
   3  -1   7    1.20    0.12
  -4   1  -7    0.44    0.07
  -4   1  -7    0.34    0.08
  -4   1  -7    0.39    0.07
   4  -1   7    0.29    0.06
   4  -1   7    0.23    0.07
   4  -1   7    0.25    0.07
  -5   1  -7    9.54    0.29
  -5   1  -7    8.03    0.28
  -5   1  -7    9.24    0.26
   5  -1   7    9.08    0.27
   5  -1   7    9.81    0.29
   5  -1   7    8.88    0.30
  -6   1  -7    8.77    0.29
  -6   1  -7    8.51    0.25
  -6   1  -7    8.32    0.28
   6  -1   7    8.49    0.27
   6  -1   7    8.63    0.27
   6  -1   7    8.63    0.31
  -7   1  -7    5.00    0.19
  -7   1  -7    4.90    0.25
   7  -1   7    4.68    0.21
   7  -1   7    5.08    0.21
   7  -1   7    5.00    0.26
  -8   1  -7    6.64    0.33
  -8   1  -7    6.19    0.25
   8  -1   7    7.07    0.27
   8  -1   7    6.39    0.33
   8  -1   7    6.88    0.26
   6   0  -7    0.79    0.13
  -6   0   7    0.99    0.11
  -6   0   7    0.89    0.12
   5   0  -7    1.83    0.18
  -5   0   7    1.73    0.15
  -5   0   7    1.93    0.18
  -5   0   7    1.67    0.16
   4   0  -7    0.68    0.09
  -4   0   7    0.56    0.09
  -4   0   7    0.90    0.12
  -4   0   7    0.78    0.09
   3   0  -7    1.12    0.12
  -3   0   7    1.03    0.11
  -3   0   7    1.28    0.12
  -3   0   7    1.62    0.15
   2   0  -7    0.12    0.05
  -2   0   7    0.14    0.07
  -2   0   7    0.21    0.06
   1   0  -7    0.12    0.05
   1   0  -7    0.03    0.05
  -1   0   7    0.11    0.06
  -1   0   7    0.05    0.05
   0   0  -7    2.12    0.12
   0   0  -7    1.97    0.12
   0   0   7    2.07    0.13
  -1   0  -7   73.88    1.55
  -1   0  -7   74.64    1.57
   1   0   7   74.75    1.57
  -2   0  -7   18.31    0.46
  -2   0  -7   18.73    0.45
   2   0   7   18.55    0.46
   2   0   7   18.57    0.45
  -3   0  -7   22.51    0.53
  -3   0  -7   22.16    0.53
   3   0   7   22.63    0.53
   3   0   7   21.92    0.53
  -4   0  -7   43.55    0.96
  -4   0  -7   44.18    0.96
  -4   0  -7   43.18    0.96
   4   0   7   43.33    0.97
   4   0   7   44.79    0.96
  -5   0  -7   19.45    0.49
  -5   0  -7   19.62    0.48
  -5   0  -7   19.79    0.48
   5   0   7   19.78    0.48
   5   0   7   19.37    0.50
  -6   0  -7    0.29    0.08
  -6   0  -7    0.30    0.08
  -6   0  -7    0.14    0.07
   6   0   7    0.29    0.08
   6   0   7    0.44    0.09
  -7   0  -7    1.87    0.16
  -7   0  -7    1.99    0.18
   7   0   7    2.03    0.15
   7   0   7    2.16    0.20
  -8   0  -7   14.39    0.45
  -8   0  -7   13.91    0.37
   8   0   7   13.84    0.38
   8   0   7   14.36    0.47
   8   0   7   13.56    0.38
   9   0   7    1.47    0.21
   9   0   7    1.53    0.14
   9   0   7    1.57    0.14
   6  -1  -7    0.34    0.11
  -6   1   7    0.53    0.09
   5  -1  -7    4.48    0.21
  -5   1   7    4.55    0.19
  -5   1   7    3.76    0.25
  -5   1   7    4.34    0.20
   4  -1  -7    1.46    0.14
  -4   1   7    1.54    0.13
  -4   1   7    1.54    0.14
   3  -1  -7   62.25    1.34
  -3   1   7   63.85    1.34
  -3   1   7   63.23    1.43
   2  -1  -7    9.97    0.28
   2  -1  -7   10.36    0.29
  -2   1   7   10.11    0.28
  -2   1   7   10.42    0.31
   1  -1  -7    2.49    0.13
   1  -1  -7    2.56    0.13
  -1   1   7    2.53    0.13
  -1   1   7    2.43    0.14
   0  -1  -7    8.58    0.26
   0  -1  -7    8.86    0.25
   0   1   7    9.22    0.26
  -1  -1  -7    3.70    0.15
  -1  -1  -7    3.75    0.16
   1   1   7    3.81    0.16
  -2  -1  -7   56.39    1.17
  -2  -1  -7   55.26    1.19
   2   1   7   54.13    1.17
   2   1   7   55.72    1.19
  -3  -1  -7   15.23    0.39
  -3  -1  -7   15.47    0.39
   3   1   7   14.89    0.38
   3   1   7   14.53    0.39
  -4  -1  -7  184.86    3.74
  -4  -1  -7  184.72    3.82
  -4  -1  -7  184.52    3.76
   4   1   7  184.83    3.76
   4   1   7  183.76    3.74
  -5  -1  -7   25.59    0.61
  -5  -1  -7   25.63    0.61
  -5  -1  -7   25.43    0.60
   5   1   7   25.94    0.62
   5   1   7   25.67    0.60
  -6  -1  -7    6.53    0.24
  -6  -1  -7    6.40    0.24
  -6  -1  -7    5.98    0.23
   6   1   7    6.47    0.23
   6   1   7    6.11    0.25
  -7  -1  -7    1.81    0.17
  -7  -1  -7    1.64    0.17
   7   1   7    1.69    0.18
  -8  -1  -7   -0.02    0.11
  -8  -1  -7   -0.06    0.08
   8   1   7   -0.03    0.10
   8   1   7    0.03    0.09
   8   1   7   -0.12    0.11
   9   1   7    6.67    0.37
   9   1   7    6.44    0.25
   9   1   7    6.35    0.25
   6  -2  -7    7.01    0.26
   6  -2  -7    7.25    0.28
  -6   2   7    7.02    0.23
   5  -2  -7   -0.04    0.08
  -5   2   7    0.02    0.08
  -5   2   7    0.09    0.13
  -5   2   7    0.00    0.08
   4  -2  -7   34.22    0.73
   4  -2  -7   32.37    0.74
  -4   2   7   32.93    0.74
  -4   2   7   31.65    0.81
   3  -2  -7    0.83    0.09
   3  -2  -7    1.17    0.11
  -3   2   7    0.78    0.09
  -3   2   7    0.99    0.12
   2  -2  -7   10.92    0.30
   2  -2  -7   11.05    0.29
  -2   2   7   10.92    0.33
  -2   2   7   10.84    0.30
   1  -2  -7   16.39    0.39
   1  -2  -7   16.42    0.41
  -1   2   7   16.66    0.41
  -1   2   7   16.15    0.43
   0  -2  -7   19.97    0.48
   0  -2  -7   19.98    0.46
   0   2   7   20.09    0.48
   0   2   7   20.70    0.51
  -1  -2  -7   60.66    1.24
  -1  -2  -7   58.11    1.26
   1   2   7   58.99    1.24
   1   2   7   59.06    1.26
  -2  -2  -7    1.61    0.12
  -2  -2  -7    1.59    0.11
   2   2   7    1.69    0.12
  -3  -2  -7  138.86    2.85
  -3  -2  -7  136.28    2.78
  -3  -2  -7  133.69    2.80
   3   2   7  137.99    2.80
   3   2   7  135.39    2.78
  -4  -2  -7   69.61    1.51
  -4  -2  -7   70.64    1.48
  -4  -2  -7   70.77    1.48
   4   2   7   68.62    1.48
   4   2   7   71.36    1.48
  -5  -2  -7   71.47    1.53
  -5  -2  -7   70.49    1.56
  -5  -2  -7   73.84    1.54
   5   2   7   71.11    1.54
   5   2   7   75.11    1.53
  -6  -2  -7   24.63    0.60
  -6  -2  -7   24.32    0.61
  -6  -2  -7   23.93    0.57
   6   2   7   23.94    0.61
   6   2   7   24.73    0.58
  -7  -2  -7    0.83    0.12
   7   2   7    0.66    0.12
  -8  -2  -7   13.63    0.44
  -8  -2  -7   15.56    0.39
   8   2   7   15.15    0.40
   8   2   7   15.42    0.48
   9   2   7    1.49    0.13
   9   2   7    1.57    0.13
   9   2   7    1.34    0.20
   6  -3  -7    0.10    0.09
   6  -3  -7    0.12    0.11
   6  -3  -7    0.28    0.10
  -6   3   7    0.07    0.18
   5  -3  -7   14.45    0.39
   5  -3  -7   15.04    0.36
  -5   3   7   14.92    0.38
  -5   3   7   14.79    0.49
   4  -3  -7    0.81    0.10
   4  -3  -7    1.24    0.11
  -4   3   7    0.73    0.09
  -4   3   7    0.84    0.13
   3  -3  -7   29.04    0.67
   3  -3  -7   29.08    0.63
  -3   3   7   29.54    0.67
  -3   3   7   29.21    0.74
   2  -3  -7   10.09    0.29
   2  -3  -7   10.42    0.26
  -2   3   7   10.55    0.29
  -2   3   7   10.78    0.33
   1  -3  -7    1.96    0.11
   1  -3  -7    1.77    0.12
  -1   3   7    1.81    0.11
  -1   3   7    1.92    0.13
   0  -3  -7   71.03    1.51
   0  -3  -7   72.56    1.47
   0   3   7   71.68    1.59
   0   3   7   70.44    1.51
  -1  -3  -7    4.77    0.18
  -1  -3  -7    4.77    0.16
   1   3   7    4.89    0.18
   1   3   7    4.64    0.17
  -2  -3  -7   11.21    0.30
  -2  -3  -7   11.05    0.31
  -2  -3  -7   11.36    0.32
   2   3   7   11.22    0.30
   2   3   7   11.03    0.31
  -3  -3  -7   23.66    0.56
  -3  -3  -7   23.97    0.56
  -3  -3  -7   24.03    0.58
   3   3   7   23.94    0.56
   3   3   7   24.09    0.56
  -4  -3  -7   69.77    1.51
  -4  -3  -7   70.84    1.47
  -4  -3  -7   69.10    1.47
   4   3   7   69.12    1.47
   4   3   7   68.27    1.47
  -5  -3  -7    9.65    0.31
  -5  -3  -7   11.04    0.33
  -5  -3  -7   10.22    0.30
   5   3   7   10.33    0.32
   5   3   7   10.84    0.31
  -6  -3  -7    4.14    0.19
  -6  -3  -7    4.02    0.22
  -6  -3  -7    4.09    0.19
   6   3   7    3.68    0.20
   6   3   7    3.87    0.19
  -7  -3  -7   55.34    1.33
   7   3   7   60.27    1.32
   7   3   7   61.48    1.33
   7   3   7   59.95    1.28
  -8  -3  -7    0.55    0.10
  -8  -3  -7    0.60    0.15
   8   3   7    0.47    0.14
   8   3   7    0.62    0.11
   8   3   7    0.36    0.13
  -9  -3  -7    1.86    0.17
   9   3   7    2.34    0.22
   9   3   7    1.75    0.20
   9   3   7    2.05    0.20
   6  -4  -7    5.72    0.26
  -6   4   7    5.84    0.40
  -6   4   7    6.24    0.23
  -6   4   7    6.04    0.23
   5  -4  -7    0.55    0.11
  -5   4   7    0.69    0.09
  -5   4   7    0.48    0.16
   4  -4  -7    6.72    0.25
  -4   4   7    6.70    0.30
  -4   4   7    6.90    0.23
   3  -4  -7    1.54    0.14
   3  -4  -7    1.87    0.09
  -3   4   7    1.64    0.13
  -3   4   7    1.76    0.17
   2  -4  -7    1.15    0.11
   2  -4  -7    1.34    0.09
  -2   4   7    1.41    0.13
  -2   4   7    1.33    0.11
   1  -4  -7   24.93    0.59
   1  -4  -7   25.33    0.55
  -1   4   7   25.30    0.63
  -1   4   7   25.46    0.59
   0  -4  -7   15.44    0.36
   0  -4  -7   15.11    0.39
   0   4   7   14.95    0.36
   0   4   7   15.32    0.41
   0   4   7   14.72    0.39
  -1  -4  -7   36.32    0.78
  -1  -4  -7   36.23    0.81
   1   4   7   36.77    0.78
   1   4   7   35.32    0.81
   1   4   7   36.72    0.86
  -2  -4  -7   28.80    0.68
  -2  -4  -7   29.01    0.64
  -2  -4  -7   28.23    0.66
   2   4   7   28.67    0.64
   2   4   7   28.59    0.66
  -3  -4  -7   69.90    1.46
  -3  -4  -7   68.58    1.47
  -3  -4  -7   69.20    1.51
   3   4   7   70.25    1.46
   3   4   7   68.96    1.47
  -4  -4  -7   15.38    0.40
  -4  -4  -7   15.71    0.42
  -4  -4  -7   15.54    0.41
   4   4   7   15.53    0.41
   4   4   7   15.62    0.41
  -5  -4  -7    3.65    0.19
  -5  -4  -7    3.91    0.19
   5   4   7    3.89    0.19
   5   4   7    3.70    0.18
  -6  -4  -7    2.31    0.17
  -6  -4  -7    2.22    0.19
   6   4   7    1.80    0.16
   6   4   7    2.14    0.19
   6   4   7    2.35    0.17
  -7  -4  -7    1.61    0.14
  -7  -4  -7    1.72    0.17
   7   4   7    1.42    0.15
   7   4   7    1.61    0.16
   7   4   7    1.63    0.17
  -8  -4  -7    6.09    0.33
  -8  -4  -7    6.29    0.24
   8   4   7    5.67    0.30
   8   4   7    6.17    0.32
   8   4   7    6.29    0.26
   5  -5  -7   15.48    0.43
   5  -5  -7   14.89    0.52
  -5   5   7   15.80    0.41
  -5   5   7   15.48    0.53
   4  -5  -7    4.44    0.21
   4  -5  -7    4.23    0.26
  -4   5   7    4.44    0.27
  -4   5   7    4.47    0.20
   3  -5  -7   11.03    0.31
   3  -5  -7   10.27    0.36
  -3   5   7    9.90    0.30
  -3   5   7   10.80    0.36
   2  -5  -7   14.19    0.38
  -2   5   7   14.06    0.42
  -2   5   7   14.52    0.38
   1  -5  -7   36.18    0.74
   1  -5  -7   34.90    0.81
  -1   5   7   35.82    0.86
  -1   5   7   35.78    0.81
   0  -5  -7    7.79    0.25
   0  -5  -7    7.58    0.21
   0   5   7    7.40    0.21
   0   5   7    7.30    0.24
   0   5   7    7.72    0.26
  -1  -5  -7    0.10    0.05
  -1  -5  -7    0.10    0.06
  -1  -5  -7    0.07    0.05
   1   5   7   -0.02    0.04
   1   5   7   -0.02    0.05
   1   5   7    0.05    0.05
  -2  -5  -7   54.88    1.14
  -2  -5  -7   53.98    1.17
  -2  -5  -7   54.23    1.20
   2   5   7   53.41    1.14
   2   5   7   54.30    1.23
   2   5   7   53.35    1.17
  -3  -5  -7   28.20    0.66
  -3  -5  -7   28.36    0.68
   3   5   7   28.36    0.66
   3   5   7   27.79    0.65
  -4  -5  -7    4.01    0.19
  -4  -5  -7    4.05    0.19
   4   5   7    3.89    0.18
   4   5   7    4.34    0.19
  -5  -5  -7    2.50    0.17
  -5  -5  -7    2.73    0.18
   5   5   7    2.52    0.16
   5   5   7    2.39    0.18
   5   5   7    2.55    0.17
  -6  -5  -7    4.77    0.25
  -6  -5  -7    4.58    0.22
   6   5   7    4.47    0.22
   6   5   7    4.79    0.25
   6   5   7    4.51    0.22
  -7  -5  -7    5.88    0.26
  -7  -5  -7    5.93    0.31
   7   5   7    5.99    0.27
   7   5   7    6.11    0.25
   7   5   7    6.32    0.31
  -8  -5  -7    1.87    0.20
   8   5   7    2.18    0.21
   8   5   7    1.90    0.17
   8   5   7    2.25    0.21
   5  -6  -7    0.04    0.12
   5  -6  -7    0.10    0.17
  -5   6   7    0.09    0.10
  -5   6   7    0.16    0.16
   4  -6  -7    0.24    0.10
   4  -6  -7    0.36    0.13
  -4   6   7    0.31    0.12
  -4   6   7    0.41    0.09
   3  -6  -7   19.47    0.56
   3  -6  -7   19.69    0.50
  -3   6   7   19.03    0.55
  -3   6   7   19.31    0.49
   2  -6  -7   49.84    1.11
  -2   6   7   50.89    1.20
  -2   6   7   51.23    1.11
   1  -6  -7    7.52    0.25
  -1   6   7    7.40    0.27
  -1   6   7    7.51    0.25
   0  -6  -7   23.48    0.58
   0  -6  -7   23.49    0.57
   0   6   7   23.29    0.52
   0   6   7   23.16    0.60
   0   6   7   23.44    0.57
  -1  -6  -7  124.00    2.61
  -1  -6  -7  124.54    2.56
   1   6   7  122.92    2.50
   1   6   7  122.39    2.56
   1   6   7  122.32    2.69
  -2  -6  -7    0.76    0.09
  -2  -6  -7    0.65    0.10
   2   6   7    0.70    0.09
   2   6   7    0.65    0.08
   2   6   7    0.51    0.08
  -3  -6  -7   23.55    0.60
  -3  -6  -7   23.69    0.59
   3   6   7   24.11    0.60
   3   6   7   23.95    0.58
   3   6   7   23.64    0.57
  -4  -6  -7    2.44    0.18
  -4  -6  -7    2.48    0.16
   4   6   7    2.18    0.17
   4   6   7    2.41    0.17
   4   6   7    2.12    0.16
  -5  -6  -7    4.87    0.23
  -5  -6  -7    4.66    0.23
   5   6   7    4.32    0.24
   5   6   7    4.31    0.22
   5   6   7    4.81    0.22
  -6  -6  -7    5.39    0.25
  -6  -6  -7    5.70    0.28
   6   6   7    5.53    0.25
   6   6   7    5.79    0.28
   6   6   7    5.64    0.25
  -7  -6  -7    8.86    0.32
  -7  -6  -7    9.30    0.38
   7   6   7    9.07    0.38
   7   6   7    9.10    0.34
   7   6   7    8.90    0.32
  -8  -6  -7    7.16    0.39
  -8  -6  -7    7.64    0.28
   8   6   7    8.12    0.40
   8   6   7    7.84    0.33
   5  -7  -7    0.33    0.18
   5  -7  -7    0.52    0.14
  -5   7   7    0.64    0.12
  -5   7   7    0.61    0.18
   4  -7  -7    0.19    0.13
   4  -7  -7    0.13    0.10
  -4   7   7    0.29    0.09
  -4   7   7    0.36    0.12
   3  -7  -7    0.44    0.08
   3  -7  -7    0.35    0.11
  -3   7   7    0.35    0.08
  -3   7   7    0.42    0.11
   2  -7  -7    6.94    0.29
   2  -7  -7    7.64    0.29
   2  -7  -7    7.08    0.26
  -2   7   7    7.29    0.28
  -2   7   7    7.19    0.25
   1  -7  -7    4.37    0.21
   1  -7  -7    4.34    0.20
  -1   7   7    4.80    0.20
  -1   7   7    4.64    0.22
   0  -7  -7   46.09    1.01
   0  -7  -7   42.04    0.98
   0   7   7   43.18    0.98
   0   7   7   43.77    0.92
   0   7   7   43.26    1.04
  -1  -7  -7   12.93    0.37
  -1  -7  -7   12.42    0.37
   1   7   7   12.33    0.36
   1   7   7   12.36    0.37
   1   7   7   12.33    0.33
  -2  -7  -7  118.72    2.48
  -2  -7  -7  116.59    2.53
   2   7   7  118.40    2.60
   2   7   7  120.18    2.48
   2   7   7  119.99    2.43
  -3  -7  -7    3.17    0.20
  -3  -7  -7    3.52    0.18
   3   7   7    2.96    0.19
   3   7   7    3.21    0.18
   3   7   7    3.28    0.17
  -4  -7  -7    4.31    0.23
  -4  -7  -7    4.12    0.21
   4   7   7    4.44    0.22
   4   7   7    4.48    0.21
   4   7   7    4.42    0.22
   4   7   7    4.20    0.21
  -5  -7  -7   22.04    0.59
  -5  -7  -7   21.58    0.57
   5   7   7   21.73    0.60
   5   7   7   21.45    0.57
   5   7   7   22.11    0.57
   5   7   7   22.39    0.57
  -6  -7  -7   11.29    0.40
  -6  -7  -7   12.03    0.38
   6   7   7   10.90    0.37
   6   7   7   11.35    0.41
   6   7   7   11.42    0.37
  -7  -7  -7    1.19    0.17
  -7  -7  -7    1.20    0.15
   7   7   7    1.20    0.17
   7   7   7    1.07    0.13
   7   7   7    1.12    0.15
  -8  -7  -7    0.28    0.11
  -8  -7  -7    0.04    0.15
  -8  -7  -7    0.04    0.17
   8   7   7    0.36    0.17
   8   7   7    0.31    0.15
   8   7   7    0.17    0.12
   4  -8  -7    5.63    0.33
   4  -8  -7    5.21    0.32
   4  -8  -7    5.50    0.30
   4  -8  -7    5.58    0.27
  -4   8   7    5.71    0.25
  -4   8   7    4.48    0.30
   3  -8  -7    0.16    0.12
   3  -8  -7   -0.05    0.11
   3  -8  -7    0.01    0.08
  -3   8   7    0.15    0.08
  -3   8   7    0.04    0.09
   2  -8  -7    6.91    0.27
   2  -8  -7    6.35    0.29
   2  -8  -7    7.08    0.29
  -2   8   7    6.60    0.28
  -2   8   7    7.09    0.25
   1  -8  -7    0.02    0.07
   1  -8  -7    0.18    0.09
  -1   8   7   -0.07    0.07
  -1   8   7    0.18    0.07
   0  -8  -7    3.77    0.20
   0  -8  -7    3.39    0.20
   0   8   7    3.19    0.19
   0   8   7    3.36    0.15
   0   8   7    3.42    0.19
  -1  -8  -7   15.03    0.44
  -1  -8  -7   14.97    0.44
   1   8   7   15.25    0.39
   1   8   7   15.92    0.45
   1   8   7   14.93    0.43
  -2  -8  -7    0.33    0.07
  -2  -8  -7    0.26    0.10
   2   8   7    0.29    0.09
   2   8   7    0.18    0.08
   2   8   7    0.35    0.08
  -3  -8  -7   28.09    0.69
  -3  -8  -7   27.58    0.70
   3   8   7   27.67    0.66
   3   8   7   27.16    0.70
   3   8   7   28.24    0.69
  -4  -8  -7   15.10    0.45
  -4  -8  -7   15.39    0.46
   4   8   7   15.35    0.44
   4   8   7   14.91    0.45
   4   8   7   15.22    0.44
   4   8   7   15.25    0.47
  -5  -8  -7   35.20    0.84
  -5  -8  -7   35.98    0.88
   5   8   7   35.12    0.84
   5   8   7   34.00    0.88
   5   8   7   34.86    0.84
   5   8   7   35.21    0.85
  -6  -8  -7    0.83    0.15
  -6  -8  -7    0.48    0.13
   6   8   7    0.61    0.13
   6   8   7    0.68    0.13
   6   8   7    0.36    0.13
   6   8   7    0.67    0.12
  -7  -8  -7    0.05    0.15
  -7  -8  -7    0.03    0.09
  -7  -8  -7    0.17    0.15
   7   8   7   -0.08    0.11
   7   8   7    0.11    0.14
   7   8   7    0.33    0.14
   7   8   7   -0.02    0.12
   4  -9  -7    1.17    0.16
   4  -9  -7    1.28    0.19
   4  -9  -7    1.41    0.19
   4  -9  -7    1.06    0.19
  -4   9   7    0.84    0.16
  -4   9   7    0.99    0.14
   3  -9  -7    4.12    0.23
   3  -9  -7    4.77    0.29
   3  -9  -7    4.06    0.28
   3  -9  -7    4.72    0.30
  -3   9   7    4.52    0.26
  -3   9   7    4.64    0.22
   2  -9  -7    0.12    0.08
   2  -9  -7    0.09    0.11
   2  -9  -7    0.21    0.11
  -2   9   7    0.09    0.08
  -2   9   7    0.16    0.10
   1  -9  -7    0.92    0.11
   1  -9  -7    1.28    0.14
  -1   9   7    1.25    0.13
  -1   9   7    1.22    0.12
   0  -9  -7   21.83    0.58
   0  -9  -7   21.18    0.57
   0   9   7   21.04    0.59
   0   9   7   20.95    0.49
   0   9   7   20.94    0.56
  -1  -9  -7   10.48    0.35
  -1  -9  -7    9.68    0.35
   1   9   7    9.76    0.30
   1   9   7   10.42    0.36
   1   9   7   10.08    0.35
  -2  -9  -7    6.04    0.29
  -2  -9  -7    6.33    0.27
   2   9   7    6.38    0.27
   2   9   7    5.90    0.27
   2   9   7    6.51    0.25
  -3  -9  -7    0.22    0.07
  -3  -9  -7    0.16    0.12
   3   9   7    0.18    0.10
   3   9   7    0.19    0.10
   3   9   7    0.14    0.10
  -4  -9  -7   39.32    0.95
  -4  -9  -7   38.50    0.93
   4   9   7   36.60    0.92
   4   9   7   39.57    0.91
   4   9   7   38.08    0.95
   4   9   7   38.85    0.92
  -5  -9  -7    4.63    0.30
  -5  -9  -7    4.93    0.26
   5   9   7    4.56    0.27
   5   9   7    4.49    0.27
   5   9   7    4.59    0.24
   5   9   7    5.06    0.29
  -6  -9  -7    2.72    0.18
  -6  -9  -7    2.17    0.19
  -6  -9  -7    2.44    0.22
   6   9   7    2.51    0.22
   6   9   7    2.87    0.26
   6   9   7    3.07    0.27
   6   9   7    2.39    0.26
  -7  -9  -7    1.96    0.23
  -7  -9  -7    2.16    0.23
  -7  -9  -7    1.96    0.16
   7   9   7    1.94    0.20
   7   9   7    2.34    0.24
   7   9   7    2.20    0.22
   7   9   7    2.05    0.22
   3 -10  -7    1.98    0.20
   3 -10  -7    1.95    0.20
   3 -10  -7    1.51    0.14
   3 -10  -7    1.49    0.19
  -3  10   7    1.42    0.17
  -3  10   7    1.86    0.18
   2 -10  -7    2.43    0.24
   2 -10  -7    2.15    0.20
   2 -10  -7    1.89    0.16
   2 -10  -7    2.10    0.19
  -2  10   7    1.77    0.17
  -2  10   7    2.10    0.18
   1 -10  -7    3.88    0.28
   1 -10  -7    3.63    0.23
   1 -10  -7    3.51    0.25
   1 -10  -7    3.55    0.25
  -1  10   7    3.62    0.24
  -1  10   7    3.91    0.21
   0 -10  -7    3.93    0.25
   0 -10  -7    3.95    0.25
   0  10   7    3.99    0.23
   0  10   7    3.79    0.18
   0  10   7    4.01    0.24
  -1 -10  -7    4.50    0.27
  -1 -10  -7    4.27    0.25
   1  10   7    4.64    0.26
   1  10   7    4.01    0.22
   1  10   7    4.53    0.25
  -2 -10  -7    0.24    0.11
  -2 -10  -7    0.02    0.13
   2  10   7    0.23    0.12
   2  10   7    0.17    0.11
   2  10   7    0.17    0.10
  -3 -10  -7   12.69    0.42
  -3 -10  -7   12.07    0.44
   3  10   7   12.82    0.43
   3  10   7   12.66    0.41
   3  10   7   12.90    0.41
  -4 -10  -7   -0.02    0.15
  -4 -10  -7    0.02    0.10
  -4 -10  -7    0.01    0.09
   4  10   7    0.02    0.10
   4  10   7    0.02    0.11
   4  10   7   -0.07    0.12
   4  10   7    0.14    0.13
  -5 -10  -7   21.18    0.63
  -5 -10  -7   20.92    0.57
  -5 -10  -7   20.96    0.61
   5  10   7   21.45    0.61
   5  10   7   21.42    0.62
   5  10   7   20.96    0.61
   5  10   7   20.54    0.58
  -6 -10  -7    3.46    0.27
  -6 -10  -7    4.09    0.35
  -6 -10  -7    3.56    0.23
   6  10   7    3.98    0.32
   6  10   7    3.74    0.26
   6  10   7    3.04    0.29
   6  10   7    3.52    0.30
   2 -11  -7    0.13    0.17
   2 -11  -7    0.07    0.15
   2 -11  -7    0.04    0.13
   2 -11  -7   -0.01    0.14
  -2  11   7   -0.40    0.13
  -2  11   7   -0.08    0.10
   1 -11  -7    1.93    0.19
   1 -11  -7    2.11    0.22
   1 -11  -7    1.98    0.18
  -1  11   7    2.27    0.20
  -1  11   7    2.30    0.21
   0 -11  -7   12.26    0.44
   0 -11  -7   12.46    0.46
   0 -11  -7   12.94    0.45
   0  11   7   11.86    0.35
   0  11   7   12.05    0.42
   0  11   7   11.95    0.45
  -1 -11  -7    6.83    0.33
  -1 -11  -7    6.61    0.35
  -1 -11  -7    6.59    0.36
   1  11   7    6.56    0.32
   1  11   7    6.83    0.29
   1  11   7    6.23    0.32
  -2 -11  -7    8.68    0.37
  -2 -11  -7    7.90    0.40
  -2 -11  -7    8.18    0.36
   2  11   7    8.72    0.33
   2  11   7    8.90    0.36
   2  11   7    8.96    0.37
  -3 -11  -7   -0.06    0.16
  -3 -11  -7    0.13    0.12
  -3 -11  -7   -0.13    0.11
   3  11   7   -0.07    0.13
   3  11   7    0.13    0.12
   3  11   7    0.09    0.13
  -4 -11  -7    8.01    0.43
  -4 -11  -7    8.42    0.34
  -4 -11  -7    8.16    0.36
   4  11   7    7.34    0.38
   4  11   7    8.09    0.35
   4  11   7    8.90    0.38
   4  11   7    8.18    0.38
  -5 -11  -7    0.31    0.14
  -5 -11  -7    0.02    0.11
  -5 -11  -7    0.03    0.21
   5  11   7    0.15    0.14
   5  11   7    0.12    0.15
   5  11   7    0.24    0.17
   5  11   7    0.30    0.15
   0 -12  -7   11.27    0.45
   0 -12  -7   10.95    0.47
   0 -12  -7   10.56    0.46
   0  12   7   10.36    0.34
   0  12   7   10.12    0.42
   0  12   7   10.95    0.47
  -1 -12  -7    1.54    0.23
  -1 -12  -7    1.57    0.21
  -1 -12  -7    1.30    0.19
   1  12   7    1.57    0.19
   1  12   7    1.82    0.17
   1  12   7    1.58    0.20
  -2 -12  -7    0.68    0.21
  -2 -12  -7    0.23    0.16
  -2 -12  -7    0.82    0.18
   2  12   7    0.93    0.17
   2  12   7    1.18    0.19
   2  12   7    0.94    0.18
  -3 -12  -7   11.04    0.52
  -3 -12  -7   10.84    0.44
  -3 -12  -7   10.35    0.46
   3  12   7   11.52    0.43
   3  12   7   11.15    0.44
   3  12   7   11.24    0.46
   0   8  -8   19.41    0.64
   0   8  -8   18.80    0.57
   0   8  -8   19.05    0.60
   0  -8   8   20.14    0.60
   0  -8   8   18.69    0.65
  -1   8  -8    1.50    0.22
  -1   8  -8    1.42    0.16
  -1   8  -8    1.76    0.19
   1  -8   8    1.70    0.20
   1  -8   8    1.42    0.23
  -2   8  -8    5.77    0.41
  -2   8  -8    5.14    0.32
  -2   8  -8    4.57    0.29
   2  -8   8    4.70    0.37
   2  -8   8    5.22    0.35
  -3   8  -8    2.22    0.22
  -3   8  -8    2.17    0.27
  -3   8  -8    1.92    0.20
   3  -8   8    1.68    0.22
   3  -8   8    2.21    0.22
   2   7  -8    0.10    0.13
   2   7  -8    0.05    0.16
  -2  -7   8   -0.18    0.11
  -2  -7   8    0.18    0.20
   1   7  -8    6.07    0.34
   1   7  -8    6.27    0.33
  -1  -7   8    5.83    0.29
  -1  -7   8    5.67    0.39
   0   7  -8    0.63    0.11
   0   7  -8    0.51    0.15
   0   7  -8    0.83    0.15
   0  -7   8    0.49    0.18
   0  -7   8    0.64    0.13
  -1   7  -8   21.72    0.65
  -1   7  -8   21.49    0.59
  -1   7  -8   21.14    0.59
   1  -7   8   21.47    0.62
   1  -7   8   21.50    0.64
  -2   7  -8    6.88    0.29
  -2   7  -8    6.52    0.31
  -2   7  -8    6.54    0.38
   2  -7   8    6.75    0.35
   2  -7   8    7.06    0.34
  -3   7  -8    1.16    0.13
  -3   7  -8    0.92    0.18
  -3   7  -8    1.10    0.16
   3  -7   8    1.02    0.17
   3  -7   8    1.18    0.18
  -4   7  -8   23.16    0.67
  -4   7  -8   24.09    0.71
  -4   7  -8   23.76    0.55
   4  -7   8   24.78    0.69
   4  -7   8   23.43    0.67
  -5   7  -8    0.07    0.16
  -5   7  -8    0.09    0.20
   5  -7   8   -0.21    0.12
   5  -7   8    0.03    0.17
   3   6  -8    1.35    0.15
   3   6  -8    0.95    0.17
  -3  -6   8    0.82    0.13
  -3  -6   8    1.08    0.22
   2   6  -8    4.94    0.31
   2   6  -8    4.65    0.26
  -2  -6   8    4.64    0.22
  -2  -6   8    5.12    0.24
  -2  -6   8    4.62    0.34
   1   6  -8    1.76    0.18
   1   6  -8    2.14    0.22
  -1  -6   8    1.71    0.19
  -1  -6   8    1.88    0.20
   0   6  -8   24.06    0.64
   0   6  -8   22.89    0.64
   0   6  -8   23.30    0.65
   0  -6   8   24.47    0.65
   0  -6   8   23.89    0.67
  -1   6  -8    2.04    0.18
  -1   6  -8    2.09    0.20
  -1   6  -8    2.35    0.24
   1  -6   8    2.15    0.22
   1  -6   8    1.97    0.19
  -2   6  -8    3.18    0.27
  -2   6  -8    2.88    0.21
  -2   6  -8    3.21    0.21
   2  -6   8    3.42    0.26
   2  -6   8    2.78    0.24
  -3   6  -8   33.81    0.86
  -3   6  -8   32.51    0.83
  -3   6  -8   33.90    0.78
   3  -6   8   33.98    0.85
   3  -6   8   34.40    0.85
  -4   6  -8    2.10    0.20
  -4   6  -8    2.08    0.21
  -4   6  -8    2.23    0.15
   4  -6   8    2.42    0.21
   4  -6   8    2.15    0.20
  -5   6  -8    8.15    0.40
  -5   6  -8    7.96    0.36
   5  -6   8    7.63    0.37
   5  -6   8    7.75    0.31
  -6   6  -8    4.18    0.36
  -6   6  -8    3.16    0.31
   6  -6   8    3.50    0.32
   6  -6   8    3.62    0.23
   3   5  -8    0.56    0.14
   3   5  -8    0.60    0.12
  -3  -5   8    0.68    0.10
  -3  -5   8    0.67    0.18
  -3  -5   8    0.60    0.10
   2   5  -8    0.20    0.12
   2   5  -8    0.49    0.10
  -2  -5   8    0.40    0.15
  -2  -5   8    0.45    0.10
  -2  -5   8    0.48    0.09
   1   5  -8   11.84    0.39
  -1  -5   8   12.04    0.38
  -1  -5   8   11.58    0.42
   0   5  -8    0.28    0.11
   0   5  -8    0.31    0.08
   0  -5   8    0.36    0.10
   0  -5   8    0.28    0.12
  -1   5  -8    1.25    0.15
  -1   5  -8    1.28    0.13
   1  -5   8    0.85    0.14
   1  -5   8    1.01    0.13
  -2   5  -8   40.98    0.98
  -2   5  -8   40.89    0.97
   2  -5   8   41.55    0.98
   2  -5   8   41.93    0.98
  -3   5  -8    6.57    0.31
  -3   5  -8    6.25    0.27
   3  -5   8    6.49    0.28
   3  -5   8    6.93    0.30
  -4   5  -8   32.54    0.83
  -4   5  -8   33.21    0.81
   4  -5   8   33.05    0.82
   4  -5   8   32.19    0.80
  -5   5  -8    0.85    0.14
  -5   5  -8    0.96    0.17
   5  -5   8    1.16    0.16
   5  -5   8    0.95    0.12
  -6   5  -8    4.76    0.32
  -6   5  -8    5.25    0.31
   6  -5   8    4.75    0.24
   6  -5   8    5.37    0.31
  -7   5  -8    1.44    0.20
  -7   5  -8    1.19    0.20
   7  -5   8    0.96    0.18
   7  -5   8    1.07    0.15
   4   4  -8   -0.18    0.12
   4   4  -8    0.09    0.12
  -4  -4   8    0.28    0.16
  -4  -4   8    0.27    0.10
   3   4  -8    0.05    0.09
  -3  -4   8   -0.02    0.09
  -3  -4   8   -0.09    0.08
  -3  -4   8    0.17    0.14
   2   4  -8   10.55    0.35
  -2  -4   8   10.67    0.33
  -2  -4   8   10.71    0.33
  -2  -4   8   10.29    0.38
   1   4  -8    0.07    0.08
  -1  -4   8    0.15    0.07
  -1  -4   8    0.20    0.12
   0   4  -8    5.05    0.24
   0   4  -8    5.53    0.23
   0  -4   8    5.03    0.23
   0  -4   8    5.33    0.26
  -1   4  -8    8.87    0.31
  -1   4  -8    9.13    0.33
   1  -4   8    8.88    0.32
   1  -4   8    8.93    0.33
  -2   4  -8    7.77    0.31
  -2   4  -8    7.73    0.28
   2  -4   8    7.94    0.30
   2  -4   8    7.52    0.29
  -3   4  -8    5.27    0.23
  -3   4  -8    5.51    0.27
   3  -4   8    5.57    0.26
   3  -4   8    5.54    0.25
  -4   4  -8    2.47    0.22
  -4   4  -8    2.55    0.19
   4  -4   8    2.22    0.16
   4  -4   8    2.23    0.20
  -5   4  -8    5.02    0.25
  -5   4  -8    4.86    0.28
  -5   4  -8    5.07    0.17
   5  -4   8    4.81    0.26
   5  -4   8    5.02    0.23
  -6   4  -8   14.64    0.46
  -6   4  -8   14.51    0.46
   6  -4   8   13.83    0.42
   6  -4   8   14.16    0.44
  -7   4  -8   16.24    0.51
  -7   4  -8   15.55    0.50
   7  -4   8   15.63    0.47
   7  -4   8   15.89    0.48
   4   3  -8    1.11    0.14
  -4  -3   8    1.25    0.13
  -4  -3   8    1.20    0.17
  -4  -3   8    1.27    0.13
   3   3  -8    6.86    0.27
  -3  -3   8    7.44    0.26
  -3  -3   8    7.25    0.27
  -3  -3   8    7.19    0.31
   2   3  -8    0.27    0.08
  -2  -3   8    0.40    0.07
  -2  -3   8    0.31    0.11
  -2  -3   8    0.19    0.09
   1   3  -8    9.16    0.29
  -1  -3   8    8.62    0.31
  -1  -3   8    7.89    0.28
   0   3  -8    0.74    0.10
   0   3  -8    1.11    0.11
   0  -3   8    0.79    0.10
   0  -3   8    0.69    0.11
  -1   3  -8    5.76    0.24
  -1   3  -8    5.45    0.22
   1  -3   8    5.66    0.23
   1  -3   8    5.85    0.25
  -2   3  -8    9.45    0.32
  -2   3  -8    8.96    0.30
   2  -3   8    9.67    0.31
   2  -3   8    9.47    0.32
  -3   3  -8   36.52    0.86
  -3   3  -8   37.54    0.86
   3  -3   8   37.05    0.86
   3  -3   8   36.56    0.86
  -4   3  -8    0.01    0.09
  -4   3  -8    0.07    0.07
   4  -3   8    0.06    0.06
   4  -3   8    0.09    0.09
  -5   3  -8    0.94    0.13
  -5   3  -8    1.01    0.09
  -5   3  -8    1.07    0.12
   5  -3   8    0.90    0.13
   5  -3   8    0.87    0.11
  -6   3  -8   16.66    0.48
  -6   3  -8   16.37    0.48
   6  -3   8   16.92    0.46
   6  -3   8   16.58    0.47
   6  -3   8   15.89    0.48
  -7   3  -8    0.03    0.13
  -7   3  -8    0.11    0.12
   7  -3   8    0.03    0.13
   7  -3   8    0.14    0.12
   7  -3   8    0.08    0.10
  -8   3  -8    0.85    0.17
  -8   3  -8    0.86    0.18
   8  -3   8    0.77    0.15
   8  -3   8    0.83    0.18
   8  -3   8    0.81    0.15
   5   2  -8    1.92    0.18
  -5  -2   8    1.71    0.16
  -5  -2   8    1.76    0.15
   4   2  -8    0.52    0.12
  -4  -2   8    0.61    0.12
  -4  -2   8    0.58    0.14
  -4  -2   8    0.60    0.10
   3   2  -8    3.95    0.20
  -3  -2   8    4.03    0.21
  -3  -2   8    4.15    0.25
  -3  -2   8    4.70    0.20
   2   2  -8   20.67    0.53
  -2  -2   8   20.65    0.52
  -2  -2   8   20.48    0.54
  -2  -2   8   20.69    0.53
   1   2  -8    1.93    0.17
   1   2  -8    2.04    0.14
  -1  -2   8    2.11    0.18
  -1  -2   8    2.20    0.14
   0   2  -8   25.72    0.63
   0   2  -8   26.03    0.63
   0  -2   8   25.65    0.62
   0  -2   8   25.51    0.63
  -1   2  -8   18.62    0.49
  -1   2  -8   19.01    0.49
   1  -2   8   18.73    0.49
   1  -2   8   18.87    0.49
  -2   2  -8   57.09    1.23
  -2   2  -8   56.21    1.23
   2  -2   8   55.55    1.23
   2  -2   8   55.82    1.23
  -3   2  -8   10.77    0.34
  -3   2  -8   10.72    0.32
   3  -2   8   10.56    0.33
   3  -2   8   10.59    0.32
  -4   2  -8    1.01    0.09
  -4   2  -8    1.12    0.12
  -4   2  -8    0.95    0.11
   4  -2   8    1.13    0.12
   4  -2   8    1.22    0.12
  -5   2  -8   51.24    1.13
  -5   2  -8   50.08    1.09
  -5   2  -8   51.11    1.12
   5  -2   8   50.20    1.12
   5  -2   8   49.81    1.12
   5  -2   8   49.85    1.13
  -6   2  -8    0.43    0.11
  -6   2  -8    0.40    0.10
  -6   2  -8    0.37    0.08
   6  -2   8    0.35    0.08
   6  -2   8    0.48    0.10
   6  -2   8    0.40    0.11
  -7   2  -8   11.17    0.39
  -7   2  -8   11.54    0.28
  -7   2  -8   10.96    0.37
   7  -2   8   11.25    0.35
   7  -2   8   10.79    0.39
   7  -2   8   11.46    0.36
  -8   2  -8   11.22    0.43
   8  -2   8   11.20    0.37
   8  -2   8   10.83    0.37
   8  -2   8   10.96    0.44
   5   1  -8    0.15    0.12
  -5  -1   8    0.30    0.10
  -5  -1   8    0.39    0.15
   4   1  -8    0.40    0.10
  -4  -1   8    0.35    0.09
  -4  -1   8    0.52    0.12
  -4  -1   8    0.26    0.12
   3   1  -8   22.76    0.57
  -3  -1   8   22.41    0.58
  -3  -1   8   23.19    0.56
  -3  -1   8   23.53    0.59
   2   1  -8    2.78    0.16
  -2  -1   8    2.80    0.20
  -2  -1   8    2.86    0.16
  -2  -1   8    2.82    0.18
   1   1  -8   25.22    0.62
   1   1  -8   26.21    0.63
  -1  -1   8   25.91    0.62
  -1  -1   8   25.85    0.63
   0   1  -8    3.28    0.17
   0   1  -8    3.64    0.18
   0  -1   8    3.40    0.19
   0  -1   8    3.64    0.17
  -1   1  -8  154.38    3.14
  -1   1  -8  154.83    3.17
   1  -1   8  151.68    3.16
  -2   1  -8    0.51    0.07
  -2   1  -8    0.47    0.09
   2  -1   8    0.70    0.09
  -3   1  -8    0.25    0.06
  -3   1  -8    0.41    0.09
   3  -1   8    0.30    0.08
  -4   1  -8   16.27    0.42
  -4   1  -8   16.57    0.44
  -4   1  -8   16.75    0.44
   4  -1   8   15.78    0.43
   4  -1   8   16.13    0.44
   4  -1   8   16.62    0.44
  -5   1  -8    2.06    0.18
  -5   1  -8    2.07    0.14
  -5   1  -8    1.93    0.14
   5  -1   8    2.23    0.17
   5  -1   8    2.02    0.17
   5  -1   8    2.09    0.14
  -6   1  -8   29.43    0.71
  -6   1  -8   29.61    0.67
  -6   1  -8   28.69    0.70
   6  -1   8   29.06    0.69
   6  -1   8   28.58    0.72
   6  -1   8   29.34    0.69
  -7   1  -8    8.48    0.31
  -7   1  -8    8.66    0.27
  -7   1  -8    8.36    0.32
   7  -1   8    9.21    0.30
   7  -1   8    8.63    0.30
   7  -1   8    8.33    0.34
  -8   1  -8   19.10    0.58
   8  -1   8   20.91    0.53
   8  -1   8   19.28    0.58
   5   0  -8    0.14    0.11
  -5   0   8    0.02    0.15
  -5   0   8    0.05    0.09
   4   0  -8    3.39    0.20
  -4   0   8    3.20    0.23
  -4   0   8    3.18    0.21
  -4   0   8    3.28    0.18
   3   0  -8    2.14    0.15
  -3   0   8    2.05    0.19
  -3   0   8    2.43    0.15
  -3   0   8    2.34    0.19
   2   0  -8    4.84    0.19
   2   0  -8    4.86    0.21
  -2   0   8    4.78    0.19
  -2   0   8    4.59    0.21
   1   0  -8    4.20    0.19
   1   0  -8    3.70    0.18
  -1   0   8    4.20    0.18
  -1   0   8    4.11    0.19
   0   0  -8  109.10    2.22
   0   0  -8  105.66    2.24
   0   0   8  107.41    2.24
  -1   0  -8    0.09    0.06
  -1   0  -8    0.01    0.06
   1   0   8    0.20    0.07
  -2   0  -8   24.36    0.58
  -2   0  -8   24.91    0.59
   2   0   8   24.78    0.59
  -3   0  -8   24.88    0.59
  -3   0  -8   24.76    0.59
   3   0   8   24.47    0.59
   3   0   8   24.25    0.59
  -4   0  -8    0.82    0.09
  -4   0  -8    0.75    0.09
  -4   0  -8    0.72    0.10
   4   0   8    0.74    0.10
   4   0   8    0.56    0.09
  -5   0  -8    8.50    0.28
  -5   0  -8    7.97    0.27
  -5   0  -8    8.23    0.26
   5   0   8    8.09    0.29
   5   0   8    8.16    0.27
  -6   0  -8    0.07    0.09
  -6   0  -8    0.03    0.07
  -6   0  -8    0.19    0.08
   6   0   8    0.04    0.08
   6   0   8    0.16    0.09
  -7   0  -8    7.52    0.28
  -7   0  -8    7.68    0.27
  -7   0  -8    7.89    0.30
   7   0   8    7.33    0.27
   7   0   8    7.48    0.27
   7   0   8    7.50    0.31
  -8   0  -8   13.77    0.40
  -8   0  -8   14.02    0.47
   8   0   8   14.21    0.41
   8   0   8   13.97    0.42
   8   0   8   14.86    0.48
   5  -1  -8    1.57    0.14
  -5   1   8    1.43    0.19
  -5   1   8    1.66    0.17
  -5   1   8    1.60    0.14
   4  -1  -8    2.59    0.20
   4  -1  -8    2.28    0.17
  -4   1   8    2.08    0.19
  -4   1   8    2.37    0.23
  -4   1   8    2.36    0.16
   3  -1  -8    0.30    0.08
   3  -1  -8    0.27    0.09
  -3   1   8    0.27    0.10
  -3   1   8    0.20    0.07
   2  -1  -8    4.74    0.19
   2  -1  -8    4.75    0.20
  -2   1   8    4.70    0.22
  -2   1   8    4.67    0.18
   1  -1  -8   14.11    0.38
   1  -1  -8   14.31    0.37
  -1   1   8   14.23    0.38
  -1   1   8   14.19    0.40
   0  -1  -8    0.18    0.06
   0  -1  -8    0.23    0.06
   0   1   8    0.10    0.06
  -1  -1  -8  117.70    2.38
  -1  -1  -8  114.50    2.41
   1   1   8  116.31    2.41
  -2  -1  -8    8.57    0.27
  -2  -1  -8    8.69    0.26
   2   1   8    9.07    0.27
   2   1   8    8.79    0.27
  -3  -1  -8   43.22    0.95
  -3  -1  -8   42.84    0.95
   3   1   8   42.26    0.95
   3   1   8   44.01    0.96
  -4  -1  -8   53.58    1.16
  -4  -1  -8   53.76    1.18
  -4  -1  -8   53.30    1.16
   4   1   8   53.58    1.16
   4   1   8   52.83    1.17
  -5  -1  -8    2.63    0.16
  -5  -1  -8    2.62    0.15
  -5  -1  -8    2.58    0.17
   5   1   8    2.61    0.17
   5   1   8    2.38    0.16
  -6  -1  -8    0.49    0.10
  -6  -1  -8    0.63    0.10
  -6  -1  -8    0.55    0.08
   6   1   8    0.50    0.10
   6   1   8    0.62    0.10
  -7  -1  -8    0.13    0.10
  -7  -1  -8    0.15    0.10
  -7  -1  -8    0.08    0.09
   7   1   8    0.05    0.09
   7   1   8    0.20    0.10
  -8  -1  -8   16.37    0.50
  -8  -1  -8   15.97    0.47
   8   1   8   16.40    0.44
   8   1   8   16.15    0.45
   8   1   8   16.63    0.51
   5  -2  -8    1.52    0.14
   5  -2  -8    2.08    0.20
  -5   2   8    1.94    0.18
  -5   2   8    1.74    0.14
  -5   2   8    1.92    0.21
   4  -2  -8   -0.05    0.08
   4  -2  -8   -0.01    0.09
  -4   2   8    0.08    0.11
  -4   2   8    0.12    0.08
   3  -2  -8    2.79    0.16
   3  -2  -8    2.91    0.16
  -3   2   8    3.04    0.16
  -3   2   8    2.17    0.19
   2  -2  -8   10.01    0.29
   2  -2  -8    9.93    0.28
  -2   2   8    9.64    0.29
  -2   2   8    9.45    0.32
   1  -2  -8    1.32    0.12
   1  -2  -8    1.61    0.13
  -1   2   8    1.21    0.11
  -1   2   8    1.45    0.13
   0  -2  -8   15.21    0.40
   0  -2  -8   15.24    0.38
   0   2   8   15.58    0.42
   0   2   8   14.78    0.40
  -1  -2  -8    1.08    0.10
  -1  -2  -8    1.11    0.11
   1   2   8    1.28    0.12
   1   2   8    1.38    0.12
  -2  -2  -8    6.39    0.21
  -2  -2  -8    5.76    0.22
   2   2   8    6.30    0.21
   2   2   8    6.02    0.22
  -3  -2  -8  121.42    2.50
  -3  -2  -8  120.45    2.53
  -3  -2  -8  124.08    2.57
   3   2   8  120.54    2.51
   3   2   8  124.06    2.53
  -4  -2  -8   71.18    1.54
  -4  -2  -8   69.97    1.51
  -4  -2  -8   71.70    1.51
   4   2   8   72.10    1.52
   4   2   8   70.64    1.51
  -5  -2  -8   71.94    1.57
  -5  -2  -8   72.53    1.54
  -5  -2  -8   70.22    1.54
   5   2   8   74.67    1.54
   5   2   8   72.22    1.55
  -6  -2  -8   -0.02    0.08
  -6  -2  -8    0.02    0.08
  -6  -2  -8    0.05    0.07
   6   2   8    0.12    0.08
   6   2   8    0.04    0.07
  -7  -2  -8   17.84    0.47
  -7  -2  -8   17.76    0.50
  -7  -2  -8   17.85    0.50
   7   2   8   17.93    0.47
   7   2   8   17.54    0.51
  -8  -2  -8    2.35    0.24
   8   2   8    2.47    0.21
   8   2   8    2.49    0.24
   5  -3  -8    0.05    0.11
   5  -3  -8    0.25    0.10
  -5   3   8    0.33    0.10
  -5   3   8    0.33    0.16
   4  -3  -8    4.15    0.21
   4  -3  -8    4.29    0.18
  -4   3   8    4.22    0.20
  -4   3   8    4.36    0.27
   3  -3  -8    1.13    0.11
   3  -3  -8    1.32    0.12
  -3   3   8    1.36    0.13
  -3   3   8    1.49    0.15
   2  -3  -8    0.44    0.07
   2  -3  -8    0.42    0.07
  -2   3   8    0.43    0.09
  -2   3   8    0.34    0.07
   1  -3  -8   23.87    0.54
   1  -3  -8   23.16    0.57
  -1   3   8   23.98    0.57
  -1   3   8   23.74    0.61
   0  -3  -8    1.33    0.11
   0  -3  -8    0.99    0.09
   0   3   8    1.32    0.12
   0   3   8    1.17    0.11
  -1  -3  -8   37.21    0.80
  -1  -3  -8   36.97    0.82
   1   3   8   36.01    0.82
   1   3   8   34.94    0.79
  -2  -3  -8   21.65    0.53
  -2  -3  -8   21.79    0.52
   2   3   8   21.69    0.52
   2   3   8   22.14    0.53
  -3  -3  -8   27.26    0.63
  -3  -3  -8   26.55    0.64
  -3  -3  -8   27.60    0.66
   3   3   8   27.47    0.64
   3   3   8   27.48    0.64
  -4  -3  -8    9.98    0.31
  -4  -3  -8   10.04    0.31
  -4  -3  -8   10.08    0.30
   4   3   8   10.07    0.31
   4   3   8   10.11    0.31
  -5  -3  -8    8.78    0.30
  -5  -3  -8    8.66    0.29
  -5  -3  -8    8.65    0.28
   5   3   8    8.98    0.29
   5   3   8    8.65    0.29
  -6  -3  -8   49.85    1.13
  -6  -3  -8   48.89    1.08
  -6  -3  -8   48.75    1.11
   6   3   8   49.98    1.09
   6   3   8   48.41    1.11
  -7  -3  -8   10.09    0.33
  -7  -3  -8   10.37    0.37
   7   3   8   10.77    0.33
   7   3   8   10.03    0.36
  -8  -3  -8   28.89    0.76
   8   3   8   29.85    0.76
   5  -4  -8   10.22    0.34
  -5   4   8   10.24    0.44
  -5   4   8   10.11    0.32
   4  -4  -8    4.27    0.22
  -4   4   8    3.56    0.26
  -4   4   8    4.15    0.20
   3  -4  -8    1.74    0.11
   3  -4  -8    2.21    0.16
  -3   4   8    2.18    0.14
  -3   4   8    1.70    0.19
   2  -4  -8   41.39    0.86
   2  -4  -8   40.11    0.91
  -2   4   8   40.08    0.98
  -2   4   8   41.53    0.92
   1  -4  -8    2.36    0.12
   1  -4  -8    1.82    0.15
  -1   4   8    1.95    0.15
  -1   4   8    1.89    0.13
   0  -4  -8    7.07    0.24
   0  -4  -8    7.17    0.21
   0   4   8    7.04    0.25
   0   4   8    7.16    0.24
  -1  -4  -8    0.69    0.07
  -1  -4  -8    0.65    0.09
   1   4   8    0.78    0.09
   1   4   8    0.59    0.08
   1   4   8    0.63    0.08
  -2  -4  -8   16.04    0.42
  -2  -4  -8   16.60    0.43
  -2  -4  -8   15.54    0.40
   2   4   8   15.91    0.40
   2   4   8   15.55    0.42
  -3  -4  -8    7.79    0.26
  -3  -4  -8    7.92    0.27
  -3  -4  -8    8.11    0.25
   3   4   8    7.84    0.26
   3   4   8    7.86    0.26
  -4  -4  -8   15.20    0.41
  -4  -4  -8   15.30    0.42
  -4  -4  -8   15.04    0.41
   4   4   8   14.95    0.41
   4   4   8   15.39    0.41
  -5  -4  -8   18.01    0.47
  -5  -4  -8   17.77    0.48
  -5  -4  -8   17.45    0.46
   5   4   8   17.67    0.46
   5   4   8   16.95    0.47
  -6  -4  -8    6.34    0.27
  -6  -4  -8    5.81    0.25
   6   4   8    6.33    0.25
   6   4   8    6.11    0.26
  -7  -4  -8   19.67    0.56
  -7  -4  -8   19.31    0.51
   7   4   8   19.56    0.54
   7   4   8   19.92    0.51
  -8  -4  -8    1.31    0.17
   8   4   8    0.90    0.14
   5  -5  -8    0.11    0.13
  -5   5   8   -0.04    0.10
  -5   5   8    0.07    0.18
   4  -5  -8    7.32    0.28
  -4   5   8    7.51    0.35
  -4   5   8    7.87    0.27
   3  -5  -8    3.09    0.18
  -3   5   8    3.40    0.17
  -3   5   8    3.31    0.22
   2  -5  -8   23.12    0.57
   2  -5  -8   23.79    0.49
  -2   5   8   20.88    0.56
  -2   5   8   24.62    0.63
   1  -5  -8   24.74    0.54
   1  -5  -8   24.16    0.59
  -1   5   8   24.37    0.64
  -1   5   8   24.81    0.59
   0  -5  -8    2.10    0.12
   0  -5  -8    1.91    0.14
   0   5   8    1.89    0.14
   0   5   8    2.03    0.12
   0   5   8    2.17    0.14
  -1  -5  -8   22.17    0.55
  -1  -5  -8   21.99    0.54
  -1  -5  -8   21.88    0.50
   1   5   8   21.61    0.56
   1   5   8   21.11    0.50
   1   5   8   21.21    0.54
  -2  -5  -8   10.76    0.32
  -2  -5  -8   10.53    0.32
  -2  -5  -8   10.36    0.29
   2   5   8   10.11    0.31
   2   5   8   10.57    0.32
   2   5   8   10.31    0.30
  -3  -5  -8    8.11    0.28
  -3  -5  -8    8.19    0.27
  -3  -5  -8    8.56    0.28
   3   5   8    8.38    0.28
   3   5   8    8.44    0.27
  -4  -5  -8    1.79    0.14
  -4  -5  -8    1.68    0.16
  -4  -5  -8    1.57    0.14
   4   5   8    1.70    0.15
   4   5   8    1.66    0.15
  -5  -5  -8   12.76    0.38
  -5  -5  -8   12.45    0.39
   5   5   8   12.80    0.37
   5   5   8   12.12    0.37
  -6  -5  -8   55.55    1.21
  -6  -5  -8   54.59    1.27
   6   5   8   55.53    1.21
   6   5   8   54.05    1.23
  -7  -5  -8    0.85    0.15
  -7  -5  -8    0.95    0.13
   7   5   8    0.98    0.13
   7   5   8    0.91    0.14
   7   5   8    0.89    0.13
  -8  -5  -8    6.73    0.36
   8   5   8    6.71    0.30
   8   5   8    7.13    0.30
   8   5   8    5.98    0.36
   5  -6  -8    0.22    0.14
  -5   6   8    0.05    0.10
  -5   6   8    0.10    0.19
   4  -6  -8    7.73    0.30
  -4   6   8    7.89    0.37
  -4   6   8    7.65    0.28
   3  -6  -8   -0.07    0.08
  -3   6   8    0.09    0.10
  -3   6   8    0.12    0.07
   2  -6  -8   34.31    0.81
  -2   6   8   34.55    0.80
  -2   6   8   34.86    0.87
   1  -6  -8   15.77    0.42
  -1   6   8   15.83    0.42
  -1   6   8   15.23    0.45
   0  -6  -8   16.08    0.45
   0  -6  -8   16.00    0.43
   0   6   8   15.26    0.38
   0   6   8   16.14    0.43
   0   6   8   15.88    0.46
  -1  -6  -8    0.11    0.08
  -1  -6  -8    0.16    0.06
   1   6   8    0.08    0.06
   1   6   8    0.11    0.07
   1   6   8    0.13    0.06
  -2  -6  -8    6.88    0.26
  -2  -6  -8    6.58    0.25
   2   6   8    6.80    0.25
   2   6   8    6.78    0.25
   2   6   8    6.88    0.24
  -3  -6  -8    6.80    0.25
  -3  -6  -8    7.13    0.27
   3   6   8    7.06    0.26
   3   6   8    6.97    0.25
   3   6   8    7.08    0.26
  -4  -6  -8   13.03    0.39
  -4  -6  -8   13.49    0.40
   4   6   8   13.18    0.39
   4   6   8   13.48    0.39
  -5  -6  -8   48.51    1.11
  -5  -6  -8   49.10    1.07
   5   6   8   48.23    1.07
   5   6   8   43.36    1.06
  -6  -6  -8    2.36    0.22
  -6  -6  -8    2.37    0.22
   6   6   8    2.41    0.19
   6   6   8    2.44    0.21
   6   6   8    2.65    0.23
  -7  -6  -8    4.42    0.30
  -7  -6  -8    4.48    0.27
   7   6   8    4.57    0.25
   7   6   8    4.71    0.30
   7   6   8    5.13    0.27
  -8  -6  -8    3.30    0.26
  -8  -6  -8    3.66    0.33
   8   6   8    3.37    0.25
   8   6   8    3.53    0.33
   8   6   8    3.17    0.25
   4  -7  -8   -0.07    0.12
  -4   7   8    0.09    0.10
  -4   7   8   -0.08    0.14
   3  -7  -8    1.05    0.12
  -3   7   8    1.07    0.14
  -3   7   8    1.28    0.12
   2  -7  -8    3.85    0.20
  -2   7   8    3.98    0.22
  -2   7   8    4.10    0.19
   1  -7  -8    0.29    0.08
   1  -7  -8    0.12    0.09
  -1   7   8    0.02    0.08
  -1   7   8    0.18    0.06
   0  -7  -8   -0.01    0.07
   0  -7  -8    0.01    0.07
   0   7   8   -0.06    0.06
   0   7   8    0.06    0.07
   0   7   8   -0.01    0.06
  -1  -7  -8   61.15    1.37
  -1  -7  -8   58.64    1.34
   1   7   8   61.79    1.29
   1   7   8   62.38    1.34
   1   7   8   62.05    1.41
  -2  -7  -8    8.80    0.29
  -2  -7  -8    8.46    0.31
   2   7   8    8.63    0.28
   2   7   8    8.77    0.30
   2   7   8    8.72    0.30
  -3  -7  -8    3.67    0.22
  -3  -7  -8    3.52    0.19
   3   7   8    3.35    0.19
   3   7   8    3.60    0.20
   3   7   8    2.97    0.18
  -4  -7  -8    1.07    0.14
  -4  -7  -8    1.12    0.11
   4   7   8    0.96    0.12
   4   7   8    0.89    0.12
   4   7   8    1.11    0.12
  -5  -7  -8    6.91    0.29
  -5  -7  -8    6.60    0.30
   5   7   8    6.49    0.28
   5   7   8    6.83    0.29
   5   7   8    6.91    0.28
  -6  -7  -8    2.95    0.25
  -6  -7  -8    3.03    0.23
   6   7   8    2.84    0.23
   6   7   8    2.69    0.21
   6   7   8    2.52    0.24
  -7  -7  -8    0.01    0.14
  -7  -7  -8    0.25    0.14
   7   7   8    0.04    0.11
   7   7   8    0.10    0.12
   7   7   8    0.13    0.13
   4  -8  -8    1.23    0.16
   4  -8  -8    1.21    0.20
   4  -8  -8    1.15    0.18
  -4   8   8    1.11    0.17
  -4   8   8    1.21    0.14
   3  -8  -8    4.33    0.23
   3  -8  -8    5.15    0.30
  -3   8   8    4.47    0.22
  -3   8   8    4.77    0.27
   2  -8  -8    0.46    0.13
   2  -8  -8    0.51    0.10
  -2   8   8    0.50    0.10
  -2   8   8    0.30    0.08
   1  -8  -8    1.26    0.14
   1  -8  -8    1.52    0.15
  -1   8   8    1.46    0.15
  -1   8   8    1.38    0.14
   0  -8  -8   20.47    0.55
   0  -8  -8   19.32    0.54
   0   8   8   20.45    0.56
   0   8   8   20.10    0.53
   0   8   8   19.76    0.46
  -1  -8  -8   38.77    0.93
  -1  -8  -8   38.55    0.92
   1   8   8   38.54    0.85
   1   8   8   38.77    0.91
   1   8   8   39.70    0.96
  -2  -8  -8   22.56    0.60
  -2  -8  -8   22.94    0.60
   2   8   8   22.73    0.56
   2   8   8   22.98    0.61
   2   8   8   22.47    0.59
  -3  -8  -8    7.86    0.28
  -3  -8  -8    7.58    0.31
   3   8   8    7.58    0.30
   3   8   8    7.45    0.29
   3   8   8    7.26    0.28
  -4  -8  -8   13.03    0.42
  -4  -8  -8   12.62    0.42
   4   8   8   13.84    0.41
   4   8   8   13.84    0.42
   4   8   8   13.34    0.41
  -5  -8  -8    3.34    0.26
  -5  -8  -8    3.17    0.21
   5   8   8    3.12    0.22
   5   8   8    3.13    0.23
   5   8   8    3.53    0.24
   5   8   8    3.09    0.23
  -6  -8  -8    3.81    0.28
  -6  -8  -8    3.56    0.25
   6   8   8    3.24    0.24
   6   8   8    3.90    0.27
   6   8   8    3.19    0.27
   6   8   8    4.00    0.25
  -7  -8  -8    1.35    0.19
  -7  -8  -8    1.13    0.18
   7   8   8    1.10    0.16
   7   8   8    1.27    0.17
   7   8   8    1.31    0.17
   7   8   8    1.24    0.19
   3  -9  -8   -0.24    0.14
   3  -9  -8   -0.21    0.12
   3  -9  -8    0.09    0.11
  -3   9   8    0.06    0.13
  -3   9   8    0.19    0.09
   2  -9  -8    1.35    0.16
   2  -9  -8    0.99    0.13
  -2   9   8    0.93    0.11
  -2   9   8    0.90    0.14
   1  -9  -8   10.73    0.38
   1  -9  -8   10.07    0.35
  -1   9   8   10.43    0.34
  -1   9   8    9.86    0.36
   0  -9  -8    2.86    0.22
   0  -9  -8    2.86    0.22
   0   9   8    3.05    0.21
   0   9   8    2.96    0.16
   0   9   8    2.60    0.20
  -1  -9  -8   13.65    0.43
  -1  -9  -8   14.40    0.43
   1   9   8   13.64    0.37
   1   9   8   13.75    0.43
   1   9   8   13.92    0.44
  -2  -9  -8    0.00    0.10
  -2  -9  -8    0.03    0.08
   2   9   8   -0.07    0.08
   2   9   8   -0.13    0.09
   2   9   8   -0.02    0.10
  -3  -9  -8   30.40    0.77
  -3  -9  -8   30.04    0.77
   3   9   8   29.29    0.72
   3   9   8   29.46    0.77
   3   9   8   30.72    0.76
  -4  -9  -8   23.98    0.66
  -4  -9  -8   24.01    0.65
   4   9   8   23.84    0.64
   4   9   8   24.12    0.64
   4   9   8   23.37    0.62
  -5  -9  -8   17.08    0.51
  -5  -9  -8   16.80    0.53
   5   9   8   17.19    0.51
   5   9   8   16.52    0.49
   5   9   8   17.26    0.52
   5   9   8   16.16    0.52
  -6  -9  -8    5.90    0.31
  -6  -9  -8    5.98    0.36
   6   9   8    5.80    0.30
   6   9   8    5.27    0.30
   6   9   8    6.13    0.33
   6   9   8    5.22    0.32
   2 -10  -8    6.07    0.35
   2 -10  -8    5.89    0.29
  -2  10   8    6.59    0.27
  -2  10   8    5.54    0.29
   1 -10  -8    0.87    0.16
   1 -10  -8    1.00    0.14
  -1  10   8    1.17    0.13
  -1  10   8    1.13    0.16
   0 -10  -8   13.73    0.45
   0 -10  -8   13.18    0.44
   0  10   8   13.21    0.35
   0  10   8   13.75    0.42
   0  10   8   13.42    0.45
  -1 -10  -8    1.48    0.16
  -1 -10  -8    1.32    0.16
   1  10   8    1.57    0.16
   1  10   8    1.48    0.15
   1  10   8    1.73    0.18
  -2 -10  -8    5.68    0.28
  -2 -10  -8    5.17    0.32
   2  10   8    5.30    0.26
   2  10   8    4.94    0.28
   2  10   8    5.10    0.29
  -3 -10  -8    6.58    0.30
  -3 -10  -8    6.95    0.35
   3  10   8    6.80    0.30
   3  10   8    5.82    0.32
   3  10   8    6.78    0.31
  -4 -10  -8   13.79    0.45
  -4 -10  -8   13.87    0.49
   4  10   8   14.20    0.47
   4  10   8   13.84    0.45
   4  10   8   14.59    0.46
  -5 -10  -8    4.57    0.29
  -5 -10  -8    5.25    0.37
  -5 -10  -8    5.03    0.26
   5  10   8    5.11    0.29
   5  10   8    5.53    0.32
   5  10   8    5.35    0.34
   5  10   8    4.74    0.29
  -6 -10  -8    1.19    0.13
  -6 -10  -8    1.17    0.22
   6  10   8    1.09    0.17
   6  10   8    1.20    0.19
   6  10   8    1.20    0.19
   6  10   8    1.02    0.17
   1 -11  -8    9.87    0.40
   1 -11  -8   10.00    0.43
   1 -11  -8   10.80    0.46
  -1  11   8   10.04    0.41
  -1  11   8   10.53    0.37
   0 -11  -8    1.87    0.19
   0 -11  -8    1.75    0.21
   0 -11  -8    1.37    0.18
   0  11   8    2.05    0.22
   0  11   8    1.83    0.18
   0  11   8    1.61    0.18
  -1 -11  -8    2.35    0.22
  -1 -11  -8    2.34    0.21
   1  11   8    2.42    0.27
   1  11   8    2.22    0.21
   1  11   8    2.60    0.25
  -2 -11  -8    2.35    0.25
  -2 -11  -8    2.32    0.21
  -2 -11  -8    2.34    0.23
   2  11   8    2.55    0.22
   2  11   8    2.41    0.21
   2  11   8    2.28    0.24
  -3 -11  -8    8.29    0.38
  -3 -11  -8    9.65    0.39
  -3 -11  -8    9.17    0.44
   3  11   8    9.32    0.40
   3  11   8    9.25    0.40
   3  11   8    9.07    0.37
  -4 -11  -8    0.54    0.13
  -4 -11  -8    0.30    0.13
  -4 -11  -8    0.63    0.20
   4  11   8    0.66    0.16
   4  11   8    0.47    0.16
   4  11   8    0.69    0.18
  -5 -11  -8    0.56    0.13
  -1 -12  -8   -0.07    0.17
  -1 -12  -8   -0.22    0.19
   1  12   8   -0.09    0.13
   1  12   8    0.04    0.17
   1  12   8    0.12    0.15
  -2 -12  -8    2.37    0.26
  -2 -12  -8    3.30    0.33
  -2 -12  -8    2.34    0.24
   2  12   8    3.02    0.32
   2  12   8    2.76    0.29
   2  12   8    2.93    0.25
   0   7  -9   14.61    0.55
   0   7  -9   13.92    0.48
   0   7  -9   15.02    0.52
   0  -7   9   14.50    0.50
   0  -7   9   14.98    0.58
  -1   7  -9    1.35    0.14
  -1   7  -9    1.23    0.18
  -1   7  -9    1.35    0.22
   1  -7   9    1.03    0.19
   1  -7   9    1.42    0.22
  -2   7  -9    0.69    0.14
  -2   7  -9    0.77    0.15
  -2   7  -9    0.49    0.20
   2  -7   9    0.68    0.17
   2  -7   9    0.63    0.19
  -3   7  -9    4.93    0.42
  -3   7  -9    5.15    0.28
  -3   7  -9    4.26    0.30
   3  -7   9    4.79    0.35
   3  -7   9    4.47    0.35
  -4   7  -9    0.78    0.18
  -4   7  -9    1.22    0.13
  -4   7  -9    1.40    0.25
   4  -7   9    1.04    0.18
   4  -7   9    1.29    0.22
   2   6  -9    2.11    0.22
  -2  -6   9    2.32    0.23
  -2  -6   9    1.70    0.24
  -2  -6   9    2.08    0.17
   1   6  -9    6.66    0.36
   1   6  -9    6.12    0.34
   1   6  -9    7.07    0.33
  -1  -6   9    6.65    0.31
  -1  -6   9    6.34    0.40
   0   6  -9    1.71    0.15
   0   6  -9    1.53    0.19
   0   6  -9    1.51    0.18
   0  -6   9    1.68    0.21
   0  -6   9    1.45    0.16
  -1   6  -9    2.84    0.21
  -1   6  -9    1.90    0.19
  -1   6  -9    2.28    0.22
   1  -6   9    2.38    0.23
   1  -6   9    2.51    0.26
  -2   6  -9   21.38    0.63
  -2   6  -9   19.96    0.58
  -2   6  -9   20.08    0.56
   2  -6   9   20.59    0.61
   2  -6   9   21.12    0.62
  -3   6  -9    0.00    0.10
  -3   6  -9    0.14    0.11
  -3   6  -9    0.16    0.17
   3  -6   9   -0.07    0.13
   3  -6   9    0.17    0.14
  -4   6  -9   11.42    0.33
  -4   6  -9   10.65    0.42
  -4   6  -9   11.09    0.48
   4  -6   9   11.75    0.45
   4  -6   9   11.21    0.42
  -5   6  -9    0.18    0.15
  -5   6  -9    0.11    0.19
   5  -6   9    0.07    0.12
   5  -6   9    0.11    0.17
  -3  -5   9    0.00    0.11
   2   5  -9    4.87    0.26
  -2  -5   9    5.22    0.37
  -2  -5   9    5.08    0.26
  -2  -5   9    4.86    0.24
   1   5  -9    0.15    0.11
   1   5  -9    0.49    0.12
  -1  -5   9    0.28    0.15
  -1  -5   9    0.20    0.10
   0   5  -9    5.28    0.29
   0   5  -9    5.49    0.26
   0  -5   9    5.59    0.28
   0  -5   9    5.55    0.32
  -1   5  -9    5.86    0.31
  -1   5  -9    5.96    0.27
   1  -5   9    5.85    0.29
   1  -5   9    5.83    0.32
  -2   5  -9    0.53    0.15
  -2   5  -9    0.56    0.09
   2  -5   9    0.69    0.14
   2  -5   9    0.82    0.14
  -3   5  -9   36.45    0.90
  -3   5  -9   34.50    0.87
   3  -5   9   36.16    0.89
   3  -5   9   36.31    0.89
  -4   5  -9    0.20    0.16
  -4   5  -9   -0.04    0.10
   4  -5   9   -0.08    0.10
   4  -5   9    0.04    0.13
  -5   5  -9    9.24    0.26
  -5   5  -9    9.40    0.26
  -5   5  -9    9.48    0.38
  -5   5  -9    9.28    0.42
   5  -5   9    9.23    0.39
   5  -5   9    8.93    0.34
  -6   5  -9    6.68    0.40
  -6   5  -9    5.98    0.36
   6  -5   9    6.86    0.38
   6  -5   9    7.17    0.30
   3   4  -9    4.23    0.24
  -3  -4   9    4.29    0.22
  -3  -4   9    3.99    0.24
  -3  -4   9    4.84    0.35
   2   4  -9    1.32    0.14
  -2  -4   9    1.81    0.16
  -2  -4   9    1.56    0.19
  -2  -4   9    1.77    0.15
   1   4  -9    9.33    0.35
   1   4  -9    7.90    0.31
  -1  -4   9    8.32    0.36
  -1  -4   9    8.79    0.31
   0   4  -9    0.14    0.09
   0   4  -9    0.20    0.10
   0  -4   9   -0.03    0.08
   0  -4   9    0.07    0.12
  -1   4  -9    0.44    0.09
  -1   4  -9    0.70    0.13
   1  -4   9    0.47    0.11
   1  -4   9    0.57    0.13
  -2   4  -9   41.04    0.97
  -2   4  -9   38.90    0.95
   2  -4   9   40.04    0.96
   2  -4   9   41.40    0.97
  -3   4  -9    1.86    0.16
  -3   4  -9    2.13    0.19
   3  -4   9    1.98    0.21
   3  -4   9    1.96    0.20
  -4   4  -9    5.08    0.31
  -4   4  -9    5.74    0.26
   4  -4   9    5.03    0.25
   4  -4   9    5.30    0.28
  -5   4  -9   18.81    0.46
  -5   4  -9   18.83    0.56
  -5   4  -9   19.01    0.54
   5  -4   9   18.69    0.52
   5  -4   9   19.49    0.55
  -6   4  -9   18.16    0.55
  -6   4  -9   18.76    0.57
   6  -4   9   18.16    0.51
   6  -4   9   19.35    0.55
  -7   4  -9    0.06    0.15
  -7   4  -9    0.19    0.18
   7  -4   9    0.14    0.16
   7  -4   9    0.35    0.13
   4   3  -9    0.70    0.15
  -4  -3   9    0.93    0.15
  -4  -3   9    0.89    0.19
  -4  -3   9    0.65    0.12
   3   3  -9    0.18    0.10
  -3  -3   9    0.33    0.15
  -3  -3   9    0.28    0.12
  -3  -3   9    0.39    0.09
   2   3  -9   12.97    0.40
  -2  -3   9   12.64    0.44
  -2  -3   9   12.53    0.39
  -2  -3   9   13.22    0.38
   1   3  -9    0.89    0.10
   1   3  -9    1.16    0.13
  -1  -3   9    1.05    0.11
  -1  -3   9    0.97    0.15
   0   3  -9    0.61    0.10
   0   3  -9    0.58    0.11
   0  -3   9    0.76    0.13
   0  -3   9    0.66    0.10
  -1   3  -9   25.48    0.66
  -1   3  -9   25.81    0.65
   1  -3   9   25.97    0.66
   1  -3   9   26.14    0.66
  -2   3  -9   16.87    0.46
  -2   3  -9   14.28    0.46
   2  -3   9   16.42    0.47
   2  -3   9   16.88    0.47
  -3   3  -9    3.68    0.20
  -3   3  -9    4.18    0.24
   3  -3   9    4.31    0.24
   3  -3   9    4.10    0.22
  -4   3  -9    6.74    0.30
  -4   3  -9    7.19    0.27
   4  -3   9    6.71    0.29
   4  -3   9    6.51    0.27
  -5   3  -9   26.17    0.68
  -5   3  -9   25.57    0.61
  -5   3  -9   26.02    0.67
   5  -3   9   26.57    0.67
   5  -3   9   26.14    0.66
  -6   3  -9    5.20    0.27
  -6   3  -9    5.58    0.31
  -6   3  -9    5.45    0.19
   6  -3   9    5.29    0.29
   6  -3   9    5.07    0.23
  -7   3  -9    1.61    0.20
  -7   3  -9    1.48    0.18
   7  -3   9    1.81    0.19
   7  -3   9    1.61    0.16
   4   2  -9    0.41    0.13
  -4  -2   9    0.59    0.15
  -4  -2   9    0.42    0.15
  -4  -2   9    0.80    0.11
   3   2  -9   14.01    0.41
  -3  -2   9   13.77    0.45
  -3  -2   9   13.79    0.40
  -3  -2   9   13.71    0.42
   2   2  -9    0.21    0.08
   2   2  -9    0.49    0.12
  -2  -2   9    0.37    0.12
  -2  -2   9    0.31    0.11
  -2  -2   9    0.41    0.08
   1   2  -9    0.63    0.10
   1   2  -9    0.60    0.11
  -1  -2   9    0.82    0.10
  -1  -2   9    0.55    0.12
   0   2  -9    6.15    0.25
   0   2  -9    5.93    0.25
   0  -2   9    6.35    0.24
   0  -2   9    6.18    0.27
  -1   2  -9    3.76    0.21
  -1   2  -9    4.03    0.19
   1  -2   9    3.86    0.20
   1  -2   9    3.65    0.21
  -2   2  -9    3.40    0.18
  -2   2  -9    3.66    0.22
   2  -2   9    3.78    0.21
   2  -2   9    3.47    0.20
  -3   2  -9    2.66    0.21
  -3   2  -9    3.06    0.17
   3  -2   9    2.85    0.20
   3  -2   9    2.62    0.18
  -4   2  -9   31.94    0.76
  -4   2  -9   31.52    0.77
   4  -2   9   31.59    0.76
   4  -2   9   31.83    0.76
  -5   2  -9    8.24    0.30
  -5   2  -9    8.35    0.32
  -5   2  -9    8.13    0.27
   5  -2   9    8.55    0.31
   5  -2   9    7.92    0.29
   5  -2   9    8.29    0.31
  -6   2  -9   23.87    0.63
  -6   2  -9   24.40    0.57
  -6   2  -9   24.48    0.63
   6  -2   9   24.17    0.63
   6  -2   9   23.79    0.64
   6  -2   9   24.48    0.61
  -7   2  -9    3.28    0.26
  -7   2  -9    3.57    0.26
  -7   2  -9    3.51    0.17
   7  -2   9    3.32    0.26
   7  -2   9    3.43    0.21
   7  -2   9    3.39    0.24
  -8   2  -9    0.91    0.18
  -8   2  -9    1.08    0.19
   8  -2   9    0.95    0.16
   8  -2   9    1.01    0.16
   8  -2   9    1.05    0.19
   4   1  -9    4.05    0.25
  -4  -1   9    3.72    0.27
  -4  -1   9    4.02    0.29
  -4  -1   9    3.66    0.22
   3   1  -9    8.91    0.31
   3   1  -9    9.33    0.36
  -3  -1   9    9.06    0.35
  -3  -1   9    9.10    0.34
  -3  -1   9    9.67    0.30
   2   1  -9    5.45    0.26
   2   1  -9    5.27    0.22
  -2  -1   9    5.15    0.26
  -2  -1   9    4.82    0.21
  -2  -1   9    5.17    0.24
   1   1  -9    0.29    0.09
   1   1  -9    0.17    0.07
  -1  -1   9    0.20    0.09
  -1  -1   9    0.25    0.10
  -1  -1   9    0.30    0.07
   0   1  -9   15.97    0.44
   0   1  -9   15.94    0.44
   0  -1   9   16.07    0.44
   0  -1   9   15.50    0.45
  -1   1  -9    0.21    0.08
  -1   1  -9    0.21    0.07
   1  -1   9    0.19    0.08
   1  -1   9    0.40    0.10
  -2   1  -9    0.39    0.10
  -2   1  -9    0.30    0.07
   2  -1   9    0.19    0.08
  -3   1  -9    1.54    0.13
  -3   1  -9    1.83    0.18
   3  -1   9    1.64    0.17
  -4   1  -9   -0.01    0.06
  -4   1  -9   -0.02    0.09
  -4   1  -9    0.00    0.07
   4  -1   9    0.14    0.06
   4  -1   9    0.06    0.08
   4  -1   9    0.07    0.07
  -5   1  -9   36.00    0.84
  -5   1  -9   36.18    0.84
  -5   1  -9   34.66    0.81
   5  -1   9   36.38    0.84
   5  -1   9   34.53    0.83
   5  -1   9   34.45    0.84
  -6   1  -9    8.47    0.32
  -6   1  -9    8.30    0.28
  -6   1  -9    8.12    0.30
   6  -1   9    8.00    0.28
   6  -1   9    8.41    0.31
   6  -1   9    8.26    0.32
  -7   1  -9    5.23    0.28
  -7   1  -9    5.23    0.23
  -7   1  -9    4.99    0.27
   7  -1   9    5.36    0.29
   7  -1   9    5.33    0.27
   7  -1   9    5.28    0.24
  -8   1  -9   21.40    0.52
  -8   1  -9   21.02    0.62
  -8   1  -9   20.57    0.57
   8  -1   9   21.72    0.58
   8  -1   9   20.98    0.63
   8  -1   9   21.47    0.57
   4   0  -9    0.40    0.14
   4   0  -9    0.45    0.12
  -4   0   9    0.32    0.15
  -4   0   9    0.24    0.10
  -4   0   9    0.32    0.13
   3   0  -9    5.41    0.23
   3   0  -9    6.18    0.28
  -3   0   9    5.42    0.27
  -3   0   9    5.95    0.28
  -3   0   9    5.59    0.23
   2   0  -9    2.25    0.15
   2   0  -9    2.39    0.19
  -2   0   9    2.11    0.18
  -2   0   9    1.87    0.20
  -2   0   9    1.96    0.14
   1   0  -9   69.28    1.46
   1   0  -9   66.11    1.46
  -1   0   9   68.67    1.54
  -1   0   9   67.22    1.46
   0   0  -9   11.35    0.33
   0   0  -9   10.94    0.34
   0   0   9   11.19    0.34
  -1   0  -9   98.64    2.02
  -1   0  -9   94.67    2.04
   1   0   9   96.81    2.04
  -2   0  -9    1.25    0.13
  -2   0  -9    0.96    0.11
   2   0   9    1.46    0.15
  -3   0  -9    4.07    0.21
  -3   0  -9    4.30    0.19
   3   0   9    4.13    0.20
   3   0   9    3.91    0.20
  -4   0  -9   14.10    0.40
  -4   0  -9   13.54    0.40
  -4   0  -9   14.35    0.39
   4   0   9   13.76    0.40
   4   0   9   14.02    0.40
  -5   0  -9    0.54    0.10
  -5   0  -9    0.58    0.11
  -5   0  -9    0.78    0.09
   5   0   9    0.61    0.09
   5   0   9    0.39    0.10
  -6   0  -9   18.49    0.50
  -6   0  -9   17.74    0.48
  -6   0  -9   18.05    0.49
   6   0   9   17.59    0.50
   6   0   9   18.48    0.49
  -7   0  -9   13.26    0.41
  -7   0  -9   12.95    0.38
  -7   0  -9   12.90    0.41
   7   0   9   12.64    0.43
   7   0   9   13.34    0.40
   7   0   9   12.77    0.38
  -8   0  -9    7.51    0.37
  -8   0  -9    8.29    0.33
  -8   0  -9    8.45    0.31
   8   0   9    8.35    0.37
   8   0   9    8.73    0.33
   8   0   9    8.12    0.32
   5  -1  -9    0.96    0.15
   5  -1  -9    1.00    0.17
  -5   1   9    0.65    0.20
  -5   1   9    0.95    0.13
   4  -1  -9    8.94    0.33
   4  -1  -9    8.38    0.31
  -4   1   9    8.02    0.33
  -4   1   9    8.87    0.37
  -4   1   9    8.95    0.30
   3  -1  -9    5.33    0.23
   3  -1  -9    5.43    0.25
  -3   1   9    5.59    0.22
  -3   1   9    5.76    0.27
   2  -1  -9   21.43    0.53
   2  -1  -9   21.15    0.53
  -2   1   9   21.28    0.53
  -2   1   9   20.48    0.57
   1  -1  -9    1.74    0.15
   1  -1  -9    2.15    0.16
  -1   1   9    1.72    0.14
  -1   1   9    2.02    0.17
   0  -1  -9   59.11    1.20
   0  -1  -9   50.40    1.21
   0   1   9   57.64    1.22
  -1  -1  -9   19.60    0.49
  -1  -1  -9   19.26    0.50
   1   1   9   19.11    0.50
  -2  -1  -9   21.96    0.56
  -2  -1  -9   22.20    0.54
   2   1   9   22.31    0.56
  -3  -1  -9  118.97    2.46
  -3  -1  -9  121.11    2.49
   3   1   9  115.63    2.46
   3   1   9  121.16    2.49
  -4  -1  -9   18.94    0.50
  -4  -1  -9   18.96    0.49
  -4  -1  -9   18.98    0.49
   4   1   9   18.85    0.50
   4   1   9   19.05    0.49
  -5  -1  -9   11.55    0.35
  -5  -1  -9   11.70    0.36
  -5  -1  -9   11.83    0.35
   5   1   9   11.64    0.36
   5   1   9   11.68    0.35
  -6  -1  -9    0.16    0.09
  -6  -1  -9   -0.01    0.10
  -6  -1  -9   -0.07    0.06
   6   1   9    0.05    0.08
   6   1   9    0.19    0.10
  -7  -1  -9    6.05    0.27
  -7  -1  -9    6.35    0.28
  -7  -1  -9    5.90    0.27
   7   1   9    5.93    0.26
   7   1   9    6.08    0.29
  -8  -1  -9    5.90    0.29
  -8  -1  -9    5.89    0.30
  -8  -1  -9    5.92    0.31
   8   1   9    6.44    0.28
   8   1   9    6.14    0.27
   8   1   9    6.34    0.33
   5  -2  -9    3.96    0.26
   5  -2  -9    3.68    0.27
  -5   2   9    3.90    0.24
  -5   2   9    3.78    0.36
   4  -2  -9    0.19    0.11
   4  -2  -9    0.46    0.12
  -4   2   9    0.28    0.09
  -4   2   9    0.35    0.15
   3  -2  -9    2.66    0.17
   3  -2  -9    2.78    0.18
  -3   2   9    2.83    0.17
  -3   2   9    2.67    0.22
   2  -2  -9    1.91    0.14
   2  -2  -9    2.14    0.16
  -2   2   9    2.23    0.18
  -2   2   9    1.90    0.14
   1  -2  -9   42.25    0.96
   1  -2  -9   43.53    0.93
  -1   2   9   40.58    1.01
  -1   2   9   43.16    0.96
   0  -2  -9    0.14    0.07
   0  -2  -9   -0.08    0.06
   0   2   9    0.16    0.07
   0   2   9   -0.05    0.06
  -1  -2  -9   12.38    0.36
  -1  -2  -9   12.85    0.34
   1   2   9   12.40    0.36
  -2  -2  -9   78.11    1.68
  -2  -2  -9   79.85    1.66
   2   2   9   79.25    1.68
   2   2   9   78.68    1.66
  -3  -2  -9    3.85    0.20
  -3  -2  -9    3.95    0.19
  -3  -2  -9    3.94    0.18
   3   2   9    3.63    0.19
   3   2   9    3.95    0.19
  -4  -2  -9   95.86    2.02
  -4  -2  -9   97.60    2.07
  -4  -2  -9   96.12    2.03
   4   2   9   99.10    2.04
   4   2   9   93.86    2.02
  -5  -2  -9    4.20    0.21
  -5  -2  -9    3.85    0.22
  -5  -2  -9    4.09    0.19
   5   2   9    4.41    0.22
   5   2   9    4.17    0.21
  -6  -2  -9   13.29    0.40
  -6  -2  -9   13.20    0.40
  -6  -2  -9   13.49    0.40
   6   2   9   13.36    0.39
   6   2   9   13.23    0.41
  -7  -2  -9    0.00    0.11
  -7  -2  -9    0.06    0.09
  -7  -2  -9    0.06    0.11
   7   2   9    0.34    0.10
   7   2   9    0.17    0.10
  -8  -2  -9    5.06    0.27
  -8  -2  -9    4.77    0.30
  -8  -2  -9    5.09    0.27
   8   2   9    4.58    0.26
   8   2   9    5.17    0.30
   5  -3  -9    1.51    0.13
   5  -3  -9    1.51    0.17
  -5   3   9    1.56    0.24
  -5   3   9    1.39    0.14
   4  -3  -9    2.88    0.22
   4  -3  -9    3.26    0.19
  -4   3   9    3.30    0.29
  -4   3   9    3.42    0.20
   3  -3  -9    0.36    0.09
   3  -3  -9    0.41    0.09
  -3   3   9    0.45    0.08
  -3   3   9    0.55    0.13
   2  -3  -9   16.79    0.41
   2  -3  -9   16.12    0.44
  -2   3   9   16.34    0.43
  -2   3   9   16.45    0.48
   1  -3  -9    0.14    0.08
   1  -3  -9    0.31    0.08
  -1   3   9    0.09    0.06
  -1   3   9    0.14    0.07
   0  -3  -9    1.39    0.14
   0  -3  -9    1.80    0.13
   0   3   9    1.62    0.13
   0   3   9    1.35    0.13
  -1  -3  -9    4.12    0.20
  -1  -3  -9    4.30    0.18
   1   3   9    3.91    0.19
   1   3   9    4.00    0.19
  -2  -3  -9    3.19    0.19
  -2  -3  -9    3.69    0.17
   2   3   9    3.30    0.18
   2   3   9    3.22    0.17
  -3  -3  -9   45.77    1.02
  -3  -3  -9   45.37    1.00
  -3  -3  -9   45.33    1.03
   3   3   9   45.23    1.00
   3   3   9   44.63    1.01
  -4  -3  -9    8.68    0.28
  -4  -3  -9    8.39    0.30
  -4  -3  -9    8.46    0.29
   4   3   9    8.50    0.29
   4   3   9    8.79    0.29
  -5  -3  -9    2.77    0.18
  -5  -3  -9    2.80    0.20
  -5  -3  -9    2.71    0.16
   5   3   9    2.62    0.18
   5   3   9    2.69    0.18
  -6  -3  -9   15.71    0.47
  -6  -3  -9   16.19    0.46
  -6  -3  -9   16.19    0.45
   6   3   9   15.45    0.46
   6   3   9   16.34    0.45
  -7  -3  -9    6.02    0.30
  -7  -3  -9    5.99    0.27
  -7  -3  -9    6.00    0.25
   7   3   9    5.41    0.27
   7   3   9    5.94    0.27
  -8  -3  -9    1.77    0.21
  -8  -3  -9    1.74    0.16
   8   3   9    1.69    0.16
   8   3   9    1.28    0.16
   4  -4  -9    1.79    0.16
   4  -4  -9    1.98    0.13
  -4   4   9    2.05    0.18
  -4   4   9    1.68    0.21
   3  -4  -9    2.59    0.15
   3  -4  -9    3.01    0.18
  -3   4   9    2.36    0.23
  -3   4   9    2.53    0.17
   2  -4  -9    0.38    0.08
   2  -4  -9    0.36    0.07
  -2   4   9    0.40    0.10
  -2   4   9    0.17    0.07
   1  -4  -9   18.24    0.43
   1  -4  -9   17.80    0.47
  -1   4   9   17.66    0.51
  -1   4   9   18.04    0.47
   0  -4  -9    0.14    0.06
   0  -4  -9    0.12    0.07
   0   4   9    0.10    0.06
   0   4   9    0.03    0.06
  -1  -4  -9    5.53    0.20
  -1  -4  -9    5.62    0.23
   1   4   9    5.34    0.21
   1   4   9    5.70    0.22
   1   4   9    5.78    0.23
  -2  -4  -9   35.14    0.78
  -2  -4  -9   34.75    0.81
  -2  -4  -9   33.69    0.82
   2   4   9   34.90    0.81
   2   4   9   35.58    0.79
  -3  -4  -9   26.78    0.65
  -3  -4  -9   25.65    0.66
  -3  -4  -9   27.46    0.64
   3   4   9   26.98    0.65
   3   4   9   27.38    0.64
  -4  -4  -9    0.31    0.08
  -4  -4  -9    0.65    0.09
  -4  -4  -9    0.51    0.11
   4   4   9    0.53    0.09
   4   4   9    0.49    0.10
  -5  -4  -9    0.41    0.11
  -5  -4  -9    0.38    0.08
  -5  -4  -9    0.43    0.10
   5   4   9    0.28    0.09
   5   4   9    0.39    0.10
  -6  -4  -9   37.64    0.89
  -6  -4  -9   37.76    0.92
  -6  -4  -9   37.74    0.88
   6   4   9   37.32    0.89
   6   4   9   38.23    0.88
  -7  -4  -9    8.67    0.33
  -7  -4  -9    8.29    0.35
   7   4   9    8.25    0.32
   7   4   9    8.65    0.32
  -8  -4  -9    0.39    0.14
  -8  -4  -9    0.39    0.17
   8   4   9    0.26    0.12
   8   4   9    0.33    0.13
   4  -5  -9    4.77    0.26
  -4   5   9    4.66    0.24
  -4   5   9    4.06    0.32
   3  -5  -9    2.72    0.19
  -3   5   9    2.42    0.17
  -3   5   9    2.12    0.23
   2  -5  -9   29.72    0.72
   2  -5  -9   30.36    0.64
  -2   5   9   30.57    0.72
  -2   5   9   29.33    0.78
   1  -5  -9    1.30    0.14
   1  -5  -9    1.46    0.12
  -1   5   9    1.65    0.13
  -1   5   9    1.37    0.15
   0  -5  -9    0.39    0.08
   0  -5  -9    0.43    0.07
   0   5   9    0.35    0.08
   0   5   9    0.44    0.08
  -1  -5  -9    9.79    0.28
  -1  -5  -9   10.04    0.32
  -1  -5  -9   10.05    0.32
   1   5   9    9.62    0.29
   1   5   9    9.42    0.31
   1   5   9    9.35    0.32
  -2  -5  -9   42.15    0.93
  -2  -5  -9   43.14    0.99
  -2  -5  -9   42.60    0.97
   2   5   9   42.22    0.94
   2   5   9   42.93    1.02
   2   5   9   42.33    0.97
  -3  -5  -9    3.23    0.20
  -3  -5  -9    3.42    0.18
  -3  -5  -9    3.46    0.18
   3   5   9    3.31    0.18
   3   5   9    3.30    0.19
  -4  -5  -9    0.34    0.09
  -4  -5  -9    0.24    0.08
  -4  -5  -9    0.47    0.11
   4   5   9    0.37    0.10
   4   5   9    0.32    0.09
  -5  -5  -9   95.99    2.01
  -5  -5  -9   94.55    2.06
  -5  -5  -9   95.00    2.00
   5   5   9   90.33    2.00
   5   5   9   97.89    2.02
  -6  -5  -9    1.26    0.16
  -6  -5  -9    1.15    0.15
   6   5   9    1.41    0.14
   6   5   9    1.18    0.13
  -7  -5  -9   11.25    0.39
  -7  -5  -9   11.17    0.42
   7   5   9   11.27    0.39
   7   5   9   11.42    0.38
  -8  -5  -9    0.70    0.16
  -8  -5  -9    0.94    0.20
   8   5   9    0.94    0.16
   8   5   9    0.55    0.13
   4  -6  -9    0.08    0.13
  -4   6   9   -0.02    0.16
  -4   6   9    0.37    0.11
   3  -6  -9   11.93    0.37
  -3   6   9   12.13    0.36
  -3   6   9   11.26    0.42
   2  -6  -9   11.62    0.36
  -2   6   9   12.39    0.42
  -2   6   9   13.17    0.37
   1  -6  -9    8.76    0.30
  -1   6   9    9.06    0.29
  -1   6   9    9.22    0.32
   0  -6  -9   12.52    0.38
   0  -6  -9   12.85    0.33
   0  -6  -9   13.15    0.39
   0   6   9   12.59    0.33
   0   6   9   12.87    0.37
   0   6   9   12.89    0.40
  -1  -6  -9    9.26    0.31
  -1  -6  -9    9.79    0.28
  -1  -6  -9    9.04    0.31
   1   6   9    9.00    0.31
   1   6   9    9.25    0.31
   1   6   9    9.01    0.28
  -2  -6  -9   -0.05    0.08
  -2  -6  -9    0.12    0.07
  -2  -6  -9    0.04    0.07
   2   6   9    0.14    0.08
   2   6   9    0.12    0.06
   2   6   9    0.11    0.08
  -3  -6  -9    1.65    0.15
  -3  -6  -9    1.50    0.14
   3   6   9    1.62    0.17
   3   6   9    1.75    0.16
   3   6   9    1.77    0.15
  -4  -6  -9   39.66    0.94
  -4  -6  -9   39.23    0.91
   4   6   9   39.28    0.91
   4   6   9   38.09    0.90
  -5  -6  -9    2.49    0.22
  -5  -6  -9    2.22    0.20
   5   6   9    2.10    0.19
   5   6   9    2.63    0.21
  -6  -6  -9   41.16    1.01
  -6  -6  -9   40.88    0.96
   6   6   9   41.90    0.96
   6   6   9   40.80    0.97
  -7  -6  -9    3.27    0.28
  -7  -6  -9    3.25    0.29
   7   6   9    3.46    0.22
   7   6   9    3.66    0.26
  -8  -6  -9    6.17    0.40
  -8  -6  -9    6.08    0.34
   8   6   9    6.51    0.33
   8   6   9    6.15    0.31
   4  -7  -9    5.16    0.31
  -4   7   9    5.19    0.37
  -4   7   9    5.68    0.27
   3  -7  -9    3.50    0.23
  -3   7   9    4.26    0.27
  -3   7   9    4.66    0.22
   2  -7  -9    1.62    0.16
  -2   7   9    2.13    0.19
  -2   7   9    1.77    0.15
   1  -7  -9    0.62    0.11
   1  -7  -9    0.84    0.10
  -1   7   9    0.70    0.11
  -1   7   9    0.70    0.09
   0  -7  -9   35.70    0.84
   0  -7  -9   35.20    0.86
   0   7   9   35.04    0.88
   0   7   9   34.43    0.76
   0   7   9   35.15    0.83
  -1  -7  -9    0.33    0.10
  -1  -7  -9    0.29    0.08
   1   7   9    0.25    0.08
   1   7   9    0.25    0.08
   1   7   9    0.20    0.08
  -2  -7  -9    0.26    0.07
  -2  -7  -9    0.37    0.11
   2   7   9    0.23    0.09
   2   7   9    0.21    0.09
   2   7   9    0.27    0.08
  -3  -7  -9    5.97    0.28
  -3  -7  -9    6.08    0.25
   3   7   9    5.42    0.26
   3   7   9    5.99    0.25
   3   7   9    5.75    0.25
  -4  -7  -9    0.96    0.12
  -4  -7  -9    0.95    0.14
   4   7   9    1.00    0.13
   4   7   9    1.16    0.14
   4   7   9    0.99    0.13
  -5  -7  -9   24.91    0.67
  -5  -7  -9   24.71    0.66
   5   7   9   25.36    0.67
   5   7   9   25.54    0.66
   5   7   9   25.56    0.65
  -6  -7  -9    0.00    0.11
  -6  -7  -9    0.06    0.13
   6   7   9    0.03    0.12
   6   7   9   -0.05    0.10
  -7  -7  -9    5.59    0.33
  -7  -7  -9    5.87    0.36
   7   7   9    5.80    0.30
   7   7   9    6.01    0.32
   3  -8  -9    0.99    0.19
   3  -8  -9    1.21    0.14
  -3   8   9    1.20    0.15
  -3   8   9    0.92    0.11
   2  -8  -9    0.72    0.14
   2  -8  -9    0.69    0.11
  -2   8   9    0.81    0.13
  -2   8   9    0.91    0.10
   1  -8  -9    7.67    0.32
   1  -8  -9    7.28    0.28
  -1   8   9    7.06    0.27
  -1   8   9    7.34    0.30
   0  -8  -9    0.48    0.11
   0  -8  -9    0.38    0.10
   0   8   9    0.47    0.09
   0   8   9    0.49    0.09
   0   8   9    0.54    0.09
  -1  -8  -9   17.01    0.49
  -1  -8  -9   16.84    0.49
   1   8   9   16.75    0.50
   1   8   9   16.79    0.43
   1   8   9   16.81    0.48
  -2  -8  -9   10.35    0.37
  -2  -8  -9   10.75    0.35
   2   8   9   10.48    0.36
   2   8   9   10.47    0.33
   2   8   9   10.47    0.36
  -3  -8  -9    1.59    0.17
  -3  -8  -9    1.50    0.14
   3   8   9    1.25    0.13
   3   8   9    1.49    0.15
   3   8   9    1.43    0.14
  -4  -8  -9   21.73    0.60
  -4  -8  -9   21.69    0.60
   4   8   9   21.36    0.57
   4   8   9   22.03    0.60
   4   8   9   21.56    0.59
  -5  -8  -9   13.88    0.47
  -5  -8  -9   14.73    0.46
   5   8   9   14.74    0.46
   5   8   9   15.21    0.46
   5   8   9   14.43    0.46
  -6  -8  -9    0.97    0.17
  -6  -8  -9    0.67    0.14
   6   8   9    0.79    0.14
   6   8   9    0.78    0.15
   6   8   9    1.04    0.17
  -7  -8  -9    1.23    0.21
  -7  -8  -9    1.50    0.20
   7   8   9    1.03    0.16
   7   8   9    1.15    0.18
   7   8   9    1.28    0.18
   2  -9  -9    0.79    0.17
   2  -9  -9    1.35    0.14
  -2   9   9    1.14    0.12
  -2   9   9    0.67    0.13
   1  -9  -9   -0.09    0.12
   1  -9  -9    0.01    0.10
  -1   9   9   -0.09    0.09
  -1   9   9    0.11    0.08
   0  -9  -9    9.89    0.37
   0  -9  -9   10.63    0.38
   0   9   9   10.49    0.38
   0   9   9    9.81    0.29
   0   9   9   10.61    0.36
  -1  -9  -9    0.09    0.09
  -1  -9  -9   -0.03    0.11
   1   9   9    0.29    0.10
   1   9   9    0.09    0.10
   1   9   9    0.22    0.09
  -2  -9  -9    6.53    0.32
  -2  -9  -9    5.89    0.27
   2   9   9    6.04    0.26
   2   9   9    6.10    0.28
   2   9   9    6.20    0.29
  -3  -9  -9   31.19    0.78
  -3  -9  -9   29.93    0.78
   3   9   9   30.47    0.74
   3   9   9   29.82    0.77
   3   9   9   30.64    0.80
  -4  -9  -9    5.60    0.33
  -4  -9  -9    4.87    0.26
   4   9   9    5.02    0.28
   4   9   9    5.05    0.30
   4   9   9    5.02    0.27
  -5  -9  -9    5.57    0.28
  -5  -9  -9    6.30    0.36
   5   9   9    6.28    0.31
   5   9   9    5.49    0.31
   5   9   9    6.38    0.34
  -6  -9  -9    0.08    0.18
  -6  -9  -9    0.06    0.14
   6   9   9    0.03    0.14
   6   9   9    0.06    0.14
   6   9   9   -0.18    0.15
   2 -10  -9   -0.26    0.17
  -2  10   9    0.21    0.11
   1 -10  -9   10.24    0.39
   1 -10  -9    9.97    0.41
  -1  10   9    9.93    0.39
  -1  10   9   10.36    0.36
   0 -10  -9    0.92    0.16
   0 -10  -9    0.99    0.16
   0  10   9    0.58    0.14
   0  10   9    0.87    0.10
   0  10   9    1.07    0.13
  -1 -10  -9    4.59    0.27
  -1 -10  -9    4.29    0.30
   1  10   9    4.39    0.23
   1  10   9    4.38    0.27
   1  10   9    4.49    0.28
  -2 -10  -9   10.42    0.38
  -2 -10  -9    9.75    0.42
   2  10   9   10.19    0.39
   2  10   9   10.03    0.39
   2  10   9    9.81    0.34
  -3 -10  -9   14.59    0.51
  -3 -10  -9   14.70    0.47
   3  10   9   14.73    0.48
   3  10   9   14.48    0.48
   3  10   9   13.39    0.44
  -4 -10  -9   11.71    0.40
  -4 -10  -9   12.12    0.47
   4  10   9   11.27    0.42
   4  10   9   12.00    0.42
   4  10   9   11.16    0.44
  -5 -10  -9    2.94    0.26
  -5 -10  -9    2.50    0.25
   5  10   9    2.86    0.29
   5  10   9    2.78    0.27
   5  10   9    2.59    0.23
   0 -11  -9    1.71    0.20
   0 -11  -9    1.62    0.21
   0  11   9    1.72    0.17
   0  11   9    2.16    0.19
   0  11   9    2.39    0.27
  -1 -11  -9    2.81    0.29
  -1 -11  -9    1.84    0.22
   1  11   9    2.79    0.26
   1  11   9    2.39    0.22
   1  11   9    2.62    0.23
  -2 -11  -9    6.39    0.34
  -2 -11  -9    5.77    0.39
   2  11   9    6.03    0.30
   2  11   9    5.99    0.32
   2  11   9    5.83    0.35
  -3 -11  -9   12.90    0.47
  -3 -11  -9   13.27    0.53
   3  11   9   13.45    0.48
   3  11   9   13.00    0.49
   3  11   9   13.40    0.45
  -4 -11  -9    4.32    0.41
   4  11   9    4.46    0.33
   4  11   9    4.34    0.35
   4  11   9    3.82    0.32
   0   6 -10    1.20    0.15
   0   6 -10    0.99    0.19
   0   6 -10    0.94    0.20
   0  -6  10    1.33    0.25
   0  -6  10    1.08    0.17
  -1   6 -10    5.68    0.31
  -1   6 -10    6.44    0.41
  -1   6 -10    6.18    0.35
   1  -6  10    6.34    0.36
   1  -6  10    6.70    0.42
  -2   6 -10    7.30    0.42
  -2   6 -10    6.11    0.33
  -2   6 -10    6.64    0.31
   2  -6  10    6.56    0.37
   2  -6  10    6.98    0.41
  -3   6 -10   10.90    0.43
  -3   6 -10   12.29    0.52
  -3   6 -10   11.63    0.40
   3  -6  10   12.69    0.49
   3  -6  10   12.36    0.49
  -4   6 -10    0.11    0.21
  -4   6 -10   -0.28    0.15
  -4   6 -10    0.03    0.12
   4  -6  10    0.03    0.18
   4  -6  10    0.30    0.16
   1   5 -10    3.81    0.29
   1   5 -10    4.11    0.29
  -1  -5  10    3.77    0.38
  -1  -5  10    3.79    0.25
   0   5 -10    0.33    0.15
   0   5 -10    0.24    0.13
   0  -5  10    0.13    0.11
   0  -5  10    0.11    0.16
  -1   5 -10    5.76    0.35
  -1   5 -10    6.24    0.28
   1  -5  10    6.60    0.37
   1  -5  10    6.44    0.32
  -2   5 -10   21.72    0.62
  -2   5 -10   23.31    0.67
   2  -5  10   23.03    0.65
   2  -5  10   23.25    0.67
  -3   5 -10    0.51    0.17
  -3   5 -10    0.39    0.10
   3  -5  10    0.63    0.16
   3  -5  10    0.28    0.15
  -4   5 -10    2.39    0.24
  -4   5 -10    2.00    0.24
   4  -5  10    2.00    0.22
   4  -5  10    1.90    0.18
  -5   5 -10    0.59    0.11
  -5   5 -10    0.84    0.22
  -5   5 -10    0.66    0.15
  -5   5 -10    0.71    0.11
   5  -5  10    0.74    0.19
   5  -5  10    0.30    0.13
   2   4 -10    3.91    0.34
   2   4 -10    3.12    0.25
  -2  -4  10    3.60    0.27
  -2  -4  10    3.85    0.22
  -2  -4  10    3.51    0.34
   1   4 -10   -0.20    0.12
   1   4 -10   -0.08    0.11
  -1  -4  10    0.10    0.10
  -1  -4  10    0.08    0.17
   0   4 -10    0.47    0.12
   0   4 -10    0.21    0.12
   0  -4  10    0.24    0.15
   0  -4  10    0.29    0.11
  -1   4 -10   22.65    0.62
  -1   4 -10   23.73    0.65
   1  -4  10   23.47    0.64
   1  -4  10   22.74    0.65
  -2   4 -10    4.08    0.29
  -2   4 -10    3.07    0.21
   2  -4  10    3.31    0.27
   2  -4  10    3.71    0.26
  -3   4 -10    5.28    0.25
  -3   4 -10    6.16    0.34
   3  -4  10    5.43    0.31
   3  -4  10    5.40    0.30
  -4   4 -10    0.62    0.16
  -4   4 -10    0.63    0.11
   4  -4  10    0.47    0.12
   4  -4  10    0.37    0.15
  -5   4 -10   10.41    0.44
  -5   4 -10    9.60    0.38
  -5   4 -10    9.55    0.31
   5  -4  10    9.44    0.35
   5  -4  10   10.28    0.41
  -6   4 -10    0.51    0.09
  -6   4 -10    0.36    0.20
  -6   4 -10    0.35    0.15
   6  -4  10    0.58    0.17
   6  -4  10    0.59    0.12
   3   3 -10    6.26    0.30
   3   3 -10    6.07    0.39
  -3  -3  10    5.95    0.32
  -3  -3  10    6.61    0.28
  -3  -3  10    6.28    0.39
   2   3 -10   -0.10    0.11
   2   3 -10    0.04    0.14
  -2  -3  10   -0.12    0.12
  -2  -3  10    0.04    0.09
  -2  -3  10    0.25    0.17
   1   3 -10    0.14    0.12
   1   3 -10   -0.03    0.09
  -1  -3  10    0.09    0.14
  -1  -3  10    0.19    0.08
   0   3 -10    4.81    0.26
   0   3 -10    4.83    0.26
   0  -3  10    4.79    0.24
   0  -3  10    4.52    0.29
  -1   3 -10    5.30    0.28
  -1   3 -10    5.34    0.25
   1  -3  10    5.64    0.27
   1  -3  10    5.79    0.30
  -2   3 -10   47.67    1.08
  -2   3 -10   48.02    1.10
   2  -3  10   42.53    1.08
   2  -3  10   48.55    1.10
  -3   3 -10    0.00    0.12
  -3   3 -10   -0.04    0.08
   3  -3  10    0.10    0.11
   3  -3  10   -0.11    0.10
  -4   3 -10   33.28    0.85
  -4   3 -10   34.00    0.83
   4  -3  10   34.06    0.84
   4  -3  10   34.12    0.84
  -5   3 -10    2.50    0.20
  -5   3 -10    1.94    0.18
  -5   3 -10    2.37    0.22
   5  -3  10    2.42    0.18
   5  -3  10    2.60    0.25
  -6   3 -10   13.77    0.37
  -6   3 -10   14.24    0.46
  -6   3 -10   13.59    0.49
   6  -3  10   13.67    0.47
   6  -3  10   13.78    0.43
  -7   3 -10    0.28    0.16
  -7   3 -10    0.29    0.19
   7  -3  10    0.29    0.17
   7  -3  10    0.17    0.12
   3   2 -10    0.44    0.12
   3   2 -10    0.79    0.18
  -3  -2  10    0.53    0.18
  -3  -2  10    0.54    0.10
  -3  -2  10    0.79    0.17
   2   2 -10    0.90    0.15
   2   2 -10    0.52    0.11
  -2  -2  10    0.95    0.11
  -2  -2  10    0.61    0.14
  -2  -2  10    0.72    0.15
   1   2 -10   10.93    0.36
   1   2 -10   11.44    0.39
  -1  -2  10   10.87    0.40
  -1  -2  10   10.69    0.35
   0   2 -10    0.65    0.11
   0   2 -10    0.72    0.12
   0  -2  10    0.60    0.14
   0  -2  10    0.45    0.09
  -1   2 -10   19.79    0.52
  -1   2 -10   18.29    0.52
   1  -2  10   19.72    0.52
   1  -2  10   17.02    0.52
  -2   2 -10    3.26    0.23
  -2   2 -10    3.74    0.19
   2  -2  10    3.69    0.23
   2  -2  10    3.22    0.23
  -3   2 -10   28.89    0.73
  -3   2 -10   29.75    0.72
   3  -2  10   29.29    0.73
   3  -2  10   28.10    0.72
  -4   2 -10   22.21    0.58
  -4   2 -10   21.38    0.59
   4  -2  10   22.01    0.59
   4  -2  10   21.51    0.58
  -5   2 -10   46.28    1.06
  -5   2 -10   46.56    1.08
  -5   2 -10   44.48    1.03
   5  -2  10   45.82    1.06
   5  -2  10   45.85    1.07
  -6   2 -10    7.40    0.31
  -6   2 -10    7.79    0.35
  -6   2 -10    7.73    0.28
   6  -2  10    8.25    0.35
   6  -2  10    7.90    0.29
   6  -2  10    7.93    0.34
  -7   2 -10    0.14    0.16
  -7   2 -10    0.15    0.14
  -7   2 -10   -0.02    0.10
   7  -2  10    0.10    0.14
   7  -2  10    0.22    0.11
   7  -2  10    0.02    0.14
   3   1 -10   11.92    0.42
   3   1 -10   10.92    0.37
  -3  -1  10   10.96    0.41
  -3  -1  10   11.17    0.36
  -3  -1  10   10.96    0.42
   2   1 -10    1.09    0.12
   2   1 -10    1.59    0.17
  -2  -1  10    1.69    0.15
  -2  -1  10    1.46    0.17
  -2  -1  10    1.40    0.16
   1   1 -10    2.61    0.22
   1   1 -10    2.90    0.18
  -1  -1  10    2.80    0.17
  -1  -1  10    2.92    0.21
  -1  -1  10    2.99    0.24
   0   1 -10    1.98    0.18
   0   1 -10    1.57    0.16
   0  -1  10    1.82    0.16
   0  -1  10    1.54    0.15
  -1   1 -10    0.16    0.09
  -1   1 -10    0.14    0.08
   1  -1  10   -0.03    0.10
   1  -1  10   -0.01    0.08
  -2   1 -10    0.47    0.09
  -2   1 -10    0.63    0.12
   2  -1  10    0.56    0.11
   2  -1  10    0.55    0.10
  -3   1 -10   22.40    0.57
  -3   1 -10   22.33    0.59
   3  -1  10   21.78    0.58
   3  -1  10   21.79    0.58
  -4   1 -10   64.80    1.41
  -4   1 -10   63.49    1.42
   4  -1  10   63.53    1.41
   4  -1  10   63.84    1.41
  -5   1 -10   11.28    0.35
  -5   1 -10   11.59    0.36
  -5   1 -10   11.26    0.39
   5  -1  10   11.49    0.38
   5  -1  10   11.43    0.38
   5  -1  10   11.57    0.36
  -6   1 -10    2.39    0.20
  -6   1 -10    2.52    0.19
  -6   1 -10    2.34    0.20
   6  -1  10    2.41    0.17
   6  -1  10    2.38    0.21
   6  -1  10    2.71    0.24
  -7   1 -10   19.49    0.58
  -7   1 -10   21.20    0.58
  -7   1 -10   20.58    0.53
   7  -1  10   20.73    0.57
   7  -1  10   20.99    0.56
   7  -1  10   20.40    0.59
   4   0 -10    5.41    0.31
   4   0 -10    6.75    0.36
  -4   0  10    5.70    0.34
  -4   0  10    5.95    0.37
  -4   0  10    6.06    0.28
   3   0 -10    0.34    0.11
   3   0 -10    0.43    0.14
  -3   0  10    0.52    0.15
  -3   0  10    0.53    0.09
  -3   0  10    0.53    0.15
   2   0 -10    7.18    0.27
   2   0 -10    7.22    0.31
  -2   0  10    7.46    0.33
  -2   0  10    7.99    0.27
  -2   0  10    7.62    0.31
   1   0 -10   15.65    0.44
   1   0 -10   15.55    0.44
  -1   0  10   15.34    0.46
  -1   0  10   15.51    0.43
   0   0 -10   20.39    0.53
   0   0 -10   20.15    0.53
   0   0  10   20.16    0.53
  -1   0 -10    1.99    0.17
  -1   0 -10    2.15    0.18
   1   0  10    2.18    0.17
  -2   0 -10    0.63    0.09
  -2   0 -10    0.45    0.11
   2   0  10    0.53    0.10
  -3   0 -10    5.87    0.27
  -3   0 -10    5.97    0.23
   3   0  10    5.93    0.26
  -4   0 -10    0.18    0.09
  -4   0 -10    0.19    0.07
  -4   0 -10    0.05    0.11
   4   0  10    0.16    0.09
   4   0  10    0.31    0.08
  -5   0 -10   12.26    0.41
  -5   0 -10   12.59    0.38
  -5   0 -10   12.63    0.39
   5   0  10   12.75    0.40
   5   0  10   12.65    0.39
  -6   0 -10   19.93    0.54
  -6   0 -10   20.69    0.55
  -6   0 -10   21.11    0.57
   6   0  10   20.19    0.56
   6   0  10   21.41    0.56
   6   0  10   20.35    0.54
  -7   0 -10    0.40    0.11
  -7   0 -10    0.50    0.13
  -7   0 -10    0.68    0.16
   7   0  10    0.47    0.13
   7   0  10    0.34    0.10
   7   0  10    0.45    0.13
  -8   0 -10   12.65    0.47
  -8   0 -10   14.14    0.44
  -8   0 -10   14.07    0.46
   8   0  10   13.39    0.43
   8   0  10   14.57    0.50
   8   0  10   14.35    0.46
   4  -1 -10    0.12    0.13
   4  -1 -10    0.13    0.15
  -4   1  10    0.23    0.18
  -4   1  10    0.33    0.15
  -4   1  10    0.10    0.11
   3  -1 -10    0.27    0.10
   3  -1 -10    0.45    0.14
  -3   1  10    0.37    0.14
  -3   1  10    0.43    0.14
  -3   1  10    0.48    0.10
   2  -1 -10    0.34    0.11
   2  -1 -10    0.45    0.08
  -2   1  10    0.50    0.13
  -2   1  10    0.42    0.08
   1  -1 -10   12.86    0.37
   1  -1 -10   12.31    0.37
  -1   1  10   12.69    0.40
  -1   1  10   12.42    0.37
   0  -1 -10    7.52    0.27
   0  -1 -10    7.39    0.27
   0   1  10    6.91    0.26
  -1  -1 -10    0.20    0.08
  -1  -1 -10    0.18    0.09
   1   1  10    0.12    0.07
  -2  -1 -10   68.18    1.47
  -2  -1 -10   68.80    1.49
   2   1  10   68.07    1.49
  -3  -1 -10    5.76    0.23
  -3  -1 -10    5.74    0.26
   3   1  10    5.42    0.24
   3   1  10    5.65    0.25
  -4  -1 -10   28.27    0.69
  -4  -1 -10   29.50    0.69
  -4  -1 -10   28.95    0.70
   4   1  10   28.06    0.69
   4   1  10   25.65    0.68
  -5  -1 -10    1.23    0.13
  -5  -1 -10    1.28    0.14
  -5  -1 -10    1.39    0.15
   5   1  10    1.25    0.13
   5   1  10    1.24    0.14
  -6  -1 -10    2.69    0.21
  -6  -1 -10    2.56    0.23
  -6  -1 -10    2.54    0.18
   6   1  10    2.76    0.20
   6   1  10    2.51    0.22
  -7  -1 -10   12.58    0.41
  -7  -1 -10   12.76    0.42
  -7  -1 -10   13.11    0.42
   7   1  10   12.38    0.41
   7   1  10   12.38    0.42
  -8  -1 -10    1.85    0.19
  -8  -1 -10    1.72    0.19
  -8  -1 -10    1.96    0.19
   8   1  10    2.01    0.18
   8   1  10    1.85    0.16
   8   1  10    2.40    0.21
   4  -2 -10    1.47    0.16
   4  -2 -10    1.80    0.17
  -4   2  10    1.37    0.18
  -4   2  10    1.60    0.22
  -4   2  10    1.91    0.20
   3  -2 -10    0.09    0.11
   3  -2 -10   -0.07    0.09
  -3   2  10    0.22    0.08
  -3   2  10    0.04    0.14
   2  -2 -10    5.69    0.23
   2  -2 -10    5.87    0.25
  -2   2  10    6.18    0.29
  -2   2  10    5.78    0.23
   1  -2 -10    0.57    0.09
   1  -2 -10    0.80    0.11
  -1   2  10    0.58    0.11
  -1   2  10    0.62    0.09
   0  -2 -10    2.18    0.17
   0  -2 -10    2.15    0.16
   0   2  10    1.79    0.15
   0   2  10    2.09    0.17
  -1  -2 -10    6.71    0.26
  -1  -2 -10    6.57    0.25
   1   2  10    6.98    0.26
  -2  -2 -10    3.29    0.21
  -2  -2 -10    3.60    0.19
   2   2  10    3.81    0.20
   2   2  10    3.72    0.20
  -3  -2 -10   72.62    1.56
  -3  -2 -10   73.10    1.54
   3   2  10   71.00    1.56
   3   2  10   71.32    1.55
  -4  -2 -10   -0.07    0.09
  -4  -2 -10   -0.04    0.06
  -4  -2 -10    0.04    0.08
   4   2  10   -0.07    0.08
   4   2  10    0.03    0.08
  -5  -2 -10    4.59    0.25
  -5  -2 -10    4.87    0.21
  -5  -2 -10    4.35    0.24
   5   2  10    5.00    0.24
   5   2  10    5.11    0.24
  -6  -2 -10   11.01    0.37
  -6  -2 -10   10.92    0.38
  -6  -2 -10   10.93    0.36
   6   2  10   10.88    0.37
   6   2  10   11.31    0.37
  -7  -2 -10    3.11    0.21
  -7  -2 -10    3.31    0.26
  -7  -2 -10    3.31    0.26
   7   2  10    2.90    0.22
   7   2  10    3.48    0.24
  -8  -2 -10    0.75    0.14
  -8  -2 -10    0.66    0.17
  -8  -2 -10    0.66    0.16
   8   2  10    0.83    0.15
   8   2  10    0.70    0.15
   4  -3 -10    0.10    0.12
   4  -3 -10   -0.11    0.13
  -4   3  10    0.07    0.18
  -4   3  10    0.12    0.11
   3  -3 -10    1.17    0.13
   3  -3 -10    1.24    0.13
  -3   3  10    1.21    0.18
  -3   3  10    1.15    0.11
   2  -3 -10    0.34    0.09
   2  -3 -10    0.22    0.08
  -2   3  10    0.26    0.08
  -2   3  10    0.14    0.11
   1  -3 -10   18.66    0.46
   1  -3 -10   18.10    0.49
  -1   3  10   19.04    0.49
  -1   3  10   18.06    0.53
   0  -3 -10    5.07    0.22
   0  -3 -10    4.77    0.21
   0   3  10    4.74    0.21
   0   3  10    4.82    0.23
  -1  -3 -10    0.21    0.08
  -1  -3 -10    0.34    0.09
   1   3  10    0.26    0.08
   1   3  10    0.32    0.07
  -2  -3 -10   75.56    1.58
  -2  -3 -10   74.23    1.62
   2   3  10   74.43    1.61
   2   3  10   74.71    1.59
  -3  -3 -10    6.82    0.28
  -3  -3 -10    7.11    0.27
  -3  -3 -10    7.58    0.26
   3   3  10    7.02    0.27
   3   3  10    7.11    0.27
  -4  -3 -10    0.04    0.07
  -4  -3 -10    0.23    0.09
  -4  -3 -10    0.14    0.10
   4   3  10    0.15    0.09
   4   3  10    0.19    0.09
  -5  -3 -10    3.77    0.24
  -5  -3 -10    3.88    0.19
  -5  -3 -10    3.89    0.22
   5   3  10    3.69    0.21
   5   3  10    4.03    0.22
  -6  -3 -10    6.91    0.30
  -6  -3 -10    6.79    0.31
  -6  -3 -10    7.01    0.27
   6   3  10    7.16    0.29
   6   3  10    7.03    0.30
  -7  -3 -10    1.17    0.13
  -7  -3 -10    1.40    0.17
  -7  -3 -10    1.56    0.17
   7   3  10    1.59    0.16
   7   3  10    1.46    0.15
  -8  -3 -10    0.46    0.16
  -8  -3 -10    0.50    0.17
   8   3  10    0.45    0.15
   8   3  10    0.55    0.14
   4  -4 -10    2.11    0.18
   4  -4 -10    2.40    0.18
  -4   4  10    2.07    0.24
  -4   4  10    1.95    0.21
   3  -4 -10    3.73    0.23
   3  -4 -10    4.21    0.19
  -3   4  10    3.95    0.30
  -3   4  10    4.32    0.21
   2  -4 -10    7.98    0.26
   2  -4 -10    7.71    0.27
  -2   4  10    8.22    0.34
  -2   4  10    7.68    0.27
   1  -4 -10   -0.07    0.08
   1  -4 -10   -0.02    0.07
  -1   4  10   -0.12    0.09
  -1   4  10   -0.05    0.07
   0  -4 -10    0.02    0.08
   0  -4 -10    0.01    0.07
   0   4  10    0.09    0.08
   0   4  10    0.04    0.08
  -1  -4 -10   31.74    0.76
  -1  -4 -10   32.31    0.73
   1   4  10   32.04    0.76
   1   4  10   30.77    0.73
   1   4  10   31.66    0.80
  -2  -4 -10   14.91    0.41
  -2  -4 -10   14.72    0.43
  -2  -4 -10   15.13    0.43
   2   4  10   14.95    0.43
   2   4  10   14.87    0.41
  -3  -4 -10   23.92    0.59
  -3  -4 -10   23.92    0.61
  -3  -4 -10   24.19    0.62
   3   4  10   22.44    0.59
   3   4  10   24.25    0.61
  -4  -4 -10    3.19    0.22
  -4  -4 -10    3.14    0.20
  -4  -4 -10    3.38    0.19
   4   4  10    3.49    0.21
   4   4  10    3.27    0.20
  -5  -4 -10   17.09    0.48
  -5  -4 -10   17.68    0.50
  -5  -4 -10   17.46    0.49
   5   4  10   17.20    0.49
   5   4  10   17.15    0.49
  -6  -4 -10    0.19    0.12
  -6  -4 -10    0.14    0.08
  -6  -4 -10    0.22    0.12
   6   4  10    0.27    0.12
   6   4  10    0.33    0.09
  -7  -4 -10    0.07    0.14
  -7  -4 -10   -0.01    0.13
   7   4  10   -0.09    0.10
   7   4  10    0.28    0.12
  -8  -4 -10    2.48    0.23
  -8  -4 -10    1.61    0.20
   8   4  10    1.68    0.18
   8   4  10    1.73    0.17
   4  -5 -10    0.25    0.15
  -4   5  10    0.11    0.12
   3  -5 -10    5.55    0.27
  -3   5  10    6.22    0.26
  -3   5  10    6.05    0.34
   2  -5 -10    0.03    0.07
   2  -5 -10    0.15    0.08
  -2   5  10    0.05    0.08
  -2   5  10    0.11    0.11
   1  -5 -10    2.43    0.15
   1  -5 -10    2.24    0.17
  -1   5  10    2.14    0.19
  -1   5  10    2.67    0.17
   0  -5 -10   20.79    0.54
   0  -5 -10   20.27    0.49
   0   5  10   19.98    0.57
   0   5  10   20.49    0.53
  -1  -5 -10    4.99    0.25
  -1  -5 -10    5.13    0.21
   1   5  10    4.62    0.23
   1   5  10    4.83    0.22
   1   5  10    4.97    0.21
  -2  -5 -10   10.85    0.34
  -2  -5 -10   10.13    0.36
  -2  -5 -10   10.87    0.32
   2   5  10   10.59    0.35
   2   5  10   10.93    0.35
   2   5  10   10.23    0.32
  -3  -5 -10    2.62    0.18
  -3  -5 -10    2.74    0.17
  -3  -5 -10    2.55    0.22
   3   5  10    2.60    0.19
   3   5  10    2.71    0.20
  -4  -5 -10    7.74    0.31
  -4  -5 -10    8.10    0.31
  -4  -5 -10    7.85    0.29
   4   5  10    7.82    0.30
   4   5  10    8.42    0.31
  -5  -5 -10    2.15    0.18
  -5  -5 -10    2.17    0.18
  -5  -5 -10    1.85    0.16
   5   5  10    2.17    0.21
   5   5  10    1.80    0.19
  -6  -5 -10   10.70    0.39
  -6  -5 -10    9.98    0.37
   6   5  10    9.66    0.35
   6   5  10   10.17    0.36
  -7  -5 -10    1.96    0.19
  -7  -5 -10    1.99    0.21
   7   5  10    1.52    0.16
   7   5  10    1.85    0.17
  -8  -5 -10   -0.16    0.15
  -8  -5 -10    0.02    0.18
   8   5  10   -0.20    0.13
   8   5  10    0.21    0.15
   3  -6 -10    2.53    0.22
  -3   6  10    2.68    0.29
  -3   6  10    2.96    0.20
   2  -6 -10    2.96    0.20
  -2   6  10    3.63    0.25
  -2   6  10    3.18    0.19
   1  -6 -10    0.14    0.08
   1  -6 -10    0.09    0.08
  -1   6  10    0.19    0.07
  -1   6  10    0.17    0.09
   0  -6 -10    0.54    0.09
   0  -6 -10    0.48    0.11
   0   6  10    0.52    0.09
   0   6  10    0.48    0.09
  -1  -6 -10    0.12    0.08
  -1  -6 -10    0.15    0.07
  -1  -6 -10    0.17    0.09
   1   6  10    0.28    0.08
   1   6  10    0.12    0.08
   1   6  10    0.16    0.09
  -2  -6 -10    1.13    0.11
  -2  -6 -10    1.31    0.12
  -2  -6 -10    1.22    0.14
   2   6  10    1.41    0.13
   2   6  10    1.45    0.14
   2   6  10    1.24    0.14
  -3  -6 -10    6.12    0.25
  -3  -6 -10    5.99    0.25
  -3  -6 -10    5.81    0.28
   3   6  10    5.71    0.25
   3   6  10    5.33    0.26
   3   6  10    6.09    0.25
  -4  -6 -10    5.70    0.28
  -4  -6 -10    5.98    0.25
  -4  -6 -10    5.73    0.26
   4   6  10    5.36    0.26
   4   6  10    5.73    0.27
  -5  -6 -10   44.34    1.06
  -5  -6 -10   44.33    1.04
   5   6  10   44.16    1.03
   5   6  10   44.14    1.03
  -6  -6 -10    0.00    0.11
  -6  -6 -10   -0.15    0.13
   6   6  10    0.00    0.12
   6   6  10    0.10    0.10
  -7  -6 -10    0.24    0.15
  -7  -6 -10    0.17    0.16
   7   6  10    0.40    0.15
   3  -7 -10    1.90    0.17
  -3   7  10    2.48    0.20
  -3   7  10    2.55    0.28
   2  -7 -10    2.77    0.21
  -2   7  10    3.17    0.24
  -2   7  10    3.21    0.19
   1  -7 -10    6.77    0.31
   1  -7 -10    6.81    0.27
  -1   7  10    6.67    0.29
  -1   7  10    7.32    0.27
   0  -7 -10    5.38    0.26
   0  -7 -10    5.63    0.26
   0   7  10    5.58    0.26
   0   7  10    5.54    0.25
  -1  -7 -10   11.29    0.37
  -1  -7 -10   11.07    0.38
   1   7  10   11.61    0.38
   1   7  10   11.10    0.37
   1   7  10   11.58    0.34
  -2  -7 -10    0.01    0.08
  -2  -7 -10   -0.08    0.10
   2   7  10    0.17    0.08
   2   7  10    0.15    0.09
   2   7  10    0.03    0.09
  -3  -7 -10    0.60    0.10
  -3  -7 -10    0.65    0.14
   3   7  10    0.67    0.11
   3   7  10    0.60    0.11
   3   7  10    0.82    0.13
  -4  -7 -10   21.58    0.60
  -4  -7 -10   21.90    0.60
   4   7  10   21.28    0.59
   4   7  10   22.57    0.61
   4   7  10   21.79    0.58
  -5  -7 -10    2.49    0.21
  -5  -7 -10    2.71    0.23
   5   7  10    2.65    0.23
   5   7  10    2.68    0.24
   5   7  10    2.25    0.21
  -6  -7 -10    3.76    0.28
  -6  -7 -10    3.53    0.30
   6   7  10    3.37    0.25
   6   7  10    3.75    0.28
  -7  -7 -10   20.21    0.65
  -7  -7 -10   20.21    0.61
   7   7  10   20.32    0.60
   7   7  10   21.37    0.61
   2  -8 -10    2.30    0.21
   2  -8 -10    1.79    0.21
  -2   8  10    2.41    0.23
  -2   8  10    2.30    0.18
   1  -8 -10    0.74    0.14
   1  -8 -10    0.37    0.11
  -1   8  10    0.55    0.12
  -1   8  10    0.92    0.10
   0  -8 -10   20.36    0.57
   0  -8 -10   21.19    0.59
   0   8  10   20.75    0.57
   0   8  10   20.44    0.59
   0   8  10   20.54    0.50
  -1  -8 -10    1.52    0.16
  -1  -8 -10    1.37    0.13
   1   8  10    1.43    0.15
   1   8  10    1.67    0.13
   1   8  10    1.50    0.15
  -2  -8 -10   -0.01    0.08
  -2  -8 -10    0.16    0.12
   2   8  10    0.02    0.10
   2   8  10    0.08    0.10
   2   8  10   -0.08    0.09
  -3  -8 -10   28.53    0.74
  -3  -8 -10   28.01    0.74
   3   8  10   28.58    0.70
   3   8  10   27.83    0.73
   3   8  10   28.81    0.76
  -4  -8 -10    0.97    0.13
  -4  -8 -10    1.05    0.17
   4   8  10    1.03    0.14
   4   8  10    0.90    0.14
   4   8  10    1.02    0.16
  -5  -8 -10    6.92    0.32
  -5  -8 -10    6.75    0.36
   5   8  10    7.26    0.33
   5   8  10    6.94    0.34
   5   8  10    6.57    0.32
  -6  -8 -10    0.90    0.19
  -6  -8 -10    0.70    0.15
   6   8  10    0.89    0.18
   6   8  10    1.17    0.17
   6   8  10    0.95    0.17
   2  -9 -10    0.13    0.17
  -2   9  10    0.18    0.11
   1  -9 -10   12.17    0.41
   1  -9 -10   12.16    0.46
  -1   9  10   12.94    0.40
  -1   9  10   11.56    0.43
   0  -9 -10    0.04    0.12
   0  -9 -10    0.20    0.13
   0   9  10    0.14    0.09
   0   9  10   -0.04    0.11
   0   9  10    0.19    0.10
  -1  -9 -10    3.88    0.29
  -1  -9 -10    3.64    0.25
   1   9  10    3.24    0.24
   1   9  10    3.70    0.25
   1   9  10    3.59    0.22
  -2  -9 -10   16.80    0.52
  -2  -9 -10   15.58    0.49
   2   9  10   16.07    0.50
   2   9  10   15.74    0.45
   2   9  10   16.48    0.51
  -3  -9 -10    1.43    0.18
  -3  -9 -10    1.64    0.18
   3   9  10    1.67    0.18
   3   9  10    1.53    0.17
   3   9  10    1.75    0.16
  -4  -9 -10    9.45    0.36
  -4  -9 -10    8.98    0.41
   4   9  10    8.70    0.36
   4   9  10    8.74    0.37
   4   9  10    8.22    0.37
  -5  -9 -10    0.15    0.12
  -5  -9 -10   -0.08    0.17
   5   9  10    0.04    0.13
   5   9  10    0.04    0.13
   5   9  10    0.09    0.15
  -6  -9 -10    0.05    0.16
  -6  -9 -10   -0.21    0.18
   6   9  10    0.08    0.18
   6   9  10   -0.03    0.15
   6   9  10    0.11    0.16
   1 -10 -10    0.74    0.19
  -1  10  10    0.45    0.11
   0 -10 -10    8.30    0.39
   0 -10 -10    7.54    0.37
   0  10  10    7.60    0.35
   0  10  10    7.62    0.26
   0  10  10    7.77    0.34
  -1 -10 -10    5.46    0.31
  -1 -10 -10    5.80    0.36
   1  10  10    6.12    0.32
   1  10  10    5.73    0.27
   1  10  10    5.31    0.32
  -2 -10 -10    3.81    0.27
  -2 -10 -10    3.77    0.34
   2  10  10    4.34    0.30
   2  10  10    4.12    0.30
   2  10  10    3.74    0.26
  -3 -10 -10   14.94    0.49
  -3 -10 -10   15.72    0.54
   3  10  10   14.72    0.51
   3  10  10   15.00    0.47
   3  10  10   15.55    0.52
  -4 -10 -10    4.99    0.40
  -4 -10 -10    4.49    0.28
   4  10  10    4.68    0.31
   4  10  10    4.99    0.35
   4  10  10    4.38    0.31
  -5 -10 -10    0.23    0.21
   5  10  10    0.11    0.16
   5  10  10   -0.15    0.15
   5  10  10   -0.01    0.17
  -1 -11 -10    0.36    0.20
  -1 -11 -10   -0.13    0.16
   1  11  10    0.05    0.17
   1  11  10   -0.01    0.14
  -2 -11 -10   13.28    0.55
  -2 -11 -10   13.34    0.50
   2  11  10   13.95    0.45
   2  11  10   13.61    0.50
   2  11  10   13.53    0.52
  -3 -11 -10    2.61    0.24
  -3 -11 -10    2.81    0.28
   3  11  10    2.18    0.24
   3  11  10    2.47    0.23
   3  11  10    2.49    0.22
  -1   5 -11    6.34    0.31
  -1   5 -11    5.72    0.39
   1  -5  11    5.95    0.36
   1  -5  11    6.24    0.42
  -2   5 -11    1.88    0.18
  -2   5 -11    1.80    0.24
   2  -5  11    2.33    0.23
   2  -5  11    2.37    0.25
  -3   5 -11    3.35    0.27
  -3   5 -11    3.90    0.39
   3  -5  11    4.81    0.36
   3  -5  11    4.71    0.36
  -4   5 -11    0.57    0.23
   4  -5  11    0.53    0.20
   4  -5  11    0.51    0.17
   1   4 -11   -0.01    0.15
   1   4 -11    0.23    0.17
  -1  -4  11    0.13    0.21
  -1  -4  11    0.37    0.12
   0   4 -11   11.00    0.42
   0   4 -11   11.03    0.44
   0  -4  11   11.42    0.41
   0  -4  11   11.15    0.49
  -1   4 -11    1.50    0.16
  -1   4 -11    1.40    0.20
   1  -4  11    1.85    0.22
   1  -4  11    1.69    0.18
  -2   4 -11   17.65    0.55
  -2   4 -11   20.41    0.62
   2  -4  11   20.25    0.59
   2  -4  11   19.41    0.61
  -3   4 -11    0.20    0.17
  -3   4 -11   -0.37    0.11
   3  -4  11   -0.01    0.15
   3  -4  11   -0.02    0.14
  -4   4 -11   -0.04    0.18
  -4   4 -11    0.11    0.12
   4  -4  11    0.01    0.15
   4  -4  11    0.01    0.14
  -5   4 -11    5.53    0.28
  -5   4 -11    5.28    0.31
  -5   4 -11    5.21    0.41
   5  -4  11    4.80    0.30
   5  -4  11    5.59    0.36
   1   3 -11    3.26    0.30
   1   3 -11    3.67    0.25
  -1  -3  11    3.50    0.35
  -1  -3  11    3.63    0.28
  -1  -3  11    3.59    0.23
   0   3 -11    0.65    0.14
   0   3 -11    0.38    0.14
   0  -3  11    0.33    0.12
   0  -3  11    0.46    0.16
  -1   3 -11   31.31    0.80
  -1   3 -11   30.92    0.82
   1  -3  11   32.97    0.81
   1  -3  11   31.98    0.83
  -2   3 -11    0.52    0.10
  -2   3 -11    0.50    0.15
   2  -3  11    0.62    0.14
   2  -3  11    0.48    0.15
  -3   3 -11    1.04    0.16
  -3   3 -11    1.18    0.12
   3  -3  11    1.27    0.17
   3  -3  11    0.98    0.16
  -4   3 -11    5.58    0.34
  -4   3 -11    5.51    0.26
   4  -3  11    5.50    0.30
   4  -3  11    5.61    0.32
  -5   3 -11    3.16    0.24
  -5   3 -11    3.18    0.33
  -5   3 -11    3.27    0.24
   5  -3  11    3.05    0.23
   5  -3  11    3.31    0.30
  -6   3 -11    0.14    0.13
  -6   3 -11    0.30    0.20
  -6   3 -11    0.24    0.12
   6  -3  11    0.07    0.12
   6  -3  11    0.34    0.17
   2   2 -11    1.06    0.19
   2   2 -11    0.84    0.14
  -2  -2  11    1.02    0.12
  -2  -2  11    1.17    0.19
  -2  -2  11    0.81    0.20
   1   2 -11    5.10    0.31
   1   2 -11    5.31    0.26
  -1  -2  11    5.09    0.25
  -1  -2  11    4.60    0.33
  -1  -2  11    4.97    0.29
   0   2 -11    7.02    0.32
   0   2 -11    6.53    0.30
   0  -2  11    6.45    0.35
   0  -2  11    7.11    0.29
  -1   2 -11    5.17    0.28
  -1   2 -11    5.14    0.26
   1  -2  11    5.38    0.30
   1  -2  11    5.58    0.27
  -2   2 -11   12.96    0.41
  -2   2 -11   12.81    0.44
   2  -2  11   13.16    0.43
   2  -2  11   12.67    0.44
  -3   2 -11    9.45    0.39
  -3   2 -11   10.34    0.34
   3  -2  11    9.95    0.37
   3  -2  11    9.54    0.37
  -4   2 -11   14.27    0.44
  -4   2 -11   14.36    0.48
   4  -2  11   14.11    0.45
   4  -2  11   14.52    0.47
  -5   2 -11    1.20    0.13
  -5   2 -11    0.74    0.14
  -5   2 -11    1.22    0.19
   5  -2  11    0.85    0.12
   5  -2  11    0.80    0.16
  -6   2 -11    0.15    0.12
  -6   2 -11    0.17    0.16
  -6   2 -11    0.11    0.11
   6  -2  11    0.37    0.11
   6  -2  11    0.14    0.15
   2   1 -11    2.91    0.21
   2   1 -11    2.68    0.22
  -2  -1  11    2.44    0.18
  -2  -1  11    2.31    0.22
  -2  -1  11    2.68    0.28
   1   1 -11    4.97    0.24
   1   1 -11    4.73    0.28
  -1  -1  11    4.74    0.32
  -1  -1  11    4.64    0.29
  -1  -1  11    4.82    0.22
   0   1 -11    3.98    0.23
   0   1 -11    4.24    0.25
   0  -1  11    4.18    0.23
   0  -1  11    4.05    0.29
  -1   1 -11    0.09    0.09
  -1   1 -11   -0.08    0.10
   1  -1  11    0.00    0.12
   1  -1  11    0.18    0.09
  -2   1 -11    0.26    0.12
  -2   1 -11    0.26    0.10
   2  -1  11    0.10    0.10
   2  -1  11    0.03    0.12
  -3   1 -11   28.59    0.70
  -3   1 -11   27.43    0.72
   3  -1  11   28.42    0.72
   3  -1  11   26.50    0.70
  -4   1 -11    6.28    0.33
  -4   1 -11    7.88    0.28
   4  -1  11    6.87    0.31
   4  -1  11    7.37    0.30
  -5   1 -11    5.97    0.33
  -5   1 -11    5.73    0.28
  -5   1 -11    6.20    0.27
   5  -1  11    5.93    0.26
   5  -1  11    5.92    0.30
  -6   1 -11   16.83    0.54
  -6   1 -11   16.76    0.49
  -6   1 -11   16.81    0.48
   6  -1  11   16.90    0.49
   6  -1  11   16.29    0.51
   6  -1  11   17.19    0.52
  -7   1 -11    0.90    0.15
  -7   1 -11    0.87    0.15
  -7   1 -11    0.97    0.19
   7  -1  11    1.21    0.16
   7  -1  11    0.96    0.13
   7  -1  11    0.86    0.17
   3   0 -11    1.56    0.16
   3   0 -11    1.87    0.22
  -3   0  11    1.72    0.22
  -3   0  11    2.12    0.19
  -3   0  11    1.97    0.22
   2   0 -11    8.54    0.35
   2   0 -11    7.28    0.29
  -2   0  11    8.04    0.36
  -2   0  11    7.98    0.29
  -2   0  11    7.79    0.37
   1   0 -11   12.98    0.42
   1   0 -11   12.90    0.40
  -1   0  11   13.04    0.39
  -1   0  11   12.76    0.43
  -1   0  11   12.39    0.44
   0   0 -11   21.64    0.58
   0   0 -11   21.36    0.58
   0   0  11   21.55    0.57
  -1   0 -11    1.90    0.20
  -1   0 -11    1.83    0.18
   1   0  11    2.33    0.19
  -2   0 -11   11.27    0.36
  -2   0 -11   11.50    0.39
   2   0  11   11.23    0.37
  -3   0 -11    6.65    0.31
  -3   0 -11    6.71    0.27
   3   0  11    6.60    0.29
  -4   0 -11   13.73    0.45
  -4   0 -11   14.37    0.42
  -4   0 -11   14.11    0.43
   4   0  11   13.84    0.44
  -5   0 -11   12.87    0.43
  -5   0 -11   15.31    0.48
  -5   0 -11   15.64    0.45
   5   0  11   14.75    0.45
   5   0  11   15.83    0.47
  -6   0 -11    0.08    0.12
  -6   0 -11   -0.02    0.09
  -6   0 -11   -0.06    0.14
   6   0  11    0.18    0.09
   6   0  11    0.25    0.10
   6   0  11   -0.13    0.12
  -7   0 -11   31.83    0.82
  -7   0 -11   32.58    0.80
  -7   0 -11   33.48    0.83
   7   0  11   30.78    0.79
   7   0  11   33.08    0.84
   7   0  11   33.28    0.82
   3  -1 -11    0.24    0.15
   3  -1 -11    0.00    0.12
  -3   1  11    0.24    0.17
  -3   1  11    0.29    0.10
  -3   1  11    0.07    0.17
   2  -1 -11    1.99    0.17
   2  -1 -11    1.95    0.18
  -2   1  11    2.01    0.20
  -2   1  11    1.70    0.16
   1  -1 -11    9.91    0.34
   1  -1 -11   10.31    0.35
  -1   1  11   10.15    0.33
  -1   1  11   10.07    0.38
   0  -1 -11    0.34    0.11
   0  -1 -11    0.44    0.10
   0   1  11    0.47    0.12
   0   1  11    0.28    0.08
  -1  -1 -11   10.43    0.36
  -1  -1 -11   10.45    0.34
   1   1  11   10.59    0.35
  -2  -1 -11   11.88    0.39
  -2  -1 -11   12.01    0.37
   2   1  11   12.22    0.39
  -3  -1 -11   35.47    0.83
  -3  -1 -11   33.75    0.84
   3   1  11   35.86    0.85
  -4  -1 -11    0.49    0.08
  -4  -1 -11    0.67    0.12
  -4  -1 -11    0.72    0.14
   4   1  11    0.68    0.11
   4   1  11    0.53    0.11
  -5  -1 -11   -0.02    0.07
  -5  -1 -11   -0.03    0.10
  -5  -1 -11    0.07    0.12
   5   1  11    0.04    0.10
   5   1  11   -0.01    0.08
  -6  -1 -11   26.05    0.68
  -6  -1 -11   24.71    0.66
  -6  -1 -11   25.36    0.67
   6   1  11   26.44    0.68
   6   1  11   25.50    0.67
  -7  -1 -11    1.03    0.18
  -7  -1 -11    0.50    0.12
  -7  -1 -11    1.05    0.17
   7   1  11    0.77    0.13
   7   1  11    0.95    0.17
   3  -2 -11    0.70    0.13
   3  -2 -11    0.84    0.15
  -3   2  11    1.08    0.12
  -3   2  11    0.56    0.19
   2  -2 -11    4.25    0.26
   2  -2 -11    4.42    0.22
  -2   2  11    4.59    0.30
  -2   2  11    4.83    0.22
   1  -2 -11   10.95    0.35
   1  -2 -11   10.96    0.36
  -1   2  11   11.75    0.40
  -1   2  11   11.25    0.35
   0  -2 -11    5.76    0.26
   0  -2 -11    6.32    0.26
   0   2  11    6.14    0.28
   0   2  11    6.01    0.25
  -1  -2 -11    2.19    0.18
  -1  -2 -11    2.28    0.20
   1   2  11    2.15    0.18
  -2  -2 -11   10.74    0.37
  -2  -2 -11   10.96    0.35
   2   2  11   11.14    0.36
  -3  -2 -11    0.49    0.09
  -3  -2 -11    0.28    0.11
   3   2  11    0.18    0.09
   3   2  11    0.25    0.10
  -4  -2 -11    0.40    0.11
  -4  -2 -11    0.42    0.09
  -4  -2 -11    0.23    0.12
   4   2  11    0.31    0.10
   4   2  11    0.25    0.11
  -5  -2 -11    4.62    0.27
  -5  -2 -11    4.23    0.25
  -5  -2 -11    4.94    0.22
   5   2  11    4.42    0.23
   5   2  11    4.33    0.25
  -6  -2 -11    1.08    0.16
  -6  -2 -11    1.33    0.13
  -6  -2 -11    1.23    0.15
   6   2  11    1.51    0.15
   6   2  11    1.17    0.15
  -7  -2 -11    2.35    0.21
  -7  -2 -11    3.01    0.22
  -7  -2 -11    2.30    0.22
   7   2  11    2.58    0.26
   7   2  11    2.30    0.22
   3  -3 -11    1.58    0.16
   3  -3 -11    1.33    0.15
  -3   3  11    1.56    0.22
  -3   3  11    1.54    0.15
   2  -3 -11   10.33    0.34
   2  -3 -11   10.09    0.34
  -2   3  11    9.70    0.40
  -2   3  11   10.22    0.33
   1  -3 -11    0.11    0.09
   1  -3 -11    0.08    0.10
  -1   3  11    0.21    0.08
  -1   3  11    0.21    0.12
   0  -3 -11   -0.02    0.09
   0  -3 -11    0.00    0.08
   0   3  11    0.05    0.07
   0   3  11   -0.03    0.10
  -1  -3 -11   25.18    0.65
  -1  -3 -11   22.85    0.61
   1   3  11   26.64    0.68
   1   3  11   26.45    0.65
  -2  -3 -11    1.14    0.12
  -2  -3 -11    1.17    0.14
   2   3  11    1.11    0.13
   2   3  11    1.06    0.13
  -3  -3 -11   20.59    0.56
  -3  -3 -11   20.60    0.53
  -3  -3 -11   18.48    0.55
   3   3  11   20.99    0.55
   3   3  11   20.32    0.54
  -4  -3 -11    0.61    0.12
  -4  -3 -11    0.63    0.10
  -4  -3 -11    0.51    0.13
   4   3  11    0.72    0.12
   4   3  11    0.75    0.11
  -5  -3 -11    1.15    0.13
  -5  -3 -11    0.83    0.14
  -5  -3 -11    1.16    0.14
   5   3  11    0.83    0.12
   5   3  11    0.93    0.14
  -6  -3 -11    4.96    0.23
  -6  -3 -11    4.07    0.28
  -6  -3 -11    4.05    0.28
   6   3  11    4.90    0.28
   6   3  11    4.95    0.25
  -7  -3 -11    0.65    0.16
  -7  -3 -11    0.66    0.17
   7   3  11    0.54    0.16
   7   3  11    0.66    0.12
   3  -4 -11    1.09    0.14
   3  -4 -11    0.76    0.14
  -3   4  11    1.31    0.21
  -3   4  11    1.06    0.13
   2  -4 -11    3.40    0.21
   2  -4 -11    3.10    0.21
  -2   4  11    2.97    0.19
  -2   4  11    3.05    0.28
   1  -4 -11    3.76    0.21
   1  -4 -11    3.39    0.20
  -1   4  11    3.10    0.19
  -1   4  11    3.03    0.24
   0  -4 -11   23.86    0.62
   0  -4 -11   23.39    0.58
   0   4  11   23.94    0.61
   0   4  11   23.73    0.65
  -1  -4 -11    5.65    0.24
  -1  -4 -11    5.40    0.27
   1   4  11    5.25    0.25
   1   4  11    5.38    0.25
  -2  -4 -11   22.49    0.56
  -2  -4 -11   22.38    0.60
   2   4  11   22.79    0.59
   2   4  11   21.58    0.57
  -3  -4 -11    3.05    0.20
  -3  -4 -11    2.94    0.20
  -3  -4 -11    3.32    0.24
   3   4  11    3.20    0.21
   3   4  11    3.46    0.22
  -4  -4 -11    0.29    0.12
  -4  -4 -11    0.08    0.09
  -4  -4 -11    0.24    0.10
   4   4  11    0.24    0.11
   4   4  11    0.15    0.10
  -5  -4 -11    9.94    0.34
  -5  -4 -11    9.79    0.37
  -5  -4 -11    9.55    0.36
   5   4  11    9.92    0.36
   5   4  11    9.61    0.35
  -6  -4 -11   21.37    0.62
  -6  -4 -11   21.27    0.60
  -6  -4 -11   21.11    0.58
   6   4  11   22.20    0.60
   6   4  11   21.66    0.59
  -7  -4 -11    5.38    0.26
  -7  -4 -11    5.36    0.34
  -7  -4 -11    5.44    0.34
   7   4  11    5.32    0.32
   7   4  11    5.76    0.28
   3  -5 -11    0.59    0.14
  -3   5  11    1.12    0.13
  -3   5  11    0.93    0.21
   2  -5 -11    0.44    0.10
   2  -5 -11    0.30    0.10
  -2   5  11    0.17    0.09
  -2   5  11    0.32    0.14
   1  -5 -11    0.45    0.10
   1  -5 -11    0.56    0.10
  -1   5  11    0.38    0.11
  -1   5  11    0.48    0.09
   0  -5 -11    0.17    0.09
   0  -5 -11   -0.08    0.09
   0   5  11   -0.13    0.08
  -1  -5 -11   28.89    0.68
  -1  -5 -11   29.02    0.73
   1   5  11   29.55    0.73
   1   5  11   28.85    0.76
  -2  -5 -11    5.68    0.25
  -2  -5 -11    5.67    0.28
  -2  -5 -11    5.61    0.24
   2   5  11    5.85    0.25
   2   5  11    5.22    0.26
   2   5  11    5.60    0.25
  -3  -5 -11   13.43    0.42
  -3  -5 -11   13.70    0.44
  -3  -5 -11   13.43    0.40
   3   5  11   13.48    0.42
   3   5  11   13.16    0.41
  -4  -5 -11   18.34    0.53
  -4  -5 -11   18.33    0.51
  -4  -5 -11   17.92    0.53
   4   5  11   18.48    0.51
   4   5  11   18.18    0.52
  -5  -5 -11   19.03    0.56
  -5  -5 -11   19.59    0.57
  -5  -5 -11   19.15    0.54
   5   5  11   19.79    0.55
   5   5  11   20.00    0.55
  -6  -5 -11    0.21    0.16
  -6  -5 -11    0.13    0.14
  -6  -5 -11    0.39    0.10
   6   5  11    0.16    0.13
   6   5  11    0.40    0.11
  -7  -5 -11    0.38    0.16
  -7  -5 -11    0.45    0.18
   7   5  11    0.20    0.12
   7   5  11    0.30    0.15
   2  -6 -11    0.34    0.11
  -2   6  11    0.28    0.09
  -2   6  11    0.26    0.15
   1  -6 -11   -0.10    0.10
   1  -6 -11   -0.05    0.09
  -1   6  11    0.08    0.11
  -1   6  11    0.04    0.08
   0  -6 -11   10.59    0.32
   0  -6 -11   10.86    0.37
   0   6  11   10.50    0.37
   0   6  11   10.51    0.36
  -1  -6 -11   12.09    0.36
  -1  -6 -11   11.90    0.41
  -1  -6 -11   12.04    0.39
   1   6  11   11.84    0.40
   1   6  11   12.02    0.37
   1   6  11   12.24    0.39
  -2  -6 -11    0.87    0.11
  -2  -6 -11    0.51    0.13
  -2  -6 -11    0.57    0.11
   2   6  11    0.71    0.11
   2   6  11    0.72    0.10
   2   6  11    0.70    0.13
  -3  -6 -11    4.02    0.28
  -3  -6 -11    3.93    0.23
  -3  -6 -11    3.82    0.22
   3   6  11    4.01    0.22
   3   6  11    4.41    0.25
   3   6  11    3.98    0.24
  -4  -6 -11   29.78    0.77
  -4  -6 -11   29.10    0.76
  -4  -6 -11   29.59    0.73
   4   6  11   29.94    0.74
   4   6  11   29.47    0.75
  -5  -6 -11    5.94    0.30
  -5  -6 -11    6.14    0.34
   5   6  11    5.72    0.29
   5   6  11    6.14    0.30
  -6  -6 -11    0.40    0.16
  -6  -6 -11    0.55    0.15
   6   6  11    0.47    0.13
   6   6  11    0.56    0.15
  -7  -6 -11   22.08    0.64
  -7  -6 -11   20.43    0.67
   7   6  11   21.92    0.63
   7   6  11   21.90    0.62
   2  -7 -11    1.05    0.14
  -2   7  11    1.32    0.18
  -2   7  11    1.29    0.13
   1  -7 -11    8.49    0.33
  -1   7  11    9.06    0.36
  -1   7  11    9.36    0.33
   0  -7 -11    6.01    0.29
   0  -7 -11    6.32    0.29
   0   7  11    6.02    0.27
   0   7  11    5.69    0.28
  -1  -7 -11    0.80    0.14
  -1  -7 -11    1.04    0.11
   1   7  11    0.95    0.12
   1   7  11    1.08    0.13
   1   7  11    1.08    0.14
  -2  -7 -11    0.82    0.11
  -2  -7 -11    0.77    0.15
   2   7  11    0.86    0.11
   2   7  11    0.90    0.13
   2   7  11    0.98    0.14
  -3  -7 -11   20.54    0.58
  -3  -7 -11   21.99    0.61
   3   7  11   21.27    0.59
   3   7  11   21.14    0.60
   3   7  11   20.68    0.56
  -4  -7 -11    1.37    0.18
  -4  -7 -11    1.71    0.19
   4   7  11    1.57    0.17
   4   7  11    1.69    0.18
   4   7  11    1.47    0.16
  -5  -7 -11    7.49    0.39
  -5  -7 -11    8.64    0.36
   5   7  11    9.18    0.36
   5   7  11    9.20    0.36
   5   7  11    9.03    0.37
  -6  -7 -11    7.66    0.40
  -6  -7 -11    7.70    0.39
   6   7  11    7.56    0.36
   6   7  11    8.41    0.38
   1  -8 -11    5.34    0.35
   1  -8 -11    5.28    0.28
  -1   8  11    5.79    0.30
  -1   8  11    6.08    0.27
   0  -8 -11    3.17    0.25
   0  -8 -11    3.11    0.26
   0   8  11    3.18    0.24
   0   8  11    3.07    0.22
  -1  -8 -11    0.10    0.10
  -1  -8 -11    0.20    0.13
   1   8  11    0.10    0.10
   1   8  11    0.02    0.11
   1   8  11    0.15    0.10
  -2  -8 -11   10.86    0.42
  -2  -8 -11   10.68    0.37
   2   8  11   10.30    0.36
   2   8  11   10.61    0.38
   2   8  11   10.87    0.39
  -3  -8 -11    1.97    0.19
  -3  -8 -11    1.48    0.19
   3   8  11    1.57    0.16
   3   8  11    1.51    0.15
   3   8  11    1.43    0.17
  -4  -8 -11   12.21    0.41
  -4  -8 -11   11.89    0.46
   4   8  11   11.39    0.41
   4   8  11   11.34    0.43
   4   8  11   12.49    0.44
  -5  -8 -11    0.89    0.15
  -5  -8 -11    1.15    0.20
   5   8  11    1.06    0.18
   5   8  11    1.24    0.17
   5   8  11    1.36    0.18
  -6  -8 -11    0.92    0.21
  -6  -8 -11    1.32    0.19
   6   8  11    1.67    0.22
   6   8  11    1.17    0.20
   6   8  11    1.43    0.19
  -1   9  11    3.99    0.24
   0  -9 -11    4.84    0.31
   0  -9 -11    5.23    0.32
   0   9  11    4.75    0.28
   0   9  11    4.93    0.28
  -1  -9 -11    3.85    0.27
  -1  -9 -11    4.07    0.32
   1   9  11    3.71    0.26
   1   9  11    3.46    0.26
   1   9  11    3.71    0.24
  -2  -9 -11    0.25    0.16
  -2  -9 -11    0.15    0.11
   2   9  11    0.19    0.13
   2   9  11   -0.09    0.12
   2   9  11    0.20    0.13
  -3  -9 -11   16.52    0.55
  -3  -9 -11   15.08    0.48
   3   9  11   16.24    0.49
   3   9  11   15.49    0.52
   3   9  11   16.56    0.53
  -4  -9 -11    0.21    0.18
  -4  -9 -11    0.26    0.11
   4   9  11    0.12    0.14
   4   9  11    0.00    0.14
   4   9  11    0.20    0.14
  -5  -9 -11    0.07    0.20
  -5  -9 -11    0.16    0.14
   5   9  11   -0.08    0.15
   5   9  11   -0.02    0.16
   5   9  11    0.54    0.16
  -1 -10 -11    2.37    0.21
  -1 -10 -11    2.40    0.25
   1  10  11    2.09    0.21
   1  10  11    2.65    0.25
   1  10  11    2.65    0.27
  -2 -10 -11   19.38    0.60
  -2 -10 -11   20.24    0.65
   2  10  11   19.59    0.63
   2  10  11   20.35    0.56
   2  10  11   20.41    0.61
  -3 -10 -11    0.70    0.14
  -3 -10 -11    0.76    0.22
   3  10  11    0.72    0.16
   3  10  11    0.41    0.17
   3  10  11    0.60    0.17
  -4 -10 -11    3.43    0.30
   4  10  11    4.19    0.35
   4  10  11    3.27    0.32
   4  10  11    3.96    0.32
  -2   4 -12    0.55    0.22
   2  -4  12    0.40    0.22
   2  -4  12    0.41    0.17
  -3   4 -12    0.24    0.21
   3  -4  12    0.26    0.18
   3  -4  12   -0.06    0.19
   0   3 -12   21.70    0.67
   0   3 -12   22.18    0.67
   0  -3  12   22.57    0.70
   0  -3  12   23.63    0.65
  -1   3 -12   -0.01    0.13
  -1   3 -12    0.21    0.17
   1  -3  12    0.24    0.18
   1  -3  12    0.24    0.15
  -2   3 -12    3.96    0.28
  -2   3 -12    4.18    0.34
   2  -3  12    3.69    0.35
   2  -3  12    4.37    0.31
  -3   3 -12    8.95    0.35
  -3   3 -12    8.75    0.43
   3  -3  12   10.05    0.42
   3  -3  12    9.59    0.43
  -4   3 -12    0.43    0.18
  -4   3 -12    0.49    0.13
   4  -3  12    0.33    0.16
   4  -3  12    0.31    0.17
  -5   3 -12    2.94    0.29
  -5   3 -12    2.62    0.27
   5  -3  12    3.48    0.35
   5  -3  12    3.20    0.28
   1   2 -12    6.57    0.38
  -1  -2  12    5.86    0.28
  -1  -2  12    5.51    0.42
  -1  -2  12    5.64    0.38
   0   2 -12   -0.08    0.14
   0   2 -12    0.04    0.14
   0  -2  12   -0.10    0.11
   0  -2  12   -0.20    0.17
  -1   2 -12   10.55    0.41
  -1   2 -12   12.04    0.45
   1  -2  12   11.98    0.42
   1  -2  12   11.31    0.46
  -2   2 -12    2.09    0.21
  -2   2 -12    1.82    0.16
   2  -2  12    2.02    0.20
   2  -2  12    2.01    0.19
  -3   2 -12    2.01    0.22
  -3   2 -12    2.31    0.21
   3  -2  12    2.06    0.21
   3  -2  12    2.05    0.20
  -4   2 -12   10.44    0.45
  -4   2 -12    9.84    0.37
   4  -2  12   11.56    0.44
   4  -2  12   10.59    0.41
  -5   2 -12   -0.08    0.12
  -5   2 -12    0.23    0.14
  -5   2 -12    0.29    0.18
   5  -2  12    0.17    0.13
   5  -2  12    0.17    0.17
   1   1 -12    0.96    0.14
   1   1 -12    1.24    0.19
  -1  -1  12    1.25    0.13
  -1  -1  12    1.05    0.21
  -1  -1  12    1.17    0.19
   0   1 -12    4.44    0.28
   0   1 -12    4.71    0.30
   0  -1  12    4.70    0.35
   0  -1  12    4.86    0.25
  -1   1 -12    0.12    0.13
  -1   1 -12   -0.16    0.11
   1  -1  12   -0.05    0.11
   1  -1  12   -0.18    0.14
  -2   1 -12    3.11    0.28
  -2   1 -12    3.26    0.23
   2  -1  12    2.84    0.25
   2  -1  12    3.06    0.28
  -3   1 -12   28.94    0.78
  -3   1 -12   30.38    0.76
   3  -1  12   29.79    0.78
   3  -1  12   30.09    0.78
  -4   1 -12    4.78    0.24
  -4   1 -12    4.06    0.32
   4  -1  12    4.40    0.27
   4  -1  12    4.14    0.30
  -5   1 -12    6.24    0.29
  -5   1 -12    5.93    0.32
  -5   1 -12    6.28    0.37
   5  -1  12    6.47    0.35
   5  -1  12    5.39    0.29
  -6   1 -12    1.20    0.21
  -6   1 -12    1.18    0.17
  -6   1 -12    1.16    0.15
   6  -1  12    1.30    0.20
   6  -1  12    1.09    0.13
   2   0 -12    0.93    0.19
  -2   0  12    0.99    0.21
  -2   0  12    1.15    0.22
  -2   0  12    0.87    0.12
   1   0 -12    9.48    0.36
   1   0 -12   11.13    0.42
  -1   0  12   10.95    0.36
  -1   0  12   10.58    0.45
  -1   0  12   11.23    0.43
   0   0 -12    0.08    0.12
   0   0 -12    0.23    0.12
   0   0  12    0.19    0.09
   0   0  12    0.07    0.13
   0   0  12    0.03    0.15
  -1   0 -12    2.48    0.23
  -1   0 -12    2.70    0.25
   1   0  12    2.05    0.21
  -2   0 -12    6.11    0.28
  -2   0 -12    5.42    0.32
   2   0  12    6.04    0.29
  -3   0 -12    8.21    0.32
  -3   0 -12    8.47    0.38
   3   0  12    8.62    0.35
  -4   0 -12   15.08    0.48
  -4   0 -12   15.84    0.51
  -4   0 -12   15.00    0.45
   4   0  12   14.54    0.48
  -5   0 -12    1.33    0.20
  -5   0 -12    0.98    0.16
  -5   0 -12    0.95    0.11
   5   0  12    1.29    0.17
  -6   0 -12   35.56    0.89
  -6   0 -12   37.03    0.92
  -6   0 -12   35.67    0.89
   6   0  12   37.56    0.91
   6   0  12   35.00    0.88
   6   0  12   36.61    0.91
   2  -1 -12    5.41    0.27
   2  -1 -12    5.73    0.33
  -2   1  12    5.64    0.26
  -2   1  12    4.79    0.38
  -2   1  12    5.23    0.36
   1  -1 -12    1.12    0.17
   1  -1 -12    1.15    0.13
  -1   1  12    1.35    0.13
  -1   1  12    1.25    0.18
   0  -1 -12    0.51    0.13
   0  -1 -12    0.39    0.12
   0   1  12    0.57    0.15
   0   1  12    0.39    0.10
  -1  -1 -12    8.80    0.33
  -1  -1 -12    8.93    0.35
   1   1  12    8.33    0.33
  -2  -1 -12    2.28    0.19
  -2  -1 -12    2.20    0.20
   2   1  12    2.42    0.21
  -3  -1 -12   10.87    0.37
  -3  -1 -12   11.24    0.41
   3   1  12   10.38    0.38
  -4  -1 -12    0.13    0.08
  -4  -1 -12    0.18    0.11
  -4  -1 -12    0.14    0.14
   4   1  12    0.01    0.11
  -5  -1 -12    9.17    0.36
  -5  -1 -12    8.33    0.39
  -5  -1 -12    9.09    0.32
   5   1  12    8.92    0.37
   5   1  12    8.94    0.34
  -6  -1 -12    0.40    0.11
  -6  -1 -12    0.15    0.14
  -6  -1 -12   -0.09    0.17
   6   1  12   -0.06    0.11
   6   1  12   -0.16    0.14
  -7  -1 -12   19.37    0.61
  -7  -1 -12   17.87    0.57
   7   1  12   18.75    0.58
   7   1  12   18.29    0.56
   2  -2 -12    1.03    0.17
   2  -2 -12    0.69    0.12
  -2   2  12    0.85    0.11
  -2   2  12    0.68    0.19
   1  -2 -12    1.53    0.17
   1  -2 -12    1.45    0.14
  -1   2  12    1.38    0.13
  -1   2  12    1.26    0.18
   0  -2 -12    1.75    0.16
   0  -2 -12    2.37    0.22
   0   2  12    2.15    0.24
   0   2  12    2.18    0.18
  -1  -2 -12    4.95    0.25
  -1  -2 -12    5.07    0.27
   1   2  12    4.81    0.25
  -2  -2 -12    2.73    0.22
  -2  -2 -12    2.48    0.24
   2   2  12    2.43    0.21
  -3  -2 -12   11.79    0.42
  -3  -2 -12   11.78    0.37
   3   2  12   10.45    0.39
  -4  -2 -12    3.41    0.21
  -4  -2 -12    3.70    0.26
  -4  -2 -12    3.92    0.29
   4   2  12    3.46    0.23
   4   2  12    3.70    0.25
  -5  -2 -12    2.02    0.19
  -5  -2 -12    2.12    0.20
  -5  -2 -12    1.59    0.14
   5   2  12    2.04    0.22
   5   2  12    1.55    0.17
  -6  -2 -12   12.50    0.45
  -6  -2 -12   12.26    0.40
  -6  -2 -12   12.45    0.46
   6   2  12   12.42    0.44
   6   2  12   12.48    0.42
  -7  -2 -12    1.13    0.22
  -7  -2 -12    1.26    0.20
   7   2  12    0.97    0.15
   7   2  12    1.39    0.20
   2  -3 -12    2.27    0.18
   2  -3 -12    1.81    0.15
  -2   3  12    2.01    0.23
  -2   3  12    2.04    0.19
   1  -3 -12    1.69    0.14
   1  -3 -12    1.60    0.16
  -1   3  12    2.00    0.17
  -1   3  12    1.98    0.20
   0  -3 -12    3.11    0.23
   0  -3 -12    3.40    0.23
   0   3  12    3.24    0.25
   0   3  12    3.37    0.21
  -1  -3 -12    5.95    0.28
  -1  -3 -12    5.90    0.29
   1   3  12    5.98    0.28
   1   3  12    5.88    0.28
  -2  -3 -12    6.28    0.31
  -2  -3 -12    6.41    0.27
   2   3  12    6.22    0.29
  -3  -3 -12    0.23    0.11
  -3  -3 -12    0.16    0.13
  -3  -3 -12    0.15    0.10
   3   3  12    0.04    0.10
   3   3  12    0.18    0.11
  -4  -3 -12    0.07    0.09
  -4  -3 -12   -0.03    0.11
  -4  -3 -12    0.06    0.14
   4   3  12   -0.12    0.10
   4   3  12    0.06    0.11
  -5  -3 -12   27.28    0.73
  -5  -3 -12   26.71    0.70
  -5  -3 -12   28.10    0.74
   5   3  12   27.53    0.72
   5   3  12   28.15    0.72
  -6  -3 -12    4.25    0.30
  -6  -3 -12    4.32    0.24
  -6  -3 -12    4.35    0.33
   6   3  12    4.35    0.30
   6   3  12    3.98    0.26
  -7  -3 -12    1.64    0.22
  -7  -3 -12    1.49    0.16
  -7  -3 -12    1.40    0.22
   7   3  12    1.71    0.21
   7   3  12    1.33    0.15
   2  -4 -12    1.45    0.16
   2  -4 -12    1.08    0.13
  -2   4  12    1.31    0.21
  -2   4  12    1.05    0.12
   1  -4 -12    0.81    0.13
   1  -4 -12    0.86    0.12
  -1   4  12    0.72    0.11
  -1   4  12    0.70    0.16
   0  -4 -12    1.07    0.13
   0  -4 -12    1.12    0.14
   0   4  12    1.25    0.16
   0   4  12    0.93    0.13
  -1  -4 -12   25.63    0.64
  -1  -4 -12   25.45    0.68
   1   4  12   25.87    0.67
   1   4  12   24.95    0.70
  -2  -4 -12    0.51    0.12
  -2  -4 -12    0.35    0.12
   2   4  12    0.62    0.12
   2   4  12    0.52    0.10
  -3  -4 -12    0.11    0.10
  -3  -4 -12    0.02    0.12
  -3  -4 -12   -0.01    0.09
   3   4  12    0.06    0.10
   3   4  12    0.09    0.11
  -4  -4 -12   12.30    0.40
  -4  -4 -12   12.97    0.45
  -4  -4 -12   12.74    0.43
   4   4  12   12.71    0.42
   4   4  12   12.77    0.42
  -5  -4 -12    6.10    0.32
  -5  -4 -12    5.27    0.27
  -5  -4 -12    5.47    0.33
   5   4  12    5.66    0.31
   5   4  12    5.44    0.29
  -6  -4 -12    1.69    0.20
  -6  -4 -12    1.46    0.19
  -6  -4 -12    1.28    0.15
   6   4  12    1.79    0.17
   6   4  12    1.84    0.19
  -7  -4 -12    3.92    0.35
  -7  -4 -12    3.59    0.28
  -7  -4 -12    3.71    0.36
   7   4  12    3.87    0.27
   7   4  12    3.59    0.32
   2  -5 -12    0.33    0.13
  -2   5  12    0.32    0.11
  -2   5  12    0.18    0.18
   1  -5 -12    0.03    0.11
   1  -5 -12    0.19    0.11
  -1   5  12   -0.01    0.09
  -1   5  12   -0.14    0.13
   0  -5 -12   13.02    0.38
   0  -5 -12   12.53    0.42
   0   5  12   12.10    0.43
   0   5  12   12.67    0.41
  -1  -5 -12    3.49    0.27
  -1  -5 -12    3.85    0.23
   1   5  12    3.45    0.22
   1   5  12    3.45    0.24
  -2  -5 -12    1.54    0.14
  -2  -5 -12    1.35    0.17
  -2  -5 -12    1.45    0.15
   2   5  12    1.44    0.15
   2   5  12    1.45    0.14
   2   5  12    1.52    0.15
  -3  -5 -12    8.79    0.33
  -3  -5 -12    9.42    0.38
  -3  -5 -12    8.17    0.34
   3   5  12    9.01    0.34
   3   5  12    9.11    0.35
  -4  -5 -12    4.80    0.28
  -4  -5 -12    4.53    0.32
  -4  -5 -12    4.76    0.26
   4   5  12    4.96    0.29
   4   5  12    4.64    0.28
  -5  -5 -12    6.23    0.31
  -5  -5 -12    6.62    0.33
  -5  -5 -12    6.70    0.36
   5   5  12    6.87    0.34
   5   5  12    7.36    0.32
  -6  -5 -12   -0.17    0.14
  -6  -5 -12    0.01    0.16
  -6  -5 -12    0.21    0.13
   6   5  12    0.10    0.12
   6   5  12    0.34    0.15
   1  -6 -12    4.24    0.26
   1  -6 -12    4.22    0.24
  -1   6  12    3.58    0.30
  -1   6  12    3.84    0.23
   0  -6 -12    4.01    0.28
   0  -6 -12    4.30    0.24
   0   6  12    4.63    0.25
   0   6  12    3.95    0.25
  -1  -6 -12    1.65    0.18
  -1  -6 -12    1.49    0.15
  -1  -6 -12    1.51    0.15
   1   6  12    1.53    0.15
   1   6  12    1.49    0.14
  -2  -6 -12    0.59    0.10
  -2  -6 -12    0.50    0.12
  -2  -6 -12    0.34    0.15
   2   6  12    0.54    0.13
   2   6  12    0.42    0.10
   2   6  12    0.63    0.13
  -3  -6 -12    8.26    0.34
  -3  -6 -12    8.18    0.38
  -3  -6 -12    8.33    0.33
   3   6  12    8.59    0.33
   3   6  12    8.24    0.34
   3   6  12    8.82    0.36
  -4  -6 -12   10.88    0.40
  -4  -6 -12   11.26    0.40
  -4  -6 -12   11.08    0.44
   4   6  12   11.29    0.42
   4   6  12   11.02    0.40
  -5  -6 -12    1.00    0.16
  -5  -6 -12    1.16    0.15
  -5  -6 -12    0.97    0.19
   5   6  12    1.05    0.17
   5   6  12    1.18    0.15
  -6  -6 -12    4.34    0.35
  -6  -6 -12    4.99    0.38
   6   6  12    5.12    0.31
   6   6  12    4.52    0.33
   1  -7 -12    0.63    0.14
  -1   7  12    0.82    0.12
  -1   7  12    0.86    0.16
   0  -7 -12    4.89    0.31
   0  -7 -12    4.73    0.28
   0   7  12    3.97    0.26
   0   7  12    4.74    0.26
  -1  -7 -12    0.27    0.15
  -1  -7 -12    0.09    0.10
  -1  -7 -12    0.14    0.11
   1   7  12   -0.19    0.10
   1   7  12    0.07    0.11
  -2  -7 -12    4.38    0.26
  -2  -7 -12    3.71    0.31
  -2  -7 -12    3.83    0.25
   2   7  12    3.90    0.23
   2   7  12    3.91    0.26
   2   7  12    3.83    0.27
  -3  -7 -12    3.56    0.23
  -3  -7 -12    3.79    0.32
   3   7  12    3.50    0.24
   3   7  12    3.25    0.26
   3   7  12    4.02    0.27
  -4  -7 -12   10.68    0.45
  -4  -7 -12   10.72    0.40
   4   7  12   10.95    0.42
   4   7  12   10.88    0.40
   4   7  12   10.78    0.41
  -5  -7 -12    3.82    0.36
  -5  -7 -12    3.63    0.28
   5   7  12    4.24    0.30
   5   7  12    3.43    0.30
   5   7  12    3.92    0.30
  -6  -7 -12    0.80    0.19
  -6  -7 -12    0.67    0.22
   6   7  12    0.65    0.16
   6   7  12    0.55    0.19
   0  -8 -12    4.46    0.30
   0  -8 -12    4.13    0.31
   0   8  12    4.45    0.29
   0   8  12    4.36    0.26
  -1  -8 -12    0.56    0.13
  -1  -8 -12    0.95    0.18
   1   8  12    0.65    0.12
   1   8  12    1.26    0.16
   1   8  12    1.24    0.15
  -2  -8 -12    2.99    0.31
  -2  -8 -12    2.18    0.23
   2   8  12    2.44    0.25
   2   8  12    2.62    0.22
   2   8  12    2.70    0.22
  -3  -8 -12    8.23    0.41
  -3  -8 -12    7.81    0.33
   3   8  12    8.28    0.35
   3   8  12    8.24    0.38
   3   8  12    8.00    0.35
  -4  -8 -12    0.40    0.12
  -4  -8 -12    0.51    0.19
   4   8  12    0.76    0.16
   4   8  12    0.96    0.18
   4   8  12    0.64    0.15
  -5  -8 -12    0.47    0.22
  -5  -8 -12    0.58    0.16
   5   8  12    0.57    0.17
   5   8  12    0.45    0.17
   5   8  12    0.50    0.16
  -1  -9 -12   -0.03    0.15
  -1  -9 -12    0.36    0.18
   1   9  12    0.57    0.15
   1   9  12    0.30    0.14
  -2  -9 -12   17.20    0.59
  -2  -9 -12   16.61    0.53
   2   9  12   16.97    0.51
   2   9  12   16.06    0.55
   2   9  12   17.64    0.56
  -3  -9 -12   -0.19    0.14
  -3  -9 -12    0.14    0.19
   3   9  12    0.18    0.15
   3   9  12   -0.33    0.14
   3   9  12    0.20    0.15
  -4  -9 -12    1.78    0.25
   4   9  12    1.60    0.20
   4   9  12    1.67    0.22
   4   9  12    1.91    0.23
  -2   2 -13    0.73    0.16
  -2   2 -13    0.87    0.21
   2  -2  13    0.68    0.17
   2  -2  13    0.74    0.22
  -3   2 -13    9.62    0.48
  -3   2 -13    9.76    0.39
   3  -2  13    9.31    0.43
   3  -2  13    9.52    0.46
  -1   1 -13    1.31    0.20
  -1   1 -13    1.53    0.21
   1  -1  13    1.37    0.17
   1  -1  13    1.55    0.23
  -2   1 -13   11.33    0.42
  -2   1 -13   11.27    0.47
   2  -1  13   11.17    0.44
   2  -1  13   10.58    0.47
  -3   1 -13    2.72    0.25
  -3   1 -13    2.43    0.25
   3  -1  13    2.93    0.30
   3  -1  13    2.80    0.25
  -4   1 -13   13.09    0.52
  -4   1 -13   12.55    0.43
   4  -1  13   13.13    0.49
   4  -1  13   12.30    0.47
  -5   1 -13    2.65    0.28
  -5   1 -13    3.06    0.32
   5  -1  13    2.37    0.22
   5  -1  13    2.54    0.24
   0   0 -13    1.30    0.17
   0   0 -13    1.27    0.19
   0   0  13    1.58    0.21
   0   0  13    1.14    0.22
   0   0  13    1.69    0.16
  -1   0 -13    5.18    0.34
  -1   0 -13    6.11    0.34
   1   0  13    5.15    0.37
   1   0  13    5.35    0.30
  -2   0 -13    0.15    0.16
  -2   0 -13    0.15    0.13
   2   0  13   -0.03    0.12
   2   0  13    0.11    0.16
  -3   0 -13    9.00    0.36
  -3   0 -13    9.60    0.42
   3   0  13    8.96    0.40
   3   0  13    9.09    0.39
  -4   0 -13    0.31    0.15
  -4   0 -13    0.49    0.19
  -4   0 -13    0.11    0.12
   4   0  13    0.34    0.15
   4   0  13    0.15    0.14
  -5   0 -13    8.70    0.45
  -5   0 -13    8.49    0.40
   5   0  13    8.34    0.36
   5   0  13    8.86    0.41
   0  -1 -13    0.15    0.15
   0  -1 -13    0.05    0.13
   0   1  13    0.21    0.11
   0   1  13    0.13    0.16
  -1  -1 -13    3.01    0.29
  -1  -1 -13    2.50    0.26
   1   1  13    2.00    0.18
  -2  -1 -13    6.18    0.32
  -2  -1 -13    5.67    0.36
   2   1  13    6.37    0.31
  -3  -1 -13    3.45    0.32
  -3  -1 -13    2.88    0.25
   3   1  13    2.87    0.26
  -4  -1 -13    0.59    0.16
  -4  -1 -13    0.75    0.19
  -4  -1 -13    0.63    0.13
   4   1  13    0.39    0.15
  -5  -1 -13    3.01    0.23
  -5  -1 -13    2.97    0.26
  -5  -1 -13    3.12    0.31
   5   1  13    2.80    0.29
   5   1  13    3.04    0.26
  -6  -1 -13    9.52    0.43
  -6  -1 -13   10.02    0.47
   6   1  13    9.42    0.38
   6   1  13    8.83    0.42
   1  -2 -13    0.25    0.16
  -1   2  13   -0.02    0.17
  -1   2  13    0.23    0.11
   0  -2 -13    1.13    0.17
   0  -2 -13    1.10    0.16
   0   2  13    0.97    0.13
   0   2  13    0.88    0.18
  -1  -2 -13    6.34    0.34
  -1  -2 -13    6.75    0.32
   1   2  13    7.02    0.34
   1   2  13    6.87    0.31
  -2  -2 -13    9.97    0.38
  -2  -2 -13    9.17    0.40
   2   2  13    9.81    0.38
  -3  -2 -13    0.80    0.17
  -3  -2 -13    1.00    0.14
   3   2  13    1.15    0.16
  -4  -2 -13    0.13    0.11
  -4  -2 -13    0.11    0.14
  -4  -2 -13   -0.12    0.16
   4   2  13   -0.03    0.13
  -5  -2 -13   11.41    0.41
  -5  -2 -13   12.88    0.46
  -5  -2 -13   12.81    0.49
   5   2  13   12.41    0.46
   5   2  13   13.09    0.44
  -6  -2 -13    4.41    0.40
  -6  -2 -13    5.08    0.35
  -6  -2 -13    4.19    0.28
   6   2  13    5.00    0.34
   6   2  13    4.86    0.30
   1  -3 -13    1.54    0.19
  -1   3  13    2.05    0.20
  -1   3  13    1.27    0.21
   0  -3 -13    6.69    0.33
   0  -3 -13    6.66    0.33
   0   3  13    6.87    0.30
   0   3  13    6.58    0.36
  -1  -3 -13   13.12    0.43
  -1  -3 -13   13.06    0.46
   1   3  13   12.84    0.43
   1   3  13   12.78    0.46
  -2  -3 -13    0.10    0.12
  -2  -3 -13   -0.12    0.14
   2   3  13    0.01    0.12
  -3  -3 -13    2.11    0.18
  -3  -3 -13    1.64    0.17
  -3  -3 -13    2.01    0.21
   3   3  13    2.34    0.24
  -4  -3 -13   11.49    0.44
  -4  -3 -13   11.01    0.45
  -4  -3 -13   10.82    0.39
   4   3  13   11.22    0.41
   4   3  13   11.20    0.42
  -5  -3 -13    0.02    0.12
  -5  -3 -13    0.07    0.17
  -5  -3 -13    0.19    0.15
   5   3  13    0.16    0.14
   5   3  13    0.16    0.13
  -6  -3 -13    0.89    0.14
  -6  -3 -13    0.86    0.21
  -6  -3 -13    0.75    0.18
   6   3  13    0.95    0.18
   6   3  13    1.28    0.16
  -1   4  13    1.82    0.22
  -1   4  13    1.85    0.15
   0  -4 -13   13.64    0.48
   0  -4 -13   14.89    0.45
   0   4  13   14.51    0.51
   0   4  13   14.13    0.45
  -1  -4 -13    0.42    0.16
  -1  -4 -13    0.73    0.14
   1   4  13    0.63    0.13
   1   4  13    0.49    0.12
  -2  -4 -13    2.30    0.24
  -2  -4 -13    2.22    0.21
   2   4  13    2.48    0.24
   2   4  13    2.44    0.21
  -3  -4 -13    3.41    0.32
  -3  -4 -13    4.26    0.27
  -3  -4 -13    3.68    0.27
   3   4  13    4.38    0.28
   3   4  13    3.59    0.29
  -4  -4 -13    2.88    0.25
  -4  -4 -13    2.76    0.27
  -4  -4 -13    2.59    0.23
   4   4  13    3.50    0.28
   4   4  13    3.04    0.27
  -5  -4 -13   16.93    0.52
  -5  -4 -13   16.55    0.57
  -5  -4 -13   16.20    0.55
   5   4  13   17.21    0.55
   5   4  13   16.99    0.53
  -6  -4 -13   -0.20    0.16
  -6  -4 -13    0.24    0.14
  -6  -4 -13    0.07    0.19
   6   4  13    0.01    0.13
   6   4  13    0.10    0.17
   0  -5 -13    0.04    0.14
   0  -5 -13    0.23    0.13
   0   5  13   -0.27    0.11
   0   5  13   -0.04    0.13
  -1  -5 -13    6.41    0.35
  -1  -5 -13    6.82    0.31
   1   5  13    6.81    0.33
   1   5  13    6.66    0.32
  -2  -5 -13    3.55    0.27
  -2  -5 -13    3.76    0.25
  -2  -5 -13    3.39    0.31
   2   5  13    4.16    0.28
   2   5  13    3.38    0.23
  -3  -5 -13    0.45    0.17
  -3  -5 -13    0.54    0.13
  -3  -5 -13    0.11    0.13
   3   5  13    0.22    0.14
   3   5  13    0.30    0.11
   3   5  13    0.39    0.14
  -4  -5 -13   20.26    0.63
  -4  -5 -13   19.68    0.58
  -4  -5 -13   19.70    0.61
   4   5  13   20.35    0.59
   4   5  13   20.66    0.61
  -5  -5 -13    1.47    0.22
  -5  -5 -13    1.63    0.19
  -5  -5 -13    1.50    0.20
   5   5  13    1.19    0.20
   5   5  13    1.36    0.19
  -6  -5 -13    5.26    0.33
  -6  -5 -13    5.78    0.38
  -6  -5 -13    5.85    0.41
   6   5  13    5.68    0.37
   6   5  13    5.71    0.35
   0  -6 -13   10.35    0.44
   0  -6 -13   10.55    0.38
   0   6  13   10.64    0.39
   0   6  13   10.11    0.42
  -1  -6 -13    0.00    0.15
  -1  -6 -13   -0.03    0.12
  -1  -6 -13   -0.08    0.13
   1   6  13   -0.25    0.11
   1   6  13    0.03    0.12
  -2  -6 -13    2.16    0.22
  -2  -6 -13    2.00    0.18
  -2  -6 -13    1.99    0.21
   2   6  13    2.36    0.25
   2   6  13    1.84    0.17
   2   6  13    1.59    0.18
  -3  -6 -13   15.91    0.49
  -3  -6 -13   15.14    0.49
  -3  -6 -13   15.55    0.54
   3   6  13   14.69    0.49
   3   6  13   15.90    0.52
   3   6  13   15.64    0.50
  -4  -6 -13    1.65    0.19
  -4  -6 -13    1.71    0.22
  -4  -6 -13    1.49    0.17
   4   6  13    1.86    0.20
   4   6  13    1.71    0.20
   4   6  13    1.74    0.17
  -5  -6 -13    5.69    0.34
  -5  -6 -13    5.54    0.41
  -5  -6 -13    4.87    0.34
   5   6  13    5.75    0.36
   5   6  13    4.95    0.34
  -1  -7 -13    0.41    0.15
  -1  -7 -13    0.01    0.13
  -1  -7 -13    0.38    0.18
   1   7  13   -0.05    0.13
   1   7  13    0.15    0.13
  -2  -7 -13    9.43    0.37
  -2  -7 -13    8.09    0.36
  -2  -7 -13    8.82    0.44
   2   7  13    8.45    0.35
   2   7  13    8.72    0.37
   2   7  13    8.92    0.39
  -3  -7 -13    4.96    0.31
  -3  -7 -13    4.37    0.38
  -3  -7 -13    3.91    0.28
   3   7  13    4.81    0.31
   3   7  13    4.05    0.27
   3   7  13    4.54    0.32
  -4  -7 -13    9.52    0.41
  -4  -7 -13   10.23    0.48
   4   7  13   10.41    0.43
   4   7  13    9.95    0.41
   4   7  13   10.21    0.42
  -2  -8 -13    1.83    0.24
   2   8  13    1.27    0.18
   2   8  13    1.47    0.20
  -3  -8 -13    1.30    0.24
   3   8  13    1.72    0.21
   3   8  13    1.80    0.20
   3   8  13    1.60    0.21
  -2  -1 -14   -0.04    0.16
  -2  -1 -14    0.09    0.19
   2   1  14   -0.04    0.14
  -3  -1 -14    0.62    0.17
  -3  -1 -14    0.57    0.22
   3   1  14    0.65    0.18
  -2  -2 -14    0.91    0.20
  -2  -2 -14    0.92    0.17
   2   2  14    0.99    0.17
  -3  -2 -14    0.72    0.21
  -3  -2 -14    0.36    0.15
   3   2  14    0.57    0.15
  -4  -2 -14    1.65    0.18
  -4  -2 -14    2.07    0.26
  -4  -2 -14    1.93    0.23
   4   2  14    1.60    0.21
  -1  -3 -14    0.06    0.17
   1   3  14    0.12    0.17
   1   3  14    0.53    0.15
  -2  -3 -14    2.85    0.23
  -2  -3 -14    2.82    0.26
   2   3  14    2.67    0.28
   2   3  14    3.10    0.28
  -3  -3 -14    0.98    0.17
  -3  -3 -14    1.33    0.22
  -3  -3 -14    0.83    0.18
   3   3  14    1.27    0.18
  -4  -3 -14    1.22    0.20
  -4  -3 -14    0.86    0.16
  -4  -3 -14    1.20    0.23
   4   3  14    0.85    0.19
  -2  -4 -14    2.18    0.20
  -2  -4 -14    2.02    0.23
   2   4  14    1.46    0.17
   2   4  14    2.26    0.21
  -3  -4 -14    0.01    0.14
  -3  -4 -14    0.19    0.14
  -3  -4 -14   -0.23    0.18
   3   4  14    0.30    0.15
  -4  -4 -14   18.82    0.63
  -4  -4 -14   18.74    0.63
  -4  -4 -14   18.70    0.59
   4   4  14   19.33    0.60
   4   4  14   20.39    0.61
  -2  -5 -14    1.63    0.20
  -2  -5 -14    1.65    0.20
  -2  -5 -14    1.32    0.22
   2   5  14    1.27    0.17
   2   5  14    1.40    0.19
  -3  -5 -14   12.28    0.52
  -3  -5 -14   10.55    0.43
  -3  -5 -14   11.46    0.46
   3   5  14   12.00    0.47
  -4  -5 -14    0.26    0.17
  -4  -5 -14    0.12    0.17
  -4  -5 -14    0.30    0.22
   4   5  14    0.43    0.18
   4   5  14    0.49    0.17
   0   0   0    0.00    0.00
;
_shelx_hkl_checksum              18334
loop_
_space_group_symop_operation_xyz
'x, y, z'
'-x, -y, -z'
loop_
_atom_site_label
_atom_site_type_symbol
_atom_site_fract_x
_atom_site_fract_y
_atom_site_fract_z
_atom_site_U_iso_or_equiv
_atom_site_adp_type
_atom_site_occupancy
_atom_site_site_symmetry_order
_atom_site_calc_flag
_atom_site_refinement_flags_posn
_atom_site_refinement_flags_adp
_atom_site_refinement_flags_occupancy
_atom_site_disorder_assembly
_atom_site_disorder_group
C1 C 0.1478(3) 0.2414(2) 0.0644(2) 0.0282(4) Uani 1 1 d . . . . .
C2 C 0.1656(3) 0.2151(3) -0.0525(2) 0.0375(5) Uani 1 1 d . . . . .
H2 H 0.1214 0.1349 -0.0566 0.045 Uiso 1 1 calc R U . . .
C3 C 0.2493(4) 0.3087(3) -0.1620(2) 0.0459(6) Uani 1 1 d . . . . .
H3 H 0.2631 0.2909 -0.2401 0.055 Uiso 1 1 calc R U . . .
C4 C 0.3125(4) 0.4283(3) -0.1564(2) 0.0440(6) Uani 1 1 d . . . . .
H4 H 0.3662 0.4916 -0.2306 0.053 Uiso 1 1 calc R U . . .
C5 C 0.2965(3) 0.4547(2) -0.0408(2) 0.0369(5) Uani 1 1 d . . . . .
H5 H 0.3409 0.5353 -0.0379 0.044 Uiso 1 1 calc R U . . .
C6 C 0.2140(3) 0.3612(2) 0.0716(2) 0.0286(4) Uani 1 1 d . . . . .
C7 C 0.1704(3) 0.5074(2) 0.2041(2) 0.0297(4) Uani 1 1 d . . . . .
H7 H 0.1308 0.5673 0.1413 0.036 Uiso 1 1 calc R U . . .
C10 C 0.6129(4) 0.1453(4) 0.0588(3) 0.0578(8) Uani 1 1 d . . . . .
H10A H 0.7424 0.1577 0.0077 0.087 Uiso 1 1 calc R U . . .
H10B H 0.5317 0.1751 0.0064 0.087 Uiso 1 1 calc R U . . .
H10C H 0.5911 0.0519 0.0991 0.087 Uiso 1 1 calc R U . . .
C11 C 0.1829(3) 0.5586(2) 0.3059(2) 0.0295(4) Uani 1 1 d . . . . .
C12 C 0.1178(4) 0.6917(2) 0.3096(2) 0.0381(5) Uani 1 1 d . . . . .
H12 H 0.0715 0.7420 0.2455 0.046 Uiso 1 1 calc R U . . .
C13 C 0.1217(4) 0.7470(2) 0.4049(3) 0.0435(6) Uani 1 1 d . . . . .
H13 H 0.0764 0.8337 0.4067 0.052 Uiso 1 1 calc R U . . .
C14 C 0.1943(4) 0.6724(3) 0.4998(2) 0.0432(6) Uani 1 1 d . . . . .
H14 H 0.1954 0.7095 0.5659 0.052 Uiso 1 1 calc R U . . .
C15 C 0.2644(4) 0.5448(2) 0.4972(2) 0.0375(5) Uani 1 1 d . . . . .
H15 H 0.3149 0.4977 0.5604 0.045 Uiso 1 1 calc R U . . .
C16 C 0.2608(3) 0.4841(2) 0.4003(2) 0.0292(4) Uani 1 1 d . . . . .
C21 C 0.4455(4) 0.1168(2) 0.5294(2) 0.0372(5) Uani 1 1 d . . . . .
H21 H 0.4090 0.1976 0.5529 0.045 Uiso 1 1 calc R U . . .
C22 C 0.5412(4) 0.0228(2) 0.5979(2) 0.0363(5) Uani 1 1 d . . . . .
H22 H 0.5680 0.0422 0.6658 0.044 Uiso 1 1 calc R U . . .
N1 N 0.2086(2) 0.38566(17) 0.18983(17) 0.0262(4) Uani 1 1 d . . . . .
N12 N 0.4041(3) 0.09510(18) 0.43089(17) 0.0278(4) Uani 1 1 d . . . . .
O1 O 0.3347(3) 0.36402(16) 0.40055(16) 0.0364(4) Uani 1 1 d . . . . .
O10 O 0.5738(3) 0.2208(2) 0.15210(18) 0.0429(4) Uani 1 1 d D . . . .
O11 O 0.1672(3) 0.09933(16) 0.28090(17) 0.0385(4) Uani 1 1 d . . . . .
O12 O -0.1400(2) 0.18080(19) 0.26353(17) 0.0417(4) Uani 1 1 d . . . . .
O13 O 0.0144(3) 0.00053(18) 0.16657(19) 0.0463(4) Uani 1 1 d . . . . .
S2 S 0.03574(8) 0.12026(5) 0.20333(5) 0.02989(14) Uani 1 1 d . . . . .
Cu1 Cu 0.29060(4) 0.24288(2) 0.31416(2) 0.02766(11) Uani 1 1 d . . . . .
H10 H 0.664(3) 0.213(3) 0.179(3) 0.041 Uiso 1 1 d D U . . .
loop_
_atom_site_aniso_label
_atom_site_aniso_U_11
_atom_site_aniso_U_22
_atom_site_aniso_U_33
_atom_site_aniso_U_23
_atom_site_aniso_U_13
_atom_site_aniso_U_12
C1 0.0282(10) 0.0309(11) 0.0306(10) -0.0090(8) -0.0158(8) 0.0049(8)
C2 0.0398(12) 0.0423(13) 0.0398(12) -0.0176(10) -0.0202(10) 0.0048(10)
C3 0.0463(14) 0.0662(18) 0.0307(12) -0.0169(12) -0.0158(10) 0.0031(12)
C4 0.0429(14) 0.0569(16) 0.0307(12) -0.0031(11) -0.0129(10) -0.0072(11)
C5 0.0387(12) 0.0372(12) 0.0363(12) -0.0027(10) -0.0173(10) -0.0034(10)
C6 0.0296(10) 0.0298(10) 0.0298(10) -0.0055(8) -0.0163(8) 0.0049(8)
C7 0.0330(11) 0.0253(10) 0.0329(11) -0.0028(8) -0.0170(9) 0.0030(8)
C10 0.0478(16) 0.075(2) 0.0585(18) -0.0288(16) -0.0209(14) 0.0175(15)
C11 0.0307(10) 0.0238(10) 0.0350(11) -0.0061(8) -0.0119(9) 0.0003(8)
C12 0.0420(13) 0.0266(11) 0.0482(14) -0.0076(10) -0.0189(11) 0.0040(9)
C13 0.0495(14) 0.0279(11) 0.0551(15) -0.0170(11) -0.0134(12) 0.0025(10)
C14 0.0530(15) 0.0399(13) 0.0401(13) -0.0193(11) -0.0093(11) -0.0067(11)
C15 0.0485(14) 0.0352(12) 0.0319(11) -0.0082(9) -0.0153(10) -0.0041(10)
C16 0.0320(11) 0.0259(10) 0.0302(10) -0.0067(8) -0.0093(8) -0.0022(8)
C21 0.0568(15) 0.0259(11) 0.0384(12) -0.0097(9) -0.0285(11) 0.0085(10)
C22 0.0560(15) 0.0278(11) 0.0367(12) -0.0075(9) -0.0315(11) 0.0042(10)
N1 0.0295(9) 0.0243(8) 0.0288(9) -0.0047(7) -0.0161(7) 0.0018(7)
N12 0.0349(9) 0.0234(8) 0.0295(9) -0.0022(7) -0.0195(7) 0.0014(7)
O1 0.0532(10) 0.0259(8) 0.0408(9) -0.0094(7) -0.0302(8) 0.0080(7)
O10 0.0346(9) 0.0493(10) 0.0480(10) -0.0135(8) -0.0178(8) 0.0089(8)
O11 0.0506(10) 0.0264(8) 0.0488(10) -0.0006(7) -0.0350(8) -0.0047(7)
O12 0.0356(9) 0.0530(11) 0.0402(9) -0.0147(8) -0.0137(7) -0.0009(8)
O13 0.0659(12) 0.0328(9) 0.0531(11) -0.0122(8) -0.0331(9) -0.0049(8)
S2 0.0349(3) 0.0268(3) 0.0351(3) -0.0071(2) -0.0203(2) -0.0018(2)
Cu1 0.03587(18) 0.02176(16) 0.03122(17) -0.00439(11) -0.02048(12) 0.00232(10)
loop_
_atom_type_symbol
_atom_type_description
_atom_type_scat_dispersion_real
_atom_type_scat_dispersion_imag
_atom_type_scat_source
C C 0.0033 0.0016 'International Tables Vol C Tables 4.2.6.8 and 6.1.1.4'
H H 0.0000 0.0000 'International Tables Vol C Tables 4.2.6.8 and 6.1.1.4'
N N 0.0061 0.0033 'International Tables Vol C Tables 4.2.6.8 and 6.1.1.4'
O O 0.0106 0.0060 'International Tables Vol C Tables 4.2.6.8 and 6.1.1.4'
S S 0.1246 0.1234 'International Tables Vol C Tables 4.2.6.8 and 6.1.1.4'
Cu Cu 0.3201 1.2651 'International Tables Vol C Tables 4.2.6.8 and 6.1.1.4'
loop_
_geom_angle_atom_site_label_1
_geom_angle_atom_site_label_2
_geom_angle_atom_site_label_3
_geom_angle
_geom_angle_site_symmetry_1
_geom_angle_site_symmetry_3
C6 C1 C2 120.6(2) . .
C6 C1 S2 120.92(16) . .
C2 C1 S2 118.43(18) . .
C3 C2 C1 119.6(2) . .
C3 C2 H2 120.2 . .
C1 C2 H2 120.2 . .
C4 C3 C2 120.4(2) . .
C4 C3 H3 119.8 . .
C2 C3 H3 119.8 . .
C3 C4 C5 120.3(2) . .
C3 C4 H4 119.8 . .
C5 C4 H4 119.8 . .
C4 C5 C6 120.5(2) . .
C4 C5 H5 119.7 . .
C6 C5 H5 119.7 . .
C1 C6 C5 118.5(2) . .
C1 C6 N1 121.30(19) . .
C5 C6 N1 120.1(2) . .
N1 C7 C11 126.8(2) . .
N1 C7 H7 116.6 . .
C11 C7 H7 116.6 . .
O10 C10 H10A 109.5 . .
O10 C10 H10B 109.5 . .
H10A C10 H10B 109.5 . .
O10 C10 H10C 109.5 . .
H10A C10 H10C 109.5 . .
H10B C10 H10C 109.5 . .
C16 C11 C12 119.3(2) . .
C16 C11 C7 122.86(19) . .
C12 C11 C7 117.8(2) . .
C13 C12 C11 121.4(2) . .
C13 C12 H12 119.3 . .
C11 C12 H12 119.3 . .
C12 C13 C14 119.3(2) . .
C12 C13 H13 120.3 . .
C14 C13 H13 120.3 . .
C15 C14 C13 120.9(2) . .
C15 C14 H14 119.5 . .
C13 C14 H14 119.5 . .
C14 C15 C16 121.2(2) . .
C14 C15 H15 119.4 . .
C16 C15 H15 119.4 . .
O1 C16 C15 118.5(2) . .
O1 C16 C11 123.66(19) . .
C15 C16 C11 117.8(2) . .
N12 C21 C22 121.9(2) . .
N12 C21 H21 119.1 . .
C22 C21 H21 119.1 . .
N12 C22 C21 121.7(2) 2_656 .
N12 C22 H22 119.2 2_656 .
C21 C22 H22 119.2 . .
C7 N1 C6 117.26(18) . .
C7 N1 Cu1 122.81(15) . .
C6 N1 Cu1 119.43(13) . .
C21 N12 C22 116.41(19) . 2_656
C21 N12 Cu1 122.40(15) . .
C22 N12 Cu1 120.79(15) 2_656 .
C16 O1 Cu1 126.70(14) . .
C10 O10 Cu1 130.41(18) . .
C10 O10 H10 108(2) . .
Cu1 O10 H10 110(2) . .
S2 O11 Cu1 125.43(10) . .
O13 S2 O12 114.62(12) . .
O13 S2 O11 111.61(10) . .
O12 S2 O11 111.22(11) . .
O13 S2 C1 107.75(11) . .
O12 S2 C1 106.16(10) . .
O11 S2 C1 104.78(10) . .
O1 Cu1 O11 158.97(8) . .
O1 Cu1 N1 93.29(7) . .
O11 Cu1 N1 93.59(7) . .
O1 Cu1 N12 87.26(7) . .
O11 Cu1 N12 87.94(7) . .
N1 Cu1 N12 174.06(7) . .
O1 Cu1 O10 108.15(7) . .
O11 Cu1 O10 91.87(7) . .
N1 Cu1 O10 88.54(7) . .
N12 Cu1 O10 85.66(7) . .
loop_
_geom_bond_atom_site_label_1
_geom_bond_atom_site_label_2
_geom_bond_distance
_geom_bond_site_symmetry_2
C1 C6 1.394(3) .
C1 C2 1.397(3) .
C1 S2 1.774(2) .
C2 C3 1.381(4) .
C2 H2 0.9300 .
C3 C4 1.376(4) .
C3 H3 0.9300 .
C4 C5 1.385(3) .
C4 H4 0.9300 .
C5 C6 1.398(3) .
C5 H5 0.9300 .
C6 N1 1.426(3) .
C7 N1 1.301(3) .
C7 C11 1.423(3) .
C7 H7 0.9300 .
C10 O10 1.419(3) .
C10 H10A 0.9600 .
C10 H10B 0.9600 .
C10 H10C 0.9600 .
C11 C16 1.413(3) .
C11 C12 1.420(3) .
C12 C13 1.359(4) .
C12 H12 0.9300 .
C13 C14 1.394(4) .
C13 H13 0.9300 .
C14 C15 1.376(4) .
C14 H14 0.9300 .
C15 C16 1.410(3) .
C15 H15 0.9300 .
C16 O1 1.309(3) .
C21 N12 1.331(3) .
C21 C22 1.383(3) .
C21 H21 0.9300 .
C22 N12 1.334(3) 2_656
C22 H22 0.9300 .
N1 Cu1 1.9769(17) .
N12 C22 1.334(3) 2_656
N12 Cu1 2.0709(17) .
O1 Cu1 1.8770(16) .
O10 Cu1 2.3760(18) .
O10 H10 0.811(18) .
O11 S2 1.4838(16) .
O11 Cu1 1.9733(16) .
O12 S2 1.4465(19) .
O13 S2 1.4327(18) .
loop_
_geom_hbond_atom_site_label_D
_geom_hbond_atom_site_label_H
_geom_hbond_atom_site_label_A
_geom_hbond_distance_DH
_geom_hbond_distance_HA
_geom_hbond_distance_DA
_geom_hbond_angle_DHA
_geom_hbond_site_symmetry_A
O10 H10 O12 0.811(18) 1.954(18) 2.760(3) 172(3) 1_655
O10 H10 S2 0.811(18) 2.92(2) 3.6864(18) 158(3) 1_655
