#------------------------------------------------------------------------------
#$Date: 2019-11-30 07:46:46 +0200 (Sat, 30 Nov 2019) $
#$Revision: 244835 $
#$URL: file:///home/coder/svn-repositories/cod/cif/1/55/64/1556408.cif $
#------------------------------------------------------------------------------
#
# This file is available in the Crystallography Open Database (COD),
# http://www.crystallography.net/. The original data for this entry
# were provided by IUCr Journals, http://journals.iucr.org/.
#
# The file may be used within the scientific community so long as
# proper attribution is given to the journal article from which the
# data were obtained.
#
data_1556408
loop_
_publ_author_name
'Malin, Artem V.'
'Ivlev, Sergei I.'
'Ostvald, Roman V.'
'Kraus, Florian'
_publ_section_title
;
 Rubidium tetrafluoridobromate(III): redetermination of the crystal
 structure from single-crystal X-ray diffraction data
;
_journal_coeditor_code           WM4118
_journal_issue                   11
_journal_name_full               IUCrData
_journal_paper_doi               10.1107/S2414314619015955
_journal_volume                  4
_journal_year                    2019
_chemical_formula_iupac          'Rb Br F4'
_chemical_formula_moiety         'Rb +, Br F4 -'
_chemical_formula_structural     'Rb (Br F4)'
_chemical_formula_sum            'Br F4 Rb'
_chemical_formula_weight         241.38
_chemical_name_common            'Rubidium tetrafluoridobromate(III)'
_chemical_name_systematic
;
Rubidium tetrafluoridobromate(III)
;
_space_group_crystal_system      tetragonal
_space_group_IT_number           140
_space_group_name_Hall           '-I 4 2c'
_space_group_name_H-M_alt        'I 4/m c m'
_atom_sites_solution_primary     direct
_audit_creation_method           SHELXL-2018/3
_cell_angle_alpha                90
_cell_angle_beta                 90
_cell_angle_gamma                90
_cell_formula_units_Z            4
_cell_length_a                   6.2991(5)
_cell_length_b                   6.2991(5)
_cell_length_c                   11.4659(10)
_cell_measurement_reflns_used    285
_cell_measurement_temperature    100
_cell_measurement_theta_max      31.30
_cell_measurement_theta_min      4.52
_cell_volume                     454.95(6)
_computing_cell_refinement
;
APEX3 (Bruker, 2018)
;
_computing_data_collection
;
APEX3 (Bruker, 2018)
;
_computing_data_reduction
;
APEX3 (Bruker, 2018)
;
_computing_molecular_graphics
;
DIAMOND (Brandenburg, 2018)
;
_computing_publication_material
;
publCIF (Westrip, 2010)
;
_computing_structure_refinement
;
SHELXL (Sheldrick, 2015b)
;
_computing_structure_solution
;
SHELXT (Sheldrick, 2015a)
;
_diffrn_ambient_temperature      100
_diffrn_detector                 'Bruker PHOTON 100 area detector'
_diffrn_detector_area_resol_mean 7.9
_diffrn_measured_fraction_theta_full 1.000
_diffrn_measured_fraction_theta_max 1.000
_diffrn_measurement_device       'three-circle diffractometer'
_diffrn_measurement_device_type  'Bruker D8 QUEST area detector'
_diffrn_measurement_method       '\w and \f scans'
_diffrn_radiation_type           MoK\a
_diffrn_radiation_wavelength     0.71073
_diffrn_reflns_av_R_equivalents  0.0702
_diffrn_reflns_av_unetI/netI     0.0255
_diffrn_reflns_limit_h_max       10
_diffrn_reflns_limit_h_min       -9
_diffrn_reflns_limit_k_max       10
_diffrn_reflns_limit_k_min       -9
_diffrn_reflns_limit_l_max       19
_diffrn_reflns_limit_l_min       -19
_diffrn_reflns_number            5872
_diffrn_reflns_theta_full        25.242
_diffrn_reflns_theta_max         36.312
_diffrn_reflns_theta_min         3.554
_diffrn_source                   'microfocus sealed X-ray tube'
_exptl_absorpt_coefficient_mu    19.612
_exptl_absorpt_correction_T_max  0.4803
_exptl_absorpt_correction_T_min  0.1505
_exptl_absorpt_correction_type   multi-scan
_exptl_absorpt_process_details
;
(<i>SADABS</i>; Krause <i>et al.</i>, 2015)
;
_exptl_crystal_colour            colorless
_exptl_crystal_density_diffrn    3.524
_exptl_crystal_density_meas      3.33
_exptl_crystal_density_method    'helium pycnometry'
_exptl_crystal_description       plate
_exptl_crystal_F_000             432
_exptl_crystal_size_max          0.188
_exptl_crystal_size_mid          0.145
_exptl_crystal_size_min          0.032
_refine_diff_density_max         0.663
_refine_diff_density_min         -0.726
_refine_ls_extinction_coef       0.0016(3)
_refine_ls_extinction_expression Fc^*^=kFc[1+0.001xFc^2^\l^3^/sin(2\q)]^-1/4^
_refine_ls_extinction_method
;
SHELXL (Sheldrick, 2015b)
;
_refine_ls_goodness_of_fit_ref   1.064
_refine_ls_hydrogen_treatment    undef
_refine_ls_matrix_type           full
_refine_ls_number_parameters     13
_refine_ls_number_reflns         322
_refine_ls_number_restraints     0
_refine_ls_restrained_S_all      1.064
_refine_ls_R_factor_all          0.0507
_refine_ls_R_factor_gt           0.0203
_refine_ls_shift/su_max          0.000
_refine_ls_shift/su_mean         0.000
_refine_ls_structure_factor_coef Fsqd
_refine_ls_weighting_details
'w=1/[\s^2^(Fo^2^)+(0.0040P)^2^+1.2951P] where P=(Fo^2^+2Fc^2^)/3'
_refine_ls_weighting_scheme      calc
_refine_ls_wR_factor_gt          0.0327
_refine_ls_wR_factor_ref         0.0378
_reflns_number_gt                189
_reflns_number_total             322
_reflns_threshold_expression     'I > 2\s(I)'
_cod_data_source_file            wm4118sup1.cif
_cod_data_source_block           I
_cod_original_cell_volume        454.95(8)
_cod_database_code               1556408
_shelx_space_group_comment
;
The symmetry employed for this shelxl refinement is uniquely defined
by the following loop, which should always be used as a source of
symmetry information in preference to the above space-group names.
They are only intended as comments.
;
_shelx_estimated_absorpt_t_min   0.120
_shelx_estimated_absorpt_t_max   0.573
_shelx_hkl_file
;
   1   1   0  288.37   16.30
   1   1   0  278.77   16.50
   1   1   0  278.77   17.70
   1   1   0  268.67   20.30
   1  -1   0  285.97   16.70
   1  -1   0  243.68   16.00
   1  -1   0  292.27   16.60
  -1   1   0  281.47   16.00
  -1  -1   0  283.97   18.00
  -1  -1   0  271.77   20.50
  -1   1   0  279.77   16.50
  -1  -1   0  286.67   16.50
  -2   0   0 6245.28  314.37
   0  -2   0 6219.28  315.87
   0  -2   0 5823.92  311.87
   0  -2   0 6160.08  312.07
   0  -2   0 6337.87  313.47
   2   0   0 5227.88  311.87
   2   0   0 6676.93  314.57
   2   0   0 5208.28  314.87
   0   2   0 6020.80  312.27
   0   2   0 6336.37  315.37
   0   2   0 5899.21  313.07
   0   2   0 5957.90  313.87
   2   0   0 6265.37  315.87
  -2  -2   0 7535.85  393.26
  -2   2   0 7194.48  392.66
  -2  -2   0 7221.38  393.56
   2  -2   0 8184.48  393.66
   2  -2   0 7493.45  393.86
   2  -2   0 7454.15  392.26
   2   2   0 7423.76  393.26
   2   2   0 7522.75  395.26
  -2  -2   0 7602.14  400.76
  -2   2   0 7170.98  393.66
  -2  -2   0 7660.83  396.86
   2   2   0 8360.26  393.56
   1  -3   0  425.86   30.60
   3  -1   0  437.76   29.10
   3  -1   0  423.46   27.50
   1  -3   0  468.75   28.20
   1  -3   0  391.36   26.20
  -1  -3   0  434.86   27.00
   3  -1   0  456.15   25.30
   1  -3   0  422.16   24.40
   3   1   0  444.46   24.70
   3   1   0  449.16   29.10
   3   1   0  397.96   30.80
   3   1   0  392.66   34.80
  -1  -3   0  435.36   27.00
  -1  -3   0  428.46   35.80
   1   3   0  412.96   28.20
  -3  -1   0  392.86   42.20
  -1   3   0  398.06   28.40
  -1   3   0  410.76   25.40
   1   3   0  426.06   26.40
   1   3   0  412.56   35.70
  -1  -3   0  460.15   26.90
  -3  -1   0  376.86   25.20
  -3  -1   0  343.87   35.60
   1   3   0  445.96   26.20
  -3  -1   0  418.66   28.10
   3   3   0  544.35   35.50
   3   3   0  556.34   37.00
   3   3   0  545.25   51.39
  -3   3   0  557.04   36.20
   3  -3   0  566.04   35.90
   3  -3   0  521.05   37.30
  -3  -3   0  573.34   58.89
   3  -3   0  537.85   32.30
   3  -3   0  526.15   37.00
   3   3   0  621.24   36.20
  -3  -3   0  560.24   35.30
   3  -3   0  555.44   33.30
  -3  -3   0  512.25   35.90
   0   4   0 2343.67  121.39
   4   0   0 2419.66  118.69
   0  -4   0 2243.98  130.09
  -4   0   0 2012.90  131.59
   4   0   0 2265.67  127.69
   0  -4   0 2462.65  120.79
   0  -4   0 2377.66  119.89
   0   4   0 1927.31  121.09
   2   4   0 5101.99  280.97
   4   2   0 5031.80  264.77
   2  -4   0 4512.05  267.27
   2  -4   0 4917.41  270.37
   4  -2   0 5099.89  266.57
  -2   4   0 4923.41  266.27
   4  -2   0 5350.96  266.07
   2  -4   0 5096.69  266.97
  -4  -2   0 5146.08  266.37
  -2   4   0 4902.11  269.57
   2  -4   0 5067.19  264.27
   4   2   0 5431.66  271.37
  -2  -4   0 5068.59  267.07
  -2  -4   0 5009.00  280.77
   2   4   0 4878.41  270.87
   2   4   0 5247.58  265.77
   2   4   0 4961.50  267.87
   4  -2   0 5539.25  266.07
   4  -4   0 4245.78  221.48
  -4  -4   0 4128.79  225.38
   4  -4   0 4242.08  220.78
   4   4   0 4029.60  224.98
   4   4   0 4331.67  225.48
   4   4   0 3986.60  246.38
  -4   4   0 4295.37  225.38
   5  -1   0    9.00   10.10
   5   1   0   -5.20   12.10
   1  -5   0    9.60    7.40
   1  -5   0  -10.50    8.70
   1   5   0   12.90   32.90
  -1   5   0    4.50    9.60
   5  -1   0    0.20    6.70
   1   5   0   -2.50   13.80
   5   1   0    0.20   16.40
   1  -5   0   10.40   23.00
   1   5   0   -2.10   10.50
  -5  -1   0    0.70    7.90
  -1   5   0   12.30   10.30
  -1  -5   0   -1.70    8.90
  -1  -5   0   35.00   33.70
   1   5   0   -1.80    7.90
   5  -1   0    4.30   11.30
   5  -1   0   -8.90   14.60
   3  -5   0    5.80   10.90
   3   5   0  -46.50   37.30
  -5  -3   0   16.20   18.50
   3   5   0   -2.30   12.30
   3  -5   0    2.30   13.00
  -3  -5   0   -1.90   13.50
  -3   5   0    1.50   12.20
   5  -3   0   -3.60    8.90
   3   5   0    1.00   10.70
  -5  -3   0   -2.20   11.30
  -3   5   0    9.30   11.00
   5   3   0    0.20   10.00
   3   5   0    7.40   14.20
   5   3   0    6.00   11.80
   3  -5   0  -67.29   27.60
   5   3   0   14.90   27.00
   5  -3   0   16.40   15.40
   5   5   0  -16.80   46.90
   5  -5   0   10.50   14.60
  -5  -5   0   -9.40   17.10
   5  -5   0   10.60   19.60
  -5   5   0    4.70   14.20
   5   5   0   10.20   14.70
   5   5   0   21.50   16.80
   0   6   0 4167.68  220.38
   0   6   0 3963.30  226.58
   0   6   0 4142.89  226.68
   6   0   0 4178.48  226.78
   0  -6   0 4103.09  215.38
   6   0   0 4100.99  228.88
   6   2   0 2189.58  122.49
   2   6   0 2153.88  118.99
   2  -6   0 2010.30  137.99
  -2  -6   0 2095.99  116.49
  -2  -6   0 2080.49  164.88
   2  -6   0 2222.78  115.89
   2   6   0 2176.08  119.59
   2  -6   0 2062.89  118.39
   6  -2   0 2201.78  114.89
   2   6   0 1960.00  124.09
   2   6   0 2122.69  145.99
  -2   6   0 2069.89  123.69
  -2   6   0 2155.68  118.29
   6   2   0 2104.99  136.39
  -6  -2   0 2009.70  121.69
   6  -2   0 2083.69  124.99
   6  -2   0 2144.09  120.49
   4   6   0 1237.68  132.89
  -4   6   0 1353.96   82.59
   4   6   0 1133.79   81.69
   6  -4   0 1304.07   74.79
  -4  -6   0 1151.58   77.39
   6   4   0 1174.68  109.89
   6   4   0 1302.37   76.39
   6   4   0 1428.06   79.89
   4   6   0 1313.67   78.29
   6  -4   0 1068.19   85.69
   4  -6   0 1333.87   79.79
  -6  -4   0 1289.97   82.49
   6   6   0 1523.55   95.59
   6  -6   0 1463.65   99.29
   6  -6   0 1302.17  104.29
   6   6   0 1356.46  144.29
  -6  -6   0 1462.15   96.39
   7  -1   0   60.39   23.80
  -1   7   0   38.10   20.90
   1  -7   0  103.19   59.89
   1  -7   0   58.79   13.70
   1   7   0   42.30   17.50
  -1  -7   0   24.20   14.10
   7   1   0   33.40   19.40
   7  -1   0   35.70   23.00
  -1   7   0   50.19   17.90
   1   7   0   36.60   21.30
   7   1   0  115.09   35.90
   7   3   0  -34.60   46.30
  -3  -7   0   37.10   22.90
   3   7   0   49.30   19.70
  -3   7   0   65.09   21.90
   7  -3   0   78.79   22.60
   7   3   0   42.60   20.10
  -3   7   0   69.89   22.40
   3   7   0  104.39   27.80
   7  -3   0   53.59   30.90
  -7  -3   0   37.20   24.10
   7  -3   0   91.19   33.20
   3  -7   0   67.59   17.20
   7   5   0   23.10   20.90
   5  -7   0   -9.10   26.10
   5   7   0    8.70   30.60
   7  -5   0  -25.00   31.00
   7  -5   0    1.90   19.30
  -5  -7   0  -21.30   25.10
  -5   7   0   19.40   22.50
   7   5   0   -5.10   66.99
   7  -5   0   38.90   45.00
   7   7   0   18.40   27.60
   7  -7   0   28.50   45.40
   0   8   0 1637.34   98.89
   0   8   0 1414.86  108.19
   8   0   0 1621.84  111.59
   8   0   0 1743.53  104.29
   8   2   0 1469.45  109.69
   2   8   0 1164.58   92.09
   8   2   0 1303.97   81.29
  -2   8   0 1150.98   88.39
   2   8   0 1070.49   78.99
   8  -2   0 1321.67   90.79
  -2   8   0 1153.48   81.29
   8  -2   0 1219.78   86.19
  -4   8   0  834.72   76.59
   8  -4   0  946.21   69.69
   8  -4   0  950.90   94.79
   8   4   0  972.60  124.69
   4   8   0  888.01   79.89
   4   8   0  980.60   68.09
   8   4   0  961.80   67.59
   8  -4   0  840.42   88.29
   6   8   0  795.52   64.89
   8  -6   0  592.44   89.59
   8  -6   0  685.83   92.79
   8   6   0  767.92   63.79
   9  -1   0  -26.60   30.70
   1   9   0   17.20   28.10
   9  -1   0   -6.90   37.60
   9   1   0  -51.09   24.90
  -1   9   0   46.80   35.30
   9   1   0   89.39   51.09
   1   9   0   16.70   39.30
  -1   9   0   -6.00   36.00
   9  -3   0   27.10   38.70
   3   9   0   37.70   43.50
   9   3   0   11.90   67.99
   9   3   0   35.00   29.30
   9  -3   0   24.10   50.79
   3   9   0   45.50   30.50
  -3   9   0   31.40   39.70
   9  -3   0  -18.00   48.90
   9   5   0   28.00   31.50
   5   9   0  -18.30   51.89
   5   9   0   20.20   32.50
  -5   9   0  -18.40   45.30
   9   5   0  118.59  122.49
   9  -5   0  -76.79   39.90
   9  -5   0  -17.00   58.49
   0  10   0  397.66   74.19
  10   0   0  480.05   78.49
  10   0   0  480.75   64.29
  10   2   0  648.24  114.59
   2  10   0  693.03   71.99
   2  10   0  783.52   99.89
  10  -2   0  580.34   95.79
  10   2   0  811.02   71.69
  -2  10   0  735.93  100.09
  10  -2   0  761.62  105.09
  10  -2   0  725.93   96.19
   0   1  -1    2.60    6.20
  -1   0  -1    0.90    1.00
   0  -1   1   -1.90    2.40
  -1   0   1   -1.70    2.10
  -1   0  -1    0.80    2.60
   0  -1  -1   -0.20    2.70
   0  -1   1    2.30    2.10
   0   1  -1   -0.60    2.60
   1   0   1   -0.30    1.30
   0   1  -1   -3.60    5.40
  -1   0  -1   -0.20    3.20
   0  -1  -1    0.00    1.50
   1   0  -1    2.00    2.70
   0   1  -1   -0.50    1.50
  -1   0   1    3.10    2.90
   0  -1   1    2.10    2.20
   1   0  -1   -1.40    2.00
   0  -1  -1   -1.80    2.00
   1   0   1    0.90    3.80
   0   1   1    2.00    3.00
   1   0   1    2.10    2.00
   0   1   1    0.20    2.10
   0   1   1   -0.30    1.70
  -2   1  -1  649.43   35.70
   1  -2   1  539.35   37.10
  -2  -1   1  511.45   41.10
   1  -2   1  667.33   43.40
   1   2  -1  638.04   37.60
   2   1   1  651.93   38.10
  -1   2   1  602.34   37.60
  -1   2   1  633.34   36.40
   2  -1  -1  654.93   36.90
   1  -2   1  623.84   34.60
  -2  -1   1  661.83   38.10
   1   2  -1  615.44   37.90
   2   1   1  747.93   37.90
  -1  -2  -1  641.24   36.40
   1   2  -1  575.64   45.20
   2   1   1  678.83   34.90
   2  -1  -1  664.43   36.70
  -1  -2  -1  606.44   35.00
  -1  -2  -1  691.53   36.60
   1   2  -1  704.23   37.60
  -2  -1   1  671.33   37.10
   1  -2   1  628.04   38.70
   1  -2   1  635.14   36.80
   2   1  -1  712.13   37.80
  -1   2  -1  665.33   36.20
   2   1  -1  652.53   36.20
   1  -2  -1  698.33   37.70
   1   2   1  639.54   37.10
   1  -2  -1  625.64   35.60
  -2  -1  -1  654.83   39.70
  -1  -2   1  636.54   38.80
  -2  -1  -1  642.64   37.10
   2  -1   1  675.83   37.90
  -1  -2   1  657.73   47.40
  -1   2  -1  663.03   36.70
   2  -1   1  706.53   35.70
   1   2   1  636.74   41.30
  -2   1   1  664.23   37.80
  -1   2  -1  618.44   34.90
   2   1  -1  604.14   40.00
  -2  -1  -1  662.43   41.50
   1  -2  -1  632.04   35.80
  -1   2  -1  656.73   37.40
  -1  -2   1  644.44   37.60
   1  -2  -1  654.03   35.90
  -2  -1  -1  658.03   34.90
   1   2   1  641.84   36.40
   2  -1   1  528.95   37.00
   1   2   1  723.83   35.50
   2  -1   1  629.04   37.00
   2   1  -1  645.84   47.40
  -1  -2   1  731.53   39.00
   3   0  -1    1.60    6.80
   0  -3   1    1.20   13.30
  -3   0  -1    3.10    9.00
   0   3  -1   -4.20    5.50
   0   3  -1    0.90    4.30
   0  -3  -1    2.50    4.20
   0  -3  -1    4.00    8.20
   0  -3   1   -2.90    5.60
   0  -3  -1   -2.90    6.00
   3   0   1    0.80    8.80
   3   0  -1    1.00    5.60
   0  -3  -1    3.50    3.20
   0   3  -1   -0.70   22.40
   3   0   1   -1.20    7.10
   0   3  -1   -0.50   10.60
   0   3  -1    6.50    7.10
   3   0   1    9.00   10.10
   0   3   1   -6.60    8.30
   0   3   1   -4.90    5.30
   0   3   1    3.90    4.50
  -3   0   1   -2.10    6.10
   0  -3   1    0.60    4.40
   0  -3   1   -2.80    4.40
  -3   0  -1   -8.90   12.30
   3   0  -1    2.90   15.00
   3   0  -1   13.50    9.10
  -3  -2   1   39.40   19.50
  -2   3   1   37.10    8.70
   3  -2  -1   57.89   10.10
   2   3  -1   44.60   10.90
  -2   3   1   47.10   10.30
  -2  -3  -1   39.50   11.20
   2  -3   1   43.00   18.00
   3  -2  -1   59.19   10.10
  -2  -3  -1   73.89   21.40
   3   2   1   44.50    7.40
   3   2   1   58.39   20.60
  -2  -3  -1   40.00    7.90
   2   3  -1   36.10    9.70
  -3  -2   1   57.09   10.70
   2   3  -1   47.40   23.30
   2  -3   1   46.80    9.10
   2   3  -1   59.49   10.40
  -3  -2   1   63.29   27.80
   3   2   1   49.70   10.60
   3  -2  -1   35.50   10.50
   2  -3   1   41.80   10.70
   2  -3   1   43.20    5.70
  -3  -2   1   56.99   11.80
   3   2   1   44.20   10.90
   2  -3   1   47.80   11.40
  -3   2  -1   52.09    8.50
  -2  -3  -1   40.30    7.70
   3   2  -1   72.99   13.00
   3   2  -1   47.40   13.00
   3  -2   1   51.39    7.90
   3   2  -1   37.60   20.40
  -2  -3   1   55.29   16.30
   3   2  -1   49.80    8.70
   2   3   1   36.20    9.50
   2  -3  -1   39.90    8.20
  -2   3  -1   46.10    9.50
   3  -2   1   52.59    7.90
   2   3   1   53.99   17.90
   2  -3  -1   38.80   10.10
  -3  -2  -1   42.70    7.60
   3  -2   1   33.00    8.30
  -2  -3   1   46.10   11.80
  -2  -3   1   23.80    9.90
   2   3   1   48.50    8.20
   2  -3  -1   46.10    7.80
   2  -3  -1   20.10    9.20
   2  -3  -1   41.90    7.30
  -3   2   1   36.30    8.50
  -2   3  -1   36.20    6.80
  -3  -2  -1   54.09   21.10
  -3  -2  -1   30.20    8.40
   2   3   1   37.80    8.70
  -3  -2  -1   44.50   16.70
   3  -2   1   26.20   12.90
   2  -3  -1   30.80    8.50
   3  -2   1   36.60   10.60
   3  -2   1   42.00   11.70
  -2  -3   1   39.30   24.00
   1   4  -1  113.19   15.50
   1  -4   1   80.99   10.10
   4  -1  -1   70.09   17.20
  -1  -4  -1   61.49   21.50
   4  -1  -1   29.00   19.90
   4  -1  -1   94.19   15.00
   4   1   1   66.89   16.40
  -4  -1   1  104.69   14.40
   1   4  -1  110.69   24.50
   1   4  -1   99.89   13.20
   1  -4   1  112.49   26.80
  -1   4   1   90.99   12.60
   4  -1  -1   61.79   12.90
   1  -4   1  109.29   12.90
   4  -1  -1   97.29   12.40
  -4  -1   1   56.29   12.00
  -1  -4  -1   94.39    9.50
  -1   4   1   82.99   13.60
   4   1  -1   83.99   17.80
   1  -4  -1   89.89   11.50
  -1  -4   1   94.29   12.50
   1   4   1  106.19   13.40
   4  -1   1   87.79   14.70
  -1   4  -1   92.69   11.00
   1  -4  -1   89.19   16.90
   1  -4  -1   84.69   10.70
  -1  -4   1  107.79   34.70
   4   1  -1   89.49   10.40
   4  -1   1   95.29   19.10
   4  -1   1  104.89    9.80
   1   4   1   87.59   19.10
  -1  -4   1   89.49   14.80
   1  -4  -1   72.19   11.00
  -1   4  -1   98.59   15.20
  -1   4  -1  106.59   15.60
   1   4   1  102.79   11.70
  -4   1   1  129.99   16.90
  -1   4  -1   87.39   16.60
   4   1  -1   74.09   18.90
   4  -3  -1    5.70   12.00
   4   3   1   13.10   10.50
  -4   3  -1   -8.50    8.50
  -3   4   1    3.60    9.00
   3   4  -1    0.20   10.40
  -3   4   1    1.40   10.20
   3  -4   1    2.90   10.20
   3   4  -1   17.30   30.20
   4   3   1  -30.70   27.30
  -4  -3   1    4.00   15.80
  -3  -4  -1    3.00   11.10
  -4  -3   1    4.50   11.10
   3  -4   1   17.90   10.70
   3   4  -1   21.50   10.30
   3   4  -1    8.30   14.10
   4   3   1   13.50    8.70
   3  -4   1    2.50    6.50
  -3  -4  -1    8.70    9.70
  -3  -4  -1  -16.60   34.80
   4  -3   1    0.90   11.90
   4   3  -1    6.30    9.90
   4   3  -1   30.10   28.20
   4  -3   1    1.70   13.40
   3  -4  -1    9.30   10.90
  -4  -3  -1   -1.80   10.20
   3  -4  -1   13.40   14.40
  -3  -4   1   10.20   14.00
   3  -4  -1    6.30   13.00
  -4  -3  -1   15.30   14.30
   3   4   1   -3.30   27.50
   4  -3   1    3.90    9.50
   4   3  -1   19.80   10.60
  -3   4  -1   13.20    9.00
  -4   3   1    7.30   10.30
   3   4   1   11.00   10.00
   3  -4  -1    9.20   10.20
   4  -3   1    1.70   10.60
   3   4   1    2.80   10.70
  -3   4  -1    9.20    8.50
   3   4   1   -7.90   11.10
   4  -3   1    5.00    8.00
   3  -4  -1   16.20    9.00
   0   5   1   11.40   18.00
   5   0  -1   -1.20    7.20
   0  -5   1   -2.80   12.30
   0   5  -1  -12.10   16.30
   0  -5   1   -2.90    7.50
   0   5   1    3.30    8.00
   0  -5  -1    1.70    5.40
   5   0   1   10.60   12.80
   0   5   1   -6.10    8.90
   5   0  -1    4.00    6.70
   0   5  -1   -5.90   23.20
   0  -5  -1   12.60   21.60
   0   5  -1   -5.20   10.50
  -5   0   1   14.40    8.60
   5   0   1   -6.60   11.90
   5   0  -1    5.70   15.10
   0   5  -1   -4.00    9.10
   5   0  -1   -8.60   12.20
   5   2   1  182.68   23.30
  -2  -5  -1  208.28   49.30
   5   2   1  149.69   29.20
  -5  -2   1  145.99   20.50
  -2   5   1  127.09   19.30
  -2  -5  -1  145.49   15.90
   5  -2  -1  144.89   23.80
   2  -5   1  150.78   16.00
  -5  -2   1  145.49   21.10
   2   5  -1  195.68   46.20
   2  -5   1  176.58   20.40
  -2   5   1  142.09   18.80
   2   5  -1  152.08   18.20
   2   5  -1  179.48   25.00
   5  -2  -1  153.38   19.50
   2   5  -1  147.79   20.20
   2  -5   1  150.08   37.50
   5  -2  -1  150.28   20.70
   2  -5  -1  172.08   18.90
   5  -2   1  159.38   20.70
  -2  -5   1  168.78   21.10
  -2   5  -1  119.39   20.30
   5   2  -1  154.88   16.70
   2   5   1  180.18   18.60
   2   5   1  156.48   18.40
   5  -2   1  158.48   26.60
   5   2  -1  157.28   32.10
  -5  -2  -1  130.29   19.20
  -2  -5   1  152.98   65.79
   5  -2   1  163.38   20.30
   5   2  -1  161.78   21.80
   2  -5  -1  161.38   21.30
   2  -5  -1  122.69   26.10
  -2   5  -1  132.99   17.40
   2   5   1  141.19   37.70
   2   5   1  151.88   21.70
   5  -2   1  162.38   17.70
  -5   4  -1   37.80   13.10
   4   5  -1   44.00   53.79
   4  -5   1   36.90   17.20
  -4   5   1   27.00   13.50
   5  -4  -1   58.69    9.60
   5   4   1   27.80   37.30
  -5  -4   1   56.19   19.00
   5  -4  -1   26.70   19.50
   4  -5   1   55.69   13.60
   5   4   1   49.10   15.60
   4   5  -1   53.29   13.90
   4  -5   1   60.29   17.40
   5   4   1   51.39   15.80
   4   5  -1   45.00   17.50
   4   5   1   36.40   14.70
   4   5   1   48.40   15.90
   5   4  -1   28.70   14.50
  -4   5  -1   65.09   16.00
   5  -4   1   42.90   14.40
   5  -4   1   64.99   16.20
  -4  -5   1   43.10   19.30
   4  -5  -1   46.80   17.60
  -5  -4  -1   40.30   21.10
   4  -5  -1   42.30   22.80
   5   4  -1   18.40   14.00
   4   5   1   85.59   51.79
   5  -4   1   32.80   25.80
  -5  -4  -1   44.60   15.50
   5  -4   1   14.70   17.80
   5   4  -1   86.39   40.80
   6  -1  -1   33.60   11.50
   6   1   1   25.10   22.00
   6  -1  -1   23.80   13.40
  -1   6   1   16.20   13.50
   6  -1  -1   38.10   16.30
  -1   6   1   27.90   13.10
  -6  -1   1   27.50   13.10
   1   6  -1   18.10   26.50
  -1  -6  -1   21.50    6.90
   6   1   1   18.40   16.10
   6  -1  -1   35.40   18.10
   1   6  -1   50.19   13.10
  -1  -6  -1  -21.30   43.30
   1  -6   1   29.10   11.00
   1   6  -1   22.00   17.80
   1  -6   1   37.70   44.40
   1   6  -1   48.20   39.20
  -1  -6   1   37.60   11.70
   6   1  -1    5.60   24.10
  -1   6  -1    9.10   14.40
   6   1  -1   33.70    8.60
   1   6   1   33.80   15.60
   6  -1   1   15.00   15.80
   1  -6  -1   32.40   12.70
   1   6   1   28.50   35.20
   6   1  -1   26.30    7.80
   1  -6  -1   29.60    9.10
  -1   6  -1   35.70   12.40
   6  -1   1   23.60   18.30
  -1  -6   1  174.68   56.29
   6   1  -1   11.60   16.10
   1  -6  -1   11.50   31.40
   1   6   1   18.80   12.80
   6   3   1    1.80   15.10
   6  -3  -1   -6.30   12.80
   3   6  -1    2.30   18.00
   3   6  -1  -23.20   51.89
   3   6  -1  -29.10   11.00
   6  -3  -1   13.70   22.20
   3  -6   1    0.90   13.30
   6   3   1   24.20   28.60
  -3   6   1   19.40   14.70
  -3  -6  -1    8.10   13.80
  -6  -3   1  -10.40   14.60
  -3   6   1  -12.30   13.70
   3   6   1   49.30   47.20
   3   6   1   10.00   14.40
   6   3  -1  -13.90   38.60
   6   3  -1   -5.10   13.30
  -3   6  -1   25.50   17.80
   6  -3   1    0.30   19.80
   6  -3   1   -6.90   21.10
   3   6   1   19.20   16.70
  -3   6  -1    7.40   14.30
   6   3  -1    1.50   13.30
   6  -3   1    3.70   14.00
   3  -6  -1  -11.90   34.50
   3  -6  -1   -8.60   15.00
   6   5   1   17.20   17.60
   5  -6   1   45.80   34.00
   5   6  -1   20.90   14.90
   6   5   1   26.30   19.70
   5   6  -1   47.60   21.60
   6  -5  -1   88.59   33.40
   6   5   1  -59.99   54.39
  -5   6   1   48.40   20.30
   5  -6   1   46.50   23.90
  -6  -5   1    1.40   25.10
   6  -5  -1    2.80   14.40
   5   6  -1   74.39   60.39
   6  -5  -1   76.99   29.50
  -6   5  -1   60.79   17.40
   5   6   1   -0.70   59.49
   6  -5   1   61.89   32.60
   6   5  -1   40.00   48.80
   6   5  -1   34.40   21.30
   6  -5   1   42.90   28.30
   5   6   1  -19.50   19.70
   6  -5   1   34.30   19.40
   6   5  -1    0.40   14.30
   5  -6  -1   58.79   23.50
   5   6   1   29.20   17.50
  -5  -6   1    3.40   24.30
  -5   6  -1   -7.90   18.70
   0   7   1   -2.80   14.70
   0  -7   1   -1.20   11.20
   0   7   1   -3.50   18.00
   7   0  -1   15.40   24.70
   7   0   1  -19.40   17.30
   0   7  -1  -16.40   14.00
   7   0   1    2.30   22.80
   7   0  -1   -1.60   19.20
   7  -2  -1    6.30   19.40
   7   2   1   -5.70   33.80
  -2   7   1    0.60   17.90
   7   2   1  -12.90   17.00
   2   7  -1  -11.60   22.60
  -7  -2   1   35.50   20.50
   2   7  -1   14.40   15.80
   2  -7   1   16.20   12.80
  -2   7   1   33.20   18.70
   7  -2  -1   41.20   26.20
   7  -2  -1   12.80   24.40
   7  -2   1   -2.50   22.90
  -2   7  -1   21.70   17.50
   2   7   1   11.40   16.30
   7  -2   1    1.90   18.30
  -2  -7   1   -0.80   18.40
   7   2  -1   -5.60   17.50
   2  -7  -1   30.90   54.69
   7   2  -1   -1.70   33.50
  -2   7  -1   19.70   20.00
   2   7   1  -30.80   19.70
   2  -7  -1    0.50   12.80
  -4   7   1   33.40   24.20
  -7  -4   1   45.40   27.80
   4  -7   1   22.40   19.50
  -4   7   1   -3.40   21.00
   7  -4  -1   31.80   18.00
   7  -4  -1  -11.20   30.50
   4   7  -1  -27.20   23.10
   7   4   1  -35.30   58.59
   7  -4  -1  -69.09   31.90
   7   4   1  -14.10   17.60
   4   7  -1  -11.50   15.20
   7  -4  -1    6.00   28.60
   7   4  -1    5.30   18.20
   4   7   1   23.30   26.80
   7  -4   1  -21.60   27.50
   7   4  -1   65.39   57.09
   4  -7  -1   11.20   20.00
   7  -4   1   24.80   20.70
   4   7   1   28.30   19.20
  -4   7  -1   -3.50   20.50
  -4  -7   1  -20.10   22.60
   7  -4   1   -0.30   32.00
   7   6   1    6.50   24.00
   6   7  -1   -7.90   34.70
   7   6   1   46.30   87.59
   6  -7   1    4.50   32.20
   6   7  -1   -3.20   22.00
  -7  -6   1  -19.40   36.10
   7  -6  -1  -72.89   40.20
   7  -6   1   37.50   36.30
   6   7   1   40.40   25.40
  -6  -7   1  -31.80   35.10
   6  -7  -1   17.10   34.20
   7  -6   1   26.90   36.90
   7   6  -1 -143.59   73.59
  -6   7  -1  -31.30   27.50
   7   6  -1   23.10   22.50
   1   8  -1   24.90   27.10
   1  -8   1   32.40   21.60
   8   1   1   46.60   33.10
   1   8  -1    9.90   21.40
   8  -1  -1   35.10   29.10
  -1   8   1   23.10   26.20
   8   1   1   66.99   26.00
  -1   8   1   -4.50   22.30
   8  -1  -1   43.30   29.30
  -1   8  -1  -12.90   21.30
   8   1  -1   36.10   23.40
   8  -1   1   43.30   28.10
   8  -1   1    1.10   24.20
   1   8   1   -5.20   22.30
  -1   8  -1   86.79   29.10
   1   8   1   34.90   28.20
   8   1  -1   78.39   41.60
   3   8  -1  -16.00   27.60
  -3   8   1  -17.40   28.40
   3  -8   1  -11.30   17.60
   8   3   1  -50.79   47.90
   8  -3  -1  130.89   41.30
   8   3   1   19.70   22.50
   8  -3  -1   41.70   28.10
   3   8  -1   -9.30   19.70
   3   8   1   22.90   32.80
  -3   8  -1  -20.00   25.80
   8  -3   1  -10.80   30.90
   8   3  -1 -122.79   58.09
   3   8   1   -2.60   21.20
  -5   8   1    7.20   32.70
   8  -5  -1   -1.10   45.30
   5   8  -1    8.80   25.30
   8  -5  -1    2.30   24.30
   5   8  -1   33.60   50.59
   8   5   1   17.30   27.20
   8   5   1  -15.50   89.09
   5  -8   1  -13.00   28.70
   8  -5   1   -8.30   45.70
   8  -5   1   53.99   32.60
   5   8   1   57.59   42.20
   8   5  -1   -6.40   23.80
  -5   8  -1   43.20   35.00
   5   8   1   15.30   27.80
   9   0   1  -14.30   26.90
   9   0   1  -19.90   40.50
   0   9  -1   68.49   32.40
   0   9  -1   78.89   41.60
   0   9   1  -47.40   36.10
   0   9   1    3.50   32.00
   9   0  -1   38.00   46.00
  -2   9   1    1.50   37.40
   9  -2  -1   82.49   41.80
   9   2   1   67.09   28.10
   2   9  -1   33.90   38.60
   9   2   1    1.40   56.09
   9  -2  -1   21.20   40.40
  -2   9   1    9.00   38.90
   2   9  -1  -14.40   30.70
   9  -2   1   21.90   46.50
   2   9   1  -21.60   27.80
   9  -2   1  -58.39   37.90
   9  -2   1   18.60   36.00
  -2   9  -1  -25.50   36.40
   9   2  -1   41.00   28.50
   2   9   1  -11.20   44.20
   9   2  -1   57.89   65.29
   4   9  -1  -27.20   28.30
  -4   9   1   71.49   43.50
   9   4   1   25.50   29.10
   4   9  -1   58.99   44.70
   9  -4  -1   -2.70   37.40
   9  -4  -1   77.69   58.19
   9   4   1 -192.48   85.59
   9  -4   1   46.70   40.90
  -4   9  -1  -29.30   42.50
   9   4  -1   23.50   29.40
   4   9   1   71.59   33.00
   9  -4   1   69.69   55.99
   4   9   1   31.80   48.00
   9   4  -1   21.30   97.49
  10   1   1   67.59   62.59
  10   1   1   50.89   37.10
   1  10  -1  -45.20   47.90
  10  -1  -1  -17.60   44.50
   1  10  -1   86.79   40.90
  10  -1  -1   41.20   54.69
  -1  10   1  -46.00   50.09
  10   1  -1   22.40   38.40
  10   1  -1 -113.79   71.99
  10  -1   1   -1.50   43.90
   1  10   1   38.30   53.89
  10  -1   1    7.40   61.39
  10  -1   1    1.20   54.89
  -1  10  -1   42.60   53.69
   1  10   1   21.40   41.90
  10   3   1  153.78   97.09
  10  -3  -1   19.20   52.09
   3  10  -1  -17.90   53.39
   3  10  -1   61.19   38.90
  10   3   1  -21.00   34.70
  10  -3  -1  123.59   75.09
  -3  10   1    0.70   55.79
  10  -3   1  -67.89   53.09
   3  10   1   -3.60   59.19
   3  10   1   85.29   41.00
  10   3  -1   77.59  184.78
  10   3  -1  -32.90   34.60
  10  -3   1   74.89   72.09
  -3  10  -1   65.69   57.19
   0   0   2   18.30    4.60
   0   0  -2   17.30    4.20
   0   0  -2   21.30    2.90
   0   0  -2   20.90    4.70
   0   0   2   24.70    4.20
   0   0   2   19.10    2.80
   0   0  -2   22.00    5.40
   0   0   2   39.90    7.10
   1   1   2 8600.04  465.35
   1  -1   2 9196.08  466.85
   1  -1   2 7966.50  467.15
  -1   1  -2 9723.53  467.65
  -1  -1  -2 9091.39  468.85
  -1   1   2 8916.41  465.75
   1   1  -2 9999.00  467.85
   1  -1  -2 9195.08  466.55
  -1  -1  -2 9120.19  465.45
   1   1  -2 8809.72  466.45
  -1   1  -2 7463.15  467.25
  -1   1   2 8693.53  466.25
   1  -1   2 9128.29  467.95
  -1  -1   2 9125.09  467.35
  -1  -1   2 9970.90  468.75
   1   1   2 8737.93  468.75
   1  -1  -2 9246.47  465.75
  -1  -1  -2 9111.09  465.45
  -1   1  -2 8592.64  466.35
   1  -1  -2 9348.67  466.25
  -2   0  -2   17.00    7.00
  -2   0   2    6.20    5.90
   2   0  -2    6.30    5.90
   2   0  -2   14.70    5.80
   0  -2   2   23.30    7.00
   2   0   2   16.40    4.40
  -2   0  -2   13.00    2.50
   0   2  -2    8.90   12.30
   2   0  -2    8.90    7.40
   0  -2  -2   17.10    7.50
  -2   0  -2   15.80    8.60
   2   0   2    9.90    3.00
   2   0   2    8.30    7.20
  -2   0   2   16.50    6.30
   0   2  -2    7.00    5.20
   0   2   2    7.50    4.50
   0  -2   2   20.90    6.10
   0   2   2   11.70    4.10
   0   2  -2   11.70    5.90
   0  -2   2   16.70    4.80
   0   2  -2   15.50    3.90
   0  -2  -2   13.10    4.30
   0  -2  -2    9.30    4.80
   0   2  -2    3.50   12.90
   0   2   2   11.10    6.00
   2  -2   2   -1.20    4.30
  -2   2  -2   -2.20    4.60
  -2  -2  -2    7.90    4.00
  -2  -2   2   -2.20    7.50
   2   2  -2   -2.70    5.40
  -2   2   2    6.40    5.30
   2   2   2   -3.10    4.80
   2  -2   2    7.00    5.80
   2  -2  -2   -2.10    6.40
   2   2  -2   -0.50   15.20
   2   2   2    2.90    4.70
   2   2   2   -6.20    8.30
  -2   2  -2    3.10    7.20
   2  -2  -2   -1.10    5.70
  -2   2   2   -1.60    5.20
   2  -2   2    2.10    2.60
   2   2  -2    2.80    7.60
   2   2   2    3.20    4.80
  -2   2   2    2.40    5.00
  -2  -2   2   -1.40   13.50
  -2  -2  -2   -6.10    9.90
   2  -2   2    3.80    7.40
  -2  -2  -2   -5.70    6.70
   2   2  -2   -3.90    7.00
  -2  -2   2    5.10    7.80
   2  -2   2    0.90    7.50
   2  -2  -2   -2.60    5.70
  -3   1  -2 5769.62  295.07
   1   3  -2 5597.44  298.27
   3  -1  -2 6231.58  298.17
  -1   3   2 5278.27  297.47
  -1   3   2 5399.06  295.67
  -3  -1   2 4758.52  296.47
  -1  -3  -2 5653.33  295.07
   1  -3   2 5855.01  296.57
  -3  -1   2 5450.45  297.97
   3  -1  -2 5647.64  296.67
   1  -3   2 5732.73  296.97
   3   1   2 5831.52  296.87
   1  -3   2 5712.73  293.07
  -3   1  -2 5622.34  293.57
   3   1   2 6256.57  297.77
   3   1   2 5688.43  302.57
  -1  -3  -2 5854.21  301.57
   1   3  -2 5857.51  296.37
   3  -1  -2 5741.43  295.77
   1   3  -2 5880.41  297.27
   1   3  -2 5602.94  307.57
  -1  -3  -2 5979.80  296.17
   1   3   2 5543.35  295.57
  -1  -3   2 5739.03  296.67
   3  -1   2 5327.77  297.07
  -1  -3   2 5713.83  298.57
   3   1  -2 4997.90  299.37
   1  -3  -2 5811.02  294.77
   1  -3  -2 5877.21  297.27
  -1  -3   2 5788.12  297.87
  -3  -1  -2 5631.64  300.47
   3  -1   2 5709.13  297.57
  -1  -3   2 5597.44  309.37
  -1   3  -2 5564.04  299.07
   1  -3  -2 5593.34  296.57
   1   3   2 5353.86  296.97
   3  -1   2 5456.05  297.97
   3  -1   2 5868.51  294.87
  -3  -1  -2 5804.92  301.17
   1  -3  -2 5746.43  293.77
   3   1  -2 5745.83  295.17
  -1   3  -2 5786.02  297.87
  -3   1   2 5579.24  297.47
   1   3   2 5732.83  292.37
   1   3   2 5597.34  300.97
   3   1  -2 5488.65  306.57
  -1   3  -2 5532.05  293.27
  -1   3  -2 5548.35  297.57
   3   3  -2 4949.30  255.27
  -3   3   2 4771.02  254.67
   3   3   2 4715.33  265.87
  -3  -3  -2 4825.02  265.17
  -3   3   2 4600.94  255.47
   3   3  -2 4672.63  269.97
   3   3  -2 5048.90  256.97
  -3   3  -2 4796.12  254.57
   3   3  -2 4893.21  254.87
   3  -3  -2 5037.40  255.27
  -3  -3   2 5080.69  258.97
   3  -3   2 4937.71  254.27
   3  -3   2 4889.81  250.27
  -3  -3   2 4673.13  256.27
   3   3   2 4654.83  253.47
  -3  -3  -2 4624.74  253.17
   3   3   2 4787.32  255.07
  -3  -3  -2 4928.31  252.37
   3  -3  -2 4817.02  253.57
   3  -3   2 4672.23  255.47
   0   4  -2   14.00    8.80
   0   4   2   -0.40    6.80
   4   0   2    1.50   10.30
   0  -4  -2    6.30    8.10
   0   4  -2   -1.60   19.00
   0   4  -2   11.00    6.60
   0  -4   2   14.80    9.00
   4   0  -2   -6.30   15.90
   4   0  -2   14.40    8.30
   0  -4   2    3.10    6.60
  -4   0   2    6.10    7.40
   0   4   2    5.20   12.30
   4   0   2   -1.60   10.00
  -4   0  -2   29.60   17.50
   0  -4  -2    6.30   13.80
   0   4   2    3.70    7.40
   0   4  -2    2.60   13.10
   4  -2  -2   -3.20   10.60
  -2  -4  -2    1.00   21.10
   2  -4   2    6.80    4.80
  -4   2  -2    5.90    6.70
  -2   4   2   -1.00    7.30
   2   4  -2   15.90   11.80
  -4  -2   2   15.60   10.80
   2   4  -2   -1.00    7.60
   2   4  -2    3.80   27.00
  -2   4   2   -2.70    8.80
   2   4  -2   21.00   10.60
   4   2   2   18.10    9.30
   4   2   2  -29.20   21.20
  -4  -2   2   11.10   14.00
   2  -4   2    1.20   10.50
   2  -4   2   -1.00   11.00
   4   2   2    1.70    4.70
   2  -4  -2   -8.50    8.90
   4  -2   2   -3.50    8.30
  -4  -2  -2    3.60    6.80
   2  -4  -2    3.80    8.60
  -4   2   2   -7.20    7.50
   4  -2   2    5.10    9.00
   4  -2   2  -18.50   13.20
   2   4   2   -0.40   11.20
   2  -4  -2   13.50   11.30
  -2   4  -2    0.00    6.10
   4  -2   2    3.20    7.70
  -2   4  -2   -0.60    8.60
   2   4   2    0.50    6.80
   4   2  -2    7.60   21.30
   4   2  -2   -0.70    6.90
  -2  -4   2  -19.20   36.20
  -2  -4   2   -5.00    9.10
   4   2  -2   -0.50    9.70
   2   4   2    4.90    6.70
   2  -4  -2    3.60    9.00
   4  -2   2  -13.00   10.80
   2   4   2   13.30   18.90
   4  -4   2  -10.50    7.70
   4   4  -2   18.80   11.00
   4  -4   2  -19.50   15.00
   4   4   2   -1.00   30.00
   4  -4   2    3.70   12.30
  -4   4   2    8.30   10.00
   4   4   2   -6.30   11.50
  -4  -4   2   16.40   16.30
  -4  -4  -2  -22.80   13.20
   4  -4   2    2.50   13.00
  -4   4  -2    1.60    9.40
   4   4  -2   -3.50   10.50
   4   4   2  -10.10   15.30
   4   4  -2  -46.90   28.60
   4   4   2   16.60   10.90
   5  -1  -2 3451.15  183.88
   5  -1  -2 3442.86  192.58
   1   5  -2 3633.14  189.58
   1  -5   2 3534.55  182.88
   5   1   2 3645.24  189.18
  -1   5   2 3542.25  185.98
   1  -5   2 3647.03  184.48
  -5  -1   2 3242.48  188.68
   1   5  -2 3358.96  200.98
   5  -1  -2 2995.00  185.88
  -1   5   2 3397.96  189.38
   1   5  -2 3513.65  184.98
   5   1   2 3389.26  195.68
  -1  -5  -2 3486.25  197.48
   1   5  -2 3358.96  190.38
  -1  -5   2 3584.54  184.18
   5   1  -2 3391.76  200.48
   1   5   2 3523.45  185.88
   5   1  -2 3487.05  182.38
  -1  -5   2 3530.95  210.68
   5  -1   2 3463.25  190.78
   1   5   2 3356.86  189.18
   1  -5  -2 3435.56  190.98
   1  -5  -2 3543.55  180.98
  -1   5  -2 3488.95  190.28
   1   5   2 3480.45  193.58
   1  -5  -2 3583.04  180.38
  -1   5  -2 3415.16  183.08
  -1   5  -2 3534.15  188.48
   5  -1   2 3410.66  189.88
   5   1  -2 3280.37  191.28
   3  -5   2 2835.22  142.59
  -5  -3   2 2618.74  153.78
   5   3   2 2930.11  168.28
   3   5  -2 2831.42  148.69
  -5   3  -2 2725.33  146.79
   3   5  -2 2727.63  172.98
   5   3   2 2678.93  143.39
   5   3   2 2860.11  151.48
  -5  -3   2 2283.97  153.58
  -3   5   2 2759.82  148.99
   3   5  -2 2738.03  151.58
  -3   5   2 2562.94  151.28
   3  -5   2 2631.84  149.79
   5  -3   2 2805.32  150.38
  -3  -5   2 2513.55  150.28
   3   5   2 2851.61  170.88
  -5  -3  -2 2757.52  145.89
   3   5   2 2975.50  144.79
   3   5   2 2692.73  150.88
   5   3  -2 2806.52  146.79
   3  -5  -2 2722.23  148.89
  -3   5  -2 2646.94  151.28
   3   5   2 2725.53  149.79
   5   3  -2 2659.63  167.78
   3  -5  -2 2272.27  148.39
   3  -5  -2 2792.72  149.29
   5  -3   2 2655.93  144.99
  -3   5  -2 2893.91  145.79
   5  -3   2 2694.53  147.99
   5  -3   2 2606.64  151.78
   5   3  -2 2809.02  151.78
   5   5  -2 2023.10  107.59
   5   5  -2 1793.02  135.19
   5   5   2 1925.81  106.59
  -5   5  -2 1914.51  108.49
   5   5  -2 1857.71  107.29
  -5  -5   2 1806.72  114.29
   5  -5   2 1788.72  109.49
   5  -5   2 1511.05  108.09
   5  -5   2 1807.32  112.99
   5   5   2 1977.30  109.49
   5   5   2 1887.71  138.79
   0   6   2    7.10   12.50
   0  -6   2   -4.20   10.90
   0   6  -2    1.10   11.00
   6   0   2   13.80   16.50
   0   6   2   37.00   29.10
   0  -6   2    8.10   46.40
   6   0  -2   13.10   17.50
   0   6   2   12.40   11.90
   0  -6  -2    8.20   36.30
  -6   0   2    2.90   10.70
   6   0   2   17.10   15.60
   6   0  -2   10.40    9.50
   0   6  -2   12.60   32.00
   6   0  -2   12.40   12.40
   6   0  -2   60.69   23.60
   0   6  -2   11.40   38.70
   0   6  -2   -8.30   13.30
  -2   6   2   -1.50   13.20
   6   2   2  -10.00   21.40
   2  -6   2   12.30   10.80
  -2  -6  -2   62.29   49.50
   2   6  -2   15.40   15.40
  -2   6   2    0.80   13.10
   2  -6   2  -10.30   14.60
   6  -2  -2   24.80   20.30
   6  -2  -2  -27.10   21.00
   2   6  -2   -8.20   42.00
   6  -2  -2   -0.10   15.60
   6   2   2   -0.30   14.00
   2   6  -2  -23.60   10.60
   6  -2  -2    7.50   20.50
  -6  -2   2   11.10   14.90
   2   6   2  -22.70   10.60
   6   2  -2   -9.50   14.20
   2  -6  -2   -9.50   10.70
   6  -2   2   30.00   19.40
   2   6   2  -23.40   13.10
   6   2  -2   82.69   33.90
  -2   6  -2    4.60   14.40
   6  -2   2    4.30   17.60
   2  -6  -2   20.10   16.60
   2  -6  -2    8.00   29.20
   6  -2   2    3.00   12.50
   6   2  -2    6.60    9.90
  -2   6  -2   25.40   15.70
   6  -2   2   18.60   15.60
   6  -4  -2   -2.20   26.80
   4   6  -2   -1.70   16.50
  -6   4  -2   13.60   13.10
  -4   6   2  -22.90   14.60
  -4   6   2    0.30   17.30
   4   6  -2  -28.50   12.40
  -6  -4   2   -5.00   22.80
   4   6  -2    2.60   61.19
   4  -6   2  -12.70   16.50
   6   4   2   12.10   16.10
   6   4   2  -79.19   36.80
   4   6   2  -22.90   16.10
   6   4  -2   -9.70   13.90
   6  -4   2   14.10   29.50
  -4   6  -2  -34.20   14.90
   4  -6  -2   -5.90   17.80
   6   4  -2    6.10   41.70
   4  -6  -2   61.19   28.80
   6  -4   2   10.40   21.60
  -4  -6   2  -19.70   18.80
   6  -4   2  -19.10   17.50
   6   4  -2  -18.10   14.30
   4   6   2  -23.20   60.19
   4   6   2    4.40   18.30
   6  -6   2  -13.80   49.99
   6   6   2    7.90   25.50
  -6  -6   2  -24.70   28.50
   6   6   2    0.60   26.30
   6   6   2   61.09   71.69
   6  -6  -2   64.59   40.00
   6  -6   2    1.40   27.60
  -6   6  -2  -13.20   22.70
   6   6  -2  -18.40   22.60
   6  -6  -2   -5.50   29.90
   6   6  -2   52.99   69.79
   7   1   2 1862.31  126.29
   7  -1  -2 1916.21  118.69
  -1   7   2 1879.91  112.89
   7  -1  -2 2251.87  108.39
   1   7  -2 1880.01  110.59
   1  -7   2 1944.21  107.49
   7  -1  -2 2030.60  122.59
  -1   7   2 1787.82  118.19
   1   7  -2 1811.92  120.29
   7   1   2 2014.00  115.29
  -7  -1   2 1852.21  116.49
   1   7   2 1876.31  119.79
  -1   7  -2 1762.72  119.49
   7   1  -2 1981.00  103.19
   1   7   2 1924.11  113.19
   7   1  -2 2089.39  119.09
   7   1  -2 1939.11  131.79
   1  -7  -2 2161.48  138.29
   7  -1   2 1874.51  119.69
   7  -1   2 1926.61  114.79
  -1   7  -2 1849.02  109.49
   7  -3  -2 1543.75   90.59
   3   7  -2 1411.26   97.29
   7  -3  -2 1373.56  103.89
  -7  -3   2 1371.66   99.09
   7   3   2 1520.45   93.69
   3  -7   2 1617.84   88.69
  -3   7   2 1485.85   97.19
   3   7  -2 1589.24   90.29
   7   3   2 1568.24  119.19
  -3   7   2 1508.95   93.19
   7  -3  -2 1446.06   99.59
   7   3  -2 1553.34  126.29
   3   7   2 1503.65   93.39
   7  -3   2 1298.77   96.59
   3  -7  -2 1712.43   88.29
  -3   7  -2 1440.26   97.79
  -3   7  -2 1448.56   91.69
   7   3  -2 1506.35   86.99
   3   7   2 1438.16   98.89
   3  -7  -2 1463.15  119.29
   7  -3   2 1535.35   92.49
   7   3  -2 1636.84   94.09
   7  -3   2 1599.04   96.29
  -3  -7   2 1381.66   88.49
   7  -5  -2 1281.87   97.59
   7   5   2 1200.08   77.19
   7   5   2 1234.38  134.99
   5  -7   2 1277.07   80.19
  -7  -5   2 1041.50   88.89
   5   7  -2 1163.88   80.99
   7  -5  -2  840.22   85.99
   5   7  -2 1078.09   89.39
   7  -5   2 1120.49   94.99
   7  -5   2 1032.60   88.89
   5  -7  -2 1153.98   78.29
  -5  -7   2  967.00   77.09
   5   7   2  955.70   82.49
   7   5  -2 1293.07   75.29
  -5   7  -2 1108.59   80.29
   7   5  -2 1074.29  129.39
   5   7   2 1196.28   76.89
   7   7  -2  779.02   61.99
   7  -7  -2  668.13   79.99
   7  -7   2  874.51   84.89
   7   7   2  766.42   67.19
   8   0   2  -19.10   23.10
   0   8  -2    8.30   21.20
   8   0  -2  -21.80   24.50
   8   0  -2   33.30   34.00
   8   0   2    4.30   29.60
   0  -8   2   -0.20   14.10
   0   8   2  -26.60   22.20
   0   8  -2    7.30   26.60
   0   8   2   -4.90   25.40
   8   2   2   17.20   20.90
   8  -2  -2    8.00   35.50
  -2   8   2   30.60   25.30
  -8  -2   2  -10.10   25.90
   2   8  -2   -9.20   18.80
  -2   8   2  -15.70   25.00
   2  -8   2   22.20   18.20
   8  -2  -2   49.80   28.40
   2   8  -2   41.50   28.70
   8   2   2  -11.50   38.60
   2   8   2  -44.60   27.00
   8  -2   2  -23.90   22.90
   8  -2   2   33.30   27.80
   2   8   2  -28.50   22.60
   8   2  -2   35.00   24.00
  -2   8  -2   18.40   25.30
   8   2  -2  -36.40   44.90
  -2   8  -2   -7.40   26.60
   8  -2   2   11.50   33.50
  -4   8   2  -20.40   26.10
  -4   8   2   30.70   36.70
   8  -4  -2  -27.10   48.40
   8   4   2    3.90   24.60
   8   4   2    8.20   60.69
   4   8  -2  -19.20   28.80
   4   8  -2    4.80   20.00
   4  -8   2   14.30   22.90
   8  -4  -2   19.90   26.00
   8  -4  -2    5.40   39.30
  -8  -4   2  -41.80   51.79
   4   8   2    9.40   25.70
   8   4  -2   76.19   63.19
   4   8   2   37.80   36.30
   8  -4   2    8.10   29.90
   8   4  -2   -5.30   23.50
   8  -4   2   94.59   41.80
  -4   8  -2  -35.50   27.40
   8   6   2   38.20   32.10
   6  -8   2   89.99   39.10
   6   8  -2   42.40   28.20
   8  -6  -2  -41.10   53.09
  -6   8  -2   -2.70   40.20
   8  -6   2   13.30   49.40
   8   6  -2   31.20   27.90
   8  -6   2   56.49   54.49
   6   8   2  -53.79   29.80
   9  -1  -2 1105.29   92.79
   1   9  -2  894.41   84.79
  -1   9   2  888.81   78.39
   9   1   2  912.61   98.39
  -1   9   2  948.91   88.79
   1   9  -2  892.71   69.69
   1   9   2  963.30   92.89
   9  -1   2 1069.69   91.89
  -1   9  -2  904.51   92.39
   9   1  -2  940.91   77.19
   9  -1   2  736.13   93.29
   9   1  -2 1089.79  119.39
   9  -1   2 1034.80   72.69
   3   9  -2  910.51   66.09
   9   3   2  978.60  130.89
   9   3   2  931.91   72.09
  -3   9   2  761.52   90.79
   9  -3  -2  963.20   82.89
  -3   9   2  750.72   82.59
   3   9  -2  971.80   82.79
   9  -3   2  821.02   87.99
  -3   9  -2  794.32   85.39
   9   3  -2  950.50   72.09
   9   3  -2  806.62  122.89
   3   9   2  767.82   96.39
   3   9   2  755.82   73.59
   9  -3   2  726.73   97.89
   5   9  -2  707.33   85.49
   9   5   2  606.84   65.89
   9   5   2  361.56  138.19
   9  -5  -2  668.93   90.09
   5   9  -2  569.04   60.39
   5   9   2  837.62  119.59
   9  -5   2  677.83   80.29
   5   9   2  690.33   69.89
  -5   9  -2  572.54   73.59
   9  -5   2  582.04   82.99
   9   5  -2  813.62  126.89
   9   5  -2  630.74   60.49
   0  10  -2  152.78   53.69
  10   0   2  168.38   67.59
  10   0   2  -28.30   56.79
  10   0   2   29.90   41.40
  10   0  -2   17.70   43.00
  10   0  -2 -119.99   60.79
   0  10   2   -6.30   48.80
   0  10   2   55.89   54.19
  -2  10   2  144.79   55.69
   2  10  -2  -39.40   47.70
   2  10  -2   21.90   36.90
  10  -2  -2  -59.09   54.99
  10   2   2  141.19   87.49
  10   2   2   51.19   37.80
  10   2   2 -159.48   72.49
  10  -2  -2   14.70   55.29
   2  10   2   12.20   58.79
  10   2  -2  -18.60   35.00
   2  10   2  -43.00   42.00
  10   2  -2 -175.58   97.39
  -2  10  -2   72.59   55.49
  10  -2   2  -30.40   52.79
  10  -2   2   -6.50   64.49
   0   1  -3    1.20    2.60
  -1   0   3   -5.50    4.30
   1   0   3    0.90    4.80
   1   0   3   -5.20    5.50
  -1   0   3    2.60    5.60
   1   0   3   -0.60    4.00
   0  -1   3    0.00    7.10
  -1   0  -3    1.60    3.50
   0   1   3   -0.50    3.20
   0  -1   3   -0.20    3.90
   0   1   3   -1.30    3.80
  -1   0  -3   -3.20    1.80
  -1   0  -3    1.90    4.90
   1   0   3   -1.70    2.00
   0   1  -3    0.70    3.00
   0  -1  -3   -3.10    2.80
   0  -1   3    3.90    5.20
  -1   0  -3    9.60    6.40
   1   0  -3    4.40    5.20
   1   0  -3    3.50    5.80
   1   0  -3   -0.80    3.80
   0   1  -3   -4.90    8.30
   0   1  -3    1.80    5.60
  -1   0   3   -2.70    3.30
   0  -1  -3    2.50    3.00
   0  -1  -3   -0.10    5.20
   2  -1  -3  359.36   22.30
   1  -2   3  313.27   26.60
   2   1   3  365.46   22.10
  -1   2   3  308.17   21.60
   1  -2   3  334.17   23.10
   2  -1  -3  330.37   22.50
  -2   1  -3  322.77   24.70
  -2  -1   3  295.17   24.40
  -2   1  -3  329.57   20.90
  -1  -2  -3  340.57   27.50
   1   2  -3  297.37   22.60
   1   2  -3  348.97   24.60
   1  -2   3  311.17   23.70
   2   1   3  336.97   20.30
  -1  -2  -3  338.67   20.50
  -1   2   3  322.87   20.00
   2   1   3  324.07   27.70
  -2  -1   3  319.97   24.60
   1   2  -3  353.66   36.20
   1   2  -3  320.37   23.70
  -1  -2  -3  341.57   21.70
  -1  -2   3  318.67   24.90
   1   2   3  329.17   26.40
   1   2   3  330.37   22.00
   1   2   3  329.47   20.80
  -2  -1  -3  330.47   28.00
   2  -1   3  317.47   18.00
  -1  -2   3  322.87   24.00
   2  -1   3  309.47   24.80
  -1   2  -3  309.97   25.20
   2  -1   3  332.37   21.30
  -2  -1  -3  331.77   19.50
   1  -2  -3  344.97   23.30
  -1   2  -3  359.16   26.80
   2   1  -3  351.16   23.20
   1  -2  -3  357.96   20.60
   1  -2  -3  320.27   22.30
  -2   1   3  338.27   22.20
   1  -2  -3  298.17   21.10
  -2  -1  -3  352.66   21.40
  -2   1   3  316.57   22.10
  -1   2  -3  325.47   23.30
   2   1  -3  324.57   22.10
   1   2   3  300.47   19.40
   0  -3   3   -0.90    5.60
   0  -3   3   -1.20    8.50
   3   0   3   -7.10    7.50
  -3   0   3   -2.30    7.00
   0  -3  -3   -2.00    9.70
   3   0  -3    9.00    7.70
   3   0   3    6.90    9.10
   3   0  -3    2.20    9.40
   0   3   3   -6.20    5.20
   3   0   3    7.10   10.20
   0  -3  -3    0.20    5.40
   0  -3   3    9.80    8.20
  -3   0  -3   -2.20   10.30
   0   3  -3  -13.10   14.90
   0   3  -3   -3.60    7.50
   3   0   3    1.20    5.20
   3   0  -3    2.60    8.90
   0  -3  -3   -3.30    7.70
   0   3  -3    8.00   11.00
   0   3   3   -0.10    9.40
   0   3  -3    3.00    4.40
   0   3   3    0.30    7.10
  -3   0  -3    1.60   12.90
   0   3  -3   32.40   25.20
   3  -2  -3   20.80   11.10
  -3   2  -3   31.10    9.50
  -2   3   3   33.50    9.80
   3  -2  -3   45.70   11.50
   3   2   3   32.10    9.20
   2  -3   3   22.80   10.70
  -2  -3  -3   31.00    8.50
   2  -3   3   33.50   11.30
   2   3  -3   28.60   11.80
   2   3  -3   -4.50   18.00
   3   2   3   11.60   17.90
  -2  -3  -3   25.90   15.80
   2  -3   3   30.00    4.00
  -3  -2   3   34.60   14.50
  -2   3   3   18.60    8.70
  -3   2  -3   35.60    7.70
   3   2   3   38.30   10.60
   2   3  -3   34.60   10.70
  -3   2  -3   57.09   16.40
   3  -2  -3   32.80   11.70
   2   3  -3   34.90    9.70
  -3  -2   3   31.50   14.30
  -3   2   3   19.80    9.40
  -2   3  -3   36.40   12.70
  -2  -3   3   22.70   11.30
   2   3   3   22.00    8.00
  -2   3  -3   47.50   18.10
  -3  -2  -3   35.50   16.60
   3  -2   3   37.00   10.50
  -2  -3   3   26.20   13.20
   3   2  -3   38.40    8.90
   3   2  -3   39.70   12.80
   3  -2   3   35.20    6.20
   3   2  -3   64.19   26.60
   3  -2   3   40.40    5.50
   2   3   3   25.00   13.80
  -3  -2  -3   34.10    6.00
   2  -3  -3   42.80    8.50
  -2  -3   3   29.90   20.60
   2  -3  -3   39.70    9.30
   3  -2   3   18.60   13.60
   2   3   3   51.39    7.80
  -2   3  -3    0.20   14.60
   2   3   3   35.70    8.90
   3   2  -3   41.70   15.40
   2  -3  -3   36.40   10.20
  -2   3  -3   21.40    9.20
   1   4  -3   27.60   16.30
   1   4  -3   34.40   23.80
  -1  -4  -3   56.29   22.10
  -4  -1   3   21.30   14.20
  -4  -1   3   43.70   12.40
   4  -1  -3   33.90   11.50
   4   1   3   45.90   18.10
   4  -1  -3   35.30   13.10
   1   4  -3   54.69   10.50
  -4   1  -3   46.30    6.00
   4   1   3   19.20   10.70
   1  -4   3   36.50    9.10
   1  -4   3   54.99   11.90
  -1   4   3   31.00    9.20
   1   4  -3   32.50   10.50
  -1   4   3   25.00    8.40
   4  -1  -3   37.40   15.60
   1  -4  -3   49.30   10.30
   1  -4  -3   46.80    7.00
   4  -1   3   62.49   14.00
  -1  -4   3   49.99   11.80
   4   1  -3   33.80   12.50
  -1   4  -3   52.39    7.50
   4  -1   3   44.40   10.20
  -1  -4   3   11.20   16.80
  -4   1   3   49.20   11.90
   4   1  -3   54.39    9.70
   1   4   3   44.90    9.10
  -1   4  -3   44.00   11.90
  -1   4  -3   65.19   25.20
   4  -1   3   45.50    7.30
   4   1  -3   10.30   17.70
   4  -1   3   12.70   12.60
   1   4   3   53.79   23.80
  -1   4  -3   42.20   20.80
   1   4   3   57.29   11.80
   1  -4  -3   40.50   14.20
   4   3   3  -43.50   24.80
   4   3   3    3.80   14.50
   4   3   3   11.10    9.80
   3   4  -3    2.60    9.10
   3   4  -3  -28.90   27.20
  -3   4   3   12.30    9.30
   3   4  -3   -0.80    8.90
   3  -4   3    7.40    9.40
   3  -4   3    1.90   10.90
   4   3   3   10.00    8.30
   3  -4   3   17.30   11.90
  -3  -4  -3   17.00   39.70
  -4   3  -3    4.30    9.50
  -4  -3   3    5.50   14.60
  -3   4   3   -0.80    9.30
   3  -4   3    8.10    4.30
  -3  -4  -3   12.90   15.20
  -4  -3  -3    6.70    8.40
   3  -4  -3    3.00    9.20
   4  -3   3   10.90    6.50
   3   4   3   -2.20    9.40
   4   3  -3   11.80   10.20
   3  -4  -3    7.40   15.00
  -3   4  -3   -0.80    8.80
   4  -3   3    1.70   12.10
   4  -3   3    8.70   10.90
   3   4   3   18.60   23.70
   4  -3   3    4.30   10.30
   4   3  -3   -4.40   22.40
   3   4   3   16.80   12.10
   3   4   3   12.70    9.10
   4  -3   3   18.90   15.10
  -3  -4   3    6.50   11.90
   4   3  -3    4.30   11.20
   5   0   3   -6.10    8.80
   5   0   3    4.00   11.50
   0   5   3    9.10    9.20
   0  -5   3   -6.40   17.60
   0  -5   3   10.60   10.70
   0   5  -3  -47.80   30.90
   5   0  -3  -16.00   13.20
   0   5  -3    1.50    8.40
   0   5   3  -12.20    7.60
   5   0  -3   37.50   21.20
   5   0  -3   -0.30   10.10
   0   5   3   21.70   18.80
  -5   0   3   -3.40   10.60
   0  -5  -3   14.10   18.70
   0   5  -3  -10.50   10.00
   5   2   3  102.69   23.80
   2   5  -3  105.69   15.10
  -5  -2   3  109.69   26.20
   2  -5   3  132.49   17.60
  -2  -5  -3   75.39   34.60
   2   5  -3  105.49   18.60
   5   2   3   70.09   15.00
   5  -2  -3   79.49   22.60
  -5   2  -3   94.99   11.90
  -2   5   3   98.89   16.30
  -5  -2   3  110.59   22.40
   2   5  -3   84.39   36.40
   2  -5   3  104.19   12.80
  -2   5   3  105.29   18.40
   5  -2  -3   50.99   19.50
   5   2  -3   90.59   28.70
   5  -2   3  101.99   16.30
   2  -5  -3  105.19   15.70
   2  -5  -3   78.69   14.20
  -5   2   3   70.99   15.70
  -2   5  -3  112.89   18.50
  -2   5  -3  114.29   13.40
  -2  -5   3  125.69   17.70
   5   2  -3  100.79   14.10
   5   2  -3   72.39   18.30
   2   5   3  112.89   16.80
   2  -5  -3   98.29   21.80
   2   5   3   85.69   17.10
   5  -2   3   96.49   19.40
   5  -2   3   85.49   20.00
   2   5   3  106.39   32.00
   5  -2   3  120.19   15.90
   5  -2   3   97.89   16.30
   4   5  -3   20.10   12.00
   5   4   3   61.19   31.90
  -5   4  -3   17.00   11.60
   4   5  -3   35.70   13.70
   5   4   3   21.50   14.60
   5   4   3   11.80   12.80
   4   5  -3  -35.30   34.10
   4  -5   3   -3.50   13.20
  -4   5   3   29.10   14.70
   4  -5   3   34.40   18.10
   4  -5   3   20.00   16.00
  -5  -4   3    2.60   20.70
   4  -5   3   11.30    6.80
   4   5   3   36.40   15.30
   5   4  -3   55.79   32.10
   5  -4   3   37.60   16.70
   5  -4   3   25.70   19.20
   5   4  -3   20.60   13.00
   4   5   3   32.70   14.50
  -4   5  -3    1.20   12.50
   4  -5  -3   14.50   12.80
   4   5   3   15.70   45.80
   5  -4   3   16.30    9.60
   5  -4   3   37.10   14.30
   5   4  -3   10.40   11.30
   4  -5  -3   24.50   17.60
  -4  -5   3   32.40   17.20
  -1  -6  -3   18.90   48.00
   1   6  -3   16.70   12.20
   6  -1  -3  -14.50   19.00
   6   1   3   14.20   20.10
  -1   6   3   12.50   12.40
   6  -1  -3   25.10   18.50
   1  -6   3   20.50   11.00
   1  -6   3    9.00   21.30
  -1   6   3    3.90   14.60
   6   1   3   35.60   14.60
  -6  -1   3   11.50   13.90
   6  -1  -3   -8.40   24.50
   6  -1  -3   22.20   17.60
   1   6  -3   18.90   15.10
  -1  -6   3   31.10   11.20
  -6   1   3   43.80   15.50
  -1   6  -3  -26.70   37.70
   1   6   3    6.40   32.90
   6   1  -3   16.20   17.30
  -1   6  -3   23.40   12.90
   1  -6  -3   51.29   29.40
   6   1  -3   13.80   10.70
   6  -1   3   43.50   14.10
   1   6   3   20.90   12.80
   6  -1   3   20.70   17.50
   1   6   3   52.99   17.20
   6  -1   3   40.20   21.20
  -1   6  -3   23.50   16.80
   6   1  -3    1.20   25.20
  -6  -3   3   10.80   22.20
   6  -3  -3  -31.80   14.40
   3   6  -3  -37.80   47.30
   3   6  -3   -7.20   11.20
   6  -3  -3   17.30   27.50
   3  -6   3   26.70   14.30
   6  -3  -3   -4.30   22.50
   3   6  -3   23.20   14.70
   6   3   3  -40.30   32.30
  -3   6   3   29.40   16.30
   6   3   3   13.90   15.10
  -3   6   3   -2.70   15.20
   3   6   3    9.70   16.50
   3  -6  -3   -3.00   27.90
   3   6   3  -10.70   13.40
  -3   6  -3   33.80   17.10
  -3  -6   3    4.10   14.60
   6   3  -3   52.29   36.40
   3   6   3   60.99   46.00
   3  -6  -3   -1.50   18.20
   6  -3   3   -3.20   21.20
   6   3  -3   21.40   11.10
   6   3  -3   -3.00   15.60
   6  -3   3   26.80   19.00
   6  -3   3    1.90   16.10
  -6  -5   3   60.89   29.30
   5   6  -3    9.00   15.40
  -6   5  -3   -0.40   17.20
   6   5   3   92.79   63.49
   6  -5  -3    5.70   26.70
   6   5   3    3.50   19.30
   5   6  -3   18.10   51.29
   5   6  -3  -17.90   17.30
   5  -6   3   12.80   22.90
   5  -6   3  -53.79   29.00
   5   6   3   48.10   21.60
   6   5  -3   22.80   49.99
   6  -5   3  -20.10   23.80
   6   5  -3   17.30   16.60
   6  -5   3   31.30   22.10
   5   6   3 -118.09   57.29
   5   6   3    8.90   19.00
   5  -6  -3   -4.40   24.30
   5   6   3   53.09   33.20
  -5  -6   3   -0.90   23.30
   5  -6  -3   18.50   28.30
   6   5  -3  -19.70   15.30
  -5   6  -3   47.00   20.40
   7   0   3   -6.80   25.90
   0   7   3   22.70   19.80
   0   7   3   16.10   17.50
   7   0  -3    5.60   13.20
   0  -7   3   -7.40   11.00
   0   7  -3  -24.10   19.50
  -7   0   3    0.10   16.40
   7   0  -3   16.10   24.00
   0   7  -3   16.10   14.90
   7   0   3    2.90   15.50
   7   0  -3  -14.10   31.50
   7   0   3  -25.10   23.10
   2   7  -3   -5.70   14.00
   2   7  -3    5.00   19.90
   2  -7   3   15.50   14.30
   7  -2  -3  -23.20   21.20
   7  -2  -3    0.30   23.20
   7   2   3  -30.80   36.30
  -2   7   3   20.80   18.70
  -2   7   3    2.40   18.40
  -7  -2   3   19.10   21.00
   7   2   3   21.50   19.80
   7  -2  -3    0.10   29.80
   2   7   3  -16.60   21.70
   7  -2   3   -0.90   24.60
   2  -7  -3    7.60   45.40
   7   2  -3   -7.30   13.20
   7  -2   3   26.30   23.90
   7   2  -3   37.50   20.70
   7  -2   3    2.90   15.20
   2   7   3   -1.20   17.30
  -2   7  -3   32.10   22.00
  -2  -7   3    4.40   14.40
   7   2  -3  -35.40   35.70
  -2   7  -3    2.30   21.60
   4   7  -3  -39.90   19.70
   4  -7   3  -31.00   19.70
   7  -4  -3  -16.50   37.90
   7   4   3    9.70   20.30
  -4   7   3   54.09   23.10
   7  -4  -3    6.00   16.50
  -4   7   3   17.30   24.40
   7  -4  -3  -19.30   32.20
   4   7  -3    9.00   16.10
  -7  -4   3  -13.40   32.90
   7   4   3   38.30   50.89
  -4   7  -3    0.70   22.80
   4   7   3  -23.70   19.50
   7   4  -3   39.00   20.00
   4  -7  -3    4.70   21.00
   4   7   3    4.10   25.70
   4  -7  -3   22.50   39.10
   7   4  -3    3.80   17.40
   7  -4   3  -51.19   26.30
  -4  -7   3   -8.10   21.70
   7  -4   3    8.40   25.30
   7   4  -3 -121.19   49.20
   7  -6  -3 -112.99   50.39
  -7  -6   3    0.70   41.90
   6   7  -3    0.70   29.60
   7  -6  -3  -35.10   38.80
   7   6   3   -1.10   27.70
   6  -7   3  -76.49   36.80
   6   7  -3  -36.20   21.30
  -6   7  -3   -6.50   30.80
   7   6  -3   77.29   86.29
   6  -7  -3  -15.00   36.80
   7  -6   3  -41.10   36.80
   7  -6   3  -25.30   45.90
  -6  -7   3  -67.29   32.30
   6   7   3   36.30   28.80
   7   6  -3    0.50   22.90
  -8  -1   3   -5.30   23.90
   8  -1  -3   39.50   32.20
  -1   8   3   36.10   24.90
   8   1   3   46.10   33.50
   1  -8   3    6.90   16.40
  -1   8   3   49.60   26.60
   8   1   3    3.20   21.80
   8  -1  -3  114.19   36.80
   1   8  -3  -12.90   19.30
   1   8  -3   33.30   25.60
   8   1   3    4.90   32.40
   8  -1   3   15.20   31.80
   8  -1   3   -1.60   18.40
  -1  -8   3   12.30   14.70
   8   1  -3  -21.50   25.00
   1   8   3   -7.00   22.10
   1   8   3    2.40   27.20
  -1   8  -3  -48.00   27.80
   8  -1   3    8.80   31.00
  -1   8  -3   -6.10   22.60
   8   1  -3   16.90   48.90
   8   3   3   21.50   23.80
   8  -3  -3  -47.30   41.50
   3  -8   3    6.10   20.20
   8   3   3   -4.40   52.99
   3   8  -3   13.40   19.50
   3   8  -3  -18.00   24.90
  -3   8   3  -19.10   24.70
  -3   8   3   -8.60   32.40
   8   3  -3   19.40   23.60
   8  -3   3   41.00   39.50
  -3  -8   3   27.70   23.90
   8  -3   3   16.70   31.00
   3   8   3   37.70   32.00
   8  -3   3   -0.30   22.20
  -3   8  -3  -10.50   50.09
   8   3  -3  -72.59   54.59
   8   5   3   76.79   65.79
   8  -5  -3  -10.30   49.80
   8   5   3   90.09   98.39
  -8  -5   3  -23.40   42.70
   5  -8   3    9.90   29.70
   5   8  -3   -2.10   23.40
   8   5   3  -32.20   29.30
   5   8  -3    4.20   32.90
   8  -5  -3  -80.59   59.19
   8  -5   3  -13.60   46.40
  -5   8  -3   38.50   35.80
   8  -5   3   43.10   49.10
   8   5  -3  -72.39   80.29
   5   8   3  -45.30   42.20
   5   8   3  -10.70   29.50
   8   5  -3  -33.30   24.80
   9   0   3   72.69   42.70
   0   9  -3    0.90   35.00
   9   0   3   32.40   26.10
   9   0   3    3.20   46.60
   0   9   3  -20.10   39.50
   9   0  -3   58.79   54.69
   9   0  -3   57.89   36.20
   9  -2  -3   41.20   42.00
   9  -2  -3  -20.90   49.20
   9   2   3   62.39   61.09
  -2   9   3  -18.40   38.10
   2   9  -3    9.70   25.50
  -9  -2   3  -14.30   42.10
   9   2   3    7.50   51.19
   2   9  -3   35.60   35.30
  -2   9   3   74.09   39.20
   9   2   3   -5.10   29.40
   9  -2   3   82.19   50.09
  -2   9  -3   42.60   41.10
   9   2  -3  -29.20   32.30
   9   2  -3 -133.69   77.49
   2   9   3   22.60   33.00
   2   9   3   62.79   44.60
   9  -2   3  -48.10   39.40
   9   4   3   44.00   97.29
   9  -4  -3  109.69   67.79
   4   9  -3  -55.29   36.90
   4   9  -3   -8.40   27.60
   9  -4  -3 -108.89   56.79
   9   4   3   51.19   34.90
   9   4   3  -77.39   72.39
  -9  -4   3  -99.29   53.69
   9  -4  -3   -2.60   35.70
   9   4  -3  -86.69   89.79
   4   9   3    0.10   54.89
   9  -4   3   63.19   45.10
   9   4  -3  -25.00   29.50
   9  -4   3    5.60   54.79
   4   9   3   71.79   38.70
  -4   9  -3  -63.89   46.60
   1  10  -3   -1.30   46.70
  10   1   3   84.09   41.40
  10  -1  -3  -21.80   53.69
  -1  10   3  -35.30   53.79
  10   1   3  -61.99   62.29
  10   1   3  -69.29   65.79
  -1  10   3  -51.19   50.89
  10  -1  -3   17.70   61.89
  -1  10  -3  -58.89   47.50
   1  10   3  -86.09   45.30
  10  -1   3 -115.99   53.49
  10  -1   3  101.99   66.89
   1  10   3   72.49   59.09
  10   1  -3  -91.49   83.59
  10   1  -3   48.30   44.40
   0   0   4 2411.46  122.69
   0   0  -4 2394.96  121.09
   0   0  -4 2136.89  127.69
   0   0  -4 2136.29  123.69
   0   0  -4 2465.15  122.99
   0   0   4 2225.18  121.19
  -1  -1   4  191.08   19.20
  -1   1  -4  232.88   12.70
   1  -1  -4  231.98   20.30
  -1   1  -4  207.28   19.30
  -1  -1  -4  231.68   14.60
   1   1  -4  222.68   16.90
   1  -1   4  212.38   13.10
   1  -1   4  232.58   22.20
   1   1   4  230.58   15.10
  -1   1   4  210.08   16.50
   1  -1  -4  262.37   20.00
  -1   1  -4  221.28   16.50
   1   1  -4  221.08   19.50
   1  -1  -4  217.88   16.40
   1   1   4  204.78   15.90
  -1  -1  -4  220.98   22.00
   1  -1   4  232.08   17.90
   1   1   4  215.18   20.80
  -1  -1   4  220.18   19.60
  -1  -1  -4  195.18   16.60
  -1   1  -4  258.07   22.50
   1  -1   4  236.98   17.90
   1   1  -4  261.97   34.30
  -1   1   4  221.18   16.40
   0   2  -4 9229.38  452.65
   2   0   4 8343.87  448.16
   0   2  -4 8320.87  445.16
   0   2  -4 8219.48  442.86
   0  -2  -4 8529.95  441.36
   2   0   4 7321.57  445.36
   2   0   4 8356.76  441.36
   0  -2  -4 8759.92  446.86
   2   0  -4 8864.51  444.86
   0   2  -4 8958.00  446.86
  -2   0  -4 8394.36  442.46
   0   2   4 8904.91  441.46
   0  -2   4 8846.12  447.16
   2   0  -4 8550.34  444.56
   0  -2   4 8148.19  444.06
   0   2   4 8617.04  445.96
  -2   0  -4 9059.59  442.26
  -2   0  -4 8838.92  447.86
   0  -2  -4 8687.23  442.86
   2   0  -4 7906.81  446.16
   0   2   4 8142.89  443.36
   0  -2  -4 8443.46  444.46
  -2   0   4 8809.62  445.86
  -2  -2  -4 5241.38  267.47
   2  -2   4 5183.78  273.87
  -2   2   4 5056.79  269.67
  -2   2   4 5046.20  268.37
   2   2  -4 4589.54  271.07
   2  -2  -4 5057.39  269.97
   2  -2  -4 5183.88  268.97
  -2   2  -4 5191.68  269.47
   2  -2  -4 5553.64  268.67
  -2   2  -4 5041.60  271.27
   2   2   4 5176.78  275.57
  -2  -2   4 5451.65  272.77
  -2  -2  -4 5215.18  267.77
   2   2  -4 4954.30  280.67
   2  -2  -4 5238.88  268.57
  -2  -2  -4 5218.88  274.97
   2   2  -4 5252.37  270.67
   2   2   4 4317.47  268.17
   2  -2   4 5235.98  270.77
   2   2  -4 5011.70  269.37
   2   2   4 5144.19  267.77
  -2  -2   4 5087.39  273.07
   2  -2   4 5252.37  271.87
   1   3  -4  271.47   50.99
  -3   1  -4  193.78   19.40
  -1  -3  -4  245.98   29.20
  -3  -1   4  190.48   26.70
   3   1   4  301.27   23.30
   1   3  -4  237.78   21.40
  -1   3   4  249.48   20.40
   1   3  -4  299.07   39.00
   3   1   4  233.48   27.80
   3  -1  -4  262.27   23.20
  -3   1  -4  269.07   17.10
   1   3  -4  244.48   20.00
   3  -1  -4  175.78   23.40
  -3  -1   4  252.27   25.30
   3   1   4  268.57   18.00
  -1   3   4  257.77   16.20
   3   1   4  179.48   22.10
   1  -3   4  267.57   21.10
   1  -3   4  264.17   32.30
   3  -1  -4  213.88   26.50
  -1  -3  -4  262.87   22.00
   1   3  -4  276.77   26.90
   1   3   4  257.67   21.50
   3  -1   4  188.58   24.30
  -3  -1  -4  269.27   23.80
  -1   3  -4  250.37   22.70
   1   3   4  241.38   14.20
  -3   1   4  250.17   21.70
   3  -1   4  231.88   25.70
  -1   3  -4  248.68   14.10
   1  -3  -4  250.47   19.80
  -3  -1  -4  224.18   16.90
  -3  -1  -4  240.78   32.60
   1   3   4  272.37   14.00
   3   1  -4  207.88   25.70
  -3  -1  -4  241.28   15.60
  -1   3  -4  222.98   33.00
   1   3   4  267.97   20.40
   1  -3  -4  235.58   22.30
  -1  -3   4  182.58   25.50
  -1   3  -4  209.08   29.20
  -1  -3   4  265.37   22.40
   3  -1   4  251.57   19.00
   3  -1   4  245.88   15.20
   3   1  -4  277.97   20.90
   1  -3  -4  288.77   19.70
  -3  -3  -4  342.77   42.40
  -3  -3  -4  368.96   24.60
  -3   3  -4  323.57   26.70
  -3  -3   4  332.87   30.50
  -3   3   4  304.87   26.40
   3  -3  -4  370.96   29.00
   3   3   4  401.06   26.70
   3  -3   4  333.37   29.40
   3  -3  -4  327.17   23.60
   3   3   4  350.76   25.30
   3   3   4  375.96   40.70
   3  -3   4  320.07   31.00
  -3   3   4  373.66   26.80
   3  -3   4  344.77   32.00
   3   3  -4  337.17   25.80
   3   3  -4  384.76   50.49
   3   3  -4  318.57   28.40
  -3   3  -4  307.27   34.20
   0   4  -4 6804.52  347.97
   4   0  -4 6795.12  352.86
   0  -4   4 6882.61  351.06
   0  -4   4 5734.23  350.76
   0   4  -4 6950.30  353.86
   4   0   4 7059.99  348.67
   4   0   4 6884.71  358.06
   0   4   4 6802.82  351.16
   0   4   4 6791.82  353.66
  -4   0  -4 5797.52  354.06
   0  -4  -4 6818.82  355.86
  -4   0   4 6528.55  353.56
   0   4   4 7020.30  352.76
   2   4  -4 3388.76  168.88
   2   4  -4 3219.78  170.08
  -4   2  -4 3195.48  165.98
   4   2   4 3314.57  168.38
   2   4  -4 3034.90  182.88
  -2   4   4 2954.30  170.88
   2  -4   4 3207.48  170.18
  -4  -2   4 2866.71  177.48
   2  -4   4 3121.39  177.98
  -4  -2   4 2961.60  174.08
  -2  -4  -4 3093.59  179.18
   4   2   4 2764.72  186.28
  -2   4   4 3026.40  169.48
   2   4   4 3116.79  170.08
   2  -4  -4 3353.46  166.58
  -4  -2  -4 3356.06  163.48
   2   4   4 3202.08  163.48
   4   2  -4 2981.80  173.68
   2   4   4 3067.99  177.78
   2   4   4 3203.38  168.68
   4  -2   4 3325.97  168.08
  -4   2   4 3130.79  170.28
   4   2  -4 3138.39  183.28
  -2   4  -4 3046.10  170.98
   4   2  -4 3034.00  167.98
  -2   4  -4 3209.28  173.98
   2  -4  -4 3156.98  169.08
  -2  -4   4 3091.49  169.48
   4  -2   4 3021.80  172.98
   4  -2   4 3096.49  164.08
   4  -2   4 3256.37  163.68
   2   4   4 3065.89  165.08
  -4  -4   4 1610.44  108.29
   4   4  -4 1824.42  105.49
   4   4   4 1756.52  124.69
   4   4  -4 1941.31  124.39
   4  -4   4 1797.62  110.29
   4  -4   4 1857.41  109.49
  -4   4  -4 1891.91  104.99
  -4   4   4 1881.71  105.99
   4   4   4 2015.70  103.69
   4   4  -4 1862.21  103.59
  -4  -4  -4 1821.72  101.39
   4   4   4 1812.82  104.69
  -1  -5  -4   -5.90   23.70
   1  -5   4    6.10    8.80
   1   5  -4    0.30    9.80
  -1   5   4   22.50   10.30
   5   1   4    4.00    8.00
  -5  -1   4   17.50   13.30
   1   5  -4    5.40   31.00
   1  -5   4  -13.80   14.60
   5   1   4   -3.20   15.30
   5  -1  -4   27.50   18.50
  -1   5   4    8.50   10.60
   5   1   4    2.40   18.10
   1   5  -4   -6.30   13.30
   1  -5  -4   12.40   20.10
   5  -1   4    8.20   13.20
   1   5   4   -2.30   10.00
   5  -1   4   17.30   14.90
   5   1  -4   -4.40    9.90
  -1   5  -4    7.90    8.20
   1   5   4    2.60    9.60
  -1  -5   4   -2.00    8.70
  -1   5  -4   23.60   13.40
   5   1  -4  -47.30   19.60
   5   1  -4   -1.20   13.90
   5  -1   4   -0.90    8.60
  -1   5  -4  -13.80   32.40
  -5   1   4    0.70    9.10
   1   5   4    1.70   23.30
   5   3   4  -26.60   26.50
   3   5  -4   16.50   36.10
   3   5  -4   -1.50   10.50
   5   3   4    5.70   10.30
   3  -5   4    5.50   12.20
  -5   3  -4   -5.10   10.90
  -3   5   4   -2.00   12.50
   3   5  -4    3.20   10.30
   3  -5   4   -9.40   18.50
  -5  -3   4   -0.60   18.70
   5  -3  -4   -3.00   18.60
  -5  -3  -4   16.50   11.40
   5  -3   4   -1.90    8.90
   5   3  -4   -1.10    9.40
   5   3  -4   27.80   25.10
  -5  -3  -4   11.80   10.20
   5   3  -4  -21.00   12.10
   5  -3   4    0.00    6.90
   3   5   4   -4.90    9.20
   3   5   4   -3.80   32.80
   3  -5  -4    2.10   16.50
   3  -5  -4    0.10   18.60
   5  -3   4   -2.80   16.40
  -3   5  -4   11.50   12.70
   5  -3   4   -9.30   21.70
  -5   3   4   16.50   12.90
   3   5   4    1.80   11.60
   3   5   4   -1.90   10.70
   3  -5  -4    3.50   16.90
   3   5   4   10.20   12.40
   5  -3   4   -4.80   15.60
  -3  -5   4   13.10   13.30
   5   5  -4  -23.50   37.50
   5   5   4   48.80   26.60
   5  -5   4   -0.30   20.50
   5  -5   4   35.30   23.50
   5   5   4    1.90   16.00
  -5  -5   4  -15.10   19.80
   5   5  -4   -1.50   12.70
   5   5   4  119.79   51.79
  -5   5  -4   -0.60   15.10
   5   5  -4    3.80   15.00
   0   6  -4 1574.84  115.69
   0  -6  -4 1516.65  103.99
   6   0  -4 1649.23  105.89
   6   0  -4 1500.25   98.49
   6   0   4 1599.54   87.79
   0   6   4 1520.95   91.09
   0   6   4 1461.25   93.79
   6   0   4 1572.84  100.59
  -6   0   4 1452.85   93.49
   0  -6   4 1603.54   88.99
   0   6  -4 1488.75   94.49
  -2   6   4 2467.55  140.29
   6   2   4 2604.44  138.89
   6   2   4 2562.54  155.38
  -6  -2   4 2328.17  145.59
   2  -6   4 2593.94  137.39
   2  -6   4 2141.79  133.59
   6  -2  -4 2570.84  148.49
   2   6  -4 2482.25  161.78
   6  -2  -4 2431.16  144.29
  -2   6   4 2458.25  143.09
   2   6  -4 2441.36  141.19
   2   6  -4 2562.94  135.99
   6  -2  -4 2184.28  149.79
   6   2  -4 2433.76  156.08
   6  -2   4 2509.75  145.79
   6  -2   4 2645.44  133.69
   2  -6  -4 2532.85  145.69
   6   2  -4 2390.36  144.09
  -6   2   4 2491.65  141.29
   6  -2   4 2547.25  131.89
  -2   6  -4 2487.65  132.69
   2   6   4 2405.66  142.29
   2   6   4 2508.35  139.59
  -2  -6   4 2429.96  136.19
   2  -6  -4 2715.93  129.99
  -2   6  -4 2360.46  144.09
   2  -6  -4 2487.15  130.49
   2   6   4 2379.06  155.28
   6   2  -4 2504.65  134.89
   4  -6   4 2340.37  128.09
  -6   4  -4 2206.88  122.39
  -6  -4   4 1878.11  134.79
   4   6  -4 2187.18  126.29
   6   4   4 2229.18  127.99
   6   4   4 2244.68  152.08
  -4   6   4 2381.36  129.09
   4   6  -4 2198.48  149.19
   4   6  -4 2337.97  123.99
   4   6   4 2257.67  128.59
   6  -4   4 2159.58  131.39
   4   6   4 2267.57  127.29
   4  -6  -4 1784.42  123.99
   4  -6  -4 2237.08  124.79
  -4  -6   4 2021.40  125.89
   6   4  -4 2252.47  121.89
   4   6   4 2256.57  166.48
   6   4  -4 2385.86  128.19
   6  -4   4 2080.59  134.59
   6   4  -4 2096.79  148.29
  -4   6  -4 2138.59  129.39
   6   6  -4  837.72   61.09
   6   6  -4  704.43   97.39
   6  -6   4  910.11   73.49
  -6  -6   4  875.41   71.49
  -6   6  -4  848.72   66.89
   6  -6   4  919.91   87.49
   6   6  -4  934.31   62.99
   6   6   4  837.22   67.39
   7   1   4   66.09   32.00
   1   7  -4   22.50   15.00
   7  -1  -4   37.10   36.80
  -1   7   4  -11.00   18.10
  -7  -1   4    1.70   18.20
   7   1   4  -20.60   27.90
   7   1   4   37.90   16.20
   7  -1  -4   32.20   18.60
   7  -1  -4   -1.70   31.00
   1  -7   4    7.00   14.40
  -1   7   4   24.80   18.90
   1   7  -4   40.80   19.40
   7  -1   4    9.30   24.70
   7   1  -4   60.99   38.00
   7   1  -4   38.90   24.80
   1   7   4   37.80   22.00
  -7   1   4   18.60   19.10
  -1   7  -4    3.50   22.20
   1   7   4   19.50   17.70
  -1  -7   4   37.70   13.70
   7  -1   4   38.40   24.70
  -1   7  -4    9.70   22.10
   7  -1   4    7.00   13.20
   7  -3  -4   80.79   23.90
   3  -7   4   87.19   19.70
  -3   7   4   59.29   23.90
   7   3   4   90.69   34.30
   3   7  -4   88.49   18.80
   7   3   4   99.79   23.20
   7  -3  -4   58.39   39.10
  -7  -3   4   82.99   30.60
   3   7  -4   82.19   22.30
  -3   7   4   59.29   22.10
   7   3   4   36.90   43.20
   7  -3  -4   82.09   34.30
   7   3  -4   68.49   15.60
  -3  -7   4   61.79   20.60
   7   3  -4   46.80   21.20
   7  -3   4   31.40   30.00
   7  -3   4   49.70   26.40
   3   7   4   74.19   24.10
   3   7   4   71.69   27.70
   3  -7  -4  149.99   51.79
   7   3  -4  160.58   48.80
  -3   7  -4   78.79   23.50
   7   5   4  -53.49   64.89
  -7  -5   4   21.20   32.20
   7  -5  -4  -86.59   33.70
   7   5   4   10.50   25.30
   7   5   4   44.10   47.20
   7  -5  -4   35.40   40.10
   5   7  -4   -2.00   26.00
   5   7  -4   -6.80   22.10
   7  -5  -4   19.10   44.70
   5  -7   4   21.90   25.80
  -5   7  -4   47.50   27.50
   7  -5   4  -18.80   33.50
   7   5  -4  -53.29   62.69
   7   5  -4    7.90   22.50
  -5  -7   4    0.90   27.60
   5  -7  -4  -64.89   35.50
   7  -5   4    3.10   33.10
   5   7   4   13.10   30.20
   7   5  -4   24.10   21.80
   5   7   4   28.30   26.70
   7   7  -4  -17.60   26.40
   7  -7  -4  145.99   62.69
   7  -7   4   39.00   43.40
   7   7   4   33.30   35.40
  -7  -7   4  -62.89   44.10
   8   0   4  869.31   87.79
   8   0  -4 1333.17  107.69
   0   8  -4  987.40   80.59
  -8   0   4 1048.70   79.19
   0  -8   4 1099.49   65.79
   8   0   4 1093.79   68.79
   0   8   4 1073.69   76.79
   0   8   4 1158.98   84.79
   0   8  -4 1006.50   68.99
   8   0   4 1113.79   90.09
   8   2   4  923.21   94.69
  -2   8   4 1008.10  105.09
  -2   8   4 1255.87   86.89
   2   8  -4 1209.18   76.59
   8  -2  -4 1373.96  104.59
   8  -2  -4 1329.37  121.39
   8   2   4 1272.17   81.59
   2   8  -4 1259.67   91.79
   8   2   4 1276.17  106.39
   2  -8   4 1285.77   77.09
   2   8   4 1248.18   93.39
   8  -2   4 1308.87   73.19
   2   8   4 1230.28   84.09
  -2  -8   4 1167.88   74.89
   8   2  -4 1238.78  109.99
  -2   8  -4 1378.46  121.99
   8  -2   4  959.70  119.69
   8  -4  -4 1198.28  100.79
   8   4   4 1290.27  128.79
   4  -8   4 1133.29   73.19
   8  -4  -4 1088.99  104.29
   8  -4  -4 1108.29   71.99
   4   8  -4 1106.49   80.29
  -8  -4   4  832.62   92.59
   8   4   4  719.43  100.59
  -4   8   4 1160.58   86.39
   8   4   4  994.40   78.89
   4   8  -4 1104.69   70.29
   4   8   4  926.91   86.09
   8  -4   4  991.10   96.79
   8   4  -4 1039.60  126.89
   8  -4   4 1090.89   93.19
   8   4  -4 1145.69   76.29
  -4   8  -4  882.31   83.89
   4   8   4 1026.30   81.69
  -4  -8   4  924.41   73.79
   8   6   4  461.65   66.49
   6   8  -4  551.44   71.99
   6   8  -4  668.93   56.79
  -8  -6   4  522.75   70.89
   8  -6  -4  579.74   77.89
   6  -8   4  532.05   73.29
   8  -6   4  678.13   83.59
   8  -6   4  603.64   86.79
   6   8   4  612.04   68.19
   8   6  -4  587.34   57.29
  -6   8  -4  491.15   67.49
   9   1   4  -41.50   49.50
   1   9  -4  -30.60   32.20
  -1   9   4    9.60   36.80
   9   1   4    6.90   36.00
   9  -1  -4  147.29   51.19
  -1   9   4  -12.30   36.70
   9   1   4   19.50   48.80
   1   9  -4  -21.60   26.60
  -9  -1   4   26.30   39.80
   9  -1  -4  -35.80   49.10
   1   9   4  -80.99   39.30
   9  -1   4  -89.19   45.40
   9  -1   4  -37.10   22.40
   9   1  -4  -41.90   66.99
   9   1  -4   90.79   40.50
   9  -1   4  -51.79   44.60
  -1   9  -4   61.29   39.80
   1   9   4  -28.70   33.50
   9   3   4   48.00   63.39
   9  -3  -4  -25.40   42.30
  -3   9   4   -7.10   43.60
   3   9  -4  -50.89   34.60
   9   3   4  -26.30   33.30
   9  -3  -4   28.40   61.59
  -9  -3   4  -71.69   53.39
   9   3   4  -65.79   67.69
   3   9  -4   55.49   25.80
   9  -3   4   15.10   51.59
   9   3  -4  -51.69   30.70
  -3   9  -4   10.20   44.10
   9   3  -4  -10.30   78.09
   9  -3   4  -42.40   46.60
   3   9   4  -48.50   37.10
   3   9   4   62.69   48.70
  10   0  -4 1033.00  117.19
  10   0   4  840.62  119.69
  10   0  -4  968.30  101.59
   0  10   4  831.22   96.89
   0  10   4  951.00  108.19
   0  10  -4  842.82   96.59
  10   0   4  984.10  115.79
   2  10  -4  599.94   82.39
  10   2   4  465.05   93.89
  10  -2  -4  432.76   75.69
  10   2   4  407.06  100.09
  10  -2  -4  553.04   84.59
  -2  10   4  552.54   79.79
  10   2   4  492.85   60.39
  10  -2   4  561.64   90.59
  10   2  -4  636.84   66.69
  10  -2   4  760.42   92.09
   2  10   4  388.76   78.59
  10   2  -4  492.15  125.89
  -2  10  -4  518.95   74.59
   2  10   4  519.65   69.39
   0   1  -5    4.40    8.80
   1   0  -5   -1.00    6.30
   0   1  -5    0.40   14.60
  -1   0   5   -6.30    7.70
   0   1   5    4.50    7.50
   1   0   5   -0.40    8.40
   1   0  -5    5.70    9.90
   1   0  -5   -3.00    6.90
  -1   0  -5   -1.90    3.40
   0   1  -5    3.00    4.60
   1   0   5   -0.50    8.30
  -1   0  -5    7.40   11.90
  -1   0  -5    2.90    6.00
  -1   0   5    3.60   10.80
   0  -1  -5    4.70    6.00
   0  -1  -5    1.00    8.70
  -1   0   5   -2.80    4.80
   1   0   5   -0.50    3.80
   0  -1   5  -14.10   11.50
   1   0   5    2.00    6.00
   0  -1   5    1.20    9.00
   0   1  -5    4.20    5.70
   0   1   5   -6.10    4.40
   0  -1   5    4.10    6.60
  -1   0  -5   -2.10    7.30
   0  -1  -5    7.90    5.20
   1   0  -5   -4.00   12.90
   0  -1  -5    5.60    8.00
   1   2  -5  448.46   30.90
   2   1   5  458.65   31.40
  -1  -2  -5  479.85   38.10
  -1  -2  -5  464.75   28.60
   2  -1  -5  495.15   38.30
   2  -1  -5  506.75   32.80
  -2   1  -5  483.25   26.70
   1   2  -5  545.15   56.79
  -2  -1   5  439.16   35.20
   2  -1  -5  408.66   31.30
  -2   1  -5  474.25   30.00
   1  -2   5  412.26   36.90
   1  -2   5  454.95   34.60
  -2   1  -5  473.55   38.80
   2   1   5  450.35   37.40
  -1  -2  -5  471.65   30.80
   2   1   5  455.65   27.80
  -1   2   5  512.35   28.70
  -2  -1   5  360.66   35.70
   1   2  -5  382.16   31.10
   1  -2   5  457.75   31.20
   2  -1   5  465.15   31.50
   2  -1   5  458.75   25.70
   1  -2  -5  494.45   31.10
  -2  -1  -5  448.56   38.60
   1   2   5  473.75   29.30
   1  -2  -5  459.75   32.20
  -1   2  -5  480.55   24.90
  -2  -1  -5  487.45   28.20
  -1   2  -5  433.16   25.80
   1  -2  -5  471.75   33.60
  -2   1   5  483.65   31.40
  -2   1   5  472.45   31.10
  -1  -2   5  463.95   33.10
   1   2   5  455.15   35.70
   2  -1   5  450.95   35.90
   2   1  -5  519.05   33.30
  -2  -1  -5  375.76   30.80
   2  -1   5  470.65   33.20
   1  -2  -5  472.15   30.20
   1   2   5  494.25   28.50
  -1   2  -5  452.75   40.40
   2   1  -5  476.25   32.10
  -1   2  -5  463.65   31.50
   2   1  -5  474.65   33.90
   0  -3   5   -3.40    8.20
   3   0   5   -6.40    8.50
  -3   0   5   -8.70   16.20
   0   3  -5    5.90    5.90
   3   0   5    3.90   10.60
  -3   0  -5   -4.20    5.70
   0  -3  -5   -6.90   12.40
   0   3   5  -13.20   12.00
  -3   0  -5   14.90    9.90
   0   3  -5   -2.50   20.00
   3   0  -5    2.20   10.40
   0   3   5   -2.60    3.70
   0  -3  -5    1.50    8.00
   0   3  -5   -7.00   28.50
   3   0   5    1.60   12.00
   3   0   5   -5.40    4.50
   0   3  -5   -3.60    6.80
   0   3   5    3.80    6.30
  -2   3   5   34.60   10.80
  -3  -2   5   28.00   13.30
  -3   2  -5   26.80    9.20
  -2  -3  -5   37.00   22.90
   3   2   5   22.50   15.40
   3  -2  -5   -5.70   12.40
   2   3  -5   58.89   29.00
   3  -2  -5   41.40   13.90
   2  -3   5   34.80   15.80
  -2   3   5   32.20    8.80
   2  -3   5   31.00   10.40
   2   3  -5   29.20    9.60
   3   2   5   34.00   12.60
   3   2   5   38.80   13.00
  -2  -3  -5   35.70   11.30
   3   2   5   41.30    9.00
   2   3  -5    6.10   12.00
  -2  -3   5   23.70   11.10
   2   3   5   35.60    9.10
  -2   3  -5   40.00   27.30
   3  -2   5   34.30   11.60
  -3  -2  -5   48.30   24.90
  -3  -2  -5    5.20   10.50
  -2   3  -5   17.10   14.50
   2  -3  -5   40.60   13.30
   3   2  -5   25.80   12.20
   2   3   5   38.90    8.80
   2   3   5   41.70    9.50
  -3   2   5   19.30   11.10
  -3   2   5   39.60   10.60
  -3  -2  -5   34.80    7.70
   3  -2   5   14.40   12.50
   3  -2   5   45.20   14.70
   2  -3  -5   36.70   12.20
   2   3   5   39.20   16.20
   4  -1  -5   96.69   18.60
  -1  -4  -5   68.09   21.00
   1   4  -5   85.39   12.70
  -4  -1   5   79.09   16.40
   4   1   5   94.79   21.60
  -1   4   5   76.09   12.70
   1   4  -5   69.59   12.60
   4   1   5   77.19   18.40
  -4   1  -5   62.99   14.80
  -4   1  -5   94.59   10.00
   1  -4   5   76.19   14.20
   1   4  -5   95.39   31.40
  -1  -4   5   61.49   24.80
   4  -1   5   82.49    9.50
   1   4   5   71.69   13.40
   4   1  -5   91.09   20.30
   1   4   5   83.89   12.90
   1   4   5  118.79   23.80
   4  -1   5   58.89   17.00
  -1   4  -5   74.59    8.00
  -1  -4   5   91.29   14.90
   1  -4  -5   70.19   19.00
  -4   1   5   90.99   15.80
   4  -1   5   77.79   13.40
  -1   4  -5  114.89   17.30
  -1   4  -5  100.29   32.20
   4   1  -5  125.99   29.00
   4  -1   5   81.29   17.40
  -4  -3   5   27.90   16.20
   4   3   5   52.99   29.20
  -4   3  -5   14.20   12.10
   4  -3  -5    3.60   17.80
   4   3   5    9.00   18.40
   3  -4   5   17.10   14.80
  -3   4   5   -8.90   10.40
   3   4  -5   12.80    9.10
   3   4  -5   31.50   12.10
   3   4  -5   28.80   34.90
   3  -4   5    6.40   12.40
   4   3   5   15.50    9.30
   3   4   5    8.60    9.70
   4   3  -5   27.20   13.80
   4  -3   5   -4.90   14.10
   3   4   5   35.00   25.60
   3  -4  -5    0.00   12.80
  -3  -4   5   -0.80   11.80
   3  -4  -5    5.90   16.70
  -3   4  -5    3.90   10.50
  -4   3   5   14.40   11.20
   3   4   5   -1.80   12.60
   3   4   5    6.60   10.40
   4   3  -5   44.70   28.30
   4  -3   5    3.80   14.00
   4   3  -5   11.10    9.10
  -4  -3  -5   12.30    9.00
   5   0  -5    4.60   16.60
   5   0  -5   -4.50   11.70
   0  -5  -5   15.00   24.70
   5   0   5  -14.10   16.20
   0  -5   5   -5.70    9.20
   0   5  -5   -0.10    9.30
   0   5   5   17.80   12.20
  -5   0   5    5.70   13.60
   0   5  -5   -5.00    9.80
   0   5   5   13.50   22.40
   0  -5   5   19.60   23.20
   5   0   5   15.70   19.20
   5   0   5    9.00    7.10
   5   0  -5  -11.30   23.90
   0   5   5   -4.10   10.40
  -2  -5  -5  111.29   45.30
  -2   5   5  147.09   21.20
   5   2   5  152.08   18.80
   5   2   5  192.78   34.40
   2   5  -5  146.89   20.10
  -5   2  -5  172.18   17.20
  -5  -2   5  171.38   29.60
   5  -2  -5  138.29   27.00
   5   2   5  158.48   27.40
   2   5  -5  134.69   18.60
   2   5  -5  183.28   45.00
   2  -5   5  168.28   20.70
   2  -5  -5  135.59   17.80
  -2  -5   5  168.58   20.00
  -5   2   5  154.28   22.10
  -2   5  -5  145.99   23.90
   5   2  -5  147.19   18.50
  -2   5  -5  146.59   42.90
   2  -5  -5  173.58   27.60
   2  -5  -5  146.29   19.60
   5  -2   5  143.59   27.50
   5   2  -5  157.08   25.30
   2   5   5  140.99   20.80
   5  -2   5  154.48   18.10
   2   5   5  164.88   20.70
   5   2  -5  181.78   37.60
   5  -2   5  157.18   27.00
   5  -2   5  184.88   13.70
   5  -2   5  162.98   24.00
   4   5  -5   16.60   34.00
   5   4   5   33.20   34.10
   4  -5   5   54.29   24.10
   4   5  -5   30.00   12.80
   4  -5   5   26.90   18.20
   4   5  -5   21.40   13.80
  -4   5   5   31.30   18.40
   5   4   5   43.30   15.60
  -5  -4   5   51.99   23.60
   5  -4  -5  -17.30   22.30
   5   4   5   30.90   21.50
  -5   4  -5   31.50   13.90
   5   4  -5   19.70   11.90
   5   4  -5   54.69   16.60
  -4  -5   5    2.30   17.00
   4   5   5   27.40   22.60
   5  -4   5   65.59   23.20
   5   4  -5   64.49   38.10
   4   5   5   24.50   15.50
   4  -5  -5   41.40   15.50
  -4   5  -5   40.40   16.00
   4   5   5   61.19   45.70
   5  -4   5   38.40   23.50
   6   1   5   -7.50   21.30
  -1   6   5   34.50   16.00
   6  -1  -5   22.00   16.60
   1   6  -5  -48.30   40.10
  -1   6   5   21.40   13.90
   6   1   5   31.30   22.60
   1  -6   5   38.30   13.40
  -1  -6  -5   -7.30   45.00
   6  -1  -5  -55.99   30.80
   1   6  -5   57.29   16.60
   6   1   5   26.30   11.60
   6  -1  -5   24.90   24.30
  -6  -1   5   44.60   20.40
   1  -6   5   36.60   22.40
   1   6  -5   29.60   11.60
  -1   6  -5   53.69   19.00
   1  -6  -5    1.30   33.30
   6   1  -5   20.50   19.60
  -1  -6   5   24.40   12.40
   6   1  -5   66.79   28.10
   6   1  -5   42.70   13.10
   1   6   5   12.70   14.40
  -6   1   5   39.20   17.40
  -1   6  -5   26.00   13.00
   6  -1   5    8.60   20.00
   1   6   5   24.50   14.70
   6  -1   5   16.50    9.80
   6  -1   5   26.70   20.30
   3   6  -5    7.30   12.00
   6   3   5   28.90   25.30
   3   6  -5   -5.90   13.10
   3   6  -5   -4.30   52.59
  -6  -3   5   12.90   27.90
  -3   6   5   11.40   16.50
  -6   3  -5  -15.20   13.60
   3  -6   5   24.40   14.80
   6  -3  -5   -6.00   24.80
   6   3   5   -8.50   13.40
   6  -3  -5  -40.30   31.40
   6   3   5   -8.40   31.80
   6  -3   5   12.90   23.90
   6  -3   5   11.40    7.70
   6   3  -5    4.30   11.50
  -6   3   5    6.90   16.30
  -3   6  -5   -8.30   17.50
   3  -6  -5  -15.80   31.00
   3   6   5  -42.00   82.29
   3  -6  -5   40.10   19.20
   6   3  -5   17.90   18.40
   3   6   5   25.20   17.40
   6   3  -5    6.10   37.70
   3   6   5  -20.10   13.90
  -3  -6   5   21.70   14.70
   6  -3   5  -15.60   20.60
   5  -6   5   43.90   38.00
   6  -5  -5   26.40   36.90
   6   5   5  -10.30   21.40
   5   6  -5   93.09   49.60
   5   6  -5   32.20   18.00
   5   6  -5   12.40   16.90
   5  -6   5   -1.40   23.40
   6   5   5  -16.50   36.30
  -6   5  -5   13.70   19.00
   6   5   5  111.79   62.99
  -6  -5   5   -1.90   26.00
   5   6   5   33.40   22.80
   6  -5   5   35.10   27.80
   6   5  -5   19.80   15.90
  -5   6  -5   10.70   21.80
  -5  -6   5   16.60   25.10
   6   5  -5   54.19   48.00
   5  -6  -5  -19.40   26.90
   6   5  -5   24.00   17.70
   6  -5   5   25.20   30.90
   5  -6  -5   19.40   21.00
   7   0   5  -24.10   28.90
   7   0  -5   -7.90   28.70
   7   0  -5  -14.70   14.30
   0   7  -5    2.60   18.10
   0   7   5    2.40   19.40
   0  -7   5  -13.60   14.00
   0   7  -5   -1.90   15.20
   7   0   5   14.70   26.70
   7   0   5   -1.60   11.90
   0   7   5   21.40   20.60
  -7   0   5   26.30   21.90
   7   0  -5   15.30   33.50
   7   2   5    7.90   16.70
  -2   7   5   20.80   18.90
   7   2   5  -37.60   28.10
   7  -2  -5  -14.20   34.00
   2  -7   5   -2.10   16.10
   7  -2  -5   -4.50   25.30
   7   2   5   23.60   38.80
   2   7  -5   32.10   19.00
  -7  -2   5   23.90   27.30
   7  -2  -5   -8.40   35.50
   2   7  -5  -10.90   13.40
  -2   7   5   37.20   22.80
   7   2  -5  -25.00   38.80
  -2  -7   5   -3.40   14.30
  -7   2   5  -14.20   18.20
  -2   7  -5   35.00   23.30
   7   2  -5   17.10   13.90
   2   7   5   -3.80   20.60
   7   2  -5   28.30   25.20
   2   7   5    6.10   18.00
   7  -2   5   26.20   24.80
   7  -2   5   22.10   25.50
   7  -2   5   21.00   11.00
   7   4   5   10.10   61.89
   7  -4  -5   38.50   42.80
   7  -4  -5   58.59   37.20
   4  -7   5   31.80   21.90
  -7  -4   5   29.50   32.90
   4   7  -5  -20.00   15.90
  -4   7   5  -24.00   26.10
   7   4   5   -1.40   20.70
   4   7  -5    5.30   20.40
   7   4   5   72.99   43.30
   7   4  -5   14.60   16.60
   7   4  -5    1.50   50.99
   4  -7  -5  -32.20   33.90
  -4  -7   5   12.90   22.30
  -4   7  -5   16.40   25.30
   7  -4   5  -40.30   34.40
   6  -7   5    2.10   35.50
  -7  -6   5   -3.30   37.90
   7   6   5    2.90   34.90
   7  -6  -5  -61.69   48.20
   7  -6  -5   90.39   58.39
   7  -6  -5   13.50   53.99
   6   7  -5    6.90   36.30
   6   7  -5   21.30   24.00
   7   6  -5   10.50   26.30
  -6  -7   5  -16.90   38.70
   7  -6   5  -67.19   40.40
   7   6  -5  101.69   82.19
   6   7   5   43.50   34.70
   7  -6   5   32.90   52.99
  -8  -1   5   20.50   45.80
   1   8  -5   11.40   19.70
   8   1   5    8.60   36.00
   8  -1  -5   11.20   40.70
   8  -1  -5   69.19   23.70
  -1   8   5  140.09   55.59
   8   1   5   57.59   19.70
   1  -8   5   22.60   20.80
  -1   8   5   62.39   27.50
   8   1   5   66.49   40.40
   8  -1   5   21.60   16.00
   8   1  -5  -23.10   38.40
   8  -1   5   74.99   45.90
   1   8   5   37.20   25.40
   1   8   5   15.20   30.00
  -1  -8   5   42.30   17.60
   8   3   5   27.20   57.79
   3   8  -5    8.00   19.20
   8   3   5  -49.30   44.10
   8  -3  -5   -5.70   53.99
   3   8  -5   29.70   25.60
   8  -3  -5   12.50   30.10
  -8  -3   5   41.60   42.20
  -3   8   5  -49.99   30.10
   8  -3  -5  -33.80   41.50
   3  -8   5  -50.79   21.20
   8  -3   5  -50.59   38.80
   3   8   5   13.40   30.50
   8  -3   5   47.00   40.20
  -3   8  -5   12.10   32.50
   3   8   5   -6.80   27.70
   8   3  -5   -2.80   27.90
  -3  -8   5   -3.80   23.30
   8   3  -5   26.80   49.80
   5  -8   5   48.90   34.40
   8  -5  -5   88.49   67.79
   8  -5  -5   49.00   52.89
   8   5   5   83.89   37.30
  -8  -5   5   12.80   43.90
   5   8  -5   81.19   33.20
   5   8  -5   16.60   25.90
  -5   8  -5  -58.99   40.30
   8   5  -5   -8.00   29.90
   8  -5   5   53.49   55.19
   8  -5   5  -58.69   44.30
   8   5  -5   47.00   85.19
   5   8   5  120.29   38.90
   9   0   5   49.70   23.50
   9   0  -5   20.30   48.50
  -9   0   5   -9.60   37.10
   9   0  -5  108.59   70.09
   0   9   5  -24.40   38.90
   0   9  -5   13.20   34.50
   9   0   5   15.70   52.99
   9   0   5  -53.19   47.30
   0   9   5   41.70   41.50
   2   9  -5    6.00   33.50
   9   2   5   75.59   62.79
   2   9  -5  -12.00   25.90
   9   2   5   44.70   29.20
   9  -2  -5   61.19   60.89
   9   2   5   -1.00   56.89
  -9  -2   5   -2.70   47.10
  -2   9   5   29.30   42.10
   9  -2  -5  -18.60   47.70
   9   2  -5  -69.89   36.50
   2   9   5    3.60   44.10
   9   2  -5  -13.30   63.29
   9  -2   5   50.19   49.90
  -2   9  -5   15.50   41.20
   9  -2   5   39.30   54.39
   2   9   5   22.50   40.70
  -9  -4   5   41.20   54.69
   4   9  -5   35.30   29.20
   9   4   5   -4.90   38.70
   9  -4  -5  -66.09   74.89
   9  -4  -5  -69.59   39.10
  -4   9   5    4.40   57.29
   9   4   5  -26.90   80.49
   9   4   5   42.40  105.69
   4   9  -5  -44.20   38.20
   9   4  -5  -31.10   34.50
   4   9   5  -22.00   42.00
  -4   9  -5   24.80   51.59
   9   4  -5  -72.29   91.89
   9  -4   5  -53.19   54.99
   9  -4   5   88.99   56.29
  10   1   5  -38.40   38.10
  10  -1  -5   16.40   73.99
  10   1   5  -26.50   72.79
  -1  10   5  -24.40   59.39
  10  -1  -5   45.60   64.79
  10   1   5   76.29   71.89
   1  10  -5   -8.80   43.80
  10  -1   5  -66.29   62.89
  -1  10  -5  -20.00   49.20
  10   1  -5  -90.69   51.29
   1  10   5  -29.30   52.09
  10  -1   5   56.59   71.49
  10   1  -5  -92.49   89.29
   0   0   6  141.69   15.60
   0   0   6  172.78   23.50
   0   0  -6  146.09   17.70
   0   0   6  123.09   20.80
   0   0   6  129.69   12.50
   0   0  -6  126.89   12.30
   0   0  -6  132.79   22.60
   0   0  -6  105.69   16.10
   1  -1   6 5161.38  270.07
  -1   1   6 5172.78  273.47
   1  -1   6 5237.18  274.07
  -1  -1  -6 5496.75  279.57
  -1   1  -6 5458.75  280.07
  -1  -1  -6 4733.73  273.57
   1   1   6 5394.26  272.97
   1  -1  -6 5425.56  275.17
   1   1  -6 5555.84  285.67
   1  -1  -6 5060.69  272.57
   1   1  -6 5216.08  275.17
  -1  -1   6 4281.07  276.77
  -1  -1  -6 5366.76  271.07
   1  -1  -6 5337.57  278.27
  -1   1  -6 5063.89  276.67
   1  -1   6 5078.39  280.47
  -1   1  -6 5367.26  269.57
   1   1  -6 5310.97  272.87
  -1   1  -6 5234.78  273.57
   1   1   6 5135.39  278.87
  -1  -1   6 5262.37  276.17
   1  -1   6 4819.42  275.67
   1   1   6 5107.89  271.77
  -1   1   6 5378.16  274.57
   2   0  -6    7.00   11.00
  -2   0  -6   16.20    7.60
   0  -2  -6   19.20    7.50
   0  -2  -6    7.20    9.90
   2   0   6   23.50    5.70
   2   0  -6   10.80   13.10
  -2   0   6    3.90   17.30
   2   0  -6   34.10   23.10
  -2   0   6   21.60   11.90
   2   0   6   21.40    9.80
   0  -2  -6   17.50    9.30
  -2   0  -6   32.50   20.30
   0   2  -6   -7.90   26.40
   0   2  -6   18.50    8.00
  -2   0  -6   42.50   15.80
   0  -2  -6    6.40   12.40
   0   2   6   17.00    7.90
   0  -2   6   26.60   10.10
   2   0   6   13.80   11.50
   0  -2  -6   29.80   15.90
   0   2  -6    8.10    7.00
   0   2  -6   17.90    8.50
   0   2   6   17.20    9.10
  -2   0  -6   15.30    5.60
   0   2   6   23.40   13.80
   2   0   6   15.60   14.60
   2   0  -6   11.70   11.60
   2  -2   6   -2.80    8.60
   2  -2  -6   16.80   15.30
  -2  -2  -6  -18.60    9.50
  -2  -2   6   -6.80    7.90
   2   2  -6    6.70    7.10
  -2   2  -6    1.60    8.40
   2   2   6    4.80    8.70
   2  -2   6   13.60   18.30
   2   2  -6   -4.80   11.80
   2  -2   6   -3.20   13.30
  -2  -2  -6    2.60   19.90
  -2   2   6    2.00    8.30
   2   2   6    2.60    7.40
   2   2   6  -11.20   14.70
   2   2  -6   32.50   41.20
   2  -2  -6   25.10   12.70
   2  -2  -6   12.60   13.70
  -2   2   6   -2.20    7.10
  -2  -2  -6    7.20    9.30
  -1  -3  -6 4929.01  261.57
  -1   3   6 5088.89  250.97
  -3  -1   6 4774.32  259.57
  -1   3   6 4841.62  254.87
   3   1   6 4405.76  256.07
   3   1   6 4917.91  251.37
  -3   1  -6 4716.23  252.27
   1   3  -6 4716.93  255.37
   1   3  -6 4753.72  269.27
   1   3  -6 4737.63  254.07
  -3   1  -6 4675.43  253.07
   1  -3   6 4658.53  254.47
   3   1   6 4589.84  262.17
   1   3  -6 4638.04  278.27
   1  -3  -6 5156.18  251.17
  -1   3  -6 4875.01  255.67
  -3  -1  -6 4953.90  250.97
   1  -3  -6 4629.84  257.17
  -3  -1  -6 5020.10  253.07
   3  -1   6 4768.82  248.98
  -1   3  -6 4951.10  247.88
  -1   3  -6 4643.44  247.68
   1   3   6 4828.42  253.57
   3  -1   6 4611.34  254.27
   3   1  -6 5122.89  256.57
   3  -1   6 4679.73  257.57
  -3   1   6 4753.92  255.57
   1   3   6 4868.11  250.57
   3  -1   6 4617.84  260.47
  -1  -3   6 4884.21  255.97
  -3  -1  -6 4649.63  252.37
   3   3   6 2756.52  147.29
  -3   3   6 2709.33  148.19
   3   3   6 2678.93  159.98
   3  -3   6 2659.73  151.58
  -3  -3   6 2652.13  151.48
   3   3   6 2665.53  147.89
   3   3   6 3098.99  147.39
  -3   3   6 2684.13  149.99
   3  -3   6 2674.43  157.08
   3   3  -6 2550.04  151.58
  -3  -3  -6 2658.23  145.99
   3  -3  -6 2703.33  149.39
   3   3  -6 2612.54  167.58
   3   3  -6 2823.92  149.79
  -3   3  -6 2750.22  149.09
   0   4  -6   12.90    8.80
  -4   0  -6   23.20    8.00
  -4   0   6   42.20   14.00
  -4   0  -6   47.30   21.90
   0  -4  -6   35.20   21.50
   4   0  -6   27.00   12.20
   4   0   6   31.90    7.90
   4   0   6   34.90   18.40
   0   4  -6   25.70   33.10
   0  -4   6   33.10   11.50
   0   4   6   23.20   10.80
   0   4   6   29.40   20.30
   0   4  -6   24.70    8.00
   4   0   6   28.10   14.20
   4   0  -6   11.50   17.20
   4  -2  -6   31.00   17.00
   4   2   6   19.40   20.20
  -2   4   6    5.40    9.60
   2   4  -6   -1.10    8.20
  -4  -2   6    9.50   15.30
   2  -4   6   21.10   10.50
  -4   2  -6    3.60    8.80
   2  -4   6    4.40   16.90
   2   4  -6   -8.80    9.00
   4   2   6   -5.90    7.30
  -2   4   6   -0.10    9.10
   4   2   6   -9.90   12.70
  -2  -4  -6   25.30   34.90
   2   4  -6  -36.50   27.80
   4   2  -6   14.10   14.50
   2   4   6   -8.30    9.20
   4   2  -6   16.50   10.60
   4  -2   6    4.10   12.00
   2   4   6   -2.70   22.30
   4  -2   6    1.70   15.70
   2   4   6   -2.40    6.30
  -4   2   6    3.10   10.30
  -2   4  -6   -2.30   10.70
  -4  -2  -6    1.50   10.30
   4   2  -6  -17.70   23.50
  -2   4  -6   -5.60   35.20
  -4  -2  -6    4.80    7.40
   2  -4  -6   -1.80   15.80
  -2  -4   6    5.20    9.60
   4  -2   6   -3.00   16.40
   2   4   6    1.80    6.40
   2  -4  -6  -15.00   17.70
   4  -2   6    5.10    3.70
   4   4  -6    1.20   10.60
   4  -4   6    5.00   14.90
   4   4   6  -23.30   35.60
   4   4  -6   39.10   33.60
   4  -4  -6   -3.00   14.20
  -4   4   6   -7.60   12.90
   4   4   6   26.10   21.60
  -4  -4   6    5.90   14.90
  -4   4   6   21.40   12.70
  -4   4  -6  -14.50   11.20
   4   4   6    4.50   11.90
   4  -4   6  -13.80   19.30
   4   4   6  -23.50   17.40
   4   4  -6   16.30   12.90
  -1  -5  -6 2650.83  158.98
   1   5  -6 2654.03  145.99
   1  -5   6 2596.84  144.29
  -1   5   6 2558.94  145.69
   5   1   6 2620.74  156.68
  -5  -1   6 2615.94  151.58
   5   1   6 2143.89  148.69
   5  -1  -6 2564.44  149.19
   1   5  -6 2566.44  162.18
  -5   1  -6 2662.13  137.09
   5   1   6 2912.71  141.59
   1  -5  -6 2595.34  152.18
   5   1  -6 2911.71  145.59
  -1   5  -6 3087.59  175.48
  -5   1   6 2489.75  147.19
  -1   5  -6 2623.54  147.39
   5  -1   6 2612.14  153.88
  -1   5  -6 2654.83  137.09
   5  -1   6 2786.22  138.59
   5   1  -6 2723.33  165.78
  -1  -5   6 2603.74  144.49
   1   5   6 2668.23  153.98
   1   5   6 2628.54  145.19
   5  -1   6 2297.27  150.28
   5   1  -6 2169.18  150.08
   5   3   6 2418.26  127.39
   3  -5   6 2311.57  143.09
   5   3   6 2403.66  147.59
   3   5  -6 2433.86  126.59
  -5  -3   6 2049.49  135.69
   3  -5   6 2357.26  129.79
   3   5  -6 2386.56  128.59
   5   3   6 2043.50  132.09
  -3   5   6 2160.18  129.59
  -5  -3  -6 2128.89  123.29
   5   3  -6 2140.99  145.89
   3  -5  -6 2409.06  130.39
  -5  -3  -6 2184.18  124.19
   5   3  -6 2265.27  133.59
   5  -3   6 2250.47  135.09
   5  -3   6 2421.46  137.99
   3  -5  -6 2267.37  140.19
   5   3  -6 2343.07  127.19
   3   5   6 2187.18  128.09
  -3   5  -6 2240.48  131.49
  -3  -5   6 2099.69  127.99
  -5   3   6 2307.07  129.39
   3   5   6 2468.55  150.08
   5   5  -6 1649.33   95.09
   5  -5   6 1617.24  100.79
   5   5   6 1614.14   95.69
  -5   5  -6 1571.74   94.79
   5   5  -6 1519.75  117.49
   5   5   6 1663.33  126.79
   5   5   6 1536.75   97.29
   5   5  -6 1603.94   92.29
   5  -5  -6 1506.75   88.09
  -5  -5   6 1360.76   97.49
   5  -5   6 1506.95  107.29
   6   0   6  -37.00   19.30
   0   6  -6   41.40   46.60
   0  -6  -6  -27.00   37.00
   0   6  -6   30.20   16.20
   0   6   6   12.60   14.90
   0  -6   6   17.20   13.50
   6   0  -6   28.50   38.20
   6   0  -6   14.30   14.30
   6   0   6   10.60    9.60
  -6   0   6    7.40   18.70
   6   0   6  -21.20   22.90
   6   0  -6   43.60   27.10
   0   6  -6   13.20   13.70
  -2   6   6   22.90   16.90
   6  -2  -6   -2.40   21.20
   6   2   6   35.80   30.30
   2  -6   6    0.40   13.30
   6   2   6   21.50   12.70
   2   6  -6    6.10   11.00
  -6   2  -6   13.20    9.40
  -6  -2   6   21.80   25.40
   6   2   6  -28.80   21.50
   6  -2  -6  -42.90   30.60
   2   6  -6   -0.90   13.40
   2   6  -6   19.00   46.30
   6   2  -6   25.30   13.30
   6  -2   6    8.20   19.00
   6   2  -6  -20.90   21.10
   2   6   6    8.90   14.90
   6   2  -6   44.20   37.10
   2  -6  -6  -40.10   32.40
  -6   2   6   11.10   15.70
  -2  -6   6   11.80   12.10
   6  -2   6    2.70    8.70
   6  -2   6   21.40   26.00
  -2   6  -6   16.40   17.80
  -6   4  -6    3.30   15.40
   6   4   6   12.80   30.50
  -6  -4   6   50.09   26.30
   4   6  -6    0.80   46.20
  -4   6   6   12.50   22.60
   6  -4  -6  -39.60   30.20
   4   6  -6  -22.70   14.20
   4  -6   6   27.20   19.60
   6   4   6   20.70   45.20
   4   6  -6    1.80   15.10
   6   4   6   27.50   19.10
   6  -4  -6   32.10   17.00
  -4   6  -6   26.00   22.10
   6  -4   6   29.30   28.60
   6   4  -6   48.00   45.00
   4  -6  -6   20.30   24.30
   4   6   6   17.40   18.70
   4  -6  -6   60.79   24.10
  -4  -6   6    5.90   19.90
   6  -4   6   15.00   23.80
   6   4  -6    2.00   14.10
   6   4  -6   13.90   20.40
   6   6  -6   48.80   65.69
   6  -6  -6  -56.99   46.00
   6   6   6  -25.80   25.70
  -6  -6   6   -3.00   36.50
   6  -6  -6   59.39   37.00
  -6   6  -6  -38.40   28.00
   6  -6   6    2.00   51.29
   6   6  -6  -29.80   22.70
   6  -6   6    4.50   29.70
   6   6  -6    9.40   21.00
   7   1   6 1343.37  103.59
   7  -1  -6 1721.43   95.69
   7   1   6 1651.63   88.39
   1  -7   6 1453.85   90.29
   1   7  -6 1497.25   94.49
   7   1   6 1638.34  114.29
   7  -1  -6 1631.34  112.99
  -1   7   6 1470.15   95.19
   7  -1  -6 1663.23  113.99
  -7  -1   6 1461.65  102.29
   1   7  -6 1446.26   85.79
   7  -1   6 1569.64   84.19
   1   7   6 1359.06   93.49
  -1  -7   6 1343.97   87.99
  -7   1   6 1392.76   95.99
   7   1  -6 1597.74  115.79
   7  -1   6 1249.88  102.19
   7  -1   6 1469.35  106.49
   7   1  -6 1524.55  104.69
  -1   7  -6 1456.15   97.19
   7   1  -6 1667.03   89.19
   7   3   6 1331.77  119.89
  -7  -3   6 1161.28  103.79
   3   7  -6 1488.65   85.49
   7   3   6 1421.56  106.39
  -3   7   6 1493.75   95.89
   3   7  -6 1436.16   91.49
   7  -3  -6 1380.26  114.89
   7  -3  -6 1484.95  105.69
   7   3   6 1534.35   90.19
   7  -3  -6 1472.55  107.19
   3  -7   6 1489.75   90.39
   3   7   6 1442.96   93.89
   7   3  -6 1538.85   97.89
   7   3  -6 1520.45  121.99
  -3  -7   6 1346.67   88.29
   7  -3   6 1444.16  105.39
   7   3  -6 1538.35   85.79
  -3   7  -6 1378.56   99.49
   7  -3   6 1430.16  103.59
   7   5   6 1087.39  158.58
   5  -7   6  949.80   70.89
   7   5   6  881.91   73.29
   7  -5  -6  660.83   88.29
  -7  -5   6  792.02   77.19
   5   7  -6  654.43   81.59
   5   7  -6  969.40   63.09
   7  -5  -6  570.74   94.09
  -5  -7   6  917.01   69.79
   7   5  -6  988.90   64.19
   7   5  -6  984.60   69.89
   5   7   6  839.82   76.19
   7  -5   6  762.82   99.19
   7   5  -6  897.61  115.89
   7  -5   6 1132.89   87.09
  -5   7  -6  965.00   79.39
   7   7  -6  688.23   61.89
   7  -7  -6  545.35   98.59
   7  -7  -6  359.46   83.39
   7  -7   6  666.93   72.99
   7   7   6  534.45   73.79
  -7  -7   6  568.54   78.39
   0   8   6   10.00   26.80
   8   0  -6    8.30   42.90
   8   0   6   32.10   16.70
   0   8  -6   25.10   26.60
   8   0  -6   31.90   22.30
   8   0   6    7.40   46.60
   0  -8   6   42.10   20.90
  -8   0   6   10.00   27.80
   8   0  -6  -18.40   55.89
   8  -2  -6  109.19   47.30
   8   2   6   62.69   49.70
   8   2   6   -9.20   19.40
   8   2   6   56.99   41.00
   2   8  -6  -17.50   18.20
   2  -8   6   28.30   24.30
  -2   8   6   11.30   30.10
  -8  -2   6   24.70   40.90
   8  -2  -6  -26.40   56.49
   2   8  -6   59.79   25.90
   8  -2  -6  -19.20   34.30
  -2  -8   6   -7.00   20.30
   8  -2   6  -35.90   36.80
   8   2  -6   23.00   53.49
   2   8   6  -19.60   27.00
   8   2  -6   -6.10   33.20
   8  -2   6   62.69   39.20
  -8   2   6  -14.40   26.40
  -2   8  -6   44.20   33.60
   4  -8   6  -32.90   27.60
   8  -4  -6   54.79   55.39
   8   4   6  189.08   83.39
  -8  -4   6  -67.39   41.70
  -4   8   6   15.20   38.80
   8   4   6   47.50   57.69
   4   8  -6  -18.90   26.70
   8  -4  -6  -21.70   30.60
   8   4   6  -14.80   29.00
   4   8  -6    7.90   22.80
   8  -4  -6   61.89   31.40
   8  -4  -6   30.90   63.59
  -4  -8   6  -25.10   28.10
  -4   8  -6   12.60   40.20
   8   4  -6   18.10   30.40
   8  -4   6  -38.80   48.00
   8  -4   6   15.40   45.40
   4   8   6   49.80   35.20
   8   4  -6   89.89   61.79
   9  -1  -6 1081.59  118.19
  -1   9   6  710.83   85.69
   9  -1  -6 1045.40  116.79
   1   9  -6  808.12   81.59
  -9  -1   6  984.20   96.39
   9   1   6  774.02  111.39
   9   1   6  803.92  100.59
   9   1  -6  858.41  118.29
   9  -1   6  977.60  107.09
   9  -1   6  986.30  104.29
   9   1  -6 1036.60   99.09
  -1   9  -6  859.61   84.09
   1   9   6  843.52   80.79
   9   3   6  631.44   65.49
   9   3   6  617.14   93.79
   9  -3  -6  602.34   95.59
   9  -3  -6  817.62   88.89
   9   3   6  834.72  119.29
   3   9  -6  747.63   73.49
  -9  -3   6  624.04   85.89
  -3   9   6  598.84   75.89
   9   3  -6  756.72  110.69
   3   9   6  702.23   80.89
   9   3  -6  590.34   72.69
   9  -3   6  774.02  108.19
   9  -3   6  720.63   94.99
  -3   9  -6  581.84   84.19
   0  -1   7    2.40   10.60
   0  -1  -7   -7.70    7.90
   0   1  -7   -9.60    7.70
   0  -1   7   -3.00   13.70
   1   0   7    4.80    6.20
   1   0  -7   -7.20   15.20
  -1   0  -7  -10.90   12.10
   1   0  -7    7.10   20.20
   0  -1  -7  -12.40   14.70
  -1   0   7   10.70    8.10
   0   1  -7   -0.50    6.90
   1   0  -7    7.10   10.30
  -1   0   7   -2.80   11.20
   0   1   7    0.70    7.00
   0  -1  -7    4.00    9.80
   0  -1  -7  -15.90   11.30
  -1   0  -7   -9.00   17.30
   0   1   7    9.90   10.80
   1   0   7   -6.30   15.70
  -1   0  -7    1.60    8.50
  -1   0  -7    0.30    5.50
   0   1  -7    9.30   21.00
   0   1   7  -17.50   13.40
   1   0   7   -2.30    7.60
   1   0   7   -1.70   14.90
   2   1   7   54.99   22.20
   2   1   7   64.89   14.00
   1  -2   7   51.59   20.40
   2  -1  -7   37.90   14.30
  -1  -2  -7   56.09   20.40
  -2  -1   7   61.19   14.80
  -1   2   7   73.29   12.10
   1   2  -7   56.49   14.00
   1   2  -7  174.58   47.40
   1   2  -7   55.79   15.30
   2   1   7   53.59   10.20
   2  -1  -7   68.89   22.40
   1   2  -7   55.39   11.10
  -2   1  -7   71.89    8.30
   1  -2   7   53.19   10.80
  -1  -2  -7   29.40   16.80
  -2   1  -7   73.19   12.20
  -1  -2  -7   44.50   14.10
  -1   2   7   72.09   12.80
   1  -2  -7   61.59   14.70
  -2   1   7   57.59   12.20
   2   1  -7   21.90   38.80
   2  -1   7   69.49   14.10
  -1  -2   7   45.30   11.90
   2  -1   7   58.49    8.20
   1  -2  -7   56.49   18.90
   1   2   7   64.89   17.70
  -1   2  -7   41.20    8.80
   1   2   7   60.69   12.60
   2  -1   7   58.79   17.70
  -2  -1  -7   67.19   10.70
   2  -1   7   79.89   25.20
   1   2   7   75.49   12.20
   2   1  -7   68.59   13.60
   1  -2  -7   29.00   14.20
  -2  -1  -7   64.39   18.40
  -2  -1  -7   56.69   13.60
  -1   2  -7   59.19    7.00
  -2   1   7   59.09   14.70
  -1   2  -7   67.99   12.70
  -2  -1  -7  114.19   28.60
   3   0   7   21.10   15.80
   3   0   7  -17.50    9.30
   0   3   7  -18.30   18.20
   3   0  -7   10.20   11.10
   3   0   7   -0.70    6.10
   0  -3  -7   12.00   20.40
   0   3   7   -4.50    6.90
   0   3  -7  -10.40    8.10
   0  -3   7    5.20    8.90
   3   0  -7  -42.60   31.70
  -3   0   7  -12.00   10.60
   0   3  -7  -12.80    9.60
  -3   0  -7   -1.20   10.10
   0   3   7    2.50    6.60
   0  -3  -7    2.80    9.20
   3   0   7  -23.10   18.30
   0   3  -7    6.60    8.20
  -3   0  -7    4.00    7.80
   3   2   7   28.10    8.30
   3  -2  -7   -1.70   12.50
   3  -2  -7   18.90   20.40
   3   2   7   -8.00   19.20
  -3  -2   7    4.80   11.60
   2   3  -7   23.90   14.10
   2   3  -7    6.20    8.70
  -2  -3  -7   -3.40   14.40
  -3   2  -7   17.10   13.10
   2   3  -7  -11.00   26.70
   2  -3   7   16.10   10.00
   2   3  -7  -14.90   61.99
   2  -3   7   19.80   16.50
  -2   3   7   10.30    9.50
  -2   3   7    9.90    9.40
  -2  -3  -7   19.10   29.30
   3   2   7   -4.00   13.60
   2  -3  -7  -18.20   14.70
   3   2  -7   17.30   10.20
  -2  -3   7   18.50   11.00
  -3  -2  -7    8.80   11.30
   2   3   7   14.40    8.70
   2   3   7    4.30   22.50
   3   2  -7    7.70   13.90
   3  -2   7   10.10   14.40
   2   3   7   40.90   11.60
   2  -3  -7   10.80   19.60
  -3  -2  -7    4.30   13.10
  -3   2   7   17.60   10.30
   2  -3  -7   26.10   17.10
  -2   3  -7   12.30    9.90
   3  -2   7    9.20   12.30
  -3   2   7   10.30   10.20
   4  -1  -7   -5.40   13.20
   4   1   7    9.60    7.00
  -4   1  -7   -5.60   14.70
  -1   4   7   -4.10    7.30
   1   4  -7    3.10   10.80
   4   1   7   16.50   12.80
  -4  -1   7   -5.80   14.70
  -1  -4  -7    3.80   28.50
   1  -4   7   14.80    9.40
  -1   4   7   13.00   10.20
   1   4  -7   12.30    9.60
   4   1   7    8.70   19.30
  -4   1  -7   13.90   10.40
   1   4  -7    8.40   36.80
  -1   4  -7   -3.00    9.00
   4  -1   7    8.50    6.50
  -1   4  -7   10.90    4.20
   1   4   7   -6.90    8.30
  -4  -1  -7   12.50    8.90
   4  -1   7    9.70   17.40
   4  -1   7   23.50   19.70
   4  -1   7   14.90   13.00
   1  -4  -7    8.50   20.20
   1   4   7  -11.30   23.30
   4   1  -7   -9.30   10.00
  -4   1   7    7.10   11.90
  -1   4  -7    8.90    3.30
  -1   4  -7  -37.90   34.30
   1  -4  -7   13.90    8.90
  -1  -4   7    8.00   10.50
  -4  -1  -7    2.80    8.90
   4   1  -7   14.50   15.40
   3   4  -7  -12.10   13.50
   4   3   7   -3.80    9.20
   3  -4   7    7.60   12.00
   3  -4   7  -14.20   21.60
  -4   3  -7   18.00   11.40
   4   3   7   79.59   40.20
  -4  -3   7   29.40   16.80
   3   4  -7   11.70   30.70
  -3   4   7   20.20   13.60
   4  -3  -7   17.10   20.70
   4   3   7   21.30   17.30
   4  -3  -7    0.10   17.90
   3   4  -7    5.80   10.20
   3  -4  -7   23.70   19.70
   4   3  -7   -2.80   17.40
  -4  -3  -7   10.00   13.50
  -3   4  -7    0.20   12.40
   3   4   7   26.30   11.80
  -3  -4   7   11.90   13.10
   3   4   7   14.90   13.10
   3   4   7   -1.10   13.90
   4   3  -7   -8.00   11.10
   3   4   7    1.40   29.80
  -3   4  -7   50.89   51.39
  -4   3   7    5.00   12.10
   4   3  -7  -59.19   27.90
  -4  -3  -7    4.90   16.40
   4  -3   7   -9.90   17.60
   4  -3   7   -0.10   13.60
   0   5  -7   10.00    9.30
   0   5   7   -1.80   11.60
   0  -5   7   26.20   13.00
  -5   0   7   -1.60   15.40
   5   0   7  -18.90   13.90
   0   5  -7   26.50   41.00
   5   0   7    2.30    7.80
   0  -5  -7  -23.80   29.50
   5   0  -7  -44.70   20.00
   0   5  -7   -2.80   10.80
   5   0   7  -39.30   19.60
   5   0  -7   -0.40   12.40
   5   2   7    7.80   10.40
  -2   5   7   40.90   17.00
   5   2   7   25.70   28.40
  -5  -2   7   23.60   22.40
   2   5  -7   70.19   45.10
   5  -2  -7    3.40   19.90
  -2  -5  -7   62.59   51.09
   5   2   7   20.20   17.90
   2   5  -7   22.80   11.80
  -5   2  -7   27.40   11.90
   2   5  -7   35.30   12.00
   2  -5   7   25.30   13.80
  -2   5  -7   24.70   14.90
   5  -2   7   20.00    8.70
   5   2  -7   19.80   35.60
  -2  -5   7   34.20   13.70
   2  -5  -7   13.00   26.10
   2  -5  -7   21.00   12.60
   5  -2   7   10.80   24.30
   5  -2   7   31.50   22.80
  -2   5  -7  -36.00   48.30
   5   2  -7   20.90   21.10
   5   2  -7   14.20   11.90
  -5   2   7    8.50   13.80
   2   5   7   31.70   12.90
   5  -2   7   23.90    6.80
   5  -2   7    7.80   17.10
   5   4   7   12.60   15.60
   5   4   7   36.00   39.40
   5   4   7   24.30   23.00
   4   5  -7   52.99   38.70
   5  -4  -7  -10.10   26.80
   4   5  -7   19.90   14.00
   4   5  -7   21.50   16.30
  -4   5   7   16.80   17.90
   4  -5   7  -48.10   26.00
  -5  -4   7    2.00   20.90
   4  -5   7   38.50   19.30
   5  -4  -7    1.10   18.20
  -5   4  -7   -7.10   14.50
   4  -5  -7   34.50   20.80
   5   4  -7    6.30   13.10
   5  -4   7   17.70   20.50
  -4  -5   7   50.49   19.30
  -4   5  -7    5.10   17.10
  -5  -4  -7   24.40   23.80
  -5   4   7   20.40   16.30
   4   5   7    3.20   19.10
   5   4  -7   28.90   20.90
   5  -4   7   27.70   27.30
   5   4  -7   13.60   38.70
   4   5   7    8.10   56.59
   4   5   7   14.10   15.70
   1   6  -7   32.40   50.39
   6  -1  -7   10.30   32.10
   6   1   7  -16.30   21.20
   6  -1  -7   -8.00   18.60
   6   1   7  -23.40   30.00
   1   6  -7   -1.10   13.40
   6   1   7   11.10   11.00
  -6  -1   7   56.59   25.50
  -1   6   7    8.30   17.50
   1   6  -7   17.70   11.20
   1  -6   7    7.70   14.50
  -1   6  -7    6.40   16.10
   6  -1   7    3.30   20.60
   6  -1   7  -25.20   22.80
  -1  -6   7    8.60   14.30
   6   1  -7   16.90   26.00
   6   1  -7   -4.50   13.20
   6   1  -7  -26.80   37.00
  -6   1   7    0.00   18.50
   1  -6  -7  -46.40   35.80
   1   6   7   21.90   16.40
   6   3   7   -7.80   14.20
   6  -3  -7   22.90   28.20
   6  -3  -7   13.90   38.10
  -6  -3   7   18.20   27.10
   6   3   7  -22.10   34.00
  -3   6   7   29.60   20.30
   3   6  -7   13.30   13.40
   6   3   7   17.50   26.70
   3  -6   7    2.80   17.00
   3   6  -7   -8.10   15.00
   3   6  -7   85.59   48.40
  -6   3  -7  -14.20   15.90
   6  -3  -7  -30.50   28.20
   6   3  -7  -20.40   13.90
   6   3  -7  -27.60   22.20
  -3   6  -7   -1.80   22.40
   3  -6  -7   -3.20   20.70
   6  -3   7   27.50   24.20
   3   6   7   -5.50   17.70
  -3  -6   7    2.50   16.40
  -6   3   7   -0.90   19.60
   6  -3   7   -7.50   26.10
   6   3  -7   -6.20   38.40
   3  -6  -7   17.70   37.50
   6  -5  -7   49.99   20.40
   5  -6   7   12.90   48.10
  -6   5  -7   37.90   23.60
   5  -6   7  -25.00   22.90
   6   5   7   -0.20   27.20
   5   6  -7   39.00   19.50
   5   6  -7   -3.50   19.70
  -6  -5   7   18.30   28.40
   5   6  -7   30.10   59.49
   6  -5  -7   70.29   38.80
  -5  -6  -7   37.10   35.00
  -5  -6   7   32.90   25.40
   5  -6  -7   57.09   29.80
   5  -6  -7   39.60   31.70
   6  -5   7   53.49   33.30
   5  -6  -7  -48.70   41.40
  -5   6  -7   17.60   27.50
   6  -5   7   55.29   40.60
   5   6   7   15.20   24.10
   6   5  -7   21.10   18.90
   6   5  -7 -122.49   55.99
  -7   0   7    4.80   23.90
   0   7  -7  -22.80   21.80
   7   0   7   29.50   36.50
   7   0  -7    6.90   42.10
   7   0  -7   92.39   40.30
   7   0   7   21.00   30.30
   7   0   7   26.30   12.70
   0  -7   7   -3.40   17.10
   0   7  -7  -22.00   17.50
   0   7   7    0.80   18.70
   7   0  -7   11.30   18.60
   7  -2  -7  -26.00   28.40
   7  -2  -7    3.30   45.40
  -7  -2   7   -4.20   31.70
   7   2   7    2.10   16.60
   2  -7   7  -13.80   18.40
   7   2   7  -10.70   32.40
   2   7  -7   10.30   14.50
   2   7  -7  -10.60   17.30
   7   2   7   16.20   47.50
  -2   7   7   -4.90   21.70
   7  -2  -7   67.59   48.80
   7   2  -7    5.90   17.20
   7  -2   7   48.50   35.90
   7   2  -7   17.10   29.20
  -2   7  -7   -3.50   22.10
   7   2  -7  -74.19   45.10
  -2  -7   7   -9.20   16.60
   2   7   7  -41.10   19.70
   7  -2   7  -34.60   29.10
  -7   2   7   14.30   23.20
  -4   7   7  -16.60   34.80
   4  -7   7    3.40   22.60
   7  -4  -7   -8.20   41.20
   4   7  -7    2.20   17.30
   7   4   7   -2.80   24.70
   7   4   7    0.20   43.50
   7   4   7  -22.70   57.99
   4   7  -7    7.40   25.30
   7  -4  -7  -12.10   25.90
   7  -4  -7   50.19   85.99
  -7  -4   7  -76.19   32.80
   7   4  -7   34.60   28.70
   7  -4   7   29.70   41.10
   4   7   7    4.80   27.50
   7   4  -7  -28.30   18.80
   7  -4   7   21.50   36.90
  -4   7  -7  -68.69   29.70
  -4  -7   7   25.50   24.10
   7   4  -7  130.89   61.29
   7  -6  -7   13.30   59.49
  -7  -6   7   17.40   41.00
   6   7  -7   58.69   28.10
   6  -7   7  -31.40   36.30
   6   7  -7   13.90   31.20
   7  -6  -7  -65.59   60.79
   7   6   7    3.10   37.50
   7   6  -7  -17.50   28.10
   7   6  -7    5.30   30.80
  -6   7  -7  -39.30   43.20
  -6  -7   7   21.10   37.30
   6  -7  -7  -44.10   54.49
   7  -6   7    8.90   41.00
   6   7   7   21.70   39.20
   7  -6   7   60.19   66.19
   8   1   7   49.30   42.90
  -1   8   7  -31.20   29.60
   1   8  -7   16.90   25.50
  -8  -1   7  146.29   41.50
   8  -1  -7   31.00   54.49
   8  -1  -7  -73.29   46.20
   1  -8   7   17.80   24.40
   8   1   7   -3.10   17.80
   8  -1  -7   27.70   29.50
   8   1  -7  -55.09   53.39
  -1  -8   7   15.40   21.00
  -1   8  -7    1.70   27.70
   8  -1   7  -34.60   38.60
   8  -1   7  -54.99   40.60
   8   1  -7   -2.40   43.30
   1   8   7   -7.40   28.40
  -8   1   7   30.70   30.50
   8   1  -7   -6.50   22.90
   8  -3  -7  -37.80   59.89
   8   3   7  -51.39   23.80
   3   8  -7   45.70   28.00
   8  -3  -7  -95.19   51.99
   3   8  -7   -9.10   20.20
   8  -3  -7  -45.60   47.10
  -3   8   7   11.10   35.60
  -8  -3   7  -47.80   45.30
   8   3   7   -4.80   69.29
   8  -3   7   -5.30   40.20
  -3  -8   7   19.60   25.80
  -3   8  -7  -33.30   35.90
   8   3  -7   23.80   63.89
   3   8   7   23.50   34.20
   8  -3   7  -24.40   47.20
   8   3  -7  -21.70   36.40
   8   5   7   29.20   37.80
   5   8  -7  -17.60   27.20
   8  -5  -7   21.70   64.59
   5  -8   7  -11.60   37.70
   8  -5  -7 -124.59   69.39
  -8  -5   7  -68.99   46.30
   5   8  -7   40.00   36.20
   5   8   7   42.40   44.20
   8   5  -7   35.70   87.09
  -5  -8   7   37.80   40.00
   8  -5   7  178.38   70.49
  -5   8  -7  -23.20   49.50
   8  -5   7   27.60   48.90
   8   5  -7   58.59   36.70
   0   9   7   40.60   45.70
   0  -9   7    9.70   32.90
   9   0  -7   62.69   65.79
   9   0   7   78.19   62.49
  -9   0   7   22.40   47.60
   9   0   7   20.70   54.59
   9   0  -7  -89.69   62.29
   0   9  -7   37.70   35.70
   9   2   7   29.70   59.79
   2   9  -7  -41.70   34.70
   9  -2  -7   20.10   80.39
   9  -2  -7 -145.99   61.89
   9   2   7   81.59   70.59
  -2   9   7   35.70   46.70
   9   2   7   55.89   29.90
  -9  -2   7  -24.00   54.39
   2  -9   7  -18.70   34.50
   9   2  -7  -70.79   70.19
   9  -2   7   95.59   60.89
   2   9   7   53.79   43.00
  -2   9  -7  -99.49   40.30
   9   2  -7  -34.30   47.60
   9  -2   7   37.60   56.09
   0   0   8 7698.93  415.26
   0   0  -8 8011.20  425.26
   0   0  -8 8008.70  414.56
   0   0  -8 7932.91  420.36
   0   0   8 8120.89  425.96
  -1  -1  -8   68.49   17.80
  -1  -1  -8   52.39   23.20
   1  -1   8   61.49   10.00
  -1   1  -8   58.69   27.90
  -1  -1  -8   58.39   18.00
   1  -1   8   73.59   13.40
   1  -1   8   26.70   19.00
  -1  -1   8   86.89   15.70
   1   1  -8   87.89   35.50
   1   1   8   84.69   25.60
  -1   1  -8   79.39    9.90
  -1   1   8   70.89   12.50
  -1   1  -8   61.79   12.40
   1   1  -8   42.10   14.90
   1  -1  -8   57.39   16.00
  -1   1   8   65.59   18.00
   1   1   8   68.49   15.40
   1   1  -8   57.79   12.30
   1   1   8   67.09   14.00
  -2   0  -8 3387.16  176.18
   2   0   8 3240.88  185.48
   0   2   8 3260.07  181.98
   0   2  -8 3182.68  176.38
  -2   0   8 3288.17  180.08
  -2   0  -8 3386.26  171.68
   0   2   8 3363.26  176.48
   0   2  -8 3347.77  172.88
   0   2   8 3034.40  174.88
   2   0   8 3427.96  176.88
   0  -2  -8 3318.87  183.98
   0  -2  -8 3229.18  174.88
   2   0   8 3025.60  171.98
   0  -2   8 3210.68  176.78
   2   0  -8 3093.99  179.68
  -2  -2  -8 3813.42  212.58
   2   2   8 3708.13  209.28
  -2  -2   8 3854.51  202.28
   2  -2  -8 3702.43  204.88
   2   2  -8 3912.71  237.78
  -2   2  -8 3875.01  200.18
   2  -2   8 3521.05  209.08
   2   2  -8 3824.32  201.18
   2  -2   8 3769.22  200.78
   2   2  -8 3062.39  200.88
   2   2   8 3622.64  197.48
   2   2   8 3877.21  198.48
  -2   2   8 3605.84  199.98
   3   1   8   86.99   12.60
   1  -3   8   54.29   24.60
  -1   3   8  102.89   14.00
  -3  -1   8  114.89   21.80
  -3   1  -8   83.69   15.00
  -1  -3  -8  125.79   36.30
   1   3  -8  100.99   21.90
   1   3  -8   62.09   17.20
   3   1   8   99.99   17.50
   3   1   8   85.99   31.30
  -1  -3  -8   52.49   16.40
  -3   1  -8   86.09   15.60
  -1   3   8   77.29   14.50
   3  -1  -8   87.49   32.40
  -1  -3  -8   49.90   18.80
   1  -3   8   62.19   13.60
   3  -1  -8   53.29   17.20
   1   3  -8   79.49   15.10
   3   1  -8   87.39   16.00
   3  -1   8   83.89   10.40
  -1   3  -8   68.29    9.80
   1  -3  -8   33.50   18.90
  -1  -3   8   78.59   15.90
  -1   3  -8   72.19    9.80
   3   1  -8   73.09   19.60
  -1   3  -8   69.79   14.10
   1   3   8   71.49   13.40
   1  -3  -8   86.79   16.20
   3  -1   8   75.99   17.50
   3  -1   8   95.19   22.60
   1  -3  -8   52.89   25.10
   1   3   8   95.49   16.30
   3   1  -8   85.49   52.09
  -3  -1  -8   86.09   15.70
  -3   1   8   89.49   18.10
   3  -1   8   51.99   22.90
   3   3  -8  164.88   26.50
  -3  -3  -8  147.89   25.10
   3   3   8  192.28   24.80
   3  -3   8  159.98   29.70
   3   3   8  148.69   42.10
   3   3  -8  184.48   22.90
   3  -3  -8  201.78   31.50
   3   3  -8  182.38   41.00
  -3  -3   8  175.58   24.80
  -3   3   8  176.38   24.80
   3  -3  -8  171.58   31.00
   3   3   8  201.68   29.00
   3   3  -8  192.38   78.39
  -3   3   8  174.88   21.80
   3   3   8  137.49   19.30
  -3   3  -8  184.48   23.30
   3  -3   8  157.58   22.70
   0   4  -8 1802.12   99.09
  -4   0   8 1721.33  106.09
   0  -4   8 1654.43  101.09
   4   0   8 1708.23  111.49
   4   0  -8 1772.12  104.69
   0   4  -8 1848.12   95.09
   0   4   8 1783.42  109.49
   0   4   8 1651.63  100.69
   4   0  -8 1891.51  134.59
   0   4  -8 1629.84  100.89
   0   4  -8 1838.12  130.29
  -4   0  -8 1666.83  105.19
   4   0   8 1821.52   95.79
   4   0   8 1745.93  104.59
   0   4   8 1903.51   93.39
  -4   0  -8 1662.93   97.89
   2  -4   8 2936.31  159.98
   4   2   8 2944.41  156.08
   2   4  -8 3036.10  194.08
  -4   2  -8 2850.51  168.08
   4   2   8 3109.79  174.68
  -2   4   8 2785.52  160.38
   2  -4   8 2785.02  174.78
  -2  -4  -8 2700.73  177.18
   4  -2  -8 3016.40  169.88
   2   4  -8 2910.51  158.48
   4   2   8 3040.70  161.78
  -2   4   8 2945.01  154.88
  -4  -2   8 2681.33  164.78
   4  -2  -8 2438.16  166.78
   2   4  -8 2814.62  159.88
   2  -4  -8 2877.81  164.58
  -4  -2  -8 2882.11  156.98
  -4  -2  -8 2775.12  154.38
   4  -2   8 2956.30  170.78
  -2   4  -8 2936.71  160.48
  -4   2   8 2832.52  160.08
   4   2  -8 2452.75  163.58
   2   4   8 3045.00  153.18
   4  -2   8 3042.80  164.28
   2   4   8 3125.49  152.48
   2   4   8 2743.23  171.48
  -2   4  -8 2827.42  183.28
   2   4   8 2870.31  158.58
   2  -4  -8 2993.30  156.18
   4   2  -8 3040.60  160.68
  -2  -4   8 2777.12  159.48
   4   4  -8 2806.32  171.28
   4   4   8 2643.54  145.39
   4   4  -8 2629.94  146.59
   4  -4   8 2687.43  150.08
  -4   4   8 2574.14  144.19
   4   4   8 2507.15  170.08
   4   4  -8 2645.14  149.59
  -4   4  -8 2497.75  146.09
  -4  -4   8 2434.76  148.89
   4  -4   8 2454.35  159.58
  -4   4   8 2684.83  149.29
   4  -4  -8 2563.64  149.49
   1   5  -8  -13.00   10.30
   5  -1  -8    8.30   19.30
  -5   1  -8  -13.00    9.80
  -1   5   8   -0.10   13.50
   1   5  -8  -14.80    9.60
   5   1   8  -11.10    8.40
  -5  -1   8   -3.30   21.40
   1   5  -8   14.70   49.40
   5   1   8   -9.40   18.00
   5  -1  -8  -13.00   26.50
  -1  -5  -8   21.30   43.10
   1  -5   8    9.10   14.10
   5   1   8   62.99   26.50
   5   1  -8   38.80   23.40
  -1  -5   8   -8.90   13.00
   5  -1   8    5.30   17.00
  -5  -1  -8   -7.90    8.70
   1  -5  -8  -29.00   31.00
  -5  -1  -8   -1.00    8.00
   5  -1   8    5.10    9.40
   5   1  -8  -26.20   11.30
   1   5   8   -8.20   12.00
  -5   1   8   28.80   17.80
  -1   5  -8  -39.00   45.30
   5  -1   8  -26.50   22.60
  -1   5  -8   -3.70   13.20
   5   3   8   28.10   35.10
   3   5  -8   11.80   14.10
   5  -3  -8    9.20   27.10
   3  -5   8   17.30   35.70
   5   3   8   -3.20   12.90
   5   3   8   -5.60   20.50
  -5  -3   8   10.00   21.90
   3   5  -8    1.20   13.70
  -5   3  -8    0.40   13.10
  -3   5   8  -24.70   15.20
   3  -5   8   37.30   18.20
   3   5  -8   30.70   39.30
  -5  -3  -8   23.50   18.60
  -5   3   8  -33.10   16.10
   5   3  -8   14.10   15.30
   3   5   8   -1.50   14.60
   5   3  -8  -41.10   39.80
   3   5   8   -9.30   47.90
   3  -5  -8  -59.19   28.60
  -3  -5   8   16.10   15.90
   5  -3   8  -41.10   25.90
   5  -3   8    2.10   19.10
   5   3  -8  -21.10   22.10
  -3   5  -8   -1.50   16.70
   5  -5   8   22.90   39.00
  -5  -5   8  -13.90   22.30
   5  -5  -8   28.10   24.40
  -5   5  -8    7.70   22.40
   5  -5  -8  -28.10   33.00
  -5  -5  -8   47.40   28.50
   5   5  -8  -11.70   16.10
   5   5   8   30.20   20.10
   5  -5   8   16.40   22.10
   5   5  -8   -0.30   21.00
   5   5  -8  -71.09   50.89
   6   0  -8 2702.03  142.19
   6   0  -8 2316.67  155.58
   0   6  -8 2406.26  140.29
   0  -6   8 2566.74  140.79
   0   6   8 2215.28  140.29
   6   0   8 2547.84  156.08
  -6   0   8 2287.67  146.09
   6   0  -8 2877.81  172.58
   6   0   8 2538.85  132.39
   6   0   8 2289.87  147.09
   0   6  -8 2261.67  130.69
  -2   6   8 1457.55   93.39
   6  -2  -8 1569.54  102.69
   6  -2  -8 1312.37  110.89
   2  -6   8 1573.64   91.09
   6  -2  -8 1404.26  124.29
   2   6  -8 1513.95   83.99
   2   6  -8 1549.24  133.59
   2   6  -8 1480.75   90.39
   6   2   8 1551.04   86.39
   6   2   8 1406.76   97.99
  -6  -2   8 1267.27  101.49
   6   2   8 1456.65  112.19
   6  -2   8 1496.35  106.09
  -6   2   8 1393.26   93.49
   2   6   8 1382.26   91.19
   6   2  -8 1582.24  126.99
   6   2  -8 1523.35  102.29
   6   2  -8 1599.04   90.19
  -2  -6   8 1338.97   88.69
  -2   6  -8 1553.64   94.79
   6  -2   8 1403.56   98.79
   6  -4  -8  968.60   69.89
   4   6  -8  929.11  112.59
  -6   4  -8  952.20   63.79
   6   4   8  778.62  105.09
   6   4   8  902.91   76.19
   4  -6   8 1017.30   69.79
  -4   6   8  809.72   70.49
   6  -4  -8  926.01   86.29
   6   4   8  961.50   66.49
  -6  -4   8  801.82   75.19
   4   6  -8  973.60   63.89
   4   6  -8 1017.30   66.79
  -4  -6   8  920.01   67.69
   4  -6  -8  970.00   72.69
   6   4  -8 1006.80   65.39
   6   4  -8 1159.78   74.29
   4   6   8  888.61   74.59
   6  -4   8 1080.59   81.09
  -4   6  -8  959.10   74.09
   6  -4   8  957.80   91.69
   6   4  -8 1221.58  108.69
  -6   4   8  996.10   69.89
   6  -6   8 1248.18  124.49
  -6  -6   8  917.21   85.09
   6   6  -8 1076.19   79.89
   6  -6   8 1165.28   91.19
   6  -6  -8 1288.87   87.29
   6   6  -8 1067.29   77.19
   6   6  -8 1433.46  138.09
   6   6   8 1130.79   87.99
  -6   6  -8 1104.49  101.29
   7   1   8   18.70   29.80
   1  -7   8   51.59   23.00
   1   7  -8   14.30   14.50
   7  -1  -8   83.59   44.20
   7  -1  -8   -5.50   25.80
  -1   7   8   17.70   26.00
   7  -1  -8  140.89   56.39
   1   7  -8   33.90   19.60
   7   1   8   28.20   14.50
   7   1   8   31.30   43.80
  -7  -1   8    0.00   32.70
  -7   1   8   -2.30   25.40
  -1  -7   8   27.10   19.40
  -1   7  -8   48.20   22.30
   7   1  -8   78.99   37.70
   7   1  -8  -48.00   53.69
   7  -1   8   33.60   29.30
   7   1  -8   50.39   20.90
   1   7   8   35.30   24.20
   7  -1   8   62.69   41.40
   7  -1   8   44.80   12.90
   7  -3  -8  -15.60   53.89
   3  -7   8   79.89   24.20
  -7  -3   8   30.80   38.20
   7   3   8   20.50   60.79
   7   3   8   47.00   20.70
   7  -3  -8   10.10   38.80
   3   7  -8    2.80   17.70
   3   7  -8   46.40   24.20
   7   3   8   26.90   39.70
   7   3  -8   10.00   20.40
  -3  -7   8   45.90   21.80
   3   7   8  -32.30   24.80
   7   3  -8   55.99   64.89
  -3   7  -8   -8.90   32.00
   7   3  -8   65.99   30.20
   7  -3   8  131.79   45.30
   7  -3   8   77.49   34.30
  -7   3   8   31.90   25.60
   7  -5  -8 -125.49   51.99
   5   7  -8   20.50   24.40
  -7  -5   8   30.70   41.10
   7  -5  -8  -47.80   28.60
   5  -7   8  -31.90   32.80
   7   5   8  -70.79   30.70
   7  -5  -8  -51.09   55.49
   5   7  -8   -1.20   28.10
   7  -5   8  -52.19   38.50
  -5  -7   8  -39.10   30.00
   7  -5   8   17.20   57.39
   7   5  -8   13.80   40.00
   7   5  -8   21.30   80.19
   5  -7  -8  -22.00   52.79
   5   7   8   28.40   35.50
   7   5  -8    8.20   30.50
  -5   7  -8  -46.20   38.40
   8   0   8 1121.19  101.09
   0   8  -8 1226.58   88.19
   0  -8   8 1084.59   79.29
   8   0   8 1319.47  115.19
   8   0  -8 1382.36   85.29
  -8   0   8 1033.10   96.29
   0   8   8 1152.18   90.09
   8   0  -8 1252.47  123.59
   8   0  -8 1436.76  123.29
   8   0   8 1162.38   76.49
   8  -2  -8  927.21  106.69
  -8  -2   8  648.44   95.49
  -2   8   8  905.81   79.29
   8   2   8  809.42   92.69
   8  -2  -8 1006.20  119.39
   2   8  -8  848.72   72.89
   8   2   8  943.71   64.49
   8   2   8  864.11  116.89
  -2  -8   8  890.21   66.59
   2   8   8  838.92   77.79
  -8   2   8  765.92   77.79
   8   2  -8  821.02   90.09
   8   2  -8 1100.99   74.19
  -2   8  -8  925.81   80.09
   8   2  -8 1246.58  131.49
   8  -2   8  960.40   93.49
   8  -2   8 1001.80  105.09
   8  -4  -8 1006.40  102.59
   4   8  -8  631.44   54.79
   8   4   8  710.63   67.79
  -4   8   8  649.54   81.09
   8  -4  -8  729.33   85.09
   4  -8   8  544.05   66.69
  -8  -4   8  592.14   84.59
   8  -4  -8  663.63   95.19
   4   8  -8  703.03   68.99
  -4   8  -8  569.14   83.89
   8  -4   8  673.63   81.59
   8   4  -8  579.34   72.19
   8  -4   8  752.82  101.39
   8   4  -8  837.62  110.39
  -4  -8   8  650.83   64.29
   4   8   8  668.23   76.39
   1  -9   8   11.60   34.40
   9  -1  -8   59.09   63.09
   9   1   8  -30.00   57.49
  -9  -1   8  -29.80   57.29
   9  -1  -8  135.09   81.19
   1   9  -8  -17.20   35.10
   9   1   8   -9.80   75.29
  -1   9   8  -32.30   47.70
  -1   9  -8   56.89   40.70
   1   9   8  -54.89   42.90
   9   1  -8 -119.69   70.09
  -9   1   8   50.09   47.90
   9   1  -8   -7.60   63.89
   9  -1   8  -40.70   62.29
  -1  -9   8   53.09   44.20
   9  -1   8   25.70   56.19
   9   3   8 -129.29  102.49
   9   3   8   55.19   77.09
  -3   9   8  -91.79   53.79
   3  -9   8  -36.50   41.10
   9  -3  -8   83.99   84.69
   9   3   8   40.20   37.80
   3   9  -8   98.09   40.80
  -9  -3   8  -69.19   58.79
   9  -3  -8   52.09   66.69
   9  -3   8  151.78   60.99
   9   3  -8  -33.10   49.99
   9  -3   8  -81.19   70.39
   9   3  -8  -44.70   97.59
   3   9   8  -71.89   49.50
  -3   9  -8   72.89   52.99
  -1   0  -9    4.90    9.60
   0  -1   9    5.10   25.10
   1   0   9   12.90    9.80
   0   1  -9  -24.80   32.60
   0  -1   9   -9.00    9.30
   0  -1  -9   12.30   25.40
   1   0  -9    9.60   10.70
   0   1  -9    0.10    8.80
   0   1   9   -8.80   12.10
   0   1   9    1.70    8.50
   0   1   9   -6.40   17.60
   0  -1  -9   -5.70   11.80
  -1   0   9   -6.10    8.60
  -1   0  -9   21.50   10.70
   0   1  -9  -14.40   11.40
   1   0   9    1.60   22.30
  -1   0  -9    6.40   26.40
   1   0  -9   30.90   30.60
  -1   0   9   13.20   12.20
   1   0   9    8.70    9.20
   1  -2   9  112.69   32.70
  -1  -2  -9  142.29   25.80
   2  -1  -9  233.38   41.40
  -1  -2  -9  178.38   43.50
  -2   1  -9  177.68   16.80
  -1   2   9  189.78   20.10
   2   1   9  181.98   17.80
   2   1   9  157.88   20.10
   2  -1  -9  190.98   26.60
  -2  -1   9  170.98   23.50
  -1   2   9  171.58   28.20
  -2   1  -9  177.58   19.10
   1  -2   9  172.78   20.40
   1   2  -9  155.88   19.90
   1   2  -9  195.78   62.69
   2   1   9  207.58   37.40
  -1  -2  -9  201.98   27.50
   2  -1   9  199.78   21.90
  -2   1   9  156.78   20.50
   1   2   9  170.58   19.20
   2  -1   9  166.38   16.80
  -1  -2   9  200.88   23.20
   1  -2  -9  149.09   26.30
  -1   2  -9  200.48   16.50
   2   1  -9  185.38   22.50
  -1   2  -9  114.59   17.40
   1   2   9  181.68   26.00
   1  -2  -9  170.48   31.50
  -2   1   9  162.68   22.70
  -2  -1  -9  178.98   24.00
  -1   2  -9  166.48   19.80
   2   1  -9  225.18   56.99
   2  -1   9  260.87   44.30
   1   2   9  170.28   30.00
   3   0  -9   -9.40   36.60
   0  -3   9   -3.90   11.60
   0   3  -9    0.30   12.50
   0   3   9   -6.30    9.90
   0  -3  -9   21.40   29.20
   0   3  -9  -19.30   13.90
  -3   0   9   -2.40   14.20
   3   0   9    1.50   12.20
   0  -3  -9   10.60   17.30
  -3   0  -9    6.80   14.30
   3   0  -9    9.10   13.70
   3   0   9  -10.50   20.40
   0   3  -9   -3.00    9.30
   3   0   9   -7.90    8.60
   0   3   9   -8.20   25.40
   0  -3  -9   18.30   16.90
   0   3   9    4.50   10.30
  -3   2  -9   31.80   12.90
   3   2   9   28.10   10.80
  -2  -3  -9   17.70   16.90
   2   3  -9   21.70   11.80
   3   2   9   16.00   30.10
  -3  -2   9    7.80   12.80
   3  -2  -9    9.40   18.00
  -2  -3  -9   54.49   63.19
   2   3  -9   22.60   15.90
  -2   3   9   26.20   11.80
  -2   3   9   30.30   12.70
   2  -3   9   37.30   13.90
   2  -3   9   25.60   28.10
   3   2   9   22.00   12.50
   3  -2  -9  -15.20   26.40
   2   3   9   17.80   11.00
  -2   3  -9   14.80   11.90
   3   2  -9    2.90   17.60
   3  -2   9   21.90   14.00
  -2  -3   9    1.80   11.00
  -3   2   9   16.20   13.40
   3  -2   9   54.99   21.70
  -3  -2  -9   38.10   15.80
   3   2  -9   35.30   71.89
   2   3   9    9.10   14.50
  -3   2   9   19.10   12.90
   3   2  -9    1.60   10.00
   2  -3  -9   16.20   25.60
   2   3   9   13.90   28.00
   2  -3  -9   12.00   18.20
  -1   4   9   33.40   14.50
   4   1   9   59.19   18.70
   4  -1  -9   47.50   19.90
   1   4  -9   28.00   13.40
   1   4  -9    2.20   51.09
  -4   1  -9   54.79   22.50
  -4   1  -9   27.40   20.10
  -1  -4  -9   32.70   18.60
  -1   4   9   63.89   13.70
   4   1   9   48.30   27.40
   4  -1  -9   49.90   43.90
   1   4  -9   48.40   13.60
   1  -4   9   39.10   13.70
  -4  -1   9   50.39   24.00
   4   1   9   47.10   11.60
  -1  -4  -9   41.40   40.20
   1  -4  -9   76.79   34.90
  -4  -1  -9   34.80   14.80
   1  -4  -9   19.50   16.90
   4  -1   9   60.09   25.50
  -4   1   9   38.90   17.20
   1   4   9   48.30   37.00
   1  -4  -9   14.80   20.00
   4   1  -9  123.39   71.59
   4  -1   9   45.00   10.70
   1   4   9   42.60   14.00
   1   4   9   59.99   10.50
   4   1  -9   34.90   15.10
  -1   4  -9   70.29   53.39
  -1   4  -9   54.49   14.60
   4   1  -9   15.40   21.50
  -1  -4   9   68.39   16.70
   4  -1   9   51.69   18.40
  -4  -1  -9   34.80   16.70
   3   4  -9  -27.50   16.00
  -4   3  -9    9.10   14.50
   4   3   9   21.80   16.80
   4  -3  -9  -23.30   30.40
   3  -4   9  -10.10   26.60
   4  -3  -9   19.90   24.20
  -4  -3   9   -1.80   16.40
   3   4  -9   22.80   14.50
  -3   4   9    0.80   15.90
   3  -4   9    0.50   15.70
   3   4  -9   -7.90   44.30
  -3   4   9  -17.90   12.80
  -3  -4  -9   32.50   20.80
   4   3   9   13.30   13.00
  -4  -3  -9   -1.10   17.30
   3  -4  -9   -7.10   22.30
   3  -4  -9   32.20   30.10
   4   3  -9   20.20   21.60
   4   3  -9   44.50   43.70
   4   3  -9   -8.00   14.20
   4  -3   9    8.30   16.20
  -4   3   9    0.00   13.90
   3   4   9   -0.90   13.10
   3   4   9    6.10   39.10
  -3   4  -9    0.30   14.20
   4  -3   9  -65.89   25.60
  -3  -4   9    2.70   14.50
   3   4   9   -8.60   17.40
   5   0   9   -0.20    9.30
  -5   0  -9   13.80   12.70
   5   0   9   -1.90   19.60
   5   0   9   16.80   27.00
   5   0  -9   67.99   69.09
   0  -5   9  -22.20   13.70
   0   5  -9   -3.70   10.10
   5   0  -9  -35.70   25.90
   0   5  -9   -7.50   11.90
   0   5   9    9.70   15.00
  -5   0   9    4.80   20.10
   0   5  -9    6.70   62.89
   5   0  -9    5.90   16.30
  -5   2  -9   91.39   16.60
   5   2   9  131.59   43.20
   5   2   9   88.29   16.60
   2   5  -9   88.09   18.60
   5  -2  -9   96.79   32.10
   5   2   9  119.39   26.60
   2  -5   9   94.49   21.00
  -2  -5  -9   78.09   29.10
  -5  -2   9  104.89   31.60
   5  -2  -9  115.99   47.50
  -2   5   9  133.69   26.20
   2   5  -9   85.99   16.30
  -5  -2  -9   97.59   18.40
   5   2  -9   58.09   49.30
   2  -5  -9   66.89   28.20
  -2  -5   9  112.49   21.30
  -2   5  -9  106.79   22.10
   2   5   9   69.69   19.30
   5  -2   9   92.09   33.60
  -5   2   9  101.79   23.00
   5   2  -9   76.99   20.40
   2  -5  -9   55.79   38.70
   5   2  -9   70.69   27.50
   5  -2   9   58.29   23.50
   4   5  -9   47.90   21.30
   4  -5   9   21.90   20.60
   4  -5   9  -48.60   35.90
   5  -4  -9   12.10   27.40
   4   5  -9   37.50   17.70
  -5  -4   9   33.30   24.80
  -5   4  -9   38.70   20.50
   4   5  -9   32.40   50.99
   5  -4  -9    0.80   30.80
   5   4   9   59.99   26.10
   5   4   9   28.10   19.10
  -4  -5  -9   12.40   26.50
  -4   5   9   53.39   23.30
   5   4   9   94.09   55.79
   5   4  -9   27.80   53.39
  -5  -4  -9   22.40   22.50
   5   4  -9   39.80   24.80
   5  -4   9   85.89   24.90
   4   5   9   78.09   21.40
   4  -5  -9   24.70   35.00
  -5   4   9   26.90   20.20
   5   4  -9   24.20   17.60
   4  -5  -9   19.30   31.30
  -4  -5   9    2.60   20.20
  -4   5  -9   34.40   23.80
   5  -4   9   54.19   37.70
   1   6  -9    4.20   14.90
   6   1   9   36.60   13.30
   6   1   9   12.70   26.00
  -6  -1   9   33.60   30.10
   1   6  -9   22.90   11.90
   6   1   9    0.20   38.60
   1  -6   9    9.10   19.50
  -1   6   9   31.20   20.80
   6  -1  -9   37.40   40.40
   6  -1  -9  -14.00   23.20
   6   1  -9   25.90   18.10
  -6   1   9   48.20   24.40
   6  -1   9   54.39   24.50
   6  -1   9   19.60   37.00
   6   1  -9   84.89   55.69
  -1   6  -9   20.90   17.50
  -1  -6   9   16.50   18.20
   6  -1   9   28.80   14.90
   1   6   9    6.20   17.90
   6   1  -9   14.40   32.70
   3   6  -9  -13.60   15.30
  -3   6   9   -5.50   22.10
   6   3   9    4.30   17.20
  -6  -3   9  -10.60   27.70
   3  -6   9   -0.40   20.50
   6  -3  -9  -28.70   31.90
   6   3   9  -72.99   48.70
   3   6  -9   32.80   62.29
   3   6  -9  -19.30   15.80
   6  -3  -9   13.50   32.60
  -3  -6  -9  -10.40   29.30
   6   3   9    7.20   30.40
  -6   3   9   35.50   23.50
   3  -6  -9  -38.50   30.80
   6   3  -9  -55.69   56.69
  -3   6  -9   24.70   22.50
   6  -3   9    8.90   35.50
  -3  -6   9  -32.90   17.00
   6   3  -9   16.70   31.60
   6  -3   9   -3.50   25.20
   3   6   9    9.90   21.60
   6   3  -9  -11.30   19.10
  -6  -5   9    0.50   34.70
   5  -6   9   11.50   61.39
   6  -5  -9   95.09   47.30
   5   6  -9   32.40   24.40
   5  -6   9   10.20   29.00
   5   6  -9   23.50   22.70
   6   5   9   10.00   28.00
   5   6  -9  123.29   84.69
   6   5  -9   27.60   30.20
   6  -5   9    9.10   29.60
   6   5  -9  -44.00   72.79
   6  -5   9   41.90   54.49
   5   6   9    6.00   29.90
  -5   6  -9  -28.90   32.90
   5  -6  -9  -34.10   44.80
  -5  -6   9    2.80   27.70
   0  -7   9   -7.10   21.40
   0   7  -9   -5.40   23.90
   7   0   9  -37.70   30.20
  -7   0   9   67.79   62.49
   0   7   9   50.39   47.80
   7   0   9   11.00   15.50
   7   0   9    0.80   42.20
   7   0  -9  -31.00   21.60
   7   0  -9  -53.49   75.09
   7   0  -9  -64.69   50.59
   7   2   9  131.79   55.59
   7  -2  -9   -8.60   54.29
  -7  -2   9   25.20   41.00
   2   7  -9  -25.00   20.10
   7   2   9   31.40   35.20
   2  -7   9   12.70   21.80
   7  -2  -9   25.70   37.90
   7   2   9   23.80   18.30
   2   7  -9  -29.10   15.70
  -2   7   9   10.40   27.40
   7  -2   9    9.50   31.20
   7   2  -9   15.70   38.70
  -2   7  -9  -52.89   25.10
   7  -2   9   52.19   58.59
  -2  -7   9  -28.70   19.70
   7   2  -9   10.20   60.09
   7   2  -9   21.20   22.80
   2   7   9   10.30   24.30
  -4   7   9   -9.50   36.20
   4  -7   9  -40.50   26.90
  -7  -4   9    7.80   42.50
   7  -4  -9   81.09   51.19
   7  -4  -9   -2.70   60.49
   4   7  -9  -35.50   26.40
  -4  -7  -9   23.60   48.90
   7   4   9  -37.20   25.40
   7   4  -9   82.39   76.29
   7   4  -9    5.60   25.70
   4   7   9   29.70   33.60
   7  -4   9  -39.20   59.39
   4  -7  -9   17.40   50.79
  -4  -7   9   31.00   28.30
   7   4  -9   51.89   35.30
   7  -4   9  -50.59   34.80
   6  -7   9  -78.29   40.20
   7  -6  -9   13.20   65.79
   7  -6  -9   48.00   71.49
   6   7  -9  -84.79   35.70
  -7  -6   9  -41.50   46.10
   6   7  -9   20.80   34.10
   7   6   9   17.80   48.10
  -6  -7   9  -32.30   42.70
   7   6  -9  -25.30   36.60
   6   7   9  120.29   49.00
   7  -6   9   17.50   85.59
   7   6  -9   35.10   36.70
   7  -6   9  -14.40   44.00
   6  -7  -9   50.89   71.19
   8   1   9  -12.40   65.09
   8   1   9   15.20   47.50
   1  -8   9    5.90   27.20
  -1   8   9   31.00   37.50
   8   1   9   68.69   22.90
   8  -1  -9   17.10   71.39
   8  -1  -9   52.99   65.39
   1   8  -9   29.70   28.80
  -8  -1   9  -15.10   48.00
   8  -1  -9   61.69   35.00
   8  -1   9  -16.80   55.29
  -1  -8   9   10.50   26.10
  -1   8  -9   17.90   30.20
  -8   1   9   10.40   41.00
   8  -1   9   89.29   45.10
   8   1  -9   31.80   74.79
   1   8   9   63.79   37.50
   8   1  -9  -62.49   52.79
   8   1  -9   59.09   31.10
   8   3   9  -40.80   56.59
   8   3   9   40.50   89.69
   8   3   9   71.79   29.90
   8  -3  -9  -21.90   72.79
   3  -8   9    7.10   31.20
   3   8  -9   -0.30   32.10
   8  -3  -9  126.19   69.29
  -3   8   9   -1.10   43.40
  -8  -3   9   87.99   50.19
   8  -3  -9   27.70   53.19
  -3   8  -9   19.00   39.20
   8   3  -9  -46.70   43.00
   8  -3   9   71.99   65.69
   8   3  -9  -96.29   88.29
  -8   3   9  -68.09   37.80
   3   8   9   20.10   38.20
  -3  -8   9   -8.80   30.50
   8  -3   9  -34.60   45.90
   9   0  -9   86.59   78.49
   9   0   9  -23.50   77.09
   0   9   9   74.19   50.39
  -9   0   9  -84.39   53.89
   9   0  -9  188.28   85.09
   9   0   9 -107.69   55.69
   0  -9   9   20.10   35.30
   0   9  -9  -39.40   37.80
   9   2   9  -58.79   69.89
   9   2   9  -89.99  102.49
   2  -9   9   83.39   44.40
   9  -2  -9 -149.59   87.49
  -9  -2   9   22.70   62.29
   9  -2  -9  -34.20   71.19
   2   9  -9   43.10   40.40
  -2   9   9  -99.49   50.79
  -9   2   9   17.10   50.19
   9  -2   9   48.20   80.79
   9  -2   9  134.39   62.59
   2   9   9   88.49   51.39
   9   2  -9  -27.20   92.29
   9   2  -9   73.59   64.39
  -2   9  -9   86.09   47.10
   0   0 -10  126.99   21.30
   0   0  10  128.39   16.80
   0   0  10  104.89   20.00
   0   0  10  108.59   33.80
   0   0 -10   75.69   33.10
  -1   1 -10 3527.95  180.38
  -1  -1 -10 3319.97  189.48
   1   1  10 3220.88  182.78
   1  -1  10 3402.96  199.88
   1   1 -10 3525.35  188.28
  -1   1  10 3502.75  188.38
   1  -1  10 3466.85  181.18
   1  -1  10 3354.36  185.78
   1  -1 -10 3434.46  197.28
  -1  -1  10 3395.66  187.98
   1   1 -10 3530.15  211.28
   1  -1 -10 3164.98  191.28
   1   1  10 3579.74  186.48
  -1   1  10 3275.07  184.38
  -1   1 -10 3431.06  185.98
   1   1  10 3405.56  197.98
  -1  -1 -10 3253.87  199.98
   0  -2 -10  -10.80   35.30
  -2   0  10    6.80   14.80
   0   2  10    9.20   27.80
   2   0  10    8.60   10.30
   0   2  10  -13.40   14.40
   0   2 -10   11.90   15.40
   0   2 -10  -11.60   14.30
   2   0 -10   23.20   13.50
   0  -2 -10    5.70   16.20
   0  -2  10   24.10   12.40
   0   2 -10    7.00   10.10
   0   2  10   13.40   11.00
   2   0 -10   15.00   48.50
  -2   0 -10    4.90   10.80
   2   0  10   -7.40   24.90
   2   2  10   19.00   12.70
   2  -2 -10  -21.30   16.60
   2  -2  10   -9.20   12.00
   2  -2 -10   36.40   28.40
  -2   2 -10   -7.70    8.90
  -2   2  10   10.70   12.50
   2   2  10    2.90    9.40
  -2  -2  10    1.90   13.00
  -2   2  10  -14.50   11.40
   2   2 -10    9.10   10.40
   2   2  10  -53.09   28.90
  -2  -2 -10   -1.20   14.60
  -2   2 -10   25.20   12.40
   2  -2  10  -22.50   25.00
   2   2 -10    4.00   17.00
   2   2 -10   30.20   79.79
   3   1  10 2198.58  142.29
  -3   1 -10 2303.37  121.89
   3   1  10 2131.09  119.09
   1  -3  10 2118.39  123.69
  -3  -1  10 2015.70  126.49
  -1  -3 -10 2213.28  147.79
  -1   3  10 2155.78  123.59
   1   3 -10 1970.60  122.59
   1  -3  10 2264.87  142.59
  -3   1 -10 2167.98  118.79
   3   1  10 2214.38  123.19
   3  -1 -10 2296.07  144.89
   1   3 -10 2174.28  124.39
   3  -1 -10 2098.59  130.29
   3  -1  10 2130.09  124.29
   3   1 -10 2222.08  126.19
  -3   1  10 2108.19  125.69
  -1  -3  10 2093.59  124.39
   1   3  10 2135.99  121.69
  -1   3 -10 2105.09  116.29
  -3  -1 -10 2187.68  122.39
   3  -1  10 2178.78  116.59
   1   3  10 2095.39  122.19
   3   1 -10 2413.36  176.88
  -1   3 -10 2275.17  114.99
   3  -1  10 2184.68  137.89
   1  -3 -10 2211.38  136.29
  -1   3 -10 2149.19  123.79
   3  -3 -10 2196.08  158.38
   3   3  10 2708.13  145.29
   3   3  10 2672.73  168.18
  -3   3 -10 2804.22  147.69
   3   3 -10 2842.32  150.08
   3   3 -10 2461.75  151.08
   3  -3  10 2722.73  149.79
  -3  -3  10 2622.44  149.59
   3   3  10 2688.13  145.79
   3  -3 -10 2560.54  156.68
  -3   3  10 2739.33  146.29
   3  -3  10 2732.23  164.08
  -3  -3 -10 2235.88  149.19
  -3   3  10 2555.54  148.79
  -4   0 -10   34.40   13.50
   0  -4 -10  -16.40   21.10
   0  -4 -10   31.40   45.20
   0   4 -10   16.70   12.60
  -4   0  10   20.50   20.40
   4   0 -10   -2.30   26.10
   4   0  10   47.30   29.00
   0   4 -10   25.90   12.20
   0  -4  10    9.10   15.00
   4   0 -10   -1.40   15.70
   4   0  10    5.80   10.60
   0   4  10   16.20   15.30
   0   4  10   19.10   12.30
   4   0 -10   31.40   60.29
   4   0  10   26.80   16.90
   2  -4  10    2.60   13.80
   4  -2 -10   17.20   23.30
  -2  -4 -10    5.50   20.80
   2  -4  10  -42.70   31.20
   4   2  10   37.30   17.50
   4   2  10   11.30   33.10
   2   4 -10   32.30   48.00
  -4  -2  10   11.60   18.60
   4   2  10   11.10   11.60
  -2   4  10   14.90   15.00
   2   4 -10    4.40   13.80
  -4   2 -10    1.20   13.90
   2   4 -10    9.30   16.20
   4  -2 -10   22.90   42.00
   4  -2  10   10.30   16.50
   4  -2  10   24.50   29.70
   2   4  10   -4.90   15.30
  -2   4 -10  -13.60   11.90
  -2  -4  10   12.30   15.70
   2   4  10   17.00   14.30
   4   2 -10  -31.30   22.90
  -4  -2 -10   20.00   15.10
   2   4  10   31.70   49.50
   4   2 -10   -3.00   13.70
   2  -4 -10   10.90   36.60
  -4   2  10   -1.80   16.70
   2  -4 -10  -22.80   22.10
   4   4 -10   -5.20   16.50
   4   4  10  -23.80   50.49
   4   4 -10  -17.10   23.30
   4   4  10   13.90   17.10
  -4  -4 -10  -13.20   23.50
  -4   4 -10   30.60   20.50
   4  -4  10  -31.90   37.60
  -4   4  10   11.80   20.70
   4  -4 -10    5.20   31.30
   4   4  10   22.90   19.70
  -4  -4  10  -15.80   19.20
  -4   4  10   -5.30   17.60
   4  -4 -10   11.80   40.50
   4   4 -10   13.40   53.39
   4  -4  10   18.90   19.10
   5   1  10 1893.71  112.49
   5   1  10 1871.21  102.49
   5  -1 -10 1452.45  124.19
  -5   1 -10 1720.03  104.39
   1   5 -10 1857.31  100.29
  -1   5  10 1749.22  109.99
   1  -5  10 1793.92  108.89
   1   5 -10 1932.51  160.18
   1   5 -10 1836.22  108.29
   5   1  10 1923.81  128.29
   5  -1 -10 1883.91  116.59
  -5  -1  10 1646.04  117.59
   1   5  10 1758.82  108.69
   5  -1  10 1890.51  113.29
  -5   1  10 1767.62  113.29
  -1  -5  10 1795.42  108.49
   5  -1  10 1781.92  126.29
   5  -1  10 1853.81   99.49
   5   1 -10 1640.64  118.39
   5   1 -10 2043.30  111.29
  -5  -1 -10 1881.11  104.69
  -1   5 -10 1895.51  108.69
  -3   5  10 1470.55   82.49
   3   5 -10 1516.15   87.79
  -3   5  10 1440.46   92.49
  -5   3 -10 1443.96   86.69
   5   3  10 1506.65   91.89
   3   5 -10 1503.45   90.59
   5   3  10 1386.66   86.39
   3   5 -10 1097.49  125.69
  -5  -3  10 1230.28   94.59
   5  -3 -10 1208.48  103.69
   5   3  10 1398.46  115.39
   3  -5  10 1532.15   91.19
   5  -3 -10 1324.27  109.59
   5   3 -10 1455.25   98.49
  -3  -5  10 1280.57   88.49
  -5   3  10 1390.66   90.29
   5  -3  10 1476.25   94.79
   3   5  10 1383.96   89.49
   5   3 -10 1618.44  139.99
  -3   5 -10 1488.55   91.69
   5  -3  10 1459.25  113.39
   5   3 -10 1569.24   91.89
   5   5 -10 1216.38   79.89
  -5   5 -10 1049.20   78.29
   5   5 -10  877.41  124.69
   5   5  10 1146.49   76.09
   5  -5 -10  729.83   96.09
  -5  -5  10  911.81   77.39
   5  -5  10 1152.68   79.99
   5  -5  10  919.71  114.79
   6   0 -10   31.40   38.20
   0   6 -10   12.80   16.40
   6   0 -10   -5.70   21.40
   0  -6  10   36.30   20.80
   0   6  10    5.80   22.20
  -6   0  10   -2.30   27.60
   6   0  10   28.60   44.90
   6   0  10    6.20   25.70
   0  -6 -10   43.80   32.10
   6   0  10   19.40   14.50
   6   2  10  -63.99   47.70
   2   6 -10   -5.80   14.00
   6   2  10    6.40   17.20
   2   6 -10   12.20   18.20
   2  -6  10    1.30   19.00
  -6  -2  10  -39.40   28.20
   6  -2 -10  -28.60   48.20
   6   2  10  -21.80   28.20
  -2   6  10  -16.70   23.50
   6  -2 -10    8.50   31.40
  -2  -6 -10   43.10   30.60
   2   6  10    7.70   20.70
   6   2 -10   15.60   19.80
   6   2 -10  -56.39   32.80
   6   2 -10 -120.69   63.29
   6  -2  10   22.90   25.90
  -2   6 -10  -17.10   19.10
  -2  -6  10   24.90   19.30
   2  -6 -10  -27.70   32.70
  -6   2  10   18.60   25.00
   6  -2  10   28.00   42.20
   4   6 -10    2.60   21.10
   4   6 -10   -5.20   21.20
  -6  -4  10   36.70   32.90
  -4   6  10  -27.80   28.90
  -4  -6 -10  -28.30   36.60
   4  -6  10   56.89   26.80
   6  -4 -10   17.40   42.80
   6   4  10  -31.70   21.90
   4  -6 -10    9.30   42.70
   6  -4  10   -2.00   50.89
   6   4 -10   -5.60   75.19
   6   4 -10   44.80   34.00
   6   4 -10   -4.40   21.80
  -6   4  10   -0.40   27.10
  -4  -6  10  -16.70   24.00
   6  -4  10  -36.90   26.70
  -4   6 -10   21.70   30.70
   4   6  10    8.30   28.10
   6  -6  10 -157.08   79.79
   6  -6  10   39.80   38.50
   6   6 -10   18.80   31.60
  -6  -6  10   23.50   41.70
   6  -6 -10  128.09   64.99
   6   6 -10   64.89   34.90
   6   6  10   -6.30   37.50
   1   7 -10 1192.48   84.59
   7  -1 -10 1307.37  125.79
  -1   7  10 1059.79   89.09
   7  -1 -10 1453.15   96.09
   7  -1 -10 1390.56  146.09
   7   1  10 1232.08   76.89
   7   1  10 1121.69  107.59
  -7  -1  10 1096.09  103.29
   7   1  10 1168.18  116.29
   7   1 -10 1444.86  155.38
  -1   7 -10 1286.77   86.49
   7  -1  10 1135.59   95.59
   7   1 -10 1229.88  112.69
   1   7  10 1232.18   87.69
  -1  -7  10 1246.38   96.69
  -7   1  10 1133.79   94.19
   7   1 -10 1411.66   85.99
   3   7 -10  757.52   53.79
   3   7 -10  912.41   68.49
   7   3  10  749.92  106.69
  -3   7  10  732.83   72.39
   7   3  10  747.93   80.39
   7  -3 -10  874.21   91.99
   7   3  10  772.12   60.49
   3  -7  10  741.23   64.99
   7  -3 -10  803.62  101.89
  -7  -3  10  662.83   82.49
   7   3 -10 1275.37  153.98
   7  -3  10  763.42   78.69
  -7   3  10  746.23   69.69
   7   3 -10  803.52   64.49
  -3  -7  10  637.94   61.59
  -3   7 -10  706.13   71.29
   7   3 -10  684.23   81.99
   3   7  10  749.03   72.89
   7  -3  10  630.14   97.19
   5  -7  10  681.33   72.69
   7   5  10  724.33   73.99
  -7  -5  10  579.94   80.39
   5   7 -10  689.43   69.49
   5   7 -10  804.62   61.39
   7  -5 -10  639.54   90.69
   7  -5 -10  377.76   83.49
   7   5 -10  709.93   74.09
   5  -7 -10  519.35   87.39
  -5  -7  10  525.65   70.39
   7   5 -10  830.32   69.99
   7  -5  10  565.94   78.59
   7   5 -10  719.03  132.69
   5   7  10  620.84   79.39
  -5   7 -10  608.34   89.09
   7  -5  10  712.13  105.69
   8   0 -10   26.50   70.39
   0   8  10   39.70   40.50
   8   0  10  -27.10   43.40
   0   8 -10  -25.60   29.90
   8   0 -10  -52.09   76.29
   0  -8  10   22.60   31.00
  -8   0  10   21.50   48.40
   8   0  10   48.60   72.29
   8   2  10   35.60   87.89
   8  -2 -10    5.10   73.69
  -2   8  10  -27.60   42.10
   2  -8  10  -33.80   34.20
  -8  -2  10   16.60   53.99
   8   2  10  -11.20   27.80
   2   8 -10   31.60   31.60
   8   2  10  128.69   55.09
  -2  -8 -10   11.10   55.89
   8  -2 -10  -12.60   47.90
   8  -2 -10  -57.59   75.29
   2   8  10   51.99   41.60
   8  -2  10   58.29   45.30
   8  -2  10  -45.40   70.69
   8   2 -10  -33.60   35.50
   8   2 -10 -110.69   81.09
  -2   8 -10    7.10   37.10
  -2  -8  10   49.50   31.50
   2  -8 -10   67.79   64.89
  -8   2  10   94.39   43.80
   8   2 -10  -11.60   55.89
  -4   8  10   61.89   52.79
   8  -4 -10   20.00   80.49
  -8  -4  10  -83.09   51.49
   8   4  10  -24.10   38.40
   4  -8  10  -41.70   38.60
   8  -4 -10  151.58   81.09
   8  -4  10  -88.49   82.69
  -4  -8  10   21.60   39.40
   8   4 -10  -43.10   46.30
   8   4 -10  208.38  122.89
   4   8  10  -62.09   49.99
   0  -1 -11    3.90   14.00
   1   0  11    5.10    8.90
   0   1  11    8.70   10.40
   0  -1 -11   45.30   44.70
   0  -1  11   -3.50   13.10
  -1   0 -11   -8.10   12.70
   1   0 -11  -12.20   13.30
   1   0  11   35.30   36.20
   0   1  11   12.40   15.70
   1   0  11   -7.90   12.30
   1   0 -11   -2.70   43.70
   0   1  11  -38.80   31.90
   0   1 -11  -17.20   10.80
  -1   0  11  -20.90   13.00
  -1  -2 -11   30.20   58.99
   1  -2  11    4.10   12.70
  -1   2  11   -7.90   11.60
   2  -1 -11   95.09   44.60
  -1   2  11   -0.80   13.60
  -2   1 -11    5.90   14.00
   1   2 -11    0.70   12.10
   2  -1 -11    6.60   17.50
  -1  -2 -11    0.90   16.90
   1   2 -11   -0.10   16.60
   2   1  11   11.30   35.00
   1  -2  11  -33.40   28.40
   2   1  11   10.80   13.70
  -2   1 -11   -0.20   10.80
   2   1  11   23.60   10.90
  -2  -1  11    2.70   15.80
   2   1 -11   61.19   77.39
   1   2  11   13.70   17.80
  -2   1  11   13.90   16.30
  -1   2 -11   25.40   12.60
  -1   2 -11   20.30   16.50
   1   2  11  -43.90   30.30
  -2  -1 -11    8.70   14.30
   2  -1  11   -8.20   28.00
   1  -2 -11  -17.10   16.10
   2  -1  11   10.50   11.40
   2   1 -11   -6.00   12.40
   1   2  11    7.50   11.40
  -2   1  11   -5.90   11.80
   2  -1  11    5.60   12.70
   1  -2 -11  -27.00   33.80
  -1   2 -11   15.70   14.00
  -1  -2  11   20.00   16.70
   0  -3 -11    8.80   22.40
   3   0 -11   31.60   17.40
   0   3  11    7.50   13.50
   3   0  11   24.80   15.60
  -3   0 -11    4.50   12.30
   0   3 -11   -9.70   12.60
   0  -3 -11   34.70   49.70
   3   0  11    0.80   10.80
   0  -3  11    3.00   13.90
   0   3 -11   -8.10   18.10
   3   0  11   32.90   28.80
  -3   0  11  -22.00   17.30
   0   3  11   -9.90   13.30
   3   0 -11   18.60   60.69
   2   3 -11   14.20   14.90
   2   3 -11   19.50   20.30
   3  -2 -11   61.09   25.20
  -2   3  11   16.10   14.60
   3   2  11  -29.90   41.70
  -3   2 -11   23.80   14.80
   2  -3  11  -19.60   13.10
   3   2  11   -1.00   12.00
   3  -2 -11  -57.59   37.00
  -3  -2  11   12.50   17.60
   2  -3  11   45.90   37.40
   3   2  11   18.90   14.70
  -2   3  11    1.40   14.70
  -2  -3 -11   -2.90   19.00
  -3   2 -11    3.50    8.90
   3   2 -11   29.20   23.90
  -2   3 -11   17.20   14.00
   3   2 -11   -2.10   13.40
  -3  -2 -11    0.50   15.90
  -2  -3  11   -3.00   15.30
   3  -2  11  -12.80   14.70
   2   3  11    4.70   12.90
  -3   2  11  -15.80   16.00
   2   3  11   18.90   43.10
   2  -3 -11   40.80   36.80
   2  -3 -11  -21.00   23.90
   3  -2  11   46.20   31.00
   2   3  11  -17.30   17.00
  -1   4  11   12.40   16.10
   1  -4  11    3.40   15.40
   4   1  11   -4.10   12.30
   4   1  11    2.20   16.60
  -4   1 -11   12.60   16.20
   1   4 -11   -5.70   14.40
  -1   4  11  -18.00   15.50
   4  -1 -11  -16.20   19.70
  -1  -4 -11  -17.90   22.60
   1   4 -11   10.40   15.60
   4   1  11   19.10   37.60
  -4  -1  11   -9.50   23.70
   1   4 -11   15.30   50.79
   4   1 -11   -6.00   15.80
  -1   4 -11  -14.10   14.00
   4  -1  11    3.00   13.00
   1   4  11   17.00   13.80
   4  -1  11   15.50   17.20
  -1  -4  11   14.90   16.70
   1  -4 -11   18.10   24.70
  -4   1  11    7.00   21.90
   4  -1  11   47.70   34.80
   4   1 -11  -17.30   27.20
  -4  -1 -11   24.60   14.60
   1   4  11   29.80   17.00
  -3   4  11   -2.00   16.60
   3  -4  11   33.00   17.90
  -3  -4 -11  -15.30   23.40
   3  -4  11   46.40   44.30
   3   4 -11   -9.40   21.50
   4   3  11   18.00   19.90
   3   4 -11   68.69   62.09
  -3   4  11    2.60   19.70
   4   3  11  -24.60   15.60
  -4  -3  11  -31.50   18.40
  -4   3 -11   -6.00   17.70
   3   4 -11  -35.20   15.60
   4  -3 -11  -13.90   26.90
   4   3  11  -21.60   41.80
  -3  -4  11   -3.50   17.40
   4   3 -11    8.70   17.40
  -4   3  11   -6.90   18.80
  -3   4 -11    3.60   16.00
   3   4  11    3.40   17.80
   4   3 -11   10.30   27.40
   3  -4 -11   15.80   28.10
   4  -3  11    7.40   40.50
   4  -3  11   17.40   19.00
   4   3 -11   23.90   64.09
  -4  -3 -11   12.70   20.20
   5   0 -11   29.30   20.80
   0   5  11   -7.60   17.60
   0   5 -11   18.70   14.40
   0  -5  11  -28.10   18.10
   5   0  11   18.20   38.00
   0  -5 -11  -45.40   24.20
   5   0  11   54.59   24.10
   5   0  11   -0.50   13.80
   5   0 -11  -11.40   34.40
  -5   0  11  -40.90   23.90
   5  -2 -11    2.50   28.70
   2   5 -11   -5.60   16.30
   5   2  11   21.80   22.80
   5   2  11   26.60   16.20
   2   5 -11   87.39   72.59
  -5  -2  11    2.50   24.90
  -2   5  11  -40.20   19.70
  -2  -5 -11   36.10   29.90
   2   5 -11   21.90   16.40
   2  -5  11    3.60   17.70
  -5   2 -11    3.60   18.30
   5   2  11   19.00   46.70
   5  -2  11  -11.10   21.00
   5   2 -11  -60.39   30.10
   5   2 -11  -14.80   18.40
   2   5  11   34.50   20.10
   2  -5 -11   45.40   30.30
  -2   5 -11  -10.20   17.20
   5   2 -11  -37.20   63.19
  -5   2  11   -3.60   22.70
  -2  -5  11   38.50   19.30
   5  -2  11    9.70   40.70
   4   5 -11    2.90   24.20
  -5   4 -11   26.30   26.30
  -5  -4  11   29.20   26.90
   4  -5  11  122.79   61.49
   4   5 -11   93.59   70.49
   5  -4 -11  -34.20   38.90
  -4   5  11   37.50   26.90
   4   5 -11   -1.50   22.40
   4  -5  11  -47.20   22.30
  -4  -5 -11   36.10   32.90
   5   4  11   56.49   23.00
   5   4 -11  -29.90   29.80
  -4   5 -11  -44.60   24.20
   5   4 -11   10.30   23.70
  -4  -5  11   39.20   23.90
  -5   4  11  -18.90   25.30
   4  -5 -11   61.99   41.40
   4   5  11   23.30   23.70
   5  -4  11  -48.80   53.59
   5  -4  11  -23.70   24.50
   5   4 -11   26.60   78.09
   6  -1 -11  -75.79   50.99
   6   1  11  -72.59   50.29
  -6  -1  11    7.50   43.40
   1  -6  11   -9.00   22.90
   6   1  11    4.30   17.60
  -1   6  11   45.40   28.30
   6   1  11  -10.70   26.80
  -1  -6 -11   54.19   37.20
   1   6 -11   -5.00   18.70
   6  -1 -11  -12.70   27.40
  -6   1  11   48.60   32.30
  -1  -6  11   18.30   20.60
  -1   6 -11   -8.10   23.40
   1   6  11  -45.80   26.10
   6   1 -11   -4.10   21.20
   6  -1  11  101.99   48.70
   6  -1  11   30.80   28.30
   6   1 -11   48.70   76.19
   6   3  11  -12.60   21.90
   6  -3 -11   18.70   40.30
  -6  -3  11   59.19   33.50
   3   6 -11  -10.60   22.70
  -3   6  11   -9.80   29.20
  -3  -6 -11   24.50   38.00
   3  -6  11   11.40   23.90
   3   6 -11   17.80   20.30
   6   3  11    0.00   34.10
   6   3  11  116.59   67.59
   6  -3  11   -7.80   53.09
   6   3 -11   37.90   27.10
   6  -3  11  -17.10   29.20
   6   3 -11   36.20   39.10
  -3  -6  11   26.80   22.60
  -6   3  11   29.10   27.90
   3   6  11  -12.00   25.50
   6   3 -11  281.87  176.08
   3  -6 -11   27.90   45.50
   5   6 -11   22.70   30.50
   6   5  11   27.00   34.10
   6  -5 -11   60.89   58.39
  -6  -5  11   17.10   38.50
   5  -6  11   52.49   34.80
   6   5 -11    4.30   93.49
   6  -5  11 -133.59   71.49
   5   6  11   58.09   37.90
   6   5 -11   -9.60   29.50
  -5   6 -11  -42.20   42.40
  -5  -6  11   -6.70   34.80
   6   5 -11   21.60   37.00
   5  -6 -11  -32.50   56.19
   6  -5  11    4.10   36.00
   0  -7 -11   54.09   44.80
   0   7 -11   -8.60   24.00
   7   0 -11   37.30   93.99
   7   0  11   22.50   34.90
   7   0 -11   14.30   62.69
   7   0 -11   21.70   43.00
   0  -7  11   19.00   27.80
  -7   0  11  -59.29   39.20
   0   7  11   31.50   34.10
   7  -2 -11    7.90   41.20
   2   7 -11   -5.00   25.90
   7   2  11   61.49   25.50
   2  -7  11  -28.20   28.00
  -2   7  11  -59.09   33.60
   7  -2 -11   51.89   70.69
  -2  -7 -11  -25.50   40.70
   7   2  11   14.70   40.20
  -7  -2  11  -79.59   43.00
   7   2  11    5.10   70.09
   2   7  11    0.20   32.50
   2  -7 -11   17.90   49.20
  -2  -7  11  -16.30   26.60
  -2   7 -11    5.50   29.70
   7  -2  11   39.20   37.30
   7   2 -11   49.50   51.09
   7   2 -11   -4.30   27.50
   7  -2  11  -45.90   61.79
  -7   2  11   65.39   39.30
   7   2 -11  -88.39   90.49
   7  -4 -11   63.29   60.99
  -7  -4  11  -50.79   44.30
   4  -7  11  -26.20   33.30
   7   4  11   -1.30   33.60
   4   7 -11  -74.99   30.60
  -4   7  11  109.89   47.00
   7  -4 -11  -46.60   69.39
  -7   4  11    8.30   43.10
   4   7  11   31.80   39.90
  -4  -7  11   -6.90   33.50
   7   4 -11  -41.40   32.40
   7  -4  11   20.60   41.20
   7   4 -11  119.69  109.99
   7  -4  11   57.89   77.99
   7   4 -11   66.09   45.60
   4  -7 -11   77.39   63.09
  -4   7 -11   56.79   43.50
  -1   8  11   10.20   45.70
  -8  -1  11   39.00   60.69
   8  -1 -11   51.09   90.19
   8  -1 -11  -63.99   44.20
   8   1  11   40.60   93.29
   1   8 -11   -7.50   31.60
  -1  -8 -11   43.80   55.59
   8   1  11   53.19   50.29
   8  -1 -11  -71.59   87.89
   1  -8  11   11.40   36.40
   1  -8 -11  -82.99   58.89
   8   1 -11 -148.79   84.99
  -1   8 -11   -3.40   34.20
   8  -1  11    4.60   79.19
   8   1 -11   85.99   42.50
  -1  -8  11   11.90   33.30
   1   8  11 -105.99   41.50
   8   1 -11  141.89   75.29
   8  -1  11  -61.79   44.30
  -8   1  11   47.00   48.90
  -8  -3  11  -97.29   53.49
   8  -3 -11  111.09   92.59
   3  -8  11  -38.30   39.80
  -3   8  11  -35.80   49.30
   8  -3 -11  -60.29   61.59
   3   8 -11   63.89   39.60
   8  -3 -11   12.30   86.79
   8   3  11   -2.80   37.10
   8   3 -11 -274.17  112.49
   8  -3  11  -46.50   49.20
  -3  -8  11  -23.30   38.00
  -8   3  11  -31.20   48.00
  -3   8 -11   69.69   45.80
   8  -3  11 -117.79   89.69
   3   8  11   92.19   49.40
   3  -8 -11   89.09   71.29
   0   0  12 1618.94   96.69
   0   0 -12 1493.85   95.59
   0   0  12 1558.14  116.89
   0   0  12 1511.25   89.29
  -1   1  12   15.50   13.00
  -1  -1  12    6.40   15.80
   1  -1  12   15.60   15.50
   1   1  12    6.70   42.90
   1   1  12   16.90   12.10
  -1  -1 -12   28.40   16.50
   1   1  12   15.00   17.90
  -1   1  12   31.70   19.40
   1   1 -12   -3.70   12.70
   1  -1  12   -4.30   49.20
   1  -1 -12    2.60   16.90
  -1   1 -12   16.00   13.20
  -2   0 -12 2396.06  137.29
   2   0  12 2384.66  132.49
   0  -2  12 2435.56  140.39
   0  -2 -12 2360.76  145.89
   2   0 -12 2517.25  143.39
   0   2  12 2557.04  139.89
  -2   0  12 2268.27  139.99
   2   0  12 2490.55  138.09
   2   0  12 2307.47  159.08
   0   2  12 2317.07  135.89
   0   2 -12 2435.36  138.49
   2   2  12 1872.01  110.39
  -2   2  12 2001.60  113.99
  -2  -2 -12 1935.91  117.29
   2   2 -12 1939.61  114.99
   2   2  12 1783.22  112.39
  -2   2 -12 1904.81  112.19
  -2   2  12 1880.71  112.99
   2  -2  12 2006.10  134.79
  -2  -2  12 1917.61  114.99
   2  -2  12 1836.72  113.49
   2  -2 -12 1924.31  124.29
   2   2  12 2157.88  142.69
  -1   3  12   11.30   16.70
   3   1  12   28.60   41.80
   3  -1 -12   51.79   23.30
  -3   1 -12   17.60   14.80
  -1  -3 -12   40.70   24.80
   1   3 -12   40.20   21.30
   1  -3  12   52.99   19.80
   1   3 -12   28.70   16.00
  -1   3  12   21.30   16.40
   3   1  12   54.69   17.50
  -3  -1  12   17.00   21.20
  -3  -1 -12   42.70   16.40
  -1   3 -12   22.40   17.00
   1  -3 -12   46.30   29.50
  -1  -3  12   51.59   18.40
   3  -1  12   50.89   18.50
   3  -1  12  -15.40   37.40
   3  -1  12   44.60   16.50
   1   3  12   53.49   19.10
   1   3  12   50.39   18.40
  -3   1  12   18.40   21.50
   3   1 -12   54.59   26.70
  -1   3 -12   45.20   17.10
   3   1 -12   41.80   18.70
   3   3  12   27.50   17.90
   3  -3 -12    0.60   27.20
  -3   3  12    4.40   18.90
  -3  -3 -12   40.10   22.70
   3  -3  12   33.70   18.00
  -3   3  12   56.09   19.70
   3   3  12   25.70   21.40
   3   3 -12   10.10   26.90
  -3   3 -12   18.40   17.30
  -3  -3  12   45.40   19.80
   3  -3  12   95.09   43.30
   3   3 -12   18.90   18.40
   4   0  12 2440.56  156.48
  -4   0  12 2082.19  139.19
   0   4 -12 2303.67  123.69
   0   4  12 2139.69  125.99
   4   0  12 2286.67  133.29
   4   0  12 2290.57  124.89
   4   0 -12 2433.76  138.49
  -4   0 -12 2359.26  128.89
   0  -4  12 2140.19  133.39
   0   4  12 2238.28  132.69
   0   4 -12 2166.88  131.59
   4  -2 -12 1464.45  101.39
  -2   4  12 1419.76   81.39
   4   2  12 1453.05   87.19
   2   4 -12 1248.08  134.09
   2  -4  12 1377.06   87.89
   2   4 -12 1468.05   89.59
   4   2  12 1412.46   83.39
   2   4 -12 1364.06   86.99
  -2  -4 -12 1132.09   94.99
   4   2  12 1364.86  115.69
  -4  -2  12 1249.77   90.69
  -2   4  12 1310.47   87.99
  -4   2 -12 1397.06   85.49
  -4  -2 -12 1323.47   84.49
   4  -2  12 1471.65  114.79
   2  -4 -12 1162.98  101.89
   4   2 -12 1162.48   95.69
  -2  -4  12 1373.36   87.39
   2   4  12 1320.77   86.19
   4   2 -12 1460.25   89.49
   4  -2  12 1447.96   89.89
  -4   2  12 1352.86   89.79
  -2   4 -12 1424.06   86.39
   4  -4  12 1004.60   68.99
   4   4  12  896.31   63.59
   4   4 -12  899.21   71.59
   4  -4  12 1055.59  106.59
  -4   4  12  870.91   62.59
  -4  -4  12  785.62   66.79
  -4  -4 -12  763.92   68.49
   4  -4 -12  752.82   86.49
  -4   4 -12  812.32   65.19
   4   4 -12  930.71  126.49
   4   4 -12  586.44   86.59
   5  -1 -12   -6.20   25.50
   1   5 -12    3.80   17.90
   5   1  12  -10.30   22.50
   5  -1 -12   -5.80   44.20
  -5  -1  12  -27.40   28.90
   5   1  12    6.80   16.70
   1   5 -12   -0.50   15.30
   5   1  12   15.20   51.49
  -1  -5 -12  -26.40   32.40
  -1   5  12   20.30   22.30
   1  -5  12   34.60   21.60
  -5   1 -12    3.50   20.40
  -1  -5  12   14.40   21.30
   5   1 -12  -39.70   34.30
   5   1 -12   -5.80   20.40
   1  -5 -12  -66.19   30.00
   5  -1  12   -3.70   21.90
   1   5  12    0.90   22.40
  -1   5 -12    7.40   17.70
   5  -1  12    7.80   49.30
  -5   1  12   18.20   27.10
   5   3  12   27.70   21.30
   5  -3 -12   15.30   36.60
   3   5 -12   14.90   77.59
   3   5 -12   -6.70   21.40
   5   3  12  -45.00   26.40
  -3   5  12  -23.80   26.20
  -5  -3  12   81.79   30.40
  -5   3 -12   57.99   25.50
   3  -5  12   21.30   22.50
   3   5 -12    0.70   24.70
  -3  -5 -12  -63.59   31.40
  -3  -5  12  -17.00   21.00
  -5   3  12  -40.90   26.10
   5   3 -12    8.40   34.30
  -3   5 -12   42.90   22.60
   3   5  12    3.70   23.40
   5   3 -12   69.09   81.39
   5  -3  12   21.10   24.90
   5  -3  12   -9.80   51.09
   3  -5 -12  -60.59   35.60
   5  -5  12  -37.90   29.30
  -5  -5  12   11.80   34.50
   5   5 -12   -2.00   29.10
   5  -5 -12  -12.60   52.59
   5   5 -12  -26.30   35.10
  -5   5 -12   -7.50   37.60
   5   5  12   13.60   32.70
   5   5 -12  177.08  104.29
   6   0 -12  921.41  100.39
  -6   0  12  702.53   78.39
   6   0  12  827.62   90.49
   0  -6  12  795.52   66.19
   6   0 -12  999.60   80.99
   0   6 -12  799.82   61.99
   0  -6 -12  590.24   81.89
   0   6  12  825.72   70.49
   6   0  12  909.41  112.19
   6   2  12 1156.58   85.09
   6   2  12 1090.89   73.59
   2   6 -12 1110.19   78.59
   6   2  12 1018.10  127.19
   2  -6  12 1160.98   81.09
  -6  -2  12 1002.00   91.79
   6  -2 -12  819.42  109.59
  -2   6  12 1023.40   82.89
   6  -2 -12 1229.98   95.09
   6   2 -12 1118.29   99.29
   6  -2  12 1177.18   86.49
  -2   6 -12 1114.59   78.09
  -6   2  12 1014.00   85.19
  -2  -6  12 1108.99   77.89
   6   2 -12 1250.57   81.19
   6  -2  12  952.20  165.08
   2   6  12  974.90   81.19
   6   2 -12 1544.95  183.88
   2  -6 -12  754.02  103.49
   6   4  12 1060.99   80.59
   4  -6  12  980.80   83.29
   4   6 -12 1152.58   81.09
  -6  -4  12  873.41   86.09
  -4   6  12 1119.89   89.29
   4   6 -12 1089.99   74.19
   6  -4 -12  894.71  110.29
   6  -4  12 1214.28  130.89
  -6   4  12 1076.49   81.69
  -4  -6  12  905.41   80.89
   6  -4  12 1180.78   87.99
   6   4 -12 1092.89  144.59
   6   4 -12 1059.79   90.69
   6   4 -12 1047.10   80.69
  -4   6 -12  891.61   86.19
   4   6  12  854.61   81.59
   7  -1 -12   11.30   76.59
  -1  -7 -12   69.39   52.89
  -7  -1  12   -8.10   47.20
  -1   7  12  -50.39   36.70
   7   1  12   14.00   40.60
   1   7 -12  -37.20   25.90
   7  -1 -12    8.90   39.30
   1  -7  12    2.70   33.00
   7   1  12   58.69   80.19
   7  -1  12   78.99   41.60
  -1   7 -12   36.10   30.00
  -7   1  12   70.79   45.30
   7   1 -12   19.50   32.60
   1   7  12   21.10   34.30
   1  -7 -12   17.40   47.70
  -1  -7  12   -4.60   28.50
   7  -1  12  -20.60   68.99
   7   1 -12  -35.10  105.29
  -3   7  12   11.50   42.10
   3  -7  12   55.59   36.70
   7  -3 -12   55.59   59.69
  -3  -7 -12  -11.80   58.09
  -7  -3  12   55.49   48.50
   3   7 -12   -5.00   32.50
   7   3  12  135.19   35.90
   7  -3 -12   24.50   77.79
   7  -3  12  115.99   43.90
  -3  -7  12  -25.80   33.70
   3  -7 -12  -91.69   58.39
   7   3 -12   -5.30   35.20
   7  -3  12  193.08   88.89
   3   7  12   13.90   39.40
   7   3 -12   15.90   53.19
  -3   7 -12   29.80   37.70
   7   3 -12  -35.40  115.49
  -7   3  12   48.20   45.20
  -8   0  12  441.96   79.39
   8   0 -12  558.54  120.89
   0  -8 -12  295.37   72.09
   8   0  12  577.04  119.79
   0   8  12  507.25   68.99
   8   0 -12  824.52  119.19
   0  -8  12  578.04   68.29
   0   8 -12  522.95   68.49
   8   0 -12  771.92   86.49
   8   0  12  611.34   84.39
   0   1 -13    0.30   15.20
   1   0  13   16.30   14.20
  -1   0  13    8.20   19.00
   0   1  13   22.50   21.10
   0   1  13   -6.00   13.00
  -1   0 -13  -11.40   15.10
   0  -1 -13   -1.50   19.20
   1   0 -13  -32.10   16.60
   0  -1  13   27.20   19.70
   1   0  13   29.10   19.30
   1   0  13  -24.30   49.80
  -2   1 -13   84.79   18.90
   1   2 -13   28.60   23.20
   2   1  13   43.70   20.40
  -1   2  13   78.49   22.10
  -1  -2 -13   68.59   26.80
   1  -2  13  122.59   25.70
   2   1  13   88.99   59.79
  -1   2  13   63.59   20.20
   2   1  13   52.99   16.20
  -2  -1  13   79.09   23.20
   2  -1 -13   61.29   26.50
   1   2 -13   80.89   19.70
   2  -1  13  126.59   42.50
   2  -1  13   63.19   20.00
   2   1 -13  144.29   25.90
  -2  -1 -13   75.79   22.10
  -1   2 -13   68.89   19.80
   1   2  13   86.29   24.90
  -1  -2  13   79.29   23.50
  -1   2 -13   51.59   21.40
   1  -2 -13   92.49   28.90
  -2   1  13   84.99   26.10
   2   1 -13   51.59   28.00
   1   2  13   70.19   19.70
   0   3 -13   10.20   16.10
   3   0  13   21.30   15.20
  -3   0  13   -0.70   24.00
   0   3  13  -11.20   17.40
   0   3  13   20.60   17.80
   0  -3 -13    9.70   25.50
  -3   0 -13  -13.60   14.90
   3   0  13    4.20   18.50
   0  -3  13   25.10   19.30
   0   3 -13  -14.00   20.10
   3   0  13  -16.80   43.70
   3   0 -13   24.30   21.00
   2  -3  13  -48.60   48.00
  -3  -2  13   -8.30   20.60
  -2   3  13  -30.80   19.20
  -2  -3 -13    5.60   27.40
   3   2  13  -10.40   20.20
   2   3 -13    6.80   19.00
   2   3 -13  -28.10   25.30
  -2   3  13   34.60   20.90
   3   2  13    1.60   17.50
   3  -2 -13   15.00   26.90
  -3   2 -13   16.80   18.50
   2  -3  13    6.40   19.20
   3  -2  13  -14.00   17.70
  -3   2  13   -1.00   23.30
   3   2 -13   -7.70   17.40
  -2   3 -13   19.00   19.00
   3  -2  13   39.30   47.70
   2   3  13    0.30   20.00
  -3  -2 -13    2.90   20.30
  -2  -3  13   30.00   20.30
   2  -3 -13   25.50   29.00
   2   3  13   22.80   24.90
   3   2 -13   37.50   28.80
  -4  -1  13   24.00   25.80
   4   1  13   83.29   55.69
  -4   1 -13    6.70   19.80
  -1  -4 -13   60.59   33.40
   1   4 -13    5.20   19.80
   1   4 -13   49.20   21.60
   4  -1 -13   33.00   27.50
   4   1  13   32.50   17.40
   4   1  13   54.99   23.40
  -1   4  13   35.20   18.10
   1  -4  13    9.70   20.50
  -1   4  13  -24.40   19.80
  -1  -4  13    6.60   20.10
   4   1 -13   36.60   23.00
  -4   1  13   39.50   27.40
   4  -1  13   10.00   20.50
  -1   4 -13    4.40   17.60
   1   4  13    4.10   20.40
   4   1 -13   35.80   35.80
  -4  -1 -13  -24.10   18.50
   4  -1  13   39.10   47.70
   1  -4 -13  -10.00   33.60
   3  -4  13   10.60   24.50
   3   4 -13  -20.60   83.49
  -4  -3  13   69.29   25.80
   4   3  13   -7.80   20.20
  -4   3 -13  -33.10   22.50
   3   4 -13   41.30   23.90
  -3   4  13   -3.80   23.10
   3  -4  13   84.69   63.09
   3   4 -13   39.90   33.00
  -3  -4 -13  -12.50   30.00
   4  -3 -13   16.50   38.30
  -3   4  13   -7.70   24.60
   4   3  13   11.20   26.30
   3  -4 -13   18.60   40.20
   4  -3  13   14.50   24.20
   4   3 -13   92.19   35.80
  -3   4 -13   10.20   20.90
  -3  -4  13  -27.90   22.00
   4  -3  13  -41.60   54.79
  -4   3  13   18.50   27.70
   4   3 -13  -38.10   74.09
   4   3 -13   25.30   25.40
  -4  -3 -13  -12.00   24.90
   3   4  13   24.90   23.20
   0  -5  13   -6.50   22.20
   5   0 -13   83.59   51.29
   5   0  13  -18.50   57.69
   0   5  13  -39.90   25.30
   5   0  13  -32.60   23.90
   0   5 -13  -44.40   18.10
   5   2  13   40.70   29.50
  -5  -2  13   89.59   34.30
   2   5 -13   51.09   26.50
   5  -2 -13   54.89   39.20
   2  -5  13   95.79   30.20
  -2  -5 -13  -55.79   35.00
   2   5 -13   24.40   22.80
  -2   5  13   27.80   29.20
   5   2  13   45.20   23.70
   5  -2  13   54.19   28.50
   5   2 -13   26.80   41.70
  -5   2  13   54.69   31.20
  -2   5 -13   50.49   26.30
   5  -2  13  -61.39   56.69
   2  -5 -13    0.50   44.10
  -2  -5  13   62.09   25.60
   2   5  13   25.10   27.90
   5   2 -13   93.29   28.80
   4  -5  13    6.60   32.20
  -5  -4  13   69.09   37.60
   4   5 -13   51.99   31.10
   5  -4 -13   37.50   51.99
   4   5 -13  -57.49   38.70
   5   4  13    7.70   29.00
   5   4 -13   30.70   30.10
   5  -4  13   92.19   83.69
   5   4 -13   25.70   40.10
  -4   5 -13   72.89   32.30
   4   5  13   29.90   32.70
  -4  -5  13   21.60   29.30
   5   4 -13   37.60  103.09
   5  -4  13   36.20   34.60
  -5   4  13  -42.50   32.80
   4  -5 -13  -32.00   53.09
   6  -1 -13  -25.40   63.39
  -1   6  13   24.80   33.00
   6   1  13  144.39   81.49
  -1  -6 -13   59.79   44.50
   6   1  13  -48.70   31.50
   6  -1 -13  -36.90   34.60
   1  -6  13   11.70   30.80
   1   6 -13   46.40   26.00
  -6  -1  13   -9.20   42.60
   6   1 -13   -8.80   56.29
  -1   6 -13   28.00   24.80
  -1  -6  13   20.50   29.10
   6  -1  13   61.89  103.49
   6   1 -13   74.69   32.50
   6   1 -13  -81.29  106.29
  -6   1  13    3.10   39.60
   1  -6 -13   11.50   48.50
   6  -1  13  -41.40   32.40
   1   6  13   69.49   35.40
  -3   6  13   84.89   39.00
   6  -3 -13    8.10   50.89
   3   6 -13   18.00   28.20
  -3  -6 -13   97.69   48.50
   3  -6  13    3.30   33.20
   6  -3 -13 -154.48   64.09
  -6  -3  13   25.10   40.70
   6   3  13   69.39   32.10
   6  -3  13  148.79   85.69
  -3   6 -13   53.49   31.50
  -6   3  13   34.30   41.40
   3  -6 -13   50.09   56.39
   6   3 -13  -22.00   48.10
  -3  -6  13   23.60   30.20
   6   3 -13   15.80   32.00
   6   3 -13  113.59  124.19
   3   6  13   71.59   36.80
   6  -3  13  -16.80   34.70
   7   0 -13  259.67  118.09
   7   0 -13  -33.00   39.60
   7   0 -13  138.39   82.29
   0   7  13  -61.29   38.20
   7   0  13   -5.70   89.29
   0  -7  13  -75.39   33.10
   0   7 -13  -24.50   29.30
   0  -7 -13    2.60   53.29
  -7   0  13   90.49   57.09
   7   0  13    0.10   39.70
   2  -7  13   29.10   37.40
  -2  -7 -13   45.40   61.39
   7  -2 -13   -1.50   52.89
  -7  -2  13 -105.79   50.19
  -2   7  13   31.30   45.40
   7   2  13  -24.20   49.20
   2   7 -13   47.30   32.80
   7  -2 -13 -171.68   81.29
   7   2 -13   22.80  137.89
   7  -2  13  -25.70   41.60
  -2   7 -13    2.20   34.90
   2  -7 -13   30.80   65.09
   7   2 -13   47.10   38.90
   7  -2  13  161.48   99.99
  -7   2  13  -11.60   48.90
   7   2 -13   -5.10   63.49
   2   7  13    2.40   42.70
   0   0 -14   59.69   22.20
   0   0  14   49.99   24.70
   1  -1 -14 1581.44  103.49
   1   1 -14 1571.64   98.19
  -1   1 -14 1528.15   96.09
  -1   1  14 1465.15   99.09
   1  -1  14 1439.26  144.89
  -1   1  14 1578.54   94.39
  -1  -1 -14 1608.34  100.39
   1   1  14 1386.76   90.99
   1  -1  14 1541.55   98.59
  -1  -1  14 1553.64   97.49
   1   1  14 1498.45   99.69
   0   2  14   11.20   18.40
  -2   0  14   22.00   24.40
   2   0  14   29.70   22.10
   2   0 -14   28.80   21.50
  -2   0 -14    5.80   18.10
   0   2 -14    4.20   23.80
   0   2  14   34.80   24.00
   0  -2 -14   -4.80   25.40
   0  -2  14   -5.90   19.50
   2   0  14   27.90   16.70
   0   2 -14   13.70   17.90
   2  -2 -14   18.70   30.20
   2  -2  14    7.00   19.70
  -2  -2  14   16.60   21.60
  -2   2 -14   29.10   19.30
  -2  -2 -14    2.70   23.00
   2  -2  14   80.89   57.09
  -2   2  14  -17.90   24.30
   2   2  14   32.10   27.00
   2   2 -14   26.20   19.40
   2   2  14  -26.30   18.80
  -2   2  14   20.50   20.00
   2   2 -14   39.70   30.40
   1  -3  14 1706.03  103.89
  -1   3  14 1506.85   99.79
   3   1  14 1588.44   94.99
  -3  -1  14 1470.25  103.39
  -3   1 -14 1614.24   98.49
  -1  -3 -14 1535.85  109.19
   1   3 -14 1654.63  102.29
   1   3 -14 1349.16   99.19
   3   1  14 1596.64  100.59
  -1   3  14 1583.44   96.79
   3  -1 -14 1740.23  110.79
   1   3  14 1626.24   97.79
  -3   1  14 1534.55  105.99
   3  -1  14 1654.63  100.79
  -3  -1 -14 1615.24   98.59
   3   1 -14 1713.83  104.59
   1  -3 -14 1447.46  113.69
   1   3  14 1598.04   99.39
   3  -1  14 1437.96  132.29
  -1   3 -14 1635.74  100.59
  -1  -3  14 1581.74  101.39
  -3  -3 -14  887.31   70.79
  -3   3 -14  835.42   62.99
   3   3  14  819.12   64.09
   3   3 -14  955.20   70.29
   3  -3 -14  925.01   86.29
   3   3  14  800.62   71.89
   3  -3  14  924.71   69.19
   3  -3  14  935.11  128.39
   3   3 -14  833.92   75.59
  -3   3  14  752.22   65.89
  -3  -3  14  895.81   67.89
   4   0 -14   49.70   43.70
  -4   0 -14   10.00   22.10
   0  -4 -14   12.30   33.90
   0  -4  14   53.49   25.80
   4   0  14   22.90   19.50
   4   0  14   13.90   23.20
   0   4 -14    6.90   23.40
  -4   0  14   18.90   32.90
   4   0 -14   72.79   29.00
   4   0  14  -81.99   59.99
   4  -2 -14   34.10   36.90
  -2   4  14  -11.90   25.20
   2   4 -14   -6.40   23.60
  -2  -4 -14   12.00   31.90
   4   2  14    5.30   22.70
  -4   2 -14   14.70   23.60
   2  -4  14    0.10   23.60
   2   4 -14   46.00   30.60
  -4  -2  14   62.19   30.70
   2   4 -14  -22.80   93.49
   4   2  14    7.10   27.90
   4   2 -14   27.10   24.80
  -2   4 -14  -17.10   25.20
   4  -2  14   43.10   64.29
   2  -4 -14    0.40   41.30
   2   4  14  -28.20   26.40
   4   2 -14  -31.60   38.80
   4  -2  14  -20.00   23.10
  -4  -2 -14  -28.80   23.50
  -4   2  14   37.10   30.10
  -2  -4  14   36.80   23.80
   4   4 -14   20.60   38.40
   4  -4  14   16.20   30.30
   4   4 -14 -271.17  113.59
   4  -4  14  171.18   84.49
   4   4  14   -7.60   28.90
  -4  -4  14    3.50   29.10
   4  -4 -14   63.19   53.89
   4   4 -14   -8.70   27.90
   5  -1 -14  715.53  103.49
  -1  -5 -14  772.62   89.49
   5   1  14 1068.49   72.09
   1  -5  14 1010.50   79.99
  -1   5  14  988.30   79.79
  -5  -1  14  812.22   84.29
   5  -1 -14 1211.28   91.89
   1   5 -14 1031.30   74.19
   5   1 -14  940.01   99.89
   5   1 -14 1029.50   78.89
   1  -5 -14  656.23   94.49
   5  -1  14 1235.98  129.39
  -5   1  14  809.72   82.19
   1   5  14  952.50   76.89
   5  -1  14 1049.59   77.69
  -1  -5  14  937.81   74.79
  -1   5 -14  863.01   69.89
  -3  -5 -14  829.42   87.49
  -5  -3  14  710.23   78.09
   3  -5  14  842.72   74.79
   3   5 -14  884.31   73.69
  -3   5  14  952.10   79.99
   5   3  14  904.31   68.99
   5  -3 -14  897.61  101.99
  -3  -5  14  771.12   70.49
   5   3 -14 1016.30  163.08
   3  -5 -14  713.33  105.79
   5   3 -14  849.22   75.69
  -3   5 -14  819.02   68.79
   5  -3  14  848.72   76.39
   5  -3  14 1062.69  126.59
  -5   3  14  851.71   74.39
   5   3 -14  889.41   90.39
   3   5  14  770.32   75.19
   5  -5  14  620.14   75.69
  -5  -5  14  571.04   73.89
   5   5  14  612.84   68.49
   5   5 -14  593.64   70.89
   5  -5 -14  554.94   90.09
   5  -5  14  723.63  137.89
   5   5 -14  620.84   79.69
   6   0  14   14.10   34.60
  -6   0  14   14.40   52.39
   6   0 -14  -79.49   66.19
   0   6  14   65.69   36.70
   0  -6  14   30.60   32.20
   6   0 -14   34.50   37.90
   0  -6 -14   24.50   51.89
   0   6 -14   17.40   27.90
   6   2  14   44.70   41.10
  -2  -6 -14  104.89   54.69
   2  -6  14   -6.90   33.10
   6  -2 -14   -4.00   73.19
  -2   6  14   -4.90   39.50
  -6  -2  14  123.59   49.30
   2   6 -14   28.50   28.80
   6  -2 -14   67.69   52.19
  -2  -6  14  -33.20   31.50
   6   2 -14   39.20  136.59
   6   2 -14  105.99   60.29
   6  -2  14   -6.20   35.30
   6   2 -14  -78.59   33.00
  -2   6 -14   46.60   31.70
   2  -6 -14    4.00   53.79
   6  -2  14 -211.18   86.89
   2   6  14   90.39   40.20
  -6   2  14   81.79   46.80
  -7  -1  14  661.43   85.39
  -1   7  14  510.05   70.09
   1   7 -14  622.74   69.19
   7   1  14  546.05   71.39
  -1  -7 -14  440.66   76.69
   1  -7  14  611.24   70.59
   7  -1 -14  726.43   89.89
   7  -1 -14  593.14  108.89
   1  -7 -14  326.27   82.39
   7   1 -14  756.92  102.29
   1   7  14  575.74   77.29
   7   1 -14  649.43   80.59
   7   1 -14  818.02  172.08
  -7   1  14  603.44  105.49
   7  -1  14  512.75   68.09
  -1  -7  14  550.34   68.39
   7  -1  14  628.64  132.29
  -1   7 -14  615.84   68.99
   0   1  15  -40.50   23.80
   0   1 -15  -27.30   19.00
   0  -1 -15   -4.70   22.60
  -1   0  15  -26.10   22.60
   1   0 -15  -38.80   20.30
   0  -1  15  -31.40   21.40
   1   0  15  -40.30   24.30
   0   1  15  -10.90   19.90
  -1   0 -15   53.19   21.70
  -1   2  15   17.20   30.60
  -2  -1  15    2.40   25.60
   1  -2  15   47.50   27.10
  -2   1 -15   32.00   21.20
  -1  -2 -15  -11.60   24.80
   1   2 -15    5.60   31.20
   2  -1 -15  -85.09   49.20
  -1   2  15   -0.40   22.20
   2   1  15  -17.90   20.30
   2   1  15  -42.80   26.60
   2   1 -15   -7.00   33.90
  -1  -2  15  -31.80   28.50
   1   2  15    6.30   21.00
  -1   2 -15    7.80   20.80
  -2  -1 -15  -21.90   21.10
   1  -2 -15  -46.40   32.80
  -2   1  15    7.30   30.60
   2  -1  15  -11.50   22.40
   1   2  15  -29.30   28.80
  -3   0  15  -36.00   31.20
   0   3  15    7.00   25.50
   3   0 -15  -14.90   25.40
   0  -3  15   -3.20   25.30
  -3   0 -15    7.60   23.40
   0   3 -15   21.80   22.50
   3   0  15    2.30   23.50
   3   0  15   33.10   21.40
   3   0 -15    1.50   41.90
   0   3  15   -2.50   33.10
   2   3 -15  -34.30   36.20
   3   2  15    9.80   31.20
   3   2  15   13.10   24.00
   2   3 -15  -40.80   25.00
   2  -3  15  -38.20   26.40
  -3   2 -15  -11.90   22.40
  -2  -3 -15   11.20   30.10
  -2   3  15  -10.10   28.40
  -2   3  15    9.90   28.50
  -3  -2  15  -28.90   26.10
   3  -2 -15   21.70   34.70
  -3  -2 -15  -15.20   25.00
  -2  -3  15    0.20   25.50
   3  -2  15   14.70   25.80
   3   2 -15    7.10   37.50
   3   2 -15   18.10   27.30
  -3   2  15   -4.90   32.10
   2   3  15  -20.30   30.70
   2  -3 -15   10.50   36.80
   3  -2  15  -63.39   74.99
   2   3  15   -7.30   27.40
  -1   4  15   51.49   31.40
  -4  -1  15   -1.70   34.30
   4   1  15   39.40   26.90
  -4   1 -15  -35.00   26.80
   4   1  15   30.20   31.90
   4  -1 -15   15.10   34.30
  -1  -4 -15   28.40   39.70
   1   4 -15   21.40   25.30
   1  -4  15   50.39   32.90
   4  -1  15   48.10   27.80
  -4   1  15    2.50   38.20
  -4  -1 -15    2.10   25.90
   1   4  15  -52.29   27.30
   1  -4 -15   23.60   39.90
   4  -1  15  -77.69   73.09
   4   1 -15   20.70   29.40
   4   1 -15    6.60   46.90
  -1   4 -15   27.00   24.50
  -1  -4  15    8.10   26.40
  -3  -4 -15   52.59   47.10
   4  -3 -15   14.50   48.80
   3   4 -15    6.60   31.00
   3  -4  15  -15.70   33.20
  -4  -3  15  107.99   37.40
   3   4 -15  -32.00   39.00
   4   3  15   46.60   31.70
   4   3 -15   -6.50   45.70
  -3   4 -15    3.30   26.60
   4   3 -15  -87.49  105.99
  -3  -4  15   25.60   29.30
   4  -3  15  -67.99  100.69
   4  -3  15  -24.70   32.00
   4   3 -15  -70.89   29.00
   3  -4 -15    2.80   52.69
   3   4  15  -24.60   30.80
   5   0 -15   32.40   64.59
   0  -5  15   -0.80   31.10
   0  -5 -15   29.10   47.90
   0   5  15   88.79   37.50
   0   5 -15    1.00   26.60
  -5   0  15   -3.80   44.80
   5   0 -15  -17.60   34.80
  -2  -5 -15   42.40   47.70
  -2   5  15   77.89   38.60
   2   5 -15  -11.50   28.60
   5  -2 -15  -66.19   66.89
   5   2  15   -0.50   39.80
   5  -2 -15   -7.60   44.80
   2  -5  15   59.79   37.60
  -5  -2  15   60.09   39.30
  -2  -5  15  -48.60   31.60
   2   5  15   23.60   38.10
   5  -2  15  -79.19   96.89
  -5   2  15   -6.80   44.20
   2  -5 -15  -37.40   53.39
   5  -2  15   83.29   36.40
  -2   5 -15   -4.60   27.50
   5   2 -15    3.30   33.00
   5   2 -15   73.99   58.19
   5   2 -15   81.69  132.49
   4   5 -15  -36.60   35.60
  -5  -4  15   81.29   42.90
   4  -5  15  -47.00   38.80
   4  -5 -15  147.19   66.09
   5   4 -15  -12.40   37.20
   5  -4  15   57.39   42.00
   5  -4  15  196.08  130.79
   5   4 -15   37.70   50.59
   5   4 -15    9.10  155.78
  -4  -5  15    7.60   38.00
  -4   5 -15   51.49   42.50
   6   1  15   64.69   43.10
  -1  -6 -15   -0.10   52.59
   6  -1 -15   77.99   48.50
  -1   6  15  -69.39   40.40
  -6  -1  15  177.58   56.49
   1  -6  15   59.49   37.70
   6  -1 -15   -2.10   79.79
   1   6 -15   11.20   31.40
   6   1 -15  -47.50   39.10
   6   1 -15   93.39   71.79
  -1  -6  15   28.70   36.00
   1   6  15  -52.89   42.20
   6   1 -15 -142.89  148.79
   6  -1  15  -88.69   36.70
  -1   6 -15   26.70   32.70
  -6   1  15   46.80   54.39
   1  -6 -15   18.10   62.89
   0   0 -16 1504.95  106.49
   0   0  16 1554.14  102.79
   1   1 -16   42.40   39.40
  -1   1 -16   -5.10   38.30
   1  -1  16   -2.10   28.10
   1   1  16    5.80   29.40
   1   1 -16   -9.00   23.80
   1   1  16   23.80   24.70
  -1  -1  16  -13.50   28.00
  -1   1  16   90.19   32.40
   1  -1 -16  -33.30   27.10
  -2   0  16  994.10   84.49
   0  -2  16 1099.09   81.49
   0  -2 -16 1159.58   89.49
  -2   0 -16  975.40   75.69
   0   2 -16 1132.09   80.99
   0   2  16 1024.50   84.19
   2   0 -16 1186.48   86.59
   2   2 -16  870.71   86.89
  -2  -2  16  947.51   77.09
   2   2  16  978.80   71.79
  -2   2  16  907.91   80.89
   2  -2  16  995.40   79.49
   2   2 -16  992.20   79.39
   2   2  16  842.02   81.09
  -2   2 -16  980.30   72.99
   2  -2 -16 1049.40   91.19
   1   3 -16   61.99   29.40
   3   1  16  -13.20   27.00
  -1  -3 -16   68.99   36.60
  -3  -1  16  -30.30   33.10
   3  -1 -16  -44.60   34.40
  -1   3  16   60.09   39.90
  -1   3  16    5.80   29.50
   1  -3  16   81.69   35.00
  -3   1 -16   17.50   26.70
   3   1 -16    7.50   28.70
   1  -3 -16  -26.70   37.70
   3  -1  16   -7.40   30.50
   3   1 -16   36.50   45.90
   1   3  16   32.20   28.70
  -1   3 -16    9.90   27.00
  -3   1  16   36.50   41.00
  -3  -1 -16   26.20   26.30
  -1  -3  16   45.20   29.50
   3   3  16    5.00   32.90
  -3  -3  16  -28.90   35.00
  -3   3 -16   -7.60   28.70
   3   3 -16   16.70   47.30
   3  -3  16   40.20   33.80
   3  -3 -16   46.10   47.20
   3   3 -16   58.59   33.40
  -3  -3 -16  -27.00   34.80
  -3   3  16  -56.49   45.10
   4   0 -16  420.26   78.89
   0  -4  16  622.54   64.69
   4   0  16  576.74   65.29
   4   0 -16  606.34   72.59
  -4   0  16  604.64   78.39
   0  -4 -16  556.54   83.59
   0   4  16  593.64   64.69
   0   4 -16  598.04   60.29
  -4   2 -16  765.42   73.39
  -2  -4 -16  740.43   87.29
  -2   4  16  745.83   76.89
   2  -4  16  760.52   78.39
  -4  -2  16  743.43   79.89
   4   2  16  750.32   71.29
   4   2  16  889.81   82.89
   4  -2 -16  950.90   93.29
   2   4 -16  788.22   74.49
  -2   4 -16  789.92   68.89
   4  -2  16  855.21   76.89
   4   2 -16  738.43   97.49
  -2  -4  16  731.03   72.49
   2   4  16  826.62   75.49
   2  -4 -16  917.81  103.79
  -4   2  16  794.72   83.59
   4   2 -16 1001.30   80.09
  -4  -4  16  680.03   75.99
   4  -4 -16  881.21   99.19
   4  -4  16  541.25   78.49
   4   4 -16  719.73   78.09
   4   4  16  704.13   80.29
   1  -5  16    2.70   36.40
   1   5 -16   -5.60   32.10
  -1   5  16  -60.39   41.20
  -1  -5 -16  -37.00   51.59
   5  -1 -16   -0.30   44.70
  -5  -1  16   40.90   48.70
   5  -1 -16   58.99   75.49
   5   1  16   24.10   40.70
  -1   5 -16  -61.09   29.50
   5   1 -16  -46.10   68.19
   5  -1  16   44.60   37.80
   1  -5 -16  -73.89   51.49
  -1  -5  16   42.20   36.00
   5   1 -16   36.80   40.10
   1   5  16   73.09   41.90
   0   1  17  -36.60   34.70
  -1   0 -17   61.69   31.70
  -1   0  17   25.50   35.70
   1   0  17  -49.20   31.20
   1   0 -17   42.50   32.10
   0  -1 -17  -10.60   34.90
   0  -1  17   81.39   35.20
   0   1 -17  -32.70   47.20
   0   1 -17  -31.60   27.20
  -2   1 -17   48.10   29.80
   1  -2  17   85.69   37.00
  -2  -1  17   23.30   36.40
   1   2 -17   48.00   32.50
  -1  -2 -17    9.30   34.10
   2  -1 -17   90.19   39.60
   2   1  17   12.40   31.30
   2   1  17   89.99   39.20
   1   2  17   45.30   31.20
  -1   2 -17   53.69   30.60
   1   2  17   40.70   42.40
   1  -2 -17   65.29   40.70
  -2   1  17   63.79   42.80
   2   1 -17   26.30   51.19
  -1  -2  17   21.40   32.90
   2  -1  17   12.00   37.70
  -2  -1 -17   67.39   33.20
   2   1 -17    9.50   34.20
   0   3  17   -8.60   34.50
  -3   0  17  -73.09   43.10
   3   0 -17  -73.69   60.39
   3   0 -17   -2.50   36.40
   0   3 -17   58.39   33.20
   3   0  17  100.99   39.80
   0  -3  17   75.79   36.10
  -3   0 -17  -44.00   29.40
   0  -3 -17    7.20   44.20
  -2  -3 -17  -26.10   39.00
   2   3 -17  119.69   38.90
   3  -2 -17  -95.29   43.10
   2  -3  17   -2.10   36.10
  -3  -2  17   56.49   38.70
   3   2  17   17.10   36.30
  -3   2 -17   18.30   32.60
  -2  -3  17  -26.60   33.50
  -3  -2 -17   41.30   36.80
   2   3  17   33.10   37.70
   3   2 -17  -21.60   56.99
  -2   3 -17  -14.20   29.80
   2  -3 -17  -82.49   47.10
   3   2 -17    1.60   35.20
   3  -2  17  -15.30   37.20
  -3   2  17   37.60   48.60
   1  -4  17   52.59   39.30
   4  -1 -17   31.20   75.79
  -4  -1  17  -81.39   43.30
   1   4 -17  -15.40   32.80
   4  -1 -17   -4.00   45.90
  -1  -4 -17   63.49   48.40
   4   1  17  116.29   47.70
  -1   4  17   55.29   42.80
  -4   1  17   72.29   56.69
   4   1 -17  -99.39   63.89
   4   1 -17   10.50   37.80
  -1   4 -17  -58.09   33.10
   1   4  17   66.99   41.70
   1  -4 -17   -8.40   52.99
  -1  -4  17  -37.50   36.10
   4  -1  17   59.69   40.90
   0   0  18   17.50   40.30
   0   0 -18   21.10   35.90
  -1   1  18  691.93   90.19
   1   1 -18  955.70   84.29
  -1  -1  18  821.52   83.29
  -1  -1 -18  952.50   82.19
   1   1  18  873.01   85.59
  -1   1 -18  756.62   77.19
   1  -1  18  855.51   81.29
   1  -1 -18  856.81   86.39
   2   0 -18   36.50   40.70
   2   0  18   55.29   42.80
   0  -2  18  -12.60   37.80
   2   0 -18   95.39   67.79
  -2   0  18   -7.00   43.60
   0  -2 -18  -25.50   39.60
   0   2 -18   -4.80   36.10
  -2  -2  18  -13.70   39.00
  -2   2 -18   32.00   37.20
  -2  -2 -18  -17.40   40.10
   2  -2  18  -19.00   42.30
   2  -2 -18   30.90   49.00
  -2   2  18  125.79   60.79
   2   2 -18   23.60   38.50
   2   2  18   46.20   41.30
   3  -1 -18  665.33   78.19
  -3   1 -18  549.25   69.99
  -1  -3 -18  434.56   66.49
   1   3 -18  603.34   74.99
   1  -3  18  535.15   71.99
  -3  -1  18  582.24   79.99
   3   1  18  654.63   78.59
   3  -1 -18  232.68   87.69
  -1   3 -18  445.56   66.09
   3   1 -18  616.74   78.39
   3   1 -18  518.55   84.09
  -3  -1 -18  529.85   66.19
  -3   1  18  418.16   75.19
   3  -1  18  515.55   77.39
  -1  -3  18  504.05   62.69
   1   3  18  498.95   61.79
   1  -3 -18  628.44   76.79
  -1   0  19   28.40   50.89
   0  -1  19    2.00   47.30
   0   1 -19   -5.10   41.70
   0   1  19   15.80   54.79
   1   0 -19  -26.90   42.10
   1   0  19   12.30   49.00
   0  -1 -19  102.49   46.20
  -1   0 -19  -13.70   39.50
   0   0   0    0.00    0.00
_computing_structure_solution     'SHELXT 2018/2 (Sheldrick, 2018)'
;
_shelx_hkl_checksum              93518
_shelx_res_file
;
TITL 2_a.res in I4/mcm
    2_a.res
    created by SHELXL-2018/3 at 11:35:22 on 30-Jul-2019
REM Old TITL 2 in I4/mcm
REM SHELXT solution in I4/mcm: R1 0.032, Rweak 0.000, Alpha 0.043
REM <I/s>   0.261 for   23 systematic absences,  Orientation as input
REM Formula found by SHELXT:  F2 Rb
CELL  0.71073   6.2991   6.2991  11.4659   90.000   90.000   90.000
ZERR    4.000   0.0005   0.0005   0.0010    0.000    0.000    0.000
LATT  2
SYMM -X, -Y, Z
SYMM -Y, X, Z
SYMM Y, -X, Z
SYMM -X, Y, 1/2-Z
SYMM X, -Y, 1/2-Z
SYMM Y, X, 1/2-Z
SYMM -Y, -X, 1/2-Z
SFAC F BR RB
UNIT 16 4 4
TEMP -173.150
SIZE 0.032 0.145 0.188
L.S. 10
BOND
LIST 6
ACTA
FMAP 2
PLAN 20
WGHT    0.004000    1.295100
EXTI    0.001648
FVAR       0.40298
BR1   2    0.500000    0.000000    0.500000    10.12500    0.00693    0.00693 =
         0.00603    0.00000    0.00000    0.00080
RB1   3    0.500000    0.500000    0.750000    10.12500    0.00994    0.00994 =
         0.00879    0.00000    0.00000    0.00000
F1    1    0.650051    0.150051    0.616601    10.50000    0.01469    0.01469 =
         0.01196   -0.00472   -0.00472   -0.00026
HKLF 4
REM  2_a.res in I4/mcm
REM wR2 = 0.0378, GooF = S = 1.064, Restrained GooF = 1.064 for all data
REM R1 = 0.0203 for 189 Fo > 4sig(Fo) and 0.0507 for all 322 data
REM 13 parameters refined using 0 restraints
END
WGHT      0.0040      1.2951
REM Highest difference peak  0.663,  deepest hole -0.726,  1-sigma level  0.129
Q1    1   0.5000  0.6205  0.7500  10.50000  0.05    0.66
Q2    1   0.4992  0.1223  0.5000  10.50000  0.05    0.66
Q3    1   0.7724  0.3340  0.5887  11.00000  0.05    0.44
Q4    1   0.5901  0.4093  0.5000  10.50000  0.05    0.40
Q5    1   0.5027  0.5802  0.8077  11.00000  0.05    0.37
Q6    1   0.5000  0.0000  0.6537  10.25000  0.05    0.37
Q7    1   0.5580  0.5607  0.7036  11.00000  0.05    0.35
Q8    1   0.3453  0.1547  0.4727  10.50000  0.05    0.33
Q9    1   0.4423 -0.0577  0.5373  10.50000  0.05    0.31
Q10   1   0.6726  0.0812  0.5702  11.00000  0.05    0.31
Q11   1   0.7283  0.3398  0.6666  11.00000  0.05    0.30
Q12   1   0.7787  0.1328  0.5000  10.50000  0.05    0.30
Q13   1   0.7020  0.0000  0.7500  10.50000  0.05    0.30
Q14   1   0.4212 -0.0076  0.5497  11.00000  0.05    0.29
Q15   1   0.4908  0.1243  0.6327  11.00000  0.05    0.28
Q16   1   0.6625 -0.0581  0.6955  11.00000  0.05    0.28
Q17   1   0.6662  0.2325  0.6690  11.00000  0.05    0.28
Q18   1   0.5835 -0.0043  0.7009  11.00000  0.05    0.27
Q19   1   0.4914  0.0596  0.7174  11.00000  0.05    0.27
Q20   1   0.6572  0.2817  0.6061  11.00000  0.05    0.27
;
_shelx_res_checksum              88246
loop_
_space_group_symop_operation_xyz
'x, y, z'
'-x, -y, z'
'-y, x, z'
'y, -x, z'
'-x, y, -z+1/2'
'x, -y, -z+1/2'
'y, x, -z+1/2'
'-y, -x, -z+1/2'
'x+1/2, y+1/2, z+1/2'
'-x+1/2, -y+1/2, z+1/2'
'-y+1/2, x+1/2, z+1/2'
'y+1/2, -x+1/2, z+1/2'
'-x+1/2, y+1/2, -z+1'
'x+1/2, -y+1/2, -z+1'
'y+1/2, x+1/2, -z+1'
'-y+1/2, -x+1/2, -z+1'
'-x, -y, -z'
'x, y, -z'
'y, -x, -z'
'-y, x, -z'
'x, -y, z-1/2'
'-x, y, z-1/2'
'-y, -x, z-1/2'
'y, x, z-1/2'
'-x+1/2, -y+1/2, -z+1/2'
'x+1/2, y+1/2, -z+1/2'
'y+1/2, -x+1/2, -z+1/2'
'-y+1/2, x+1/2, -z+1/2'
'x+1/2, -y+1/2, z'
'-x+1/2, y+1/2, z'
'-y+1/2, -x+1/2, z'
'y+1/2, x+1/2, z'
loop_
_atom_site_type_symbol
_atom_site_label
_atom_site_fract_x
_atom_site_fract_y
_atom_site_fract_z
_atom_site_U_iso_or_equiv
_atom_site_adp_type
_atom_site_calc_flag
_atom_site_occupancy
Br Br1 0.500000 0.000000 0.500000 0.00663(14) Uani d 1
Rb Rb1 0.500000 0.500000 0.750000 0.00956(15) Uani d 1
F F1 0.6501(2) 0.1501(2) 0.61660(13) 0.0138(3) Uani d 1
loop_
_atom_site_aniso_label
_atom_site_aniso_U_11
_atom_site_aniso_U_22
_atom_site_aniso_U_33
_atom_site_aniso_U_12
_atom_site_aniso_U_13
_atom_site_aniso_U_23
Br1 0.00693(19) 0.00693(19) 0.0060(2) 0.0008(2) 0.000 0.000
Rb1 0.0099(2) 0.0099(2) 0.0088(2) 0.000 0.000 0.000
F1 0.0147(5) 0.0147(5) 0.0120(7) -0.0003(8) -0.0047(5) -0.0047(5)
loop_
_atom_type_symbol
_atom_type_description
_atom_type_scat_dispersion_real
_atom_type_scat_dispersion_imag
_atom_type_scat_source
F F 0.0171 0.0103 'International Tables Vol C Tables 4.2.6.8 and 6.1.1.4'
Br Br -0.2901 2.4595 'International Tables Vol C Tables 4.2.6.8 and 6.1.1.4'
Rb Rb -0.9393 2.9676 'International Tables Vol C Tables 4.2.6.8 and 6.1.1.4'
loop_
_geom_angle_atom_site_label_1
_geom_angle_atom_site_label_2
_geom_angle_atom_site_label_3
_geom_angle_site_symmetry_1
_geom_angle_site_symmetry_3
_geom_angle
F1 Br1 F1 . 17_656 180.0
F1 Br1 F1 . 18_556 90.01(10)
F1 Br1 F1 17_656 18_556 89.99(10)
F1 Br1 F1 . 2_655 89.99(10)
F1 Br1 F1 17_656 2_655 90.01(10)
F1 Br1 F1 18_556 2_655 180.0
F1 Rb1 F1 27_566 4_565 143.52(7)
F1 Rb1 F1 27_566 25_656 73.20(3)
F1 Rb1 F1 4_565 25_656 141.19(6)
F1 Rb1 F1 27_566 28_546 114.95(5)
F1 Rb1 F1 4_565 28_546 76.95(5)
F1 Rb1 F1 25_656 28_546 73.20(3)
F1 Rb1 F1 27_566 3_655 76.95(5)
F1 Rb1 F1 4_565 3_655 114.95(5)
F1 Rb1 F1 25_656 3_655 78.41(7)
F1 Rb1 F1 28_546 3_655 143.52(7)
F1 Rb1 F1 27_566 26_456 73.20(3)
F1 Rb1 F1 4_565 26_456 78.41(7)
F1 Rb1 F1 25_656 26_456 114.95(5)
F1 Rb1 F1 28_546 26_456 73.20(3)
F1 Rb1 F1 3_655 26_456 141.19(6)
F1 Rb1 F1 27_566 2_665 78.41(7)
F1 Rb1 F1 4_565 2_665 73.20(3)
F1 Rb1 F1 25_656 2_665 143.52(7)
F1 Rb1 F1 28_546 2_665 141.19(6)
F1 Rb1 F1 3_655 2_665 73.20(3)
F1 Rb1 F1 26_456 2_665 76.95(5)
F1 Rb1 F1 27_566 . 141.19(6)
F1 Rb1 F1 4_565 . 73.19(3)
F1 Rb1 F1 25_656 . 76.95(5)
F1 Rb1 F1 28_546 . 78.41(7)
F1 Rb1 F1 3_655 . 73.20(3)
F1 Rb1 F1 26_456 . 143.52(7)
F1 Rb1 F1 2_665 . 114.95(5)
F1 Rb1 Rb1 27_566 25_556 141.53(2)
F1 Rb1 Rb1 4_565 25_556 38.47(2)
F1 Rb1 Rb1 25_656 25_556 108.24(3)
F1 Rb1 Rb1 28_546 25_556 38.47(2)
F1 Rb1 Rb1 3_655 25_556 141.53(2)
F1 Rb1 Rb1 26_456 25_556 71.76(3)
F1 Rb1 Rb1 2_665 25_556 108.24(3)
F1 Rb1 Rb1 . 25_556 71.76(3)
F1 Rb1 Rb1 27_566 25_666 38.47(2)
F1 Rb1 Rb1 4_565 25_666 141.53(2)
F1 Rb1 Rb1 25_656 25_666 71.76(3)
F1 Rb1 Rb1 28_546 25_666 141.53(2)
F1 Rb1 Rb1 3_655 25_666 38.47(2)
F1 Rb1 Rb1 26_456 25_666 108.24(3)
F1 Rb1 Rb1 2_665 25_666 71.76(3)
F1 Rb1 Rb1 . 25_666 108.24(3)
Rb1 Rb1 Rb1 25_556 25_666 180.0
F1 Rb1 Rb1 27_566 25_566 71.76(3)
F1 Rb1 Rb1 4_565 25_566 71.76(3)
F1 Rb1 Rb1 25_656 25_566 141.53(2)
F1 Rb1 Rb1 28_546 25_566 108.24(3)
F1 Rb1 Rb1 3_655 25_566 108.24(3)
F1 Rb1 Rb1 26_456 25_566 38.47(2)
F1 Rb1 Rb1 2_665 25_566 38.47(2)
F1 Rb1 Rb1 . 25_566 141.53(2)
Rb1 Rb1 Rb1 25_556 25_566 90.0
Rb1 Rb1 Rb1 25_666 25_566 90.0
F1 Rb1 Rb1 27_566 25_656 108.24(3)
F1 Rb1 Rb1 4_565 25_656 108.24(3)
F1 Rb1 Rb1 25_656 25_656 38.47(2)
F1 Rb1 Rb1 28_546 25_656 71.76(3)
F1 Rb1 Rb1 3_655 25_656 71.76(3)
F1 Rb1 Rb1 26_456 25_656 141.53(2)
F1 Rb1 Rb1 2_665 25_656 141.53(2)
F1 Rb1 Rb1 . 25_656 38.47(2)
Rb1 Rb1 Rb1 25_556 25_656 90.0
Rb1 Rb1 Rb1 25_666 25_656 90.0
Rb1 Rb1 Rb1 25_566 25_656 180.0
Br1 F1 Rb1 . 25_656 126.98(3)
Br1 F1 Rb1 . . 126.98(3)
Rb1 F1 Rb1 25_656 . 103.05(5)
loop_
_geom_bond_atom_site_label_1
_geom_bond_atom_site_label_2
_geom_bond_site_symmetry_2
_geom_bond_distance
Br1 F1 . 1.8905(16)
Br1 F1 17_656 1.8906(16)
Br1 F1 18_556 1.8906(16)
Br1 F1 2_655 1.8906(16)
Rb1 F1 27_566 2.8447(10)
Rb1 F1 4_565 2.8447(10)
Rb1 F1 25_656 2.8447(10)
Rb1 F1 28_546 2.8447(10)
Rb1 F1 3_655 2.8447(10)
Rb1 F1 26_456 2.8447(9)
Rb1 F1 2_665 2.8447(9)
Rb1 F1 . 2.8447(9)
Rb1 Rb1 25_556 4.4541(4)
Rb1 Rb1 25_666 4.4541(4)
Rb1 Rb1 25_566 4.4541(4)
Rb1 Rb1 25_656 4.4541(4)

_cod_database_fobs_code 1556408
