#------------------------------------------------------------------------------
#$Date: 2019-12-23 12:00:30 +0200 (Mon, 23 Dec 2019) $
#$Revision: 245504 $
#$URL: file:///home/coder/svn-repositories/cod/cif/1/55/67/1556709.cif $
#------------------------------------------------------------------------------
#
# This file is available in the Crystallography Open Database (COD),
# http://www.crystallography.net/
#
# All data on this site have been placed in the public domain by the
# contributors.
#
data_1556709
loop_
_publ_author_name
'Gayfullina, R.'
'Jaaskelainen, S.'
'Koshevoy, I.O.'
'Hirva, P.'
_publ_section_title
;
 Activation of the Cyano Group at Imidazole via Copper Stimulated
 Alcoholysis
;
_journal_name_full               Inorganics
_journal_page_first              87
_journal_paper_doi               10.3390/inorganics7070087
_journal_volume                  7
_journal_year                    2019
_chemical_formula_moiety         'C8 H10 Br2 Cu N4 O'
_chemical_formula_sum            'C8 H10 Br2 Cu N4 O'
_chemical_formula_weight         401.56
_space_group_crystal_system      triclinic
_space_group_IT_number           2
_space_group_name_Hall           '-P 1'
_space_group_name_H-M_alt        'P -1'
_atom_sites_solution_hydrogens   mixed
_cell_angle_alpha                83.614(5)
_cell_angle_beta                 76.079(5)
_cell_angle_gamma                75.706(5)
_cell_formula_units_Z            2
_cell_length_a                   7.3737(9)
_cell_length_b                   8.4147(11)
_cell_length_c                   10.6554(14)
_cell_measurement_reflns_used    3348
_cell_measurement_temperature    150(2)
_cell_measurement_theta_max      24.10
_cell_measurement_theta_min      2.50
_cell_volume                     620.91(14)
_computing_cell_refinement       'SAINT (Bruker AXS, 2009)'
_computing_data_collection       'APEX2 (Bruker AXS, 2010)'
_computing_data_reduction        'SAINT (Bruker AXS, 2009)'
_computing_molecular_graphics    'Diamond v.4.03 (Brandenburg, 2014)'
_computing_publication_material  'SHELXL-2014 (Sheldrick, 2014)'
_computing_structure_refinement  'SHELXL-2018/3 (Sheldrick, 2018)'
_computing_structure_solution    'SHELXS-2014 (Sheldrick, 2014)'
_diffrn_ambient_temperature      150(2)
_diffrn_detector_area_resol_mean 16
_diffrn_measured_fraction_theta_full 1.000
_diffrn_measured_fraction_theta_max 1.000
_diffrn_measurement_device
'62mm x 62mm CCD camera on three-circle goniostat'
_diffrn_measurement_device_type  'Bruker SMART APEX II CCD'
_diffrn_measurement_method       '\f scans and \w scans'
_diffrn_radiation_monochromator  'flat graphite crystal'
_diffrn_radiation_type           MoK\a
_diffrn_radiation_wavelength     0.71073
_diffrn_reflns_av_R_equivalents  0.0767
_diffrn_reflns_av_unetI/netI     0.0564
_diffrn_reflns_Laue_measured_fraction_full 1.000
_diffrn_reflns_Laue_measured_fraction_max 1.000
_diffrn_reflns_limit_h_max       9
_diffrn_reflns_limit_h_min       -9
_diffrn_reflns_limit_k_max       10
_diffrn_reflns_limit_k_min       -10
_diffrn_reflns_limit_l_max       13
_diffrn_reflns_limit_l_min       -13
_diffrn_reflns_number            18426
_diffrn_reflns_point_group_measured_fraction_full 1.000
_diffrn_reflns_point_group_measured_fraction_max 1.000
_diffrn_reflns_theta_full        25.242
_diffrn_reflns_theta_max         26.998
_diffrn_reflns_theta_min         1.972
_exptl_absorpt_coefficient_mu    8.178
_exptl_absorpt_correction_T_max  0.602
_exptl_absorpt_correction_T_min  0.208
_exptl_absorpt_correction_type   numerical
_exptl_absorpt_process_details   'SADABS (Sheldrick, 2008)'
_exptl_crystal_colour            green
_exptl_crystal_density_diffrn    2.148
_exptl_crystal_description       block
_exptl_crystal_F_000             386
_exptl_crystal_size_max          0.280
_exptl_crystal_size_mid          0.094
_exptl_crystal_size_min          0.069
_refine_diff_density_max         0.870
_refine_diff_density_min         -0.543
_refine_diff_density_rms         0.135
_refine_ls_extinction_coef       .
_refine_ls_extinction_method     none
_refine_ls_goodness_of_fit_ref   1.024
_refine_ls_hydrogen_treatment    constr
_refine_ls_matrix_type           full
_refine_ls_number_parameters     145
_refine_ls_number_reflns         2728
_refine_ls_number_restraints     0
_refine_ls_restrained_S_all      1.024
_refine_ls_R_factor_all          0.0709
_refine_ls_R_factor_gt           0.0349
_refine_ls_shift/su_max          0.000
_refine_ls_shift/su_mean         0.000
_refine_ls_structure_factor_coef Fsqd
_refine_ls_weighting_details
'w=1/[\s^2^(Fo^2^)+(0.0285P)^2^+0.8354P] where P=(Fo^2^+2Fc^2^)/3'
_refine_ls_weighting_scheme      calc
_refine_ls_wR_factor_gt          0.0668
_refine_ls_wR_factor_ref         0.0771
_reflns_Friedel_coverage         0.000
_reflns_Friedel_fraction_full    .
_reflns_Friedel_fraction_max     .
_reflns_number_gt                1899
_reflns_number_total             2728
_reflns_threshold_expression     'I > 2\s(I)'
_cod_data_source_file            4.cif
_cod_data_source_block           4
_cod_database_code               1556709
_shelx_space_group_comment
;
The symmetry employed for this shelxl refinement is uniquely defined
by the following loop, which should always be used as a source of
symmetry information in preference to the above space-group names.
They are only intended as comments.
;
_shelx_estimated_absorpt_t_min   0.208
_shelx_estimated_absorpt_t_max   0.602
_shelx_res_file
;
TITL xna in P-1
    shelx.res
    created by SHELXL-2018/3 at 21:25:28 on 20-Oct-2018
CELL  0.71073   7.3737   8.4147  10.6554   83.614   76.079   75.706
ZERR     2.00   0.0009   0.0011   0.0014    0.005    0.005    0.005
LATT   1
SFAC  C    H    O    CU   N    BR
UNIT  16 20 2 2 8 4
MERG   2
OMIT    -2.00  54.00
FMAP   2
PLAN   20
SIZE     0.069   0.094   0.280
ACTA
BOND   $H
CONF
L.S.   4
TEMP  -123.15
WGHT    0.028500    0.835400
FVAR       0.12463
C1    1    0.263589    0.742296    0.080327    11.00000    0.02365    0.02289 =
         0.03470    0.00215   -0.00929   -0.00481
AFIX  43
H9    2    0.355023    0.689062    0.009758    11.00000   -1.20000
AFIX   0
C2    1    0.250067    0.488386    0.225372    11.00000    0.04010    0.02429 =
         0.04586    0.00481   -0.00942   -0.00816
AFIX  33
H12A  2    0.176442    0.464042    0.311997    11.00000   -1.50000
H12B  2    0.223986    0.425395    0.162358    11.00000   -1.50000
H12C  2    0.387386    0.458082    0.224847    11.00000   -1.50000
AFIX   0
C3    1    0.068910    0.781246    0.269127    11.00000    0.02898    0.02260 =
         0.02737    0.00337   -0.00633   -0.00826
C4    1   -0.032130    0.743261    0.395548    11.00000    0.03212    0.02643 =
         0.03427    0.00622   -0.00592   -0.00404
C5    1    0.067737    0.928610    0.199662    11.00000    0.01962    0.02024 =
         0.02904    0.00299   -0.01030   -0.00551
C6    1   -0.025656    1.098828    0.224887    11.00000    0.02085    0.02492 =
         0.03001   -0.00107   -0.01085   -0.00468
C7    1   -0.268753    1.277309    0.370901    11.00000    0.03551    0.02247 =
         0.03812   -0.00188   -0.01068    0.00034
AFIX  23
H4A   2   -0.338822    1.323773    0.301863    11.00000   -1.20000
H4B   2   -0.191242    1.353729    0.381276    11.00000   -1.20000
AFIX   0
C8    1   -0.405877    1.250586    0.495424    11.00000    0.03987    0.04039 =
         0.05002   -0.00867    0.00710   -0.00209
AFIX  33
H5A   2   -0.492556    1.355694    0.521992    11.00000   -1.50000
H5B   2   -0.480873    1.174376    0.483479    11.00000   -1.50000
H5C   2   -0.334113    1.204166    0.562451    11.00000   -1.50000
AFIX   0
O1    3   -0.147346    1.117185    0.339205    11.00000    0.02542    0.02949 =
         0.02763   -0.00178   -0.00297   -0.00397
CU1   4    0.241493    1.108239   -0.013160    11.00000    0.02512    0.01784 =
         0.02866    0.00250   -0.00430   -0.00722
N1    5    0.190367    0.900868    0.081493    11.00000    0.02352    0.01732 =
         0.03051   -0.00179   -0.00648   -0.00669
N2    5    0.022200    1.202718    0.134352    11.00000    0.02523    0.02171 =
         0.03010    0.00172   -0.00505   -0.00770
AFIX   3
H1N2  2   -0.038598    1.311362    0.150393    11.00000   -1.20000
AFIX   0
N3    5    0.193503    0.665293    0.190656    11.00000    0.02386    0.01954 =
         0.03392    0.00430   -0.00885   -0.00613
N4    5   -0.108931    0.709461    0.498300    11.00000    0.05148    0.05263 =
         0.04648    0.01596   -0.00484   -0.00969
BR2   6    0.257551    1.371792   -0.118173    11.00000    0.03264    0.02030 =
         0.03749    0.00765   -0.00648   -0.00555
BR1   6    0.479930    0.954062   -0.177406    11.00000    0.02915    0.02711 =
         0.02866   -0.00321   -0.00373   -0.00881
HKLF    4  1.0  1.00  0.00  0.00  0.00  1.00  0.00  0.00  0.00  1.00




REM  xna in P-1
REM wR2 = 0.0771, GooF = S = 1.024, Restrained GooF = 1.024 for all data
REM R1 = 0.0349 for 1899 Fo > 4sig(Fo) and 0.0709 for all 2728 data
REM 145 parameters refined using 0 restraints

END

WGHT      0.0285      0.8353

REM Highest difference peak  0.870,  deepest hole -0.543,  1-sigma level  0.135
Q1    1   0.5619  1.0053 -0.1764  11.00000  0.05    0.87
Q2    1   0.3886  0.8863 -0.1685  11.00000  0.05    0.76
Q3    1   0.3566  1.4284 -0.1156  11.00000  0.05    0.68
Q4    1   0.1679  1.3157 -0.1179  11.00000  0.05    0.65
Q5    1   0.2467  1.2747 -0.0725  11.00000  0.05    0.58
Q6    1   0.4002  1.1563 -0.2344  11.00000  0.05    0.54
Q7    1   0.5351  0.9237 -0.2332  11.00000  0.05    0.53
Q8    1   0.3467  1.1745 -0.0191  11.00000  0.05    0.52
Q9    1  -0.1222  0.9064  0.5172  11.00000  0.05    0.49
Q10   1   0.1430  0.4618  0.2625  11.00000  0.05    0.49
Q11   1   0.4181  1.0404 -0.1940  11.00000  0.05    0.47
Q12   1   0.3075  1.0244  0.0236  11.00000  0.05    0.47
Q13   1   0.3755  0.4820  0.3018  11.00000  0.05    0.47
Q14   1   0.4461  1.3177 -0.1659  11.00000  0.05    0.47
Q15   1   0.2937  0.4476  0.1390  11.00000  0.05    0.45
Q16   1   0.1120  1.1821  0.0770  11.00000  0.05    0.45
Q17   1   0.1117  1.1237  0.1062  11.00000  0.05    0.44
Q18   1   0.2214  0.9798  0.0039  11.00000  0.05    0.43
Q19   1  -0.5819  1.4571  0.6249  11.00000  0.05    0.42
Q20   1   0.3201  0.4164  0.3009  11.00000  0.05    0.42
;
_shelx_res_checksum              10298
_shelx_hkl_file
;
  -1   0   0    0.58    0.41
  -1   0   0    0.09    0.33
  -1   0   0    0.38    0.31
  -1   0   0    0.53    0.22
  -1   0   0    0.55    0.25
   1   0   0    0.94    0.37
   1   0   0    0.56    0.21
   1   0   0    0.51    0.26
   1   0   0    0.80    0.29
   1   0   0    0.26    0.31
   1   0   0    0.52    0.29
  -2   0   0   45.89    1.54
  -2   0   0   44.18    1.75
  -2   0   0   47.25    1.30
  -2   0   0   43.59    1.82
  -2   0   0   46.72    1.75
  -2   0   0   49.19    1.30
  -2   0   0   45.71    1.97
   2   0   0   44.24    1.50
   2   0   0   42.14    1.87
   2   0   0   42.40    1.29
   2   0   0   44.40    1.78
   2   0   0   45.55    1.69
   2   0   0   44.53    1.85
   2   0   0   46.11    1.64
   2   0   0   43.63    1.29
  -3   0   0   31.31    0.90
  -3   0   0   28.59    1.75
  -3   0   0   32.17    1.34
  -3   0   0   31.32    1.53
  -3   0   0   28.84    0.90
  -3   0   0   30.94    1.86
   3   0   0   30.35    0.90
   3   0   0   31.94    1.50
   3   0   0   28.80    0.90
   3   0   0   32.51    1.60
   3   0   0   31.58    1.27
  -4   0   0  195.54    6.90
  -4   0   0  219.56    7.22
  -4   0   0  212.58    6.23
  -4   0   0  216.67    6.70
   4   0   0  204.87    6.74
   4   0   0  213.02    6.46
  -5   0   0    5.59    1.57
  -5   0   0    7.22    1.41
  -5   0   0    4.22    0.89
   5   0   0    3.71    1.06
   5   0   0    4.18    1.07
   5   0   0    5.58    1.44
  -6   0   0   12.04    2.29
  -6   0   0    9.81    1.25
  -6   0   0    8.20    1.75
   6   0   0    8.50    1.77
   6   0   0    9.66    2.12
   6   0   0   13.95    1.72
  -7   0   0    2.93    2.01
  -7   0   0   -1.02    1.71
   7   0   0    4.10    1.59
   7   0   0    1.25    1.28
   7   0   0    4.09    1.68
  -8   0   0    7.84    2.32
  -8   0   0    9.84    2.39
   8   0   0   16.19    2.68
   8   0   0   18.04    2.37
   8   0   0   23.30    3.45
  -9   0   0   -1.57    2.26
  -9   0   0    3.11    2.77
   9   0   0   -0.04    1.82
   9   0   0    0.48    2.67
   9   0   0    3.57    2.43
   9  -1   0    1.36    2.49
   9  -1   0    1.88    2.78
   9  -1   0    3.20    2.30
  -9   1   0    3.03    2.73
  -9   1   0    2.65    2.57
   8  -1   0    0.72    1.78
   8  -1   0    0.36    2.22
   8  -1   0    1.09    2.09
  -8   1   0    0.52    2.20
  -8   1   0    1.69    2.31
   7  -1   0   39.69    2.93
   7  -1   0   36.03    3.17
   7  -1   0   37.25    3.41
  -7   1   0   35.53    3.49
   6  -1   0   10.55    2.10
   6  -1   0    7.75    1.67
   6  -1   0    7.59    1.60
  -6   1   0    9.54    1.38
  -6   1   0    8.73    2.15
  -6   1   0    8.01    1.87
   5  -1   0    5.52    1.47
   5  -1   0    6.08    1.28
   5  -1   0    5.91    1.25
  -5   1   0    4.36    1.18
  -5   1   0    4.39    1.00
  -5   1   0    7.62    1.80
   4  -1   0   25.06    0.95
   4  -1   0   25.84    1.86
   4  -1   0   27.99    1.91
   4  -1   0   25.39    0.98
   4  -1   0   29.25    1.75
  -4   1   0   25.50    1.01
  -4   1   0   27.68    1.12
  -4   1   0   25.95    1.86
  -4   1   0   28.70    1.49
  -4   1   0   24.16    2.05
   3  -1   0  161.68    4.91
   3  -1   0  159.25    4.69
   3  -1   0  164.09    4.67
   3  -1   0  164.06    5.22
   3  -1   0  164.58    5.39
  -3   1   0  174.18    5.03
  -3   1   0  166.08    4.70
  -3   1   0  168.82    5.36
  -3   1   0  174.32    5.50
  -3   1   0  159.99    4.71
  -3   1   0  166.38    5.62
   2  -1   0   86.17    2.60
   2  -1   0   89.29    3.14
   2  -1   0   87.95    2.58
   2  -1   0   85.66    3.01
   2  -1   0   89.16    2.75
   2  -1   0   86.59    2.93
  -2   1   0   91.76    2.78
  -2   1   0   88.78    3.01
  -2   1   0   90.64    3.17
  -2   1   0   88.04    2.60
  -2   1   0   92.89    3.03
  -2   1   0   83.19    2.91
  -2   1   0   87.59    2.62
   1  -1   0   -0.24    0.30
   1  -1   0    0.08    0.27
   1  -1   0   -0.25    0.44
   1  -1   0   -0.18    0.52
   1  -1   0   -0.23    0.26
   1  -1   0    0.12    0.32
   1  -1   0    0.18    0.35
  -1   1   0    0.29    0.42
  -1   1   0   -0.06    0.34
  -1   1   0    0.09    0.36
  -1   1   0   -0.05    0.45
  -1   1   0   -0.09    0.23
  -1   1   0    0.26    0.35
  -1   1   0    0.78    0.47
   0  -1   0   91.91    2.79
   0  -1   0   95.67    2.76
   0  -1   0   95.32    2.78
   0  -1   0   95.19    2.86
   0  -1   0   97.56    2.81
   0  -1   0   97.33    2.82
   0   1   0   95.95    2.81
   0   1   0  100.35    2.82
   0   1   0   93.16    2.81
   0   1   0   97.51    2.81
   0   1   0   97.85    2.87
   0   1   0   96.19    2.79
   0   1   0   98.97    2.84
  -1  -1   0   55.32    1.77
  -1  -1   0   56.97    1.70
  -1  -1   0   60.97    1.76
  -1  -1   0   54.37    1.78
  -1  -1   0   57.71    1.90
  -1  -1   0   56.02    1.81
  -1  -1   0   55.69    1.73
  -1  -1   0   58.48    1.97
   1   1   0   57.23    1.72
   1   1   0   55.30    1.69
   1   1   0   56.57    1.79
   1   1   0   60.03    1.96
   1   1   0   56.58    1.90
   1   1   0   58.02    1.77
   1   1   0   55.60    1.73
   1   1   0   58.13    1.81
  -2  -1   0   92.73    2.54
  -2  -1   0   86.53    3.04
  -2  -1   0   86.76    2.68
  -2  -1   0   91.28    2.84
  -2  -1   0   83.43    2.81
  -2  -1   0   91.35    3.05
   2   1   0   89.95    2.68
   2   1   0   83.11    2.50
   2   1   0   88.92    3.01
   2   1   0   91.45    2.54
   2   1   0   88.78    2.71
   2   1   0   85.37    2.51
   2   1   0   85.88    2.82
   2   1   0   87.84    2.78
   2   1   0   83.21    2.99
  -3  -1   0    0.52    0.63
  -3  -1   0   -0.13    0.73
  -3  -1   0   -0.85    0.86
  -3  -1   0   -0.39    0.47
   3   1   0   -0.15    0.51
   3   1   0    0.17    0.25
   3   1   0    0.65    0.54
   3   1   0    0.13    0.23
   3   1   0    0.17    0.24
   3   1   0   -0.06    0.23
   3   1   0   -0.16    0.44
  -4  -1   0    2.74    1.04
  -4  -1   0    2.37    1.13
  -4  -1   0    3.41    0.72
  -4  -1   0    3.95    1.35
   4   1   0    3.23    0.27
   4   1   0    3.03    0.85
   4   1   0    2.99    0.26
   4   1   0    3.65    0.26
   4   1   0    3.18    0.26
   4   1   0    2.30    0.93
  -5  -1   0   32.09    2.52
  -5  -1   0   35.40    1.61
  -5  -1   0   25.10    2.07
  -5  -1   0   29.69    2.08
   5   1   0   31.86    2.11
   5   1   0   30.61    2.36
   5   1   0   34.14    1.84
  -6  -1   0    7.25    1.65
  -6  -1   0    6.02    1.69
  -6  -1   0    5.51    1.05
   6   1   0    6.73    1.28
   6   1   0    5.96    1.75
   6   1   0    6.90    1.60
  -7  -1   0   -0.82    1.81
  -7  -1   0   -0.82    1.59
   7   1   0   -1.49    1.43
   7   1   0    1.30    1.47
   7   1   0   -0.60    1.73
  -8  -1   0   -1.41    1.84
  -8  -1   0    1.73    2.35
   8   1   0    0.16    1.53
   8   1   0   -1.67    1.78
   8   1   0   -1.11    1.58
  -9  -1   0    2.96    2.39
  -9  -1   0    4.21    2.23
   9   1   0    4.05    2.44
   9   1   0    3.42    2.18
   9   1   0    4.38    2.97
   9  -2   0    2.38    2.37
   9  -2   0   -3.49    2.14
   9  -2   0   -0.98    2.69
  -9   2   0    0.23    2.74
  -9   2   0   -0.02    2.66
   8  -2   0   -3.47    2.44
   8  -2   0   -1.41    1.67
   8  -2   0   -1.69    2.16
  -8   2   0   -2.11    2.18
  -8   2   0    0.62    2.30
   7  -2   0    6.91    2.22
   7  -2   0    6.82    2.25
   7  -2   0    7.30    2.12
  -7   2   0    3.72    2.11
  -7   2   0    3.48    2.09
   6  -2   0   18.63    2.25
   6  -2   0   17.45    2.18
   6  -2   0   18.49    2.55
  -6   2   0   12.60    1.63
  -6   2   0   10.71    2.20
  -6   2   0   16.49    2.34
   5  -2   0   12.41    1.92
   5  -2   0   11.92    0.82
   5  -2   0   17.08    2.11
   5  -2   0   13.94    0.91
   5  -2   0   13.19    1.80
  -5   2   0    9.15    1.83
  -5   2   0   13.94    2.19
  -5   2   0   13.69    1.49
   4  -2   0    7.36    0.71
   4  -2   0    6.58    1.29
   4  -2   0    6.46    0.64
   4  -2   0    8.19    1.30
   4  -2   0    9.04    1.36
  -4   2   0    6.86    1.40
  -4   2   0    8.09    1.56
  -4   2   0    5.76    0.99
  -4   2   0    6.44    0.68
   3  -2   0   54.90    2.53
   3  -2   0   51.86    1.86
   3  -2   0   52.57    2.29
   3  -2   0   51.41    2.28
   3  -2   0   52.15    1.82
  -3   2   0   51.82    1.85
  -3   2   0   50.90    2.46
  -3   2   0   47.22    2.42
  -3   2   0   52.54    2.13
   2  -2   0    5.01    0.74
   2  -2   0    5.89    0.75
   2  -2   0    6.89    1.06
   2  -2   0    4.79    0.65
   2  -2   0    5.24    0.60
   2  -2   0    5.85    1.03
  -2   2   0    5.75    0.64
  -2   2   0    6.27    0.65
  -2   2   0    5.37    0.77
  -2   2   0    6.18    1.05
  -2   2   0    5.14    1.00
   1  -2   0  121.29    3.95
   1  -2   0  121.94    3.88
   1  -2   0  120.69    3.83
   1  -2   0  118.10    3.58
   1  -2   0  118.62    3.48
   1  -2   0  121.97    3.64
   1  -2   0  119.04    3.68
  -1   2   0  116.41    3.83
  -1   2   0  109.11    3.76
  -1   2   0  125.11    3.77
  -1   2   0  121.78    3.83
  -1   2   0  122.28    3.71
  -1   2   0  119.30    3.59
  -1   2   0  126.00    3.90
   0  -2   0    2.35    0.55
   0  -2   0    3.21    0.67
   0  -2   0    2.29    0.44
   0  -2   0    2.96    0.51
   0  -2   0    2.97    0.60
   0  -2   0    2.84    0.48
   0   2   0    3.67    0.63
   0   2   0    2.80    0.53
   0   2   0    2.24    0.50
   0   2   0    3.10    0.65
   0   2   0    3.09    0.59
   0   2   0    3.24    0.52
   0   2   0    2.29    0.58
   0   2   0    2.83    0.50
  -1  -2   0   15.41    0.91
  -1  -2   0   14.53    0.85
  -1  -2   0   16.44    0.88
  -1  -2   0   16.34    0.85
  -1  -2   0   15.62    0.82
  -1  -2   0   16.39    0.93
  -1  -2   0   15.35    0.80
   1   2   0   15.61    0.88
   1   2   0   15.82    0.82
   1   2   0   16.35    0.96
   1   2   0   15.77    0.78
   1   2   0   16.10    0.82
   1   2   0   15.72    0.82
   1   2   0   15.98    0.89
   1   2   0   16.32    1.00
   1   2   0   15.50    0.83
  -2  -2   0   16.52    0.79
  -2  -2   0   18.80    0.98
  -2  -2   0   16.55    0.84
  -2  -2   0   17.16    1.18
  -2  -2   0   16.09    0.93
  -2  -2   0   16.85    1.23
  -2  -2   0   17.62    0.89
  -2  -2   0   15.74    1.01
   2   2   0   17.34    0.93
   2   2   0   18.05    1.10
   2   2   0   15.96    0.80
   2   2   0   17.37    0.79
   2   2   0   16.78    0.91
   2   2   0   16.15    0.84
   2   2   0   18.35    1.13
   2   2   0   16.80    0.98
  -3  -2   0   16.18    0.86
  -3  -2   0   15.47    1.28
  -3  -2   0   14.42    1.01
  -3  -2   0   15.07    1.58
  -3  -2   0   14.89    1.51
   3   2   0   16.04    1.22
   3   2   0   17.36    0.83
   3   2   0   15.61    0.99
   3   2   0   16.51    0.82
   3   2   0   14.69    0.82
   3   2   0   16.06    1.14
   3   2   0   14.00    1.05
  -4  -2   0   23.28    1.95
  -4  -2   0   21.78    1.77
  -4  -2   0   21.81    1.29
  -4  -2   0   20.18    1.57
   4   2   0   23.37    1.31
   4   2   0   21.71    0.98
   4   2   0   22.15    1.44
   4   2   0   21.08    0.93
   4   2   0   21.34    0.95
  -5  -2   0    1.51    1.40
  -5  -2   0    0.48    0.72
  -5  -2   0    1.36    1.08
  -5  -2   0    1.36    0.95
   5   2   0    0.99    0.35
   5   2   0    1.62    0.39
   5   2   0    1.25    0.82
   5   2   0   -0.10    1.04
   5   2   0    1.11    0.79
   5   2   0    1.26    0.35
  -6  -2   0    0.46    1.25
  -6  -2   0    1.08    1.37
  -6  -2   0    0.85    0.87
   6   2   0    0.54    1.25
   6   2   0    1.05    1.41
   6   2   0    0.47    0.98
  -7  -2   0   -1.69    1.51
  -7  -2   0   -0.99    0.99
  -7  -2   0   -0.16    1.89
   7   2   0    1.44    1.76
   7   2   0   -0.33    1.55
   7   2   0    1.43    1.35
  -8  -2   0    4.13    2.42
  -8  -2   0    0.45    1.88
   8   2   0    3.58    1.44
   8   2   0    3.05    1.98
   8   2   0    4.37    2.38
  -9  -2   0   -1.11    2.11
  -9  -2   0   -0.62    2.45
   9   2   0   -1.43    2.63
   9   2   0    2.35    2.33
 -10  -2   0    0.01    2.48
 -10  -2   0    1.42    2.20
  10   2   0    3.72    3.17
  10   2   0    3.43    2.72
   8  -3   0    2.66    2.34
   8  -3   0   -0.24    2.58
   8  -3   0    0.89    2.42
  -8   3   0    2.02    2.52
  -8   3   0    0.48    2.28
   7  -3   0   25.19    2.97
   7  -3   0   30.08    3.28
   7  -3   0   23.56    3.23
  -7   3   0   23.13    3.10
  -7   3   0   19.77    3.07
   6  -3   0   -0.33    1.44
   6  -3   0   -2.41    1.72
   6  -3   0    1.37    1.78
  -6   3   0    2.40    1.84
  -6   3   0    1.09    1.86
  -6   3   0    0.55    1.28
   5  -3   0    0.98    1.70
   5  -3   0   -0.60    0.66
   5  -3   0   -0.03    0.58
   5  -3   0   -1.48    1.11
   5  -3   0   -0.38    1.36
  -5   3   0    0.06    0.65
  -5   3   0    1.18    1.21
  -5   3   0    0.20    1.42
  -5   3   0    0.43    1.03
   4  -3   0   21.94    2.20
   4  -3   0   20.14    1.18
   4  -3   0   22.66    2.05
   4  -3   0   21.01    1.75
   4  -3   0   18.38    1.26
  -4   3   0   19.71    1.25
  -4   3   0   20.74    2.08
  -4   3   0   21.90    1.54
  -4   3   0   18.70    2.05
   3  -3   0  141.16    4.37
   3  -3   0  148.78    5.15
   3  -3   0  137.97    4.43
   3  -3   0  134.84    4.89
   3  -3   0  145.80    4.73
  -3   3   0  141.72    5.03
  -3   3   0  139.71    4.67
  -3   3   0  147.17    5.20
  -3   3   0  143.24    4.42
   2  -3   0    3.55    0.91
   2  -3   0    2.89    0.66
   2  -3   0    3.42    0.66
   2  -3   0    4.09    0.76
   2  -3   0    5.68    1.22
  -2   3   0    3.99    0.84
  -2   3   0    3.66    1.07
  -2   3   0    5.21    1.17
   1  -3   0    8.30    0.50
   1  -3   0   11.00    0.90
   1  -3   0   10.94    1.00
   1  -3   0   10.11    1.30
   1  -3   0    8.21    0.48
   1  -3   0   10.64    1.22
  -1   3   0   11.21    1.21
  -1   3   0   10.82    1.11
  -1   3   0    9.95    1.20
  -1   3   0    8.37    0.84
   0  -3   0   36.46    1.63
   0  -3   0   35.32    1.82
   0  -3   0   38.13    1.48
   0  -3   0   35.54    1.52
   0  -3   0   36.92    1.65
   0   3   0   35.55    1.57
   0   3   0   38.48    1.55
   0   3   0   38.41    1.78
   0   3   0   38.65    1.59
   0   3   0   35.80    1.59
  -1  -3   0  210.27    6.21
  -1  -3   0  207.02    6.10
  -1  -3   0  214.23    6.16
  -1  -3   0  204.78    6.29
  -1  -3   0  212.57    6.24
   1   3   0  228.02    6.61
   1   3   0  212.14    6.09
   1   3   0  210.22    6.15
   1   3   0  205.27    6.38
   1   3   0  212.63    6.46
   1   3   0  209.55    6.11
   1   3   0  209.86    6.25
   1   3   0  210.26    6.08
  -2  -3   0   11.69    0.94
  -2  -3   0   11.82    1.05
  -2  -3   0   12.69    1.15
  -2  -3   0   12.41    0.95
  -2  -3   0   12.25    0.98
  -2  -3   0   12.02    1.27
  -2  -3   0   13.59    0.94
  -2  -3   0   13.82    0.93
   2   3   0   16.64    1.29
   2   3   0   14.84    0.91
   2   3   0   12.94    0.99
   2   3   0   11.26    0.88
  -3  -3   0   64.14    2.95
  -3  -3   0   67.78    2.34
  -3  -3   0   68.83    2.53
  -3  -3   0   61.92    2.60
  -3  -3   0   70.20    2.42
  -3  -3   0   70.61    2.96
   3   3   0   63.42    2.66
   3   3   0   70.03    2.34
  -4  -3   0    5.22    1.40
  -4  -3   0    6.64    1.19
  -4  -3   0    5.13    0.71
  -4  -3   0    5.29    1.31
  -4  -3   0    5.86    0.91
   4   3   0    6.39    0.70
   4   3   0    4.44    0.99
   4   3   0    4.73    0.64
   4   3   0    4.77    0.87
  -5  -3   0   54.61    3.29
  -5  -3   0   59.62    2.48
  -5  -3   0   55.38    2.78
   5   3   0   57.52    2.02
   5   3   0   56.17    2.09
   5   3   0   58.69    2.43
   5   3   0   57.43    2.02
   5   3   0   56.34    2.78
   5   3   0   59.34    3.23
  -6  -3   0    0.29    1.36
  -6  -3   0    1.82    1.40
  -6  -3   0    0.72    0.99
   6   3   0   -0.98    1.04
   6   3   0    0.44    0.43
   6   3   0    0.78    1.26
   6   3   0    0.52    1.10
   6   3   0    0.56    0.47
   6   3   0    0.42    0.52
  -7  -3   0   33.82    3.04
  -7  -3   0   35.89    2.11
  -7  -3   0   32.86    2.84
   7   3   0   38.09    3.35
   7   3   0   38.65    2.50
   7   3   0   33.76    2.84
  -8  -3   0    1.01    2.26
  -8  -3   0   -1.07    1.75
   8   3   0    0.34    1.45
   8   3   0    1.72    1.50
   8   3   0   -1.99    1.82
  -9  -3   0   -4.30    1.88
  -9  -3   0    1.88    2.60
   9   3   0    0.69    2.58
   9   3   0    0.41    2.20
 -10  -3   0   -1.53    2.69
 -10  -3   0   -2.60    2.17
  10   3   0   -2.64    2.87
  10   3   0    2.23    2.56
   8  -4   0    1.83    3.01
   8  -4   0    4.12    2.62
  -8   4   0    2.50    2.77
  -8   4   0    0.21    2.51
   7  -4   0    4.13    2.36
   7  -4   0    3.72    2.77
  -7   4   0    4.09    2.45
  -7   4   0    6.24    2.43
   6  -4   0   17.33    2.91
   6  -4   0   19.23    2.33
   6  -4   0   19.18    2.60
  -6   4   0   13.94    2.55
  -6   4   0   12.44    1.89
  -6   4   0   18.14    2.74
   5  -4   0    3.84    0.81
   5  -4   0    1.42    1.33
   5  -4   0    2.76    2.03
   5  -4   0    3.84    1.00
   5  -4   0    3.91    1.40
  -5   4   0    6.65    1.50
  -5   4   0    4.35    1.78
  -5   4   0    4.29    1.82
   4  -4   0    6.83    1.12
   4  -4   0    6.31    1.83
   4  -4   0    6.11    1.29
   4  -4   0    7.59    1.71
   4  -4   0    7.29    0.99
  -4   4   0    4.02    1.57
  -4   4   0    9.00    1.75
  -4   4   0    6.29    1.21
  -4   4   0    6.59    1.03
   3  -4   0    5.53    0.96
   3  -4   0    6.68    0.88
   3  -4   0    7.43    1.49
   3  -4   0    5.98    1.55
   3  -4   0    5.66    0.95
  -3   4   0    6.49    0.90
  -3   4   0    5.13    1.05
  -3   4   0    3.76    1.36
  -3   4   0    5.99    1.33
   2  -4   0  123.58    4.11
   2  -4   0  121.79    4.43
   2  -4   0  123.93    4.67
   2  -4   0  121.60    3.76
   2  -4   0  123.67    4.00
  -2   4   0  126.87    4.54
  -2   4   0  120.57    4.25
  -2   4   0  118.75    4.00
  -2   4   0  118.57    4.45
   1  -4   0    8.42    0.99
   1  -4   0    9.53    0.92
   1  -4   0    7.96    1.45
   1  -4   0    9.01    1.37
  -1   4   0   11.14    1.28
  -1   4   0    8.42    0.96
  -1   4   0    9.47    1.33
  -1   4   0    9.34    1.26
   0  -4   0   40.07    2.19
   0  -4   0   41.17    2.02
   0  -4   0   47.98    1.98
   0   4   0   42.56    2.13
   0   4   0   48.08    2.35
   0   4   0   49.78    1.98
   0   4   0   43.05    2.12
  -1  -4   0    8.29    1.16
  -1  -4   0    3.31    0.82
  -1  -4   0    6.14    0.91
  -1  -4   0    6.47    0.96
  -1  -4   0    6.33    1.02
   1   4   0    6.12    0.68
   1   4   0    8.15    1.29
   1   4   0    6.30    0.66
   1   4   0    7.23    1.01
   1   4   0    6.24    0.89
  -2  -4   0  138.20    4.43
  -2  -4   0  135.41    4.51
  -2  -4   0  135.68    4.43
  -2  -4   0  133.14    4.30
  -2  -4   0  135.71    4.36
   2   4   0  142.54    4.37
   2   4   0  139.68    4.82
   2   4   0  139.00    4.55
   2   4   0  137.33    4.48
  -3  -4   0   16.66    1.45
  -3  -4   0   14.90    1.76
  -3  -4   0   16.80    1.51
  -3  -4   0   13.66    1.21
  -3  -4   0   13.16    1.15
  -3  -4   0   13.90    1.09
  -3  -4   0   12.97    1.12
   3   4   0   12.28    1.41
   3   4   0   14.03    1.10
  -4  -4   0   53.26    2.42
  -4  -4   0   50.51    2.26
  -4  -4   0   47.37    2.02
  -4  -4   0   44.15    2.58
   4   4   0   47.53    2.10
   4   4   0   48.73    2.00
   4   4   0   51.28    2.29
   4   4   0   49.19    2.66
   4   4   0   44.49    1.90
  -5  -4   0    1.10    1.02
  -5  -4   0   -0.91    1.08
  -5  -4   0    1.16    1.14
   5   4   0    0.92    1.17
   5   4   0    1.08    0.61
   5   4   0    0.51    0.95
   5   4   0    1.07    0.61
   5   4   0    0.51    1.02
  -6  -4   0   12.40    1.88
  -6  -4   0   11.51    1.54
  -6  -4   0   11.51    2.08
   6   4   0    9.69    0.92
   6   4   0   11.97    1.11
   6   4   0    9.85    2.04
   6   4   0    9.11    1.44
   6   4   0    8.80    1.72
   6   4   0    8.51    0.88
  -7  -4   0    9.13    1.49
  -7  -4   0    6.69    1.86
  -7  -4   0    8.70    2.49
   7   4   0    7.51    1.56
   7   4   0    9.65    2.01
   7   4   0    8.40    2.22
  -8  -4   0   10.43    2.47
  -8  -4   0    7.75    2.13
   8   4   0   10.80    1.78
   8   4   0   12.71    2.46
   8   4   0   11.36    2.37
  -9  -4   0    1.48    2.38
  -9  -4   0   -0.42    2.49
   9   4   0    1.22    2.16
   9   4   0   -0.07    2.42
   7  -5   0   -3.52    2.68
   7  -5   0    0.85    2.38
  -7   5   0    0.48    2.41
  -7   5   0    1.96    2.06
   6  -5   0    2.28    2.58
   6  -5   0    5.64    2.38
  -6   5   0    2.33    2.16
  -6   5   0    2.77    1.94
   5  -5   0   27.79    2.02
   5  -5   0   36.49    2.16
   5  -5   0   29.69    3.07
   5  -5   0   27.28    3.37
  -5   5   0   33.94    3.14
  -5   5   0   25.36    2.97
  -5   5   0   33.61    2.55
   4  -5   0    0.67    0.85
   4  -5   0    0.93    1.06
   4  -5   0   -2.63    1.01
   4  -5   0   -0.65    1.10
   4  -5   0    2.79    1.99
  -4   5   0    1.68    1.22
  -4   5   0    1.09    1.35
  -4   5   0   -0.08    1.56
   3  -5   0   14.40    2.18
   3  -5   0   14.89    1.42
   3  -5   0   12.22    1.69
   3  -5   0   11.70    1.20
   3  -5   0   16.02    1.59
  -3   5   0   12.04    1.76
  -3   5   0   16.02    1.76
  -3   5   0    9.44    1.82
   2  -5   0   22.83    2.15
   2  -5   0   22.99    2.34
   2  -5   0   22.05    1.63
   2  -5   0   20.47    1.66
  -2   5   0   26.34    2.03
  -2   5   0   25.53    1.57
  -2   5   0   25.89    2.32
  -2   5   0   23.82    1.84
   1  -5   0   45.63    2.13
   1  -5   0   45.63    2.54
   1  -5   0   47.75    2.87
   1  -5   0   45.26    2.25
  -1   5   0   47.46    2.10
  -1   5   0   44.21    2.42
  -1   5   0   44.69    2.22
  -1   5   0   45.93    2.40
   0  -5   0   14.22    1.41
   0  -5   0   15.51    1.53
   0  -5   0   16.20    1.39
   0  -5   0   15.73    1.67
   0   5   0   14.60    1.23
   0   5   0   15.27    1.59
   0   5   0   14.06    1.61
   0   5   0   13.70    1.67
  -1  -5   0   15.09    1.44
  -1  -5   0   12.50    1.13
  -1  -5   0   11.86    1.22
  -1  -5   0   13.42    1.36
  -1  -5   0   15.34    1.56
   1   5   0   14.51    1.47
   1   5   0   14.66    1.45
   1   5   0   12.63    0.87
   1   5   0   13.23    1.58
   1   5   0   14.06    1.25
   1   5   0   12.48    0.80
  -2  -5   0    1.40    0.82
  -2  -5   0    1.62    0.84
  -2  -5   0    2.05    0.94
  -2  -5   0    1.95    0.78
  -2  -5   0    1.68    0.70
   2   5   0    2.09    0.91
   2   5   0    1.57    0.70
   2   5   0    1.83    0.99
   2   5   0    0.70    0.62
  -3  -5   0    0.98    0.70
  -3  -5   0    1.44    0.95
  -3  -5   0    1.07    0.89
  -3  -5   0    1.28    0.78
  -3  -5   0    1.86    0.83
  -3  -5   0    0.54    0.90
   3   5   0    0.36    0.63
   3   5   0    0.63    1.00
   3   5   0    1.45    0.86
  -4  -5   0    1.12    0.90
  -4  -5   0    1.25    0.81
  -4  -5   0    2.62    1.42
  -4  -5   0    1.07    1.02
  -4  -5   0    1.33    1.08
   4   5   0    1.04    0.97
   4   5   0    0.84    0.69
   4   5   0    2.06    0.87
   4   5   0    0.66    0.96
  -5  -5   0   17.79    1.48
  -5  -5   0   20.60    2.60
  -5  -5   0   20.82    1.90
  -5  -5   0   20.69    2.08
   5   5   0   18.58    1.38
   5   5   0   21.05    1.84
   5   5   0   18.42    1.42
   5   5   0   21.11    1.79
   5   5   0   20.65    2.29
  -6  -5   0    2.12    1.57
  -6  -5   0    3.26    2.07
  -6  -5   0    3.29    1.44
   6   5   0    2.99    1.72
   6   5   0    3.40    0.82
   6   5   0    1.84    1.40
   6   5   0    3.78    1.12
   6   5   0    2.52    1.22
  -7  -5   0   -1.11    2.03
  -7  -5   0   -0.25    1.56
  -7  -5   0    0.06    1.31
   7   5   0   -2.48    1.12
   7   5   0   -1.53    1.56
   7   5   0    1.44    1.59
  -8  -5   0    2.28    2.53
  -8  -5   0    1.82    1.91
   8   5   0    5.36    2.17
   8   5   0    3.26    2.14
  -9  -5   0    3.59    2.88
  -9  -5   0    0.39    2.01
   9   5   0    1.32    2.38
   9   5   0    3.81    2.34
   7  -6   0    2.47    2.77
   7  -6   0    7.10    3.55
  -7   6   0    0.88    2.54
  -7   6   0    1.61    2.61
   6  -6   0    2.59    2.37
   6  -6   0    1.98    3.01
  -6   6   0    1.68    2.19
  -6   6   0   -3.19    2.03
   5  -6   0    5.41    2.75
   5  -6   0    0.46    1.57
  -5   6   0    2.14    1.69
  -5   6   0   -0.66    1.85
  -5   6   0    1.13    1.46
   4  -6   0   -0.23    1.11
   4  -6   0   -0.58    2.09
   4  -6   0   -0.96    1.69
   4  -6   0   -1.22    0.78
  -4   6   0   -1.11    1.72
  -4   6   0    0.98    1.61
  -4   6   0   -0.42    1.12
   3  -6   0   17.10    2.71
   3  -6   0    4.23    1.73
   3  -6   0    6.41    1.43
   3  -6   0    6.81    1.21
  -3   6   0    7.00    1.64
  -3   6   0    4.90    1.84
  -3   6   0    6.03    1.49
   2  -6   0    2.78    1.98
   2  -6   0   -0.63    1.02
   2  -6   0    1.09    1.16
   2  -6   0    0.09    0.89
  -2   6   0    2.13    1.29
  -2   6   0   -0.24    1.07
  -2   6   0    2.20    1.49
   1  -6   0    1.31    0.91
   1  -6   0    2.00    0.87
   1  -6   0    0.08    1.21
   1  -6   0   -0.26    1.37
  -1   6   0    0.55    1.18
  -1   6   0    0.91    0.94
  -1   6   0    1.29    1.09
   0  -6   0   18.76    1.68
   0  -6   0   15.24    1.74
   0  -6   0   18.21    1.54
   0  -6   0   19.96    1.87
   0   6   0   14.54    1.93
   0   6   0   18.28    1.98
   0   6   0   16.18    1.73
  -1  -6   0    3.82    1.11
  -1  -6   0    3.42    1.26
  -1  -6   0    4.66    1.03
  -1  -6   0    3.03    0.89
   1   6   0    4.26    1.19
   1   6   0    2.03    1.14
   1   6   0    3.22    1.32
   1   6   0    2.67    0.54
  -2  -6   0    1.34    1.02
  -2  -6   0    0.62    0.68
  -2  -6   0   -0.18    0.71
  -2  -6   0    0.05    0.66
  -2  -6   0   -0.08    0.75
   2   6   0    0.54    1.00
   2   6   0   -0.38    1.00
   2   6   0    0.49    0.64
  -3  -6   0   11.92    1.29
  -3  -6   0   12.05    1.35
  -3  -6   0    9.98    1.42
  -3  -6   0   15.51    1.78
  -3  -6   0   13.32    1.37
   3   6   0   13.29    1.95
   3   6   0   14.07    1.73
   3   6   0   14.90    1.58
  -4  -6   0   20.54    1.69
  -4  -6   0   21.71    2.11
  -4  -6   0   21.78    2.11
  -4  -6   0   18.53    1.73
  -4  -6   0   19.13    1.61
   4   6   0   21.67    2.48
   4   6   0   18.99    1.89
   4   6   0   18.18    1.62
   4   6   0   21.15    1.74
  -5  -6   0    1.65    1.40
  -5  -6   0    1.44    1.18
  -5  -6   0    3.56    1.39
   5   6   0   -0.81    1.07
   5   6   0    1.54    1.06
   5   6   0    2.03    1.36
   5   6   0    2.04    1.32
   5   6   0    1.89    1.60
  -6  -6   0    1.35    2.04
  -6  -6   0   -0.14    1.66
  -6  -6   0    1.17    1.36
   6   6   0   -1.61    1.28
   6   6   0    0.55    1.55
   6   6   0   -0.54    1.24
   6   6   0    0.84    0.86
  -7  -6   0    4.76    1.91
  -7  -6   0    2.27    1.70
  -7  -6   0    6.19    2.60
   7   6   0    3.67    2.10
   7   6   0    7.51    1.99
   7   6   0    3.61    1.49
  -8  -6   0   14.49    3.19
  -8  -6   0   10.92    2.26
   8   6   0   14.76    2.58
   8   6   0   17.54    3.13
  -9  -6   0    1.77    2.78
  -9  -6   0    0.98    2.03
   9   6   0   -0.51    2.35
   9   6   0    0.86    2.48
   6  -7   0    2.58    2.60
   6  -7   0   -0.26    2.95
  -6   7   0    0.68    2.48
   5  -7   0    7.66    2.60
   5  -7   0    4.16    2.81
  -5   7   0    2.80    2.42
  -5   7   0    5.47    1.82
  -5   7   0    8.05    2.30
   4  -7   0    4.00    2.18
   4  -7   0    1.70    1.07
   4  -7   0   -0.26    2.24
   4  -7   0    5.42    1.62
  -4   7   0    0.99    1.54
  -4   7   0    3.71    1.78
  -4   7   0    3.79    2.17
   3  -7   0   11.36    1.82
   3  -7   0   17.47    2.95
   3  -7   0   13.54    2.42
   3  -7   0   14.65    1.75
  -3   7   0   10.93    1.89
  -3   7   0   10.51    2.28
  -3   7   0   12.61    1.96
   2  -7   0    2.86    1.14
   2  -7   0    0.45    1.01
   2  -7   0    0.27    1.83
   2  -7   0    1.02    1.63
  -2   7   0    1.04    1.28
  -2   7   0    2.17    1.19
  -2   7   0    1.19    1.64
   1  -7   0   10.44    2.01
   1  -7   0    9.69    1.85
   1  -7   0   10.92    1.57
   1  -7   0   12.57    1.83
  -1   7   0   13.36    1.91
  -1   7   0   12.62    2.09
  -1   7   0   12.65    1.89
   0  -7   0   23.32    2.24
   0  -7   0   27.88    2.37
   0  -7   0   28.24    2.69
   0  -7   0   27.92    2.15
   0   7   0   27.99    2.52
   0   7   0   25.80    2.58
   0   7   0   25.28    2.49
  -1  -7   0   31.61    2.81
  -1  -7   0   26.21    1.91
  -1  -7   0   28.95    2.05
  -1  -7   0   31.05    1.91
   1   7   0   28.84    2.30
   1   7   0   24.54    2.37
   1   7   0   25.08    2.23
  -2  -7   0   -0.26    0.98
  -2  -7   0    1.45    0.99
  -2  -7   0    0.67    0.86
  -2  -7   0    0.24    0.85
   2   7   0    0.51    0.68
   2   7   0    0.91    0.93
   2   7   0    0.92    1.43
   2   7   0   -0.74    1.12
  -3  -7   0   11.03    1.72
  -3  -7   0   11.34    1.54
  -3  -7   0   11.95    1.46
  -3  -7   0    9.12    1.60
  -3  -7   0   12.92    1.77
   3   7   0    9.49    1.76
   3   7   0   12.76    2.15
   3   7   0   12.32    1.57
  -4  -7   0   30.82    2.09
  -4  -7   0   29.12    2.18
  -4  -7   0   30.74    1.97
  -4  -7   0   29.05    2.28
  -4  -7   0   32.77    2.48
   4   7   0   31.69    2.46
   4   7   0   30.83    2.74
   4   7   0   29.43    2.37
   4   7   0   29.88    2.13
  -5  -7   0   38.35    2.41
  -5  -7   0   39.69    2.77
  -5  -7   0   40.64    2.55
   5   7   0   38.14    2.81
   5   7   0   36.74    2.82
   5   7   0   43.17    2.64
   5   7   0   36.33    2.31
   5   7   0   43.36    3.34
  -6  -7   0    1.32    1.36
  -6  -7   0   -1.12    1.39
  -6  -7   0   -0.91    1.74
   6   7   0    1.16    1.87
   6   7   0   -1.74    1.33
   6   7   0   -1.37    1.38
   6   7   0    0.24    1.55
   6   7   0   -1.44    0.98
  -7  -7   0    0.40    1.67
  -7  -7   0   -0.02    1.68
   7   7   0    0.50    1.80
   7   7   0    1.07    1.84
   7   7   0   -0.58    1.45
  -8  -7   0   11.49    2.81
  -8  -7   0    6.10    2.30
   8   7   0    7.95    2.85
   8   7   0   10.15    2.53
   8   7   0    7.85    2.56
  -9  -7   0    7.97    2.42
  -9  -7   0   11.03    3.56
   9   7   0   15.17    2.86
   9   7   0    8.36    3.01
   5  -8   0    0.14    2.74
   5  -8   0    2.26    2.72
  -5   8   0    1.66    2.54
   4  -8   0    9.51    2.19
   4  -8   0    2.41    2.91
   4  -8   0    7.35    2.18
  -4   8   0    6.23    2.00
  -4   8   0    9.88    2.69
   3  -8   0    8.17    1.56
   3  -8   0    8.62    2.02
   3  -8   0   11.68    2.59
   3  -8   0    5.52    2.25
  -3   8   0    8.47    1.93
  -3   8   0   12.47    2.47
  -3   8   0    8.19    2.39
   2  -8   0   19.12    2.73
   2  -8   0   20.07    2.84
   2  -8   0   26.51    2.62
   2  -8   0   20.51    2.11
  -2   8   0   21.30    2.88
  -2   8   0   26.24    2.45
  -2   8   0   26.13    2.77
   1  -8   0    1.96    1.62
   1  -8   0    0.53    1.15
   1  -8   0   -1.37    1.59
   1  -8   0   -0.11    1.59
  -1   8   0   -1.05    1.71
  -1   8   0   -0.97    1.34
  -1   8   0    1.32    1.22
   0  -8   0   15.14    1.85
   0  -8   0   10.73    2.24
   0  -8   0   14.54    1.92
   0  -8   0   13.48    2.02
   0   8   0    9.03    2.03
   0   8   0   14.04    2.18
   0   8   0   10.47    2.13
  -1  -8   0   15.53    1.90
  -1  -8   0   13.99    2.40
  -1  -8   0   18.29    1.86
  -1  -8   0   13.51    1.67
   1   8   0   15.95    2.40
   1   8   0   17.89    2.21
   1   8   0   17.28    2.35
  -2  -8   0   73.74    3.49
  -2  -8   0   68.29    3.43
  -2  -8   0   78.39    4.03
  -2  -8   0   74.32    3.16
   2   8   0   78.78    3.71
   2   8   0   73.56    3.81
   2   8   0   76.26    4.00
  -3  -8   0    0.16    1.59
  -3  -8   0   -0.29    1.25
  -3  -8   0    0.14    1.11
  -3  -8   0   -0.71    0.94
   3   8   0   -0.50    1.40
   3   8   0    0.17    1.11
   3   8   0   -0.02    1.42
   3   8   0    0.33    0.92
  -4  -8   0    4.86    1.54
  -4  -8   0    4.78    1.33
  -4  -8   0    4.84    1.30
  -4  -8   0    3.15    1.27
  -4  -8   0    4.50    1.76
   4   8   0    2.10    1.29
   4   8   0    3.89    1.64
   4   8   0    6.40    2.18
   4   8   0    3.42    1.29
  -5  -8   0   23.34    2.43
  -5  -8   0   23.99    2.35
  -5  -8   0   22.13    2.65
   5   8   0   18.64    2.91
   5   8   0   20.73    2.51
   5   8   0   20.30    2.55
   5   8   0   18.19    2.08
   5   8   0   22.09    2.15
  -6  -8   0   33.34    3.14
  -6  -8   0   36.48    2.68
   6   8   0   30.73    2.32
   6   8   0   38.95    3.21
   6   8   0   34.55    3.89
   6   8   0   33.25    2.86
   6   8   0   39.92    2.72
   6   8   0   35.12    3.08
  -7  -8   0   -0.59    1.77
  -7  -8   0   -1.03    1.55
   7   8   0    0.16    2.18
   7   8   0    1.01    1.67
   7   8   0    1.43    1.87
  -8  -8   0    0.52    1.99
   8   8   0    3.12    2.60
   8   8   0    0.32    1.81
   8   8   0    1.93    2.51
   4  -9   0   -1.06    1.77
   4  -9   0   -1.23    1.83
  -4   9   0    2.45    2.52
  -4   9   0    0.10    1.61
   3  -9   0    0.41    2.16
   3  -9   0    5.60    2.55
  -3   9   0   -0.01    2.29
  -3   9   0   -0.03    1.59
   2  -9   0    2.57    1.99
   2  -9   0    1.81    1.64
  -2   9   0    1.54    1.73
  -2   9   0   -2.69    1.53
   1  -9   0   21.90    2.70
   1  -9   0   16.87    2.79
  -1   9   0   20.67    2.69
  -1   9   0   14.49    2.87
   0  -9   0   -0.40    1.93
   0  -9   0    0.54    1.30
   0   9   0    0.55    1.25
   0   9   0   -0.40    1.43
   0   9   0   -1.70    1.52
  -1  -9   0    6.61    2.29
  -1  -9   0    1.36    1.62
  -1  -9   0    1.00    1.45
   1   9   0    0.10    1.68
   1   9   0   -3.29    1.57
   1   9   0    0.66    1.71
  -2  -9   0    7.41    1.62
  -2  -9   0    9.20    2.34
  -2  -9   0    6.38    1.38
   2   9   0    6.14    2.00
   2   9   0    6.77    2.13
   2   9   0   11.83    2.34
  -3  -9   0    5.28    2.02
  -3  -9   0    9.17    1.69
  -3  -9   0    8.69    1.51
   3   9   0    8.47    2.11
   3   9   0    9.83    1.57
   3   9   0   11.16    2.04
   3   9   0    9.15    2.20
  -4  -9   0    3.38    1.77
  -4  -9   0    8.47    1.95
   4   9   0    6.71    2.04
   4   9   0    6.32    2.10
   4   9   0    6.22    1.69
   4   9   0    8.25    2.43
  -5  -9   0    4.89    1.63
  -5  -9   0    3.29    1.70
   5   9   0    3.89    2.05
   5   9   0    6.98    2.31
   5   9   0    3.43    1.95
  -6  -9   0    2.92    1.68
   6   9   0    3.65    1.88
   6   9   0    0.47    1.97
   6   9   0    3.98    2.36
   6   9   0    4.16    2.43
   7   9   0    2.02    2.40
   7   9   0    1.69    1.95
   7   9   0   -0.49    2.28
   7   9   0    2.11    1.94
   8   9   0    3.56    2.31
   8   9   0    3.44    2.36
   8   9   0   -0.18    2.40
   3 -10   0    3.76    2.24
   3 -10   0    0.63    2.54
  -3  10   0    3.60    2.69
  -3  10   0    0.61    1.84
   2 -10   0    1.10    2.20
   2 -10   0    4.08    2.44
  -2  10   0    4.87    2.08
  -2  10   0    5.60    2.71
   1 -10   0    2.85    2.28
   1 -10   0   -0.81    2.20
  -1  10   0   -2.57    2.33
  -1  10   0    4.86    1.70
   0 -10   0    0.35    2.10
   0 -10   0    2.57    2.37
   0  10   0   -1.99    2.12
   0  10   0   -1.32    1.74
  -1 -10   0   19.29    3.13
  -1 -10   0   19.68    2.81
   1  10   0   16.80    2.88
   1  10   0   20.19    2.99
  -2 -10   0   12.24    2.80
  -2 -10   0    9.94    1.99
   2  10   0    9.36    2.51
   2  10   0    4.81    2.19
  -3 -10   0   -4.83    1.71
  -3 -10   0    1.85    1.46
   3  10   0    0.10    1.87
   3  10   0    2.17    2.12
  -4 -10   0    1.46    1.88
  -4 -10   0   -0.45    1.70
   4  10   0    0.49    1.87
   4  10   0   -0.12    2.03
   4  10   0   -2.54    1.59
  -5 -10   0   12.56    2.40
  -5 -10   0    9.93    2.32
   5  10   0   11.54    2.54
   5  10   0    8.63    2.50
   5  10   0    4.65    2.50
  -6 -10   0    5.86    2.10
   6  10   0    6.13    2.43
   6  10   0    9.74    3.01
   6  10   0   10.65    2.76
   7  10   0    0.53    2.12
   7  10   0   -1.35    2.15
   7  10   0    0.48    2.11
   1 -11   0   15.04    2.93
   1 -11   0   10.24    3.13
  -1  11   0   10.41    3.12
  -1  11   0   13.51    2.83
   0 -11   0    0.61    2.45
   0 -11   0    1.55    1.82
   0  11   0   -3.01    2.34
   0  11   0    1.85    2.20
  -1 -11   0   -0.75    2.44
  -1 -11   0    0.81    1.65
   1  11   0    2.50    2.33
   1  11   0   -2.81    2.24
  -2 -11   0   11.30    3.10
  -2 -11   0    9.83    2.57
   2  11   0   12.14    2.50
   2  11   0    9.72    2.70
  -3 -11   0   10.06    2.98
  -3 -11   0   20.65    2.93
   3  11   0   15.90    2.98
   3  11   0   19.50    3.24
  -4 -11   0    0.00    1.93
  -4 -11   0   -0.83    2.07
   4  11   0    1.68    2.44
   4  11   0   -0.69    2.08
  -5 -11   0    0.97    2.02
   5  11   0    1.96    2.52
   5  11   0    2.63    2.53
   5  11  -1   -0.62    2.52
   5  11  -1    0.87    2.43
  -5 -11   1    3.25    2.17
   4  11  -1    1.10    2.32
   4  11  -1    1.36    2.50
  -4 -11   1    2.60    2.14
   3  11  -1   17.86    3.24
   3  11  -1   14.76    3.07
  -3 -11   1   25.95    3.20
  -3 -11   1   18.63    3.26
   2  11  -1    2.48    2.50
   2  11  -1    6.77    2.55
  -2 -11   1    2.58    3.04
  -2 -11   1    5.78    2.34
   1  11  -1    5.98    2.84
   1  11  -1    5.78    2.01
  -1 -11   1   -1.22    2.77
  -1 -11   1    4.45    2.35
   0  11  -1   -0.75    1.99
   0  11  -1   -1.26    2.55
   0 -11   1    2.55    1.90
   0 -11   1    1.14    2.62
  -1  11  -1   15.84    3.67
  -1  11  -1   14.14    2.93
   1 -11   1   20.64    3.20
   1 -11   1   12.06    3.15
   6  10  -1   15.69    3.32
   6  10  -1    9.19    2.72
   6  10  -1   13.34    2.75
  -6 -10   1   10.30    2.29
   5  10  -1   10.31    2.64
   5  10  -1    6.71    2.63
   5  10  -1    8.99    2.64
  -5 -10   1    6.02    2.16
   4  10  -1    4.64    2.34
   4  10  -1    0.88    1.94
   4  10  -1    2.92    2.27
  -4 -10   1    2.43    1.84
  -4 -10   1   -0.04    1.86
   3  10  -1    1.06    1.91
   3  10  -1   -1.14    1.99
   3  10  -1   -0.98    1.99
  -3 -10   1   -3.43    2.05
  -3 -10   1   -0.60    1.69
   2  10  -1   14.08    2.80
   2  10  -1    4.89    2.47
   2  10  -1    9.89    2.56
  -2 -10   1    9.31    2.88
  -2 -10   1   16.40    2.57
   1  10  -1    6.41    2.22
   1  10  -1    1.10    2.25
  -1 -10   1   -2.71    2.10
  -1 -10   1    2.91    2.06
   0  10  -1    6.33    2.57
   0  10  -1    8.90    2.32
   0 -10   1    4.91    2.25
   0 -10   1    4.92    2.52
  -1  10  -1   -1.19    1.32
  -1  10  -1   -1.52    2.34
   1 -10   1    2.07    2.25
   1 -10   1    0.05    2.29
  -2  10  -1    1.03    2.62
  -2  10  -1    0.81    1.77
   2 -10   1   -0.59    1.73
   2 -10   1   -2.47    2.05
  -3  10  -1   -1.08    2.61
  -3  10  -1    0.95    1.78
   3 -10   1   -1.28    2.10
   3 -10   1   -0.84    2.39
   7   9  -1   -0.45    2.50
   7   9  -1   -0.14    2.20
   7   9  -1    1.50    1.88
  -7  -9   1   -1.96    1.76
   6   9  -1    2.50    2.37
   6   9  -1   -0.62    1.99
  -6  -9   1   -0.64    1.51
  -6  -9   1    1.16    1.88
   5   9  -1    7.26    2.54
   5   9  -1    6.48    2.14
  -5  -9   1    4.85    2.09
  -5  -9   1    2.16    1.74
  -5  -9   1    2.71    1.70
   4   9  -1    3.20    1.98
   4   9  -1    1.97    2.01
  -4  -9   1    2.62    1.98
  -4  -9   1    1.05    1.53
  -4  -9   1    2.26    1.73
  -4  -9   1    1.83    1.51
   3   9  -1    0.61    1.78
   3   9  -1    0.21    1.77
   3   9  -1    0.43    1.65
  -3  -9   1   -0.08    1.02
  -3  -9   1   -1.71    1.04
  -3  -9   1    0.12    1.63
   2   9  -1   -1.62    1.84
   2   9  -1   -1.11    1.70
   2   9  -1    0.63    1.69
  -2  -9   1    3.35    1.61
  -2  -9   1    1.26    1.58
  -2  -9   1   -0.36    1.92
   1   9  -1    0.50    1.78
   1   9  -1    0.32    1.73
   1   9  -1   -3.25    1.48
  -1  -9   1   -2.30    1.87
  -1  -9   1    0.06    1.17
   0   9  -1   -3.22    1.76
   0   9  -1   -1.97    1.54
   0   9  -1   -2.15    1.83
   0  -9   1   -0.11    1.99
   0  -9   1    1.56    1.71
  -1   9  -1   -0.29    1.61
  -1   9  -1   -1.10    2.00
  -1   9  -1    0.53    1.47
   1  -9   1   -0.63    1.96
   1  -9   1    0.07    1.40
  -2   9  -1   -3.33    2.16
  -2   9  -1    1.62    1.67
   2  -9   1    1.59    1.99
   2  -9   1    2.89    1.82
  -3   9  -1    5.18    2.60
  -3   9  -1    2.96    1.76
   3  -9   1   -0.49    2.22
   3  -9   1    4.50    2.15
  -4   9  -1    2.48    2.43
  -4   9  -1    3.00    1.71
   4  -9   1   -4.55    2.17
   4  -9   1   -1.10    2.21
   8   8  -1   -1.49    2.42
   8   8  -1   -0.87    2.04
  -8  -8   1    1.70    2.33
   7   8  -1    3.36    2.05
   7   8  -1    3.54    2.59
  -7  -8   1   -3.26    1.79
  -7  -8   1    1.43    1.97
   6   8  -1   14.06    1.88
   6   8  -1   18.26    3.19
   6   8  -1   15.71    2.48
   6   8  -1   13.69    2.55
  -6  -8   1   17.26    2.24
  -6  -8   1   19.31    2.80
   5   8  -1    0.54    1.67
   5   8  -1    0.48    1.26
   5   8  -1    2.89    2.11
   5   8  -1   -2.42    1.20
  -5  -8   1   -0.77    1.62
  -5  -8   1   -0.19    1.36
  -5  -8   1    1.91    1.24
   4   8  -1    9.12    1.68
   4   8  -1   10.36    2.08
   4   8  -1   13.18    2.54
  -4  -8   1    6.31    1.47
  -4  -8   1   10.92    2.21
  -4  -8   1   11.76    1.77
  -4  -8   1    8.46    1.80
   3   8  -1    0.88    0.96
   3   8  -1    1.28    1.58
   3   8  -1    0.46    1.61
  -3  -8   1    1.11    1.39
  -3  -8   1    0.84    1.39
  -3  -8   1    0.31    1.18
  -3  -8   1    3.39    1.67
   2   8  -1   33.36    3.02
   2   8  -1   29.75    2.64
   2   8  -1   31.65    3.43
  -2  -8   1   30.58    2.38
  -2  -8   1   30.89    2.89
  -2  -8   1   32.69    2.77
   1   8  -1    1.66    1.65
   1   8  -1    1.49    1.63
   1   8  -1    2.85    1.62
  -1  -8   1    2.93    1.92
  -1  -8   1    2.08    1.28
  -1  -8   1    3.24    1.53
   0   8  -1   27.80    3.05
   0   8  -1   31.29    2.95
   0   8  -1   29.43    3.00
   0  -8   1   30.03    2.45
   0  -8   1   23.06    2.81
   0  -8   1   29.94    2.73
  -1   8  -1    2.03    1.85
  -1   8  -1   -1.33    1.30
  -1   8  -1    1.69    1.68
   1  -8   1    0.72    1.54
   1  -8   1    1.39    1.43
   1  -8   1    0.51    1.20
  -2   8  -1   10.17    2.44
  -2   8  -1   12.12    2.08
  -2   8  -1    6.30    1.79
   2  -8   1   10.97    2.12
   2  -8   1    9.14    1.62
   2  -8   1    7.31    1.86
  -3   8  -1    4.45    1.64
  -3   8  -1    0.47    1.62
  -3   8  -1    2.89    2.21
   3  -8   1    4.48    1.93
   3  -8   1    2.00    2.17
   3  -8   1    2.96    1.32
  -4   8  -1   17.97    3.07
  -4   8  -1   15.37    2.47
  -4   8  -1   15.19    2.39
   4  -8   1   24.17    2.57
   4  -8   1   16.25    2.97
  -5   8  -1   -0.14    2.27
   5  -8   1   -0.45    2.49
   9   7  -1   11.68    2.83
   9   7  -1    7.13    3.19
   8   7  -1    1.82    2.18
   8   7  -1    2.80    2.66
   8   7  -1    2.75    1.89
  -8  -7   1    2.47    2.11
   7   7  -1   13.75    2.97
   7   7  -1   13.64    2.19
   7   7  -1   14.29    2.75
  -7  -7   1   13.79    2.28
  -7  -7   1   14.70    2.51
   6   7  -1    1.94    1.55
   6   7  -1    1.39    1.67
   6   7  -1    3.68    2.18
   6   7  -1    1.30    1.00
   6   7  -1    2.72    1.42
  -6  -7   1    3.73    1.75
  -6  -7   1   -0.60    1.63
  -6  -7   1    1.90    1.21
   5   7  -1   16.29    2.48
   5   7  -1   17.57    1.95
   5   7  -1   20.14    1.95
   5   7  -1   12.15    2.23
  -5  -7   1   11.02    2.00
  -5  -7   1   15.80    2.28
  -5  -7   1   13.64    1.79
   4   7  -1    0.62    1.49
   4   7  -1    0.44    1.25
   4   7  -1   -0.25    1.53
   4   7  -1   -0.20    0.98
  -4  -7   1   -0.49    1.14
  -4  -7   1    0.42    1.12
  -4  -7   1   -0.33    1.15
  -4  -7   1    0.95    1.39
   3   7  -1   41.56    2.76
   3   7  -1   43.50    3.20
   3   7  -1   43.92    2.54
  -3  -7   1   40.99    2.07
  -3  -7   1   46.20    2.59
  -3  -7   1   47.11    2.52
  -3  -7   1   43.07    2.66
  -3  -7   1   38.81    2.71
   2   7  -1   -0.12    1.36
   2   7  -1    0.71    0.80
   2   7  -1    0.92    1.30
  -2  -7   1   -0.51    0.84
  -2  -7   1   -0.14    0.73
  -2  -7   1   -0.30    1.18
  -2  -7   1    0.01    1.01
  -2  -7   1    0.50    1.25
   1   7  -1    9.52    1.97
   1   7  -1    9.95    1.83
   1   7  -1    9.14    1.70
  -1  -7   1   10.95    1.21
  -1  -7   1    8.03    1.29
  -1  -7   1    8.96    1.40
  -1  -7   1    9.89    1.91
   0   7  -1    0.03    1.46
   0   7  -1   -1.07    1.29
   0   7  -1    1.44    1.33
   0  -7   1   -1.06    0.90
   0  -7   1   -0.76    1.03
   0  -7   1   -0.08    1.44
   0  -7   1   -0.44    1.18
  -1   7  -1   65.97    3.31
  -1   7  -1   53.81    3.36
  -1   7  -1   57.80    3.39
   1  -7   1   62.98    3.19
   1  -7   1   56.44    3.25
   1  -7   1   61.61    2.98
   1  -7   1   58.32    3.18
  -2   7  -1   10.70    1.80
  -2   7  -1    7.00    1.76
  -2   7  -1   13.14    2.08
   2  -7   1    5.59    1.92
   2  -7   1    8.88    1.49
   2  -7   1    7.15    2.11
   2  -7   1    9.70    1.58
  -3   7  -1   11.69    2.13
  -3   7  -1   10.97    2.03
  -3   7  -1    8.81    1.76
   3  -7   1    8.07    1.43
   3  -7   1    8.12    2.39
   3  -7   1    4.52    2.03
   3  -7   1    7.87    1.85
  -4   7  -1    7.21    2.34
  -4   7  -1    7.85    2.10
  -4   7  -1    5.07    1.56
   4  -7   1    6.24    2.71
   4  -7   1    4.25    2.13
   4  -7   1    8.73    1.82
   4  -7   1    3.93    1.22
  -5   7  -1   15.72    2.78
  -5   7  -1   16.83    3.06
  -5   7  -1   18.47    2.35
   5  -7   1   14.12    2.10
   5  -7   1   18.78    3.37
   5  -7   1   12.60    2.42
  -6   7  -1    0.54    1.94
  -6   7  -1    1.45    2.53
   6  -7   1    0.01    2.56
   6  -7   1    3.81    3.49
   9   6  -1    1.97    2.40
   9   6  -1    1.03    2.22
  -9  -6   1    0.95    2.15
  -9  -6   1   -1.50    2.69
   8   6  -1    3.08    1.89
   8   6  -1    5.49    2.07
  -8  -6   1    4.76    2.12
  -8  -6   1    6.61    2.92
   7   6  -1    0.83    1.79
   7   6  -1    1.05    1.89
  -7  -6   1   -1.34    1.93
  -7  -6   1    0.35    2.26
  -7  -6   1    1.05    1.70
   6   6  -1   22.14    2.80
   6   6  -1   25.00    2.38
   6   6  -1   23.40    3.13
   6   6  -1   22.67    1.91
   6   6  -1   20.52    1.66
  -6  -6   1   24.15    2.39
  -6  -6   1   17.35    1.71
  -6  -6   1   20.79    2.48
   5   6  -1   -0.59    1.20
   5   6  -1    0.80    1.24
   5   6  -1   -0.25    1.09
   5   6  -1   -0.70    0.94
   5   6  -1   -0.14    1.64
  -5  -6   1    2.03    1.37
  -5  -6   1    1.50    1.15
  -5  -6   1    1.41    1.48
   4   6  -1   15.96    1.58
   4   6  -1   17.77    2.44
   4   6  -1   17.88    2.02
  -4  -6   1   18.36    1.70
  -4  -6   1   15.03    1.65
  -4  -6   1   13.23    1.45
  -4  -6   1   16.40    1.97
  -4  -6   1   15.21    2.03
   3   6  -1    3.87    1.58
   3   6  -1    5.61    1.44
   3   6  -1    5.26    1.22
  -3  -6   1    7.26    1.31
  -3  -6   1    6.92    1.19
  -3  -6   1    5.71    1.14
  -3  -6   1    5.49    1.39
   2   6  -1   66.75    3.48
   2   6  -1   63.32    2.72
   2   6  -1   62.13    3.02
  -2  -6   1   63.93    2.81
  -2  -6   1   62.70    2.45
  -2  -6   1   65.94    2.99
  -2  -6   1   68.01    2.97
  -2  -6   1   63.32    3.07
   1   6  -1   15.73    1.84
   1   6  -1   10.41    1.05
   1   6  -1   13.95    2.13
  -1  -6   1   12.78    1.08
  -1  -6   1   12.21    1.53
  -1  -6   1   12.25    1.44
  -1  -6   1   11.95    1.74
  -1  -6   1   13.14    1.68
   0   6  -1    3.45    1.40
   0   6  -1    5.17    1.39
   0   6  -1    2.63    1.17
   0  -6   1    5.72    1.06
   0  -6   1    3.65    1.40
   0  -6   1    4.45    1.09
   0  -6   1    2.65    1.12
  -1   6  -1   11.79    1.97
  -1   6  -1   13.44    1.75
  -1   6  -1   10.47    1.80
   1  -6   1   12.14    1.64
   1  -6   1   15.28    1.84
   1  -6   1   13.23    1.48
   1  -6   1   11.42    1.83
  -2   6  -1   49.87    2.73
  -2   6  -1   46.40    3.02
  -2   6  -1   47.95    2.99
   2  -6   1   46.35    2.47
   2  -6   1   46.25    3.06
   2  -6   1   52.63    3.40
   2  -6   1   51.50    2.49
  -3   6  -1    7.46    1.94
  -3   6  -1    5.27    1.41
  -3   6  -1    5.00    1.64
   3  -6   1    6.66    1.82
   3  -6   1    6.02    1.45
   3  -6   1   12.66    2.57
   3  -6   1    5.82    1.29
  -4   6  -1   -0.06    1.15
  -4   6  -1   -1.40    1.65
  -4   6  -1    2.84    1.64
   4  -6   1    1.21    1.30
   4  -6   1    2.26    1.30
   4  -6   1   -0.30    0.90
   4  -6   1    0.24    2.02
  -5   6  -1    0.88    1.19
  -5   6  -1   -1.83    1.95
  -5   6  -1    2.93    1.91
   5  -6   1    1.99    2.37
   5  -6   1   -1.37    1.92
   5  -6   1    0.54    1.37
  -6   6  -1    9.93    2.51
  -6   6  -1    5.46    2.51
   6  -6   1    9.50    3.18
   6  -6   1    8.49    2.71
  -7   6  -1   -0.90    2.42
  -7   6  -1    1.22    2.23
   7  -6   1    2.42    3.17
   7  -6   1    0.50    1.93
   9   5  -1    1.43    2.21
   9   5  -1   -1.63    2.28
  -9  -5   1    0.94    2.22
  -9  -5   1    0.10    2.57
   8   5  -1    1.06    2.14
   8   5  -1    1.20    1.83
  -8  -5   1    3.17    2.55
  -8  -5   1    3.12    2.07
   7   5  -1    2.02    1.87
   7   5  -1    2.00    1.64
  -7  -5   1    1.14    1.34
  -7  -5   1    2.09    2.28
  -7  -5   1    0.80    1.77
   6   5  -1    2.50    1.38
   6   5  -1    1.42    1.06
   6   5  -1    1.92    1.60
   6   5  -1    1.86    0.80
  -6  -5   1    0.68    1.58
  -6  -5   1    0.81    1.41
  -6  -5   1    1.28    1.96
   5   5  -1    1.72    1.38
   5   5  -1    3.63    1.10
   5   5  -1    2.77    0.84
   5   5  -1    3.41    1.21
   5   5  -1    2.69    0.91
  -5  -5   1    3.45    1.48
  -5  -5   1    2.39    1.00
  -5  -5   1    3.15    1.50
  -5  -5   1    2.80    1.23
   4   5  -1   19.58    2.36
   4   5  -1   23.67    1.69
   4   5  -1   18.76    1.34
   4   5  -1   21.28    1.97
  -4  -5   1   21.98    1.46
  -4  -5   1   18.23    1.54
  -4  -5   1   21.00    1.51
  -4  -5   1   21.69    1.57
  -4  -5   1   23.19    2.10
   3   5  -1    7.82    1.63
   3   5  -1   11.32    1.43
   3   5  -1   10.48    1.10
   3   5  -1   10.67    1.12
  -3  -5   1    8.82    1.10
  -3  -5   1    7.80    1.33
  -3  -5   1    9.88    1.47
  -3  -5   1   11.17    1.26
  -3  -5   1   10.26    1.20
   2   5  -1   16.28    1.35
   2   5  -1   17.30    1.37
   2   5  -1   16.47    1.78
   2   5  -1   17.40    1.71
  -2  -5   1   18.32    1.50
  -2  -5   1   17.01    1.37
  -2  -5   1   15.87    1.10
  -2  -5   1   17.73    1.44
  -2  -5   1   19.16    1.58
   1   5  -1    9.21    1.52
   1   5  -1    7.02    0.87
   1   5  -1   10.45    1.06
   1   5  -1    6.71    1.27
  -1  -5   1    9.03    1.25
  -1  -5   1   10.85    1.28
  -1  -5   1    8.68    1.11
  -1  -5   1    9.04    1.30
  -1  -5   1    9.65    0.88
   0   5  -1   30.42    1.69
   0   5  -1   30.08    2.12
   0   5  -1   27.10    1.86
   0  -5   1   28.93    1.70
   0  -5   1   28.79    1.88
   0  -5   1   31.07    1.58
   0  -5   1   30.68    2.04
   0  -5   1   29.65    1.83
  -1   5  -1   50.05    2.79
  -1   5  -1   47.69    2.37
  -1   5  -1   42.44    2.41
  -1   5  -1   43.91    2.02
   1  -5   1   44.70    2.56
   1  -5   1   42.85    2.52
   1  -5   1   45.57    2.29
   1  -5   1   48.03    2.20
  -2   5  -1    2.46    1.27
  -2   5  -1    3.42    1.24
  -2   5  -1    3.04    0.88
  -2   5  -1    2.72    1.04
   2  -5   1    1.81    0.85
   2  -5   1    3.04    1.03
   2  -5   1    2.08    0.28
   2  -5   1    2.52    1.32
   2  -5   1    2.44    1.23
  -3   5  -1    5.08    1.59
  -3   5  -1    2.66    1.09
  -3   5  -1    5.40    1.55
   3  -5   1    3.06    1.22
   3  -5   1    1.95    0.72
   3  -5   1    2.43    1.25
   3  -5   1    2.90    1.51
   3  -5   1    1.03    0.96
  -4   5  -1    4.68    1.80
  -4   5  -1    6.73    1.49
  -4   5  -1    4.68    1.82
   4  -5   1    7.24    1.85
   4  -5   1    3.76    1.21
   4  -5   1    7.51    1.12
   4  -5   1   11.45    2.26
   4  -5   1    7.39    1.33
  -5   5  -1   22.24    2.78
  -5   5  -1   21.68    1.94
  -5   5  -1   20.34    2.71
   5  -5   1   24.89    2.02
   5  -5   1   18.02    2.77
   5  -5   1   20.12    1.66
   5  -5   1   19.66    2.40
  -6   5  -1    3.42    2.03
  -6   5  -1    2.37    2.25
   6  -5   1    3.16    1.78
   6  -5   1   -1.67    2.28
  -7   5  -1    0.96    2.50
  -7   5  -1   -1.63    2.06
   7  -5   1   -0.81    2.40
   7  -5   1   -3.59    2.52
  -8   5  -1    0.44    2.45
   9   4  -1   -0.94    2.27
   9   4  -1   -1.00    2.10
  -9  -4   1   -0.47    2.12
  -9  -4   1   -2.60    2.27
   8   4  -1    2.96    2.02
   8   4  -1    1.27    2.10
  -8  -4   1    0.47    1.93
  -8  -4   1   -0.04    1.69
   7   4  -1    2.36    1.88
   7   4  -1    4.41    1.74
   7   4  -1    3.00    1.20
  -7  -4   1    2.39    1.80
  -7  -4   1    2.26    1.66
  -7  -4   1    0.72    1.36
   6   4  -1   39.45    2.11
   6   4  -1   38.51    1.65
   6   4  -1   36.84    2.59
   6   4  -1   36.80    1.72
   6   4  -1   36.59    3.08
  -6  -4   1   37.05    2.29
  -6  -4   1   34.48    2.73
  -6  -4   1   30.20    3.09
   5   4  -1    8.31    1.76
   5   4  -1    9.55    1.18
   5   4  -1    8.08    1.41
   5   4  -1    8.81    0.93
   5   4  -1    7.78    0.91
  -5  -4   1    9.80    2.05
  -5  -4   1    8.64    1.01
  -5  -4   1    8.44    1.35
  -5  -4   1    6.39    1.56
   4   4  -1    1.76    0.76
   4   4  -1    2.61    0.96
   4   4  -1    3.17    1.18
   4   4  -1    3.79    0.74
  -4  -4   1    3.46    1.21
  -4  -4   1    2.97    0.83
  -4  -4   1    3.53    0.77
  -4  -4   1    3.24    0.99
  -4  -4   1    2.26    1.42
   3   4  -1   20.48    1.21
   3   4  -1   18.82    1.61
   3   4  -1   21.71    1.32
   3   4  -1   17.58    1.79
  -3  -4   1   18.18    1.48
  -3  -4   1   20.36    1.25
  -3  -4   1   18.92    1.31
  -3  -4   1   21.18    1.27
  -3  -4   1   18.74    1.57
   2   4  -1  232.82    6.98
   2   4  -1  231.57    7.36
   2   4  -1  222.27    6.67
  -2  -4   1  222.22    6.71
  -2  -4   1  219.58    6.53
  -2  -4   1  218.58    6.90
  -2  -4   1  219.40    6.92
  -2  -4   1  224.27    6.71
  -2  -4   1  226.24    6.82
   1   4  -1    6.96    0.94
   1   4  -1    5.62    0.86
   1   4  -1    6.16    0.86
   1   4  -1    8.72    1.02
   1   4  -1    8.15    1.08
   1   4  -1    7.93    1.48
  -1  -4   1    6.49    0.92
  -1  -4   1    8.08    1.09
  -1  -4   1    7.88    0.76
  -1  -4   1    7.17    0.98
  -1  -4   1    7.86    1.04
   0   4  -1   39.34    1.44
   0   4  -1   42.19    1.72
   0   4  -1   35.08    1.99
   0   4  -1   36.82    1.68
   0   4  -1   43.75    2.44
   0   4  -1   37.47    1.28
   0  -4   1   34.82    1.69
   0  -4   1   37.62    1.96
   0  -4   1   38.72    1.94
   0  -4   1   37.68    2.07
   0  -4   1   35.43    1.82
  -1   4  -1   89.78    3.33
  -1   4  -1   88.21    3.11
  -1   4  -1   88.58    3.46
  -1   4  -1   89.83    3.69
   1  -4   1   86.76    3.53
   1  -4   1   90.69    3.23
   1  -4   1   92.60    2.53
   1  -4   1   91.05    3.54
   1  -4   1   91.47    3.15
  -2   4  -1  116.29    4.05
  -2   4  -1  114.97    4.50
  -2   4  -1  111.47    4.29
  -2   4  -1  115.62    3.90
   2  -4   1  117.25    4.00
   2  -4   1  116.91    3.89
   2  -4   1  118.23    4.32
   2  -4   1  115.85    4.37
  -3   4  -1   10.58    1.48
  -3   4  -1    8.51    1.62
  -3   4  -1    9.57    1.26
   3  -4   1    9.25    1.60
   3  -4   1    8.77    1.01
   3  -4   1    8.87    1.17
   3  -4   1    6.81    1.30
  -4   4  -1   12.23    1.99
  -4   4  -1   13.67    2.08
  -4   4  -1   11.66    1.30
  -4   4  -1   10.37    1.34
   4  -4   1   14.84    1.44
   4  -4   1   14.51    2.03
   4  -4   1   14.68    1.27
   4  -4   1   12.58    1.99
   4  -4   1   16.26    1.70
  -5   4  -1   22.40    1.90
  -5   4  -1   18.69    2.65
  -5   4  -1   15.10    2.40
   5  -4   1   21.82    2.30
   5  -4   1   18.25    1.43
   5  -4   1   18.77    2.58
   5  -4   1   19.08    2.19
   5  -4   1   25.28    1.82
  -6   4  -1   24.70    3.02
  -6   4  -1   26.47    2.70
   6  -4   1   31.15    2.84
   6  -4   1   31.05    3.35
   6  -4   1   31.32    3.12
  -7   4  -1    1.43    2.38
  -7   4  -1    2.58    2.19
   7  -4   1    0.42    2.15
   7  -4   1    1.35    2.43
  -8   4  -1    1.99    2.73
  -8   4  -1    2.14    2.59
   8  -4   1   -2.61    2.74
   8  -4   1    2.57    2.43
   9   3  -1   20.29    3.72
   9   3  -1   17.57    3.01
  -9  -3   1   10.26    3.07
   8   3  -1    2.02    2.21
   8   3  -1    2.08    1.97
  -8  -3   1    1.12    2.25
  -8  -3   1   -1.19    1.89
   7   3  -1   10.90    1.51
   7   3  -1   11.35    2.16
   7   3  -1   10.36    2.39
  -7  -3   1   12.57    1.68
  -7  -3   1    9.66    2.14
  -7  -3   1    8.33    2.43
   6   3  -1   25.32    1.01
   6   3  -1   21.83    2.70
   6   3  -1   22.56    2.29
   6   3  -1   25.46    1.80
  -6  -3   1   20.88    2.32
  -6  -3   1   23.11    2.88
  -6  -3   1   23.22    1.94
   5   3  -1  125.48    5.27
   5   3  -1  131.43    3.87
   5   3  -1  125.97    4.71
   5   3  -1  123.64    4.19
   5   3  -1  128.71    3.85
  -5  -3   1  135.89    4.56
  -5  -3   1  123.72    5.25
  -5  -3   1  130.63    4.84
   4   3  -1    1.17    0.80
   4   3  -1    0.36    0.95
   4   3  -1    0.78    0.50
   4   3  -1    0.17    0.58
  -4  -3   1    0.70    0.52
  -4  -3   1   -1.61    0.88
  -4  -3   1    0.99    0.79
  -4  -3   1    0.92    1.22
  -4  -3   1    0.28    0.45
   3   3  -1   18.53    1.07
   3   3  -1   17.29    1.21
   3   3  -1   17.82    1.06
   3   3  -1   17.21    1.60
  -3  -3   1   18.67    1.50
  -3  -3   1   19.42    1.36
  -3  -3   1   16.37    1.76
  -3  -3   1   18.21    1.10
  -3  -3   1   17.68    1.03
   2   3  -1   65.14    2.21
   2   3  -1   63.61    2.19
   2   3  -1   63.08    2.18
   2   3  -1   62.75    2.72
   2   3  -1   64.22    2.23
   2   3  -1   61.61    2.56
  -2  -3   1   61.22    2.50
  -2  -3   1   65.85    2.50
  -2  -3   1   64.58    2.23
  -2  -3   1   60.69    2.23
  -2  -3   1   63.24    2.32
   1   3  -1  317.64    9.63
   1   3  -1  325.38    9.22
   1   3  -1  317.91    9.31
   1   3  -1  322.10    9.12
   1   3  -1  326.26    9.13
   1   3  -1  320.77    9.19
   1   3  -1  326.39    8.94
  -1  -3   1  328.59    9.17
  -1  -3   1  313.31    8.91
  -1  -3   1  321.49    9.16
  -1  -3   1  321.38    9.23
  -1  -3   1  312.16    9.28
   0   3  -1   19.80    0.96
   0   3  -1   19.11    1.12
   0   3  -1   16.77    1.40
   0   3  -1   17.85    0.95
   0   3  -1   18.99    1.25
   0  -3   1   19.14    1.22
   0  -3   1   18.84    1.19
   0  -3   1   18.82    1.13
   0  -3   1   18.85    1.29
   0  -3   1   20.81    0.86
   0  -3   1   19.13    0.96
  -1   3  -1   30.81    1.86
  -1   3  -1   27.77    1.05
  -1   3  -1   29.17    1.33
  -1   3  -1   26.74    1.41
  -1   3  -1   28.77    1.39
  -1   3  -1   26.29    1.50
   1  -3   1   26.43    1.30
   1  -3   1   27.71    1.37
   1  -3   1   27.68    1.65
   1  -3   1   26.21    1.73
   1  -3   1   29.65    1.28
  -2   3  -1   38.26    2.30
  -2   3  -1   43.65    1.87
  -2   3  -1   40.50    1.68
  -2   3  -1   41.44    1.87
  -2   3  -1   44.45    2.22
   2  -3   1   42.47    2.07
   2  -3   1   41.04    2.08
   2  -3   1   38.47    1.74
   2  -3   1   41.47    1.84
  -3   3  -1  141.22    4.64
  -3   3  -1  136.49    4.43
  -3   3  -1  139.91    4.56
  -3   3  -1  143.46    4.99
  -3   3  -1  146.69    5.28
   3  -3   1  138.48    4.46
   3  -3   1  144.83    4.94
   3  -3   1  141.99    4.40
   3  -3   1  133.02    4.93
  -4   3  -1    8.87    1.35
  -4   3  -1    8.26    1.12
  -4   3  -1    8.18    1.66
  -4   3  -1    6.96    0.89
  -4   3  -1    8.57    1.61
   4  -3   1    6.79    1.46
   4  -3   1    8.04    1.05
   4  -3   1    6.58    0.89
   4  -3   1    7.33    1.48
  -5   3  -1   13.79    1.49
  -5   3  -1   12.73    2.22
  -5   3  -1   13.45    2.04
  -5   3  -1   12.92    1.18
   5  -3   1   10.64    1.96
   5  -3   1   13.59    1.10
   5  -3   1   12.21    1.70
   5  -3   1   16.38    1.34
   5  -3   1   11.05    2.05
  -6   3  -1   -0.46    1.79
  -6   3  -1    4.89    2.03
  -6   3  -1    3.31    1.90
   6  -3   1    1.51    1.78
   6  -3   1    4.63    1.86
   6  -3   1    4.12    1.59
  -7   3  -1   15.74    2.95
  -7   3  -1    9.20    2.59
   7  -3   1   17.06    2.82
   7  -3   1   16.11    2.67
   7  -3   1   15.46    2.86
  -8   3  -1   -2.57    2.21
  -8   3  -1    0.37    2.29
   8  -3   1   -1.08    2.48
   8  -3   1    0.87    2.28
   8  -3   1   -4.10    2.23
  -9   3  -1    3.47    2.86
   9  -3   1    1.80    2.43
   9   2  -1    1.99    2.31
   9   2  -1    0.31    2.56
  -9  -2   1    3.85    2.80
  -9  -2   1    0.85    2.24
   8   2  -1   16.12    2.42
   8   2  -1   23.20    3.47
   8   2  -1   19.13    2.21
  -8  -2   1   15.30    2.63
  -8  -2   1   13.01    3.02
   7   2  -1    2.49    1.14
   7   2  -1    0.83    1.40
   7   2  -1    3.78    1.84
  -7  -2   1    1.19    1.16
  -7  -2   1    2.48    1.61
  -7  -2   1    1.34    1.76
   6   2  -1   -1.30    1.00
   6   2  -1   -1.10    1.29
   6   2  -1    0.78    1.02
  -6  -2   1    1.17    1.74
  -6  -2   1   -0.52    1.34
  -6  -2   1   -1.18    0.81
   5   2  -1   15.08    2.01
   5   2  -1   13.33    0.55
   5   2  -1   12.84    1.24
   5   2  -1   13.88    1.67
   5   2  -1   12.92    0.54
   5   2  -1   13.38    0.55
  -5  -2   1   13.81    1.34
  -5  -2   1   14.32    2.13
  -5  -2   1   11.60    1.65
   4   2  -1   80.66    3.17
   4   2  -1   80.39    2.42
   4   2  -1   81.18    2.42
   4   2  -1   79.26    2.73
   4   2  -1   80.89    3.57
   4   2  -1   68.09    2.60
  -4  -2   1   80.87    2.45
  -4  -2   1   80.45    3.68
  -4  -2   1   82.62    2.96
  -4  -2   1   86.14    3.30
   3   2  -1   48.13    1.85
   3   2  -1   55.14    1.92
   3   2  -1   55.42    1.79
   3   2  -1   54.79    2.22
   3   2  -1   50.82    2.58
   3   2  -1   53.91    1.81
  -3  -2   1   52.91    2.69
  -3  -2   1   54.08    1.78
  -3  -2   1   51.31    1.80
  -3  -2   1   53.34    2.35
  -3  -2   1   55.09    2.17
   2   2  -1   -0.34    0.35
   2   2  -1   -0.07    0.31
   2   2  -1   -0.50    0.36
   2   2  -1   -0.47    0.30
   2   2  -1    0.44    0.60
   2   2  -1   -0.11    0.36
  -2  -2   1   -0.34    0.32
  -2  -2   1    0.12    0.57
  -2  -2   1    0.72    0.55
  -2  -2   1    0.24    0.63
  -2  -2   1   -0.17    0.33
  -2  -2   1   -0.25    0.35
   1   2  -1   24.10    1.39
   1   2  -1   23.86    1.05
   1   2  -1   24.09    0.98
   1   2  -1   25.21    1.30
   1   2  -1   23.97    1.18
   1   2  -1   24.23    0.91
   1   2  -1   23.70    1.16
   1   2  -1   25.33    1.20
   1   2  -1   24.13    0.90
   1   2  -1   24.63    1.08
  -1  -2   1   23.87    1.20
  -1  -2   1   24.53    1.22
  -1  -2   1   23.28    1.10
  -1  -2   1   23.30    1.00
  -1  -2   1   24.95    1.07
   0   2  -1  264.08    7.54
   0   2  -1  281.52    7.31
   0   2  -1  264.36    7.88
   0   2  -1  255.00    7.51
   0   2  -1  258.53    7.51
   0   2  -1  265.38    7.47
   0   2  -1  258.58    7.58
   0   2  -1  263.81    7.52
   0  -2   1  270.00    7.56
   0  -2   1  260.14    7.48
   0  -2   1  268.20    7.45
   0  -2   1  267.03    7.57
   0  -2   1  260.87    7.57
   0  -2   1  260.13    7.93
   0  -2   1  273.38    7.31
   0  -2   1  264.31    7.56
  -1   2  -1   20.47    1.02
  -1   2  -1   21.19    1.05
  -1   2  -1   20.07    1.35
  -1   2  -1   21.03    0.90
  -1   2  -1   19.11    1.26
  -1   2  -1   20.34    0.96
  -1   2  -1   20.20    1.20
   1  -2   1   19.29    1.01
   1  -2   1   20.63    1.24
   1  -2   1   20.25    1.37
   1  -2   1   21.16    0.93
   1  -2   1   20.58    1.04
   1  -2   1   20.07    1.06
   1  -2   1   21.08    1.08
   1  -2   1   20.95    1.18
  -2   2  -1    8.44    0.86
  -2   2  -1    8.59    1.28
  -2   2  -1    9.11    0.83
  -2   2  -1   10.14    1.10
  -2   2  -1    9.66    0.83
   2  -2   1    9.05    1.03
   2  -2   1    9.97    0.91
   2  -2   1    8.41    0.80
   2  -2   1    9.08    1.04
   2  -2   1    9.06    0.85
  -3   2  -1    5.34    0.90
  -3   2  -1    5.60    0.72
  -3   2  -1    4.67    1.16
  -3   2  -1    6.24    1.31
  -3   2  -1    6.01    0.79
   3  -2   1    4.38    1.04
   3  -2   1    5.85    0.78
   3  -2   1    5.02    0.67
   3  -2   1    4.94    0.96
  -4   2  -1   14.05    1.89
  -4   2  -1   14.72    1.48
  -4   2  -1   14.77    1.58
  -4   2  -1   12.27    1.09
  -4   2  -1   14.69    1.06
   4  -2   1   12.54    0.96
   4  -2   1   12.85    1.00
   4  -2   1   12.98    1.53
   4  -2   1   13.85    1.61
  -5   2  -1   -0.38    1.34
  -5   2  -1    2.08    0.89
  -5   2  -1    0.50    0.64
  -5   2  -1    1.55    1.49
  -5   2  -1    1.62    1.14
   5  -2   1    2.46    1.34
   5  -2   1    0.71    0.65
   5  -2   1    1.85    0.58
   5  -2   1    0.19    0.96
  -6   2  -1   -1.53    0.90
  -6   2  -1   -2.85    1.46
  -6   2  -1   -0.01    1.64
   6  -2   1    2.20    1.57
   6  -2   1   -2.64    1.43
   6  -2   1   -5.25    1.45
  -7   2  -1    0.39    1.98
  -7   2  -1   -0.42    1.98
   7  -2   1   -0.13    1.78
   7  -2   1    2.37    1.88
   7  -2   1    1.35    1.46
  -8   2  -1   -0.18    2.02
  -8   2  -1    1.46    2.22
   8  -2   1   -4.08    1.95
   8  -2   1   -0.03    2.19
   8  -2   1    0.68    2.01
  -9   2  -1    1.15    2.60
  -9   2  -1   -0.35    2.57
   9  -2   1   -0.98    2.21
   9  -2   1    0.79    2.60
   9  -2   1   -0.35    2.46
   9   1  -1    1.71    2.67
   9   1  -1    2.76    2.45
  -9  -1   1    2.46    2.11
  -9  -1   1   -0.41    2.28
   8   1  -1    3.99    2.46
   8   1  -1    3.25    1.50
   8   1  -1    3.40    2.12
  -8  -1   1    1.51    2.05
  -8  -1   1    3.37    1.95
   7   1  -1    1.37    1.43
   7   1  -1    1.17    1.89
   7   1  -1    0.94    1.65
  -7  -1   1    2.39    2.10
  -7  -1   1    0.07    1.74
  -7  -1   1    2.93    1.22
   6   1  -1   22.94    1.77
   6   1  -1   19.08    2.27
   6   1  -1   21.29    2.74
  -6  -1   1   19.37    2.08
  -6  -1   1   25.16    1.83
  -6  -1   1   22.15    2.67
   5   1  -1   18.25    2.12
   5   1  -1   19.33    1.50
   5   1  -1   17.90    1.88
  -5  -1   1   19.40    1.97
  -5  -1   1   16.85    1.53
  -5  -1   1   19.83    2.39
   4   1  -1   24.07    1.40
   4   1  -1   27.36    2.05
   4   1  -1   26.42    1.78
  -4  -1   1   27.13    1.58
  -4  -1   1   25.55    1.82
  -4  -1   1   24.70    2.10
   3   1  -1    1.41    0.57
   3   1  -1    1.93    0.26
   3   1  -1    2.32    0.25
   3   1  -1    2.14    0.28
   3   1  -1    1.66    0.83
   3   1  -1    1.03    0.94
  -3  -1   1    1.57    1.14
  -3  -1   1    1.50    0.69
  -3  -1   1    1.03    0.52
  -3  -1   1    2.41    0.98
   2   1  -1  126.42    3.50
   2   1  -1  128.91    4.16
   2   1  -1  125.42    3.87
   2   1  -1  125.21    3.59
   2   1  -1  124.81    3.80
   2   1  -1  129.16    3.52
  -2  -1   1  122.92    3.84
  -2  -1   1  120.84    3.57
  -2  -1   1  119.38    3.52
  -2  -1   1  125.75    3.91
  -2  -1   1  123.27    3.82
  -2  -1   1  120.64    3.50
  -2  -1   1  122.91    4.18
   1   1  -1  116.72    3.61
   1   1  -1  117.99    3.35
   1   1  -1  124.00    3.47
   1   1  -1  120.30    3.50
   1   1  -1  121.97    3.61
   1   1  -1  122.90    3.77
   1   1  -1  121.44    3.44
   1   1  -1  118.24    3.81
  -1  -1   1  119.02    3.61
  -1  -1   1  117.33    3.60
  -1  -1   1  121.49    3.73
  -1  -1   1  124.20    3.48
  -1  -1   1  120.32    3.80
  -1  -1   1  121.76    3.45
  -1  -1   1  121.73    3.35
   0   1  -1    8.14    0.61
   0   1  -1    9.38    0.84
   0   1  -1    8.95    0.50
   0   1  -1    8.69    0.52
   0   1  -1    8.80    0.51
   0   1  -1    8.79    0.70
   0   1  -1    8.57    0.50
   0   1  -1    9.13    0.51
   0  -1   1    8.65    0.54
   0  -1   1    8.66    0.69
   0  -1   1    8.45    0.60
   0  -1   1    8.82    0.58
   0  -1   1    8.87    0.53
  -1   1  -1    8.18    0.60
  -1   1  -1    8.19    0.75
  -1   1  -1    6.77    0.53
  -1   1  -1    8.51    0.76
  -1   1  -1    7.64    0.64
  -1   1  -1    8.20    0.73
  -1   1  -1    7.27    0.57
  -1   1  -1    7.50    0.76
   1  -1   1    6.25    0.54
   1  -1   1    7.58    0.91
   1  -1   1    8.57    0.59
   1  -1   1    9.04    0.79
   1  -1   1    6.28    0.65
   1  -1   1    6.28    0.51
   1  -1   1    7.53    0.72
   1  -1   1    6.65    0.60
  -2   1  -1   25.74    1.51
  -2   1  -1   21.51    1.16
  -2   1  -1   25.47    1.06
  -2   1  -1   25.20    1.26
  -2   1  -1   26.12    1.29
  -2   1  -1   25.99    1.04
  -2   1  -1   24.73    0.97
   2  -1   1   23.90    1.01
   2  -1   1   24.83    1.20
   2  -1   1   22.73    1.20
   2  -1   1   23.86    1.04
   2  -1   1   25.18    1.25
  -3   1  -1   46.15    2.45
  -3   1  -1   47.02    1.68
  -3   1  -1   46.96    2.15
  -3   1  -1   48.42    1.67
  -3   1  -1   45.60    2.20
  -3   1  -1   45.83    1.69
   3  -1   1   44.00    1.61
   3  -1   1   43.00    1.63
   3  -1   1   46.38    1.63
   3  -1   1   49.10    2.13
   3  -1   1   48.19    2.17
  -4   1  -1    2.62    0.85
  -4   1  -1    2.89    1.00
  -4   1  -1    3.28    1.25
  -4   1  -1    2.85    0.65
  -4   1  -1    1.74    0.46
   4  -1   1    2.57    0.51
   4  -1   1    4.21    1.06
   4  -1   1    2.85    0.49
   4  -1   1    2.09    0.82
  -5   1  -1    9.86    1.00
  -5   1  -1   11.09    0.79
  -5   1  -1   10.56    1.65
  -5   1  -1   10.50    1.65
  -5   1  -1   11.04    1.92
   5  -1   1   11.21    1.53
   5  -1   1   10.85    0.79
   5  -1   1   10.49    1.61
   5  -1   1   11.43    0.81
  -6   1  -1    1.11    1.55
  -6   1  -1    0.36    1.70
  -6   1  -1    1.88    1.47
  -6   1  -1    2.65    0.88
   6  -1   1    3.26    1.58
   6  -1   1    1.97    0.39
   6  -1   1    3.97    1.49
  -7   1  -1    4.91    1.90
  -7   1  -1    2.69    1.61
   7  -1   1    4.80    1.85
   7  -1   1    8.49    2.28
   7  -1   1    2.60    1.83
  -8   1  -1   -2.15    1.94
  -8   1  -1    1.62    2.27
   8  -1   1    0.38    1.85
   8  -1   1    0.47    1.96
   8  -1   1    2.46    2.21
  -9   1  -1    5.28    2.83
  -9   1  -1    4.49    2.60
   9  -1   1    5.27    3.25
   9  -1   1    6.60    2.76
   9  -1   1    8.12    2.72
   9   0  -1    9.51    2.50
   9   0  -1    9.94    3.15
  -9   0   1    3.17    2.58
  -9   0   1    9.54    3.18
   8   0  -1   12.27    2.64
   8   0  -1   12.21    2.96
   8   0  -1   13.74    2.23
  -8   0   1    9.37    2.75
  -8   0   1    9.39    2.51
   7   0  -1    3.28    1.45
   7   0  -1    3.34    1.67
   7   0  -1    2.24    1.77
  -7   0   1    0.81    1.49
  -7   0   1   -1.44    1.75
  -7   0   1    3.83    1.75
   6   0  -1   -0.53    1.49
   6   0  -1    2.25    1.23
   6   0  -1   -0.25    1.10
  -6   0   1   -0.68    1.41
  -6   0   1    1.14    1.70
  -6   0   1   -0.46    1.05
   5   0  -1   16.49    1.76
   5   0  -1   19.56    2.20
   5   0  -1   17.30    1.61
  -5   0   1   15.63    1.84
  -5   0   1   15.06    1.48
  -5   0   1   15.64    2.19
   4   0  -1  147.80    5.48
   4   0  -1  158.06    5.34
   4   0  -1  159.18    4.97
  -4   0   1  157.52    5.65
  -4   0   1  159.17    5.33
   3   0  -1    0.25    0.69
   3   0  -1    0.83    0.90
   3   0  -1    0.15    0.65
  -3   0   1   -0.46    0.86
  -3   0   1    0.85    0.76
  -3   0   1   -0.12    0.97
   2   0  -1   39.27    1.57
   2   0  -1   43.54    2.07
   2   0  -1   42.60    1.78
   2   0  -1   41.32    1.84
   2   0  -1   34.49    1.73
   2   0  -1   41.25    1.49
  -2   0   1   43.00    1.86
  -2   0   1   44.98    1.74
  -2   0   1   45.60    1.53
  -2   0   1   41.69    1.90
  -2   0   1   43.05    1.62
   1   0  -1   43.11    1.28
   1   0  -1   43.91    1.27
   1   0  -1   39.31    1.60
   1   0  -1   42.23    1.51
   1   0  -1   43.79    1.55
   1   0  -1   44.15    1.37
   1   0  -1   44.93    1.63
   1   0  -1   44.17    1.51
  -1   0   1   43.76    1.65
  -1   0   1   38.25    1.57
  -1   0   1   43.69    1.29
  -1   0   1   44.46    1.54
  -1   0   1   44.33    1.28
  -1   0   1   44.39    1.55
  -1   0   1   45.27    1.37
  -1   0   1   43.19    1.53
   0   0  -1  242.90    6.80
   0   0  -1  245.56    6.73
   0   0  -1  232.79    6.94
   0   0   1  257.36    6.69
   0   0   1  248.77    6.73
   0   0   1  237.19    6.66
   0   0   1  246.29    6.87
   0   0   1  242.95    6.70
  -1   0  -1    1.98    0.40
  -1   0  -1    3.00    0.58
  -1   0  -1    2.61    0.50
  -1   0  -1    3.32    0.39
  -1   0  -1    2.28    0.35
   1   0   1    2.32    0.34
   1   0   1    2.52    0.45
   1   0   1    2.78    0.39
   1   0   1    2.49    0.45
   1   0   1    2.37    0.33
   1   0   1    2.15    0.43
   1   0   1    2.90    0.36
  -2   0  -1  181.99    5.25
  -2   0  -1  179.80    5.23
  -2   0  -1  182.62    5.05
  -2   0  -1  177.37    4.92
  -2   0  -1  185.52    5.04
  -2   0  -1  175.00    5.29
  -2   0  -1  173.55    5.54
  -2   0  -1  182.43    5.48
   2   0   1  176.97    5.20
   2   0   1  181.44    5.31
   2   0   1  179.62    5.52
   2   0   1  180.38    5.26
   2   0   1  180.28    5.02
   2   0   1  183.79    5.05
   2   0   1  174.03    5.43
   2   0   1  175.84    4.91
  -3   0  -1   17.16    0.80
  -3   0  -1   17.21    1.44
  -3   0  -1   18.19    0.80
  -3   0  -1   17.37    1.55
  -3   0  -1   16.97    0.78
  -3   0  -1   16.70    1.20
   3   0   1   16.79    0.74
   3   0   1   16.80    0.80
   3   0   1   16.56    0.78
   3   0   1   17.19    1.15
   3   0   1   17.56    1.09
  -4   0  -1   98.15    2.85
  -4   0  -1   99.92    2.98
  -4   0  -1   95.71    3.87
  -4   0  -1   94.12    3.53
  -4   0  -1   96.85    2.86
  -4   0  -1   97.97    4.06
   4   0   1   96.60    2.83
   4   0   1   92.75    2.85
   4   0   1   95.13    3.46
   4   0   1   92.69    2.91
   4   0   1   95.78    3.64
  -5   0  -1   14.13    0.97
  -5   0  -1   10.15    1.47
  -5   0  -1   15.14    1.92
  -5   0  -1   12.64    0.64
  -5   0  -1   12.18    1.76
   5   0   1   12.80    1.46
   5   0   1   13.21    1.54
   5   0   1   12.92    0.65
   5   0   1   12.35    0.66
  -6   0  -1   48.65    3.21
  -6   0  -1   52.89    3.33
   6   0   1   48.67    2.78
   6   0   1   50.18    2.76
  -7   0  -1    0.83    1.68
  -7   0  -1    2.23    1.96
   7   0   1    2.30    1.71
   7   0   1    0.73    1.39
   7   0   1    1.97    1.50
  -8   0  -1    5.69    2.17
  -8   0  -1    3.27    2.31
   8   0   1    6.63    2.17
   8   0   1    8.13    2.29
   8   0   1    9.51    2.16
  -9   0  -1    1.55    2.66
  -9   0  -1    9.23    3.09
   9   0   1    8.77    2.34
   9   0   1    4.81    2.38
   9   0   1    6.96    2.60
   9  -1  -1   -0.53    2.57
   9  -1  -1   -0.80    2.37
  -9   1   1   -1.35    2.49
  -9   1   1    1.49    2.72
   8  -1  -1    4.61    2.43
   8  -1  -1    5.50    2.52
   8  -1  -1    5.97    2.15
  -8   1   1    2.33    2.34
  -8   1   1    4.07    2.04
   7  -1  -1   41.89    3.50
   7  -1  -1   43.32    3.33
   7  -1  -1   49.84    3.08
   6  -1  -1   -1.28    1.46
   6  -1  -1   -0.57    1.42
   6  -1  -1   -1.59    1.45
  -6   1   1   -0.80    1.50
  -6   1   1    0.62    1.20
  -6   1   1   -0.78    1.57
   5  -1  -1   15.37    2.04
   5  -1  -1   12.47    1.86
   5  -1  -1   14.09    1.59
  -5   1   1   13.74    2.09
  -5   1   1   10.72    1.32
  -5   1   1   12.49    1.84
   4  -1  -1   47.05    2.53
   4  -1  -1   45.58    2.19
   4  -1  -1   49.26    2.57
  -4   1   1   43.21    1.30
  -4   1   1   49.63    2.15
  -4   1   1   44.18    2.63
  -4   1   1   47.34    2.45
  -4   1   1   44.09    1.28
   3  -1  -1  113.70    4.21
   3  -1  -1  114.58    4.21
   3  -1  -1  115.51    3.87
  -3   1   1  116.73    3.26
  -3   1   1  114.00    3.28
  -3   1   1  120.38    4.32
  -3   1   1  112.38    3.30
  -3   1   1  116.43    3.83
  -3   1   1  116.58    4.10
   2  -1  -1   21.22    1.07
   2  -1  -1   20.48    0.81
   2  -1  -1   21.12    1.40
   2  -1  -1   20.46    1.28
   2  -1  -1   21.43    1.18
  -2   1   1   22.02    1.29
  -2   1   1   20.44    0.80
  -2   1   1   21.21    1.13
  -2   1   1   21.13    1.33
  -2   1   1   20.26    0.78
  -2   1   1   21.18    0.80
   1  -1  -1   61.62    2.07
   1  -1  -1   59.87    2.04
   1  -1  -1   59.43    1.86
   1  -1  -1   61.03    2.11
   1  -1  -1   64.58    2.25
   1  -1  -1   60.33    2.04
  -1   1   1   59.46    2.06
  -1   1   1   61.50    2.18
  -1   1   1   61.89    2.07
  -1   1   1   61.03    2.07
  -1   1   1   59.57    1.83
  -1   1   1   61.12    2.07
  -1   1   1   60.93    1.86
  -1   1   1   60.62    1.83
  -1   1   1   63.60    2.12
   0  -1  -1   75.73    2.21
   0  -1  -1   72.98    2.16
   0  -1  -1   70.83    2.24
   0  -1  -1   69.37    2.34
   0  -1  -1   74.62    2.42
   0  -1  -1   75.63    2.27
   0   1   1   75.58    2.19
   0   1   1   74.52    2.28
   0   1   1   74.39    2.20
   0   1   1   73.64    2.38
   0   1   1   70.81    2.17
   0   1   1   72.82    2.34
   0   1   1   71.47    2.23
  -1  -1  -1   58.53    1.89
  -1  -1  -1   58.50    1.70
  -1  -1  -1   58.91    1.77
  -1  -1  -1   57.66    1.87
  -1  -1  -1   57.27    1.83
  -1  -1  -1   58.44    1.97
  -1  -1  -1   57.33    1.78
   1   1   1   58.20    1.86
   1   1   1   58.87    1.71
   1   1   1   56.52    1.84
   1   1   1   56.52    1.76
   1   1   1   55.84    1.78
   1   1   1   57.30    1.76
   1   1   1   56.62    1.91
   1   1   1   56.17    1.75
   1   1   1   57.32    1.87
  -2  -1  -1    6.29    0.50
  -2  -1  -1    8.76    0.74
  -2  -1  -1    6.39    0.66
  -2  -1  -1    5.81    0.66
  -2  -1  -1    6.40    0.78
  -2  -1  -1    6.22    0.45
  -2  -1  -1    7.17    0.94
  -2  -1  -1    6.26    0.51
   2   1   1    7.74    0.67
   2   1   1    5.81    0.43
   2   1   1    5.74    0.47
   2   1   1    5.88    0.78
   2   1   1    7.34    0.87
   2   1   1    6.12    0.70
   2   1   1    6.99    0.62
   2   1   1    6.52    0.50
  -3  -1  -1   53.82    1.72
  -3  -1  -1   52.91    2.07
  -3  -1  -1   55.42    2.47
  -3  -1  -1   54.39    2.51
  -3  -1  -1   51.93    1.71
   3   1   1   51.20    1.72
   3   1   1   56.18    1.76
   3   1   1   56.79    1.74
   3   1   1   53.19    2.20
   3   1   1   53.39    2.06
  -4  -1  -1    1.17    1.00
  -4  -1  -1    1.08    0.38
  -4  -1  -1    2.44    0.51
  -4  -1  -1    0.12    1.11
  -4  -1  -1    0.07    0.84
   4   1   1    0.37    0.37
   4   1   1    0.21    0.39
   4   1   1    0.63    0.39
   4   1   1    0.58    0.73
   4   1   1    1.06    0.35
   4   1   1    0.81    0.84
  -5  -1  -1   10.32    0.85
  -5  -1  -1   11.76    1.73
  -5  -1  -1   10.25    1.43
  -5  -1  -1   11.71    1.58
   5   1   1    7.75    1.34
   5   1   1   11.03    0.65
   5   1   1   10.41    0.66
   5   1   1    9.97    1.30
  -6  -1  -1   22.21    2.49
  -6  -1  -1   18.70    2.03
  -6  -1  -1   18.59    2.55
  -6  -1  -1   18.66    1.18
   6   1   1   22.62    1.94
   6   1   1   17.69    1.90
  -7  -1  -1   12.80    2.27
  -7  -1  -1   12.01    2.24
   7   1   1   13.60    2.15
   7   1   1   13.59    2.51
   7   1   1   15.86    1.96
  -8  -1  -1   -1.36    2.06
  -8  -1  -1    0.32    1.82
   8   1   1   -1.74    1.46
   8   1   1    3.21    2.02
   8   1   1   -1.97    2.05
  -9  -1  -1    0.19    1.87
  -9  -1  -1   -2.08    2.02
   9   1   1   -3.79    2.53
   9   1   1   -0.42    2.21
   9   1   1   -0.38    1.75
 -10  -1  -1    2.29    2.53
 -10  -1  -1   -0.11    2.80
  10   1   1    2.40    2.58
  10   1   1    1.27    3.17
   9  -2  -1    0.63    2.34
   9  -2  -1   -1.35    2.87
  -9   2   1   -1.12    2.74
  -9   2   1   -0.34    2.63
   8  -2  -1   -1.05    1.87
   8  -2  -1    0.23    2.44
   8  -2  -1   -3.44    2.03
  -8   2   1    2.30    2.59
  -8   2   1    2.10    2.48
   7  -2  -1   10.49    2.42
   7  -2  -1   13.01    2.41
   7  -2  -1   10.46    2.58
  -7   2   1    4.48    1.77
  -7   2   1    7.61    2.35
   6  -2  -1    4.80    1.62
   6  -2  -1    7.68    2.02
   6  -2  -1    4.14    1.62
  -6   2   1    4.19    1.58
  -6   2   1    4.10    1.54
  -6   2   1    2.41    1.39
   5  -2  -1    1.65    1.49
   5  -2  -1   -0.22    1.23
   5  -2  -1    0.61    1.27
  -5   2   1    1.09    0.46
  -5   2   1    2.66    1.27
  -5   2   1    0.88    1.17
  -5   2   1    1.81    1.46
  -5   2   1    2.74    0.65
  -5   2   1    1.24    0.34
   4  -2  -1    3.73    1.39
   4  -2  -1    3.36    0.53
   4  -2  -1    5.03    1.21
   4  -2  -1    4.64    1.32
  -4   2   1    4.00    0.49
  -4   2   1    4.23    1.27
  -4   2   1    4.90    1.08
  -4   2   1    2.55    0.52
  -4   2   1    4.21    1.32
   3  -2  -1    5.40    1.08
   3  -2  -1    5.70    1.12
   3  -2  -1    5.35    0.61
   3  -2  -1    7.29    1.41
  -3   2   1    6.53    1.23
  -3   2   1    5.14    0.61
  -3   2   1    5.47    0.93
  -3   2   1    4.62    1.19
   2  -2  -1   20.91    1.71
   2  -2  -1   20.16    1.02
   2  -2  -1   20.52    1.30
   2  -2  -1   19.22    1.29
   2  -2  -1   21.14    1.04
   2  -2  -1   20.99    1.30
  -2   2   1   19.96    1.01
  -2   2   1   23.23    1.42
  -2   2   1   22.34    1.51
  -2   2   1   19.43    1.03
  -2   2   1   23.15    1.33
   1  -2  -1    1.33    0.45
   1  -2  -1    0.58    0.38
   1  -2  -1    0.57    0.63
   1  -2  -1    0.86    0.50
   1  -2  -1    1.04    0.36
   1  -2  -1    0.85    0.48
   1  -2  -1    1.08    0.44
  -1   2   1    0.78    0.64
  -1   2   1    1.09    0.54
  -1   2   1    1.07    0.34
  -1   2   1    1.74    0.49
  -1   2   1    1.05    0.53
  -1   2   1    1.36    0.61
   0  -2  -1    7.28    0.57
   0  -2  -1    7.50    0.69
   0  -2  -1    8.23    0.98
   0  -2  -1    9.67    0.87
   0  -2  -1    7.77    0.65
   0  -2  -1    7.38    0.64
   0  -2  -1    8.49    0.66
   0  -2  -1    8.28    0.72
   0   2   1    9.35    0.95
   0   2   1    7.08    0.55
   0   2   1    8.39    0.74
   0   2   1    7.73    0.57
   0   2   1    6.82    0.59
   0   2   1    7.77    0.54
   0   2   1   10.53    0.85
   0   2   1    8.39    0.79
  -1  -2  -1    1.99    0.55
  -1  -2  -1    1.78    0.48
  -1  -2  -1    1.11    0.48
  -1  -2  -1    1.51    0.44
  -1  -2  -1    1.56    0.52
   1   2   1    1.75    0.48
   1   2   1    2.07    0.45
   1   2   1    2.11    0.39
   1   2   1    1.39    0.41
   1   2   1    1.61    0.45
   1   2   1    1.71    0.41
   1   2   1    1.73    0.51
   1   2   1    0.42    0.42
   1   2   1    1.68    0.42
   1   2   1    2.10    0.46
   1   2   1    1.38    0.38
  -2  -2  -1   -0.28    0.36
  -2  -2  -1    0.36    0.56
  -2  -2  -1   -0.94    0.53
  -2  -2  -1    0.36    0.52
  -2  -2  -1    0.28    0.39
  -2  -2  -1   -0.49    0.47
  -2  -2  -1    0.23    0.49
   2   2   1   -0.09    0.41
   2   2   1   -0.11    0.44
   2   2   1    0.37    0.43
   2   2   1   -0.06    0.30
   2   2   1    0.11    0.34
   2   2   1   -0.34    0.31
   2   2   1   -0.17    0.38
   2   2   1   -0.49    0.31
   2   2   1   -0.43    0.31
  -3  -2  -1   11.15    1.44
  -3  -2  -1    9.75    0.79
  -3  -2  -1   13.21    1.11
  -3  -2  -1   10.74    1.22
   3   2   1   10.03    0.79
   3   2   1   10.29    1.13
   3   2   1   11.91    1.01
   3   2   1    9.85    0.77
   3   2   1   10.72    0.76
   3   2   1   11.03    0.69
   3   2   1    9.46    0.73
  -4  -2  -1   28.26    1.26
  -4  -2  -1   28.69    1.64
  -4  -2  -1   25.94    2.01
  -4  -2  -1   26.17    1.87
   4   2   1   24.87    1.17
   4   2   1   25.34    1.69
   4   2   1   27.69    1.14
   4   2   1   25.35    1.49
   4   2   1   27.04    1.14
  -5  -2  -1    5.23    0.77
  -5  -2  -1    4.45    1.26
  -5  -2  -1    5.70    1.61
  -5  -2  -1    5.82    1.27
   5   2   1    4.84    0.53
   5   2   1    4.86    0.60
   5   2   1    3.85    0.53
   5   2   1    4.72    1.17
   5   2   1    5.67    1.12
  -6  -2  -1   12.14    1.75
  -6  -2  -1   15.38    1.17
  -6  -2  -1   12.13    1.88
  -6  -2  -1   12.89    2.30
   6   2   1   13.76    0.81
   6   2   1   13.69    1.84
   6   2   1   14.01    1.68
   6   2   1   14.47    0.80
   6   2   1   13.19    0.76
  -7  -2  -1    1.20    1.53
  -7  -2  -1    0.95    1.95
  -7  -2  -1    3.71    1.52
   7   2   1    2.25    1.50
   7   2   1    3.98    1.46
   7   2   1    3.13    1.79
  -8  -2  -1    3.25    2.37
  -8  -2  -1    4.91    1.95
   8   2   1    4.41    1.92
   8   2   1    2.43    1.93
   8   2   1    4.16    1.83
  -9  -2  -1   -1.49    2.18
  -9  -2  -1   -1.11    2.35
   9   2   1   -1.24    1.84
   9   2   1   -0.69    1.84
   9   2   1    1.09    2.15
 -10  -2  -1    0.54    2.62
 -10  -2  -1    0.35    2.27
  10   2   1    2.48    3.17
  10   2   1    4.48    2.66
   8  -3  -1   -0.11    2.15
   8  -3  -1   -3.48    2.63
   8  -3  -1   -1.70    1.91
  -8   3   1   -2.80    2.36
  -8   3   1    1.66    2.26
   7  -3  -1    4.02    2.09
   7  -3  -1    5.66    2.05
   7  -3  -1    1.98    2.44
  -7   3   1    1.69    2.26
  -7   3   1   -0.82    1.87
   6  -3  -1    0.68    1.72
   6  -3  -1   -1.38    1.93
   6  -3  -1    1.85    1.59
  -6   3   1   -1.70    1.36
  -6   3   1   -0.89    1.68
  -6   3   1   -0.17    1.87
   5  -3  -1    1.16    1.51
   5  -3  -1   -0.04    1.22
   5  -3  -1    0.53    1.73
  -5   3   1   -1.31    0.98
  -5   3   1   -0.25    0.49
  -5   3   1   -0.18    1.39
  -5   3   1   -0.33    1.09
   4  -3  -1    2.95    1.12
   4  -3  -1    2.23    0.65
   4  -3  -1    1.78    1.28
   4  -3  -1    1.86    1.18
  -4   3   1    3.07    1.13
  -4   3   1    3.59    1.08
  -4   3   1    3.52    0.64
  -4   3   1    2.46    0.67
  -4   3   1    4.73    1.39
   3  -3  -1   10.85    1.68
   3  -3  -1    5.72    0.73
   3  -3  -1    9.96    1.23
   3  -3  -1    6.34    0.83
   3  -3  -1    7.31    1.13
  -3   3   1   10.65    1.47
  -3   3   1    8.36    0.83
  -3   3   1    7.73    1.10
  -3   3   1    9.05    1.39
   2  -3  -1   11.49    0.98
   2  -3  -1    9.86    1.03
   2  -3  -1   14.53    1.53
   2  -3  -1    9.35    1.55
   2  -3  -1   11.37    0.94
  -2   3   1   12.01    1.26
  -2   3   1   12.41    0.94
  -2   3   1   11.54    1.33
  -2   3   1   11.33    1.41
   1  -3  -1   13.99    1.29
   1  -3  -1   14.06    0.99
   1  -3  -1   15.38    1.09
   1  -3  -1   14.93    0.83
   1  -3  -1   16.85    1.47
   1  -3  -1   14.87    1.06
   1  -3  -1   15.63    1.58
  -1   3   1   14.26    1.00
  -1   3   1   15.47    1.09
  -1   3   1   16.26    1.12
  -1   3   1   15.61    1.41
   0  -3  -1   -0.28    0.52
   0  -3  -1    0.00    0.47
   0  -3  -1    0.56    0.25
   0  -3  -1    0.17    0.55
   0  -3  -1   -0.36    0.62
   0  -3  -1    0.50    0.71
   0   3   1    0.41    0.69
   0   3   1   -0.25    0.45
   0   3   1    1.63    0.65
   0   3   1    0.48    0.59
   0   3   1    0.23    0.31
   0   3   1    0.53    0.47
  -1  -3  -1   13.89    1.04
  -1  -3  -1   13.21    0.86
  -1  -3  -1   12.59    0.89
  -1  -3  -1   12.40    0.85
  -1  -3  -1   13.44    1.03
   1   3   1   13.91    0.80
   1   3   1   12.57    0.86
   1   3   1   12.07    0.87
   1   3   1   12.17    1.01
   1   3   1   13.47    0.98
   1   3   1   13.68    0.92
   1   3   1   12.79    0.92
  -2  -3  -1  134.09    4.30
  -2  -3  -1  137.15    4.24
  -2  -3  -1  137.40    4.32
  -2  -3  -1  134.62    4.42
  -2  -3  -1  134.98    4.28
  -2  -3  -1  139.32    4.45
  -2  -3  -1  137.99    4.24
   2   3   1  135.56    4.39
   2   3   1  137.82    4.18
   2   3   1  136.85    4.42
   2   3   1  142.49    4.17
  -3  -3  -1   78.40    3.19
  -3  -3  -1   72.42    2.73
  -3  -3  -1   73.98    2.88
  -3  -3  -1   73.46    2.76
  -3  -3  -1   78.47    2.70
  -3  -3  -1   76.66    3.18
  -3  -3  -1   77.50    2.64
   3   3   1   76.29    2.57
   3   3   1   75.69    2.55
  -4  -3  -1   -1.21    0.72
  -4  -3  -1    0.63    0.67
  -4  -3  -1   -0.24    0.95
  -4  -3  -1   -0.03    0.78
   4   3   1    0.76    0.49
   4   3   1   -0.06    0.53
   4   3   1   -0.73    0.66
   4   3   1   -0.46    0.75
   4   3   1   -0.17    0.45
  -5  -3  -1   -1.11    1.22
  -5  -3  -1    0.62    0.69
  -5  -3  -1    1.39    1.22
  -5  -3  -1    0.14    1.01
   5   3   1    0.33    0.93
   5   3   1   -0.21    0.78
   5   3   1    0.52    0.50
   5   3   1    0.62    0.50
   5   3   1   -0.72    0.56
  -6  -3  -1   35.34    2.57
  -6  -3  -1   31.05    2.89
  -6  -3  -1   29.57    2.80
  -6  -3  -1   31.65    1.71
   6   3   1   31.41    1.40
   6   3   1   29.20    2.33
   6   3   1   27.97    1.36
   6   3   1   29.93    2.04
  -7  -3  -1   21.88    2.40
  -7  -3  -1   31.10    3.26
  -7  -3  -1   29.44    2.00
   7   3   1   28.52    2.60
   7   3   1   30.56    2.28
   7   3   1   29.21    3.22
  -8  -3  -1   -0.42    1.77
  -8  -3  -1   -0.67    2.19
   8   3   1    1.10    1.50
   8   3   1    0.06    1.77
   8   3   1    0.89    1.51
  -9  -3  -1   -1.53    2.42
  -9  -3  -1    1.15    2.05
   9   3   1   -1.29    1.78
   9   3   1   -0.87    2.06
   9   3   1   -0.75    1.80
 -10  -3  -1   -0.92    2.47
 -10  -3  -1    5.63    3.14
  10   3   1    4.55    2.73
  10   3   1    8.17    3.41
   8  -4  -1    1.41    2.42
   8  -4  -1    0.16    3.09
  -8   4   1    4.74    2.65
  -8   4   1   -1.27    2.59
   7  -4  -1    4.22    2.33
   7  -4  -1    6.15    3.07
  -7   4   1    4.71    2.66
  -7   4   1    3.07    2.18
   6  -4  -1    6.00    2.60
   6  -4  -1    8.24    2.08
   6  -4  -1    8.66    2.25
  -6   4   1    7.05    1.80
  -6   4   1    5.89    2.12
  -6   4   1    2.02    1.74
   5  -4  -1    7.44    1.99
   5  -4  -1    8.45    1.65
   5  -4  -1    7.05    2.37
   5  -4  -1   10.60    1.29
  -5   4   1    8.87    1.80
  -5   4   1    8.36    1.92
  -5   4   1    6.46    1.46
   4  -4  -1   19.07    2.57
   4  -4  -1   16.05    2.11
   4  -4  -1   17.75    1.48
   4  -4  -1   21.75    2.06
  -4   4   1   20.47    1.83
  -4   4   1   20.70    2.31
  -4   4   1   21.29    2.09
  -4   4   1   18.18    1.32
  -4   4   1   22.63    1.49
   3  -4  -1   15.64    1.27
   3  -4  -1   14.32    1.93
   3  -4  -1   16.79    1.16
   3  -4  -1   13.79    1.35
   3  -4  -1   14.45    1.79
  -3   4   1   18.98    1.73
  -3   4   1   16.78    1.26
  -3   4   1   15.11    1.72
  -3   4   1   18.37    1.70
   2  -4  -1   11.93    1.52
   2  -4  -1   14.38    1.21
   2  -4  -1   12.55    1.80
   2  -4  -1   10.71    1.08
   2  -4  -1   13.73    1.21
  -2   4   1   13.63    1.58
  -2   4   1   13.27    1.44
  -2   4   1   12.69    1.24
   1  -4  -1   78.79    3.61
   1  -4  -1   81.43    2.46
   1  -4  -1   74.27    2.78
   1  -4  -1   71.58    3.04
   1  -4  -1   82.92    2.93
   1  -4  -1   74.40    2.32
  -1   4   1   76.93    3.06
  -1   4   1   79.85    3.14
  -1   4   1   82.56    2.98
  -1   4   1   80.43    2.81
   0  -4  -1  136.71    4.28
   0  -4  -1  140.26    4.55
   0  -4  -1  134.93    4.32
   0  -4  -1  130.92    3.68
   0  -4  -1  118.98    5.76
   0  -4  -1  127.06    4.76
   0   4   1  133.89    4.48
   0   4   1  136.54    4.41
   0   4   1  131.31    3.68
   0   4   1  135.10    4.27
   0   4   1  137.36    4.51
  -1  -4  -1    3.95    0.70
  -1  -4  -1    3.13    0.70
  -1  -4  -1    3.68    0.96
  -1  -4  -1    2.99    0.60
  -1  -4  -1    2.83    0.98
   1   4   1    3.35    0.87
   1   4   1    3.29    0.77
   1   4   1    2.22    0.91
   1   4   1    3.39    0.80
   1   4   1    4.40    0.58
   1   4   1    2.59    0.85
  -2  -4  -1   13.55    1.31
  -2  -4  -1   14.18    1.35
  -2  -4  -1   11.61    1.16
  -2  -4  -1   13.10    1.34
  -2  -4  -1   12.83    1.12
   2   4   1   13.15    1.27
   2   4   1   14.35    1.49
   2   4   1   13.46    1.18
   2   4   1   12.23    1.08
  -3  -4  -1  109.17    3.99
  -3  -4  -1  104.25    3.69
  -3  -4  -1   95.38    3.58
  -3  -4  -1  103.45    3.63
  -3  -4  -1  108.20    3.58
  -3  -4  -1  105.21    3.62
  -3  -4  -1  106.38    3.95
   3   4   1  101.41    3.44
   3   4   1  106.21    3.48
  -4  -4  -1  108.07    3.76
  -4  -4  -1  111.21    4.38
  -4  -4  -1  109.78    4.00
  -4  -4  -1  113.61    4.50
  -4  -4  -1  119.34    4.12
  -4  -4  -1  111.95    3.92
   4   4   1  116.45    3.70
   4   4   1  109.84    3.91
   4   4   1  114.37    3.69
  -5  -4  -1    0.79    1.25
  -5  -4  -1    0.97    1.42
  -5  -4  -1    1.41    0.94
  -5  -4  -1    0.71    1.08
   5   4   1    0.09    0.61
   5   4   1    1.64    0.64
   5   4   1   -0.45    0.85
   5   4   1    1.71    1.07
   5   4   1    1.21    0.81
  -6  -4  -1    5.90    1.18
  -6  -4  -1    5.61    2.05
  -6  -4  -1    5.01    1.49
  -6  -4  -1    6.01    1.58
   6   4   1    5.32    0.82
   6   4   1    4.78    0.79
   6   4   1    5.19    1.43
   6   4   1    4.14    0.93
   6   4   1    3.90    1.53
  -7  -4  -1   39.26    2.28
  -7  -4  -1   40.99    3.08
  -7  -4  -1   38.90    3.58
   7   4   1   34.88    2.92
   7   4   1   42.22    2.75
   7   4   1   38.22    3.38
  -8  -4  -1   26.24    3.38
   8   4   1   26.93    3.49
   8   4   1   30.30    2.65
   8   4   1   28.22    3.08
  -9  -4  -1   -1.27    2.41
  -9  -4  -1    0.69    1.94
   9   4   1    1.65    1.86
   9   4   1   -0.22    2.18
 -10  -4  -1   -0.74    2.09
 -10  -4  -1   -1.02    2.81
  10   4   1   -0.30    2.28
  10   4   1   -0.14    2.80
   7  -5  -1    4.54    2.76
   7  -5  -1    8.04    3.42
  -7   5   1    8.96    2.89
  -7   5   1    8.25    2.60
   6  -5  -1    2.46    2.18
   6  -5  -1    5.90    2.82
  -6   5   1    2.49    1.94
  -6   5   1    2.27    2.31
  -6   5   1   -0.43    1.60
   5  -5  -1    9.95    2.79
   5  -5  -1    9.99    2.26
  -5   5   1    9.76    2.31
  -5   5   1    7.82    1.67
  -5   5   1    9.82    2.10
   4  -5  -1   16.44    1.81
   4  -5  -1   23.52    1.84
   4  -5  -1   19.74    2.21
   4  -5  -1   18.23    2.87
  -4   5   1   19.13    1.53
  -4   5   1   21.13    2.24
  -4   5   1   19.45    2.27
  -4   5   1   13.07    2.25
   3  -5  -1   56.98    3.70
   3  -5  -1   57.32    3.03
   3  -5  -1   64.83    2.63
   3  -5  -1   57.54    2.76
  -3   5   1   60.58    3.01
  -3   5   1   57.28    3.20
  -3   5   1   63.62    3.17
   2  -5  -1    5.04    0.82
   2  -5  -1    6.18    0.98
   2  -5  -1    4.74    1.18
   2  -5  -1    5.42    1.74
   2  -5  -1    6.17    1.12
  -2   5   1    6.25    1.30
  -2   5   1    5.20    0.93
  -2   5   1    6.25    1.24
  -2   5   1    5.06    1.35
   1  -5  -1    1.96    1.10
   1  -5  -1    1.51    1.41
   1  -5  -1    1.04    0.74
   1  -5  -1    0.70    0.64
  -1   5   1   -0.01    1.00
  -1   5   1    1.54    0.73
  -1   5   1    1.56    0.78
  -1   5   1    2.58    0.82
   0  -5  -1   51.90    2.23
   0  -5  -1   54.04    2.67
   0  -5  -1   55.16    2.35
   0  -5  -1   56.45    2.76
   0   5   1   53.98    2.46
   0   5   1   54.85    2.42
   0   5   1   54.43    2.54
   0   5   1   57.51    2.26
  -1  -5  -1  135.28    4.55
  -1  -5  -1  139.58    4.46
  -1  -5  -1  136.15    4.70
  -1  -5  -1  141.26    4.64
   1   5   1  137.32    4.64
   1   5   1  135.88    4.72
   1   5   1  130.86    4.06
   1   5   1  131.71    4.65
   1   5   1  133.55    4.46
  -2  -5  -1    4.30    0.97
  -2  -5  -1    2.92    0.83
  -2  -5  -1    4.76    1.07
  -2  -5  -1    3.73    0.82
  -2  -5  -1    3.72    0.86
   2   5   1    4.25    1.04
   2   5   1    4.46    0.84
   2   5   1    4.22    1.01
   2   5   1    4.37    1.03
  -3  -5  -1    0.42    0.82
  -3  -5  -1    1.24    0.88
  -3  -5  -1    0.91    0.94
  -3  -5  -1    0.26    0.77
  -3  -5  -1    0.48    0.74
   3   5   1    0.92    0.73
   3   5   1    0.38    0.93
   3   5   1    0.35    0.63
   3   5   1    0.78    0.99
  -4  -5  -1   64.39    3.31
  -4  -5  -1   66.09    2.89
  -4  -5  -1   69.60    2.78
  -4  -5  -1   67.81    2.87
  -4  -5  -1   70.68    3.34
  -4  -5  -1   64.99    2.87
  -4  -5  -1   72.37    3.00
   4   5   1   67.29    2.72
   4   5   1   67.30    2.64
  -5  -5  -1   33.12    2.02
  -5  -5  -1   31.41    2.36
  -5  -5  -1   29.77    2.64
  -5  -5  -1   29.30    2.67
   5   5   1   33.06    1.79
   5   5   1   31.74    2.22
   5   5   1   30.88    1.78
   5   5   1   33.37    1.91
   5   5   1   30.67    2.19
  -6  -5  -1    4.04    1.33
  -6  -5  -1    2.47    1.42
  -6  -5  -1    1.92    1.35
  -6  -5  -1    4.31    2.07
   6   5   1    0.15    1.33
   6   5   1    1.48    1.43
   6   5   1    1.53    0.79
   6   5   1    3.89    1.53
   6   5   1    1.87    1.03
  -7  -5  -1    2.40    1.24
  -7  -5  -1    0.85    1.60
  -7  -5  -1    0.55    2.12
   7   5   1    1.25    1.68
   7   5   1    0.37    1.28
   7   5   1    0.39    1.18
  -8  -5  -1    8.83    2.82
  -8  -5  -1    7.32    2.01
   8   5   1   11.08    2.38
   8   5   1    9.89    2.23
   8   5   1    9.29    1.97
  -9  -5  -1    1.53    1.95
  -9  -5  -1    2.59    2.62
   9   5   1    3.41    2.31
   9   5   1    3.63    2.55
  10   5   1    2.90    2.59
   7  -6  -1    6.12    2.67
   7  -6  -1    3.11    3.54
  -7   6   1    1.31    2.85
   6  -6  -1    3.52    2.44
   6  -6  -1    3.12    3.16
  -6   6   1    2.49    2.14
  -6   6   1    2.71    2.50
   5  -6  -1    1.03    2.05
   5  -6  -1   -1.62    2.44
  -5   6   1    0.60    1.60
  -5   6   1   -0.77    1.99
  -5   6   1    0.74    1.77
   4  -6  -1    1.31    1.85
   4  -6  -1    3.97    2.43
   4  -6  -1    0.69    1.13
  -4   6   1    0.53    0.95
  -4   6   1    1.68    1.40
  -4   6   1    1.53    1.30
  -4   6   1    1.35    1.80
   3  -6  -1    9.48    1.26
   3  -6  -1   13.09    2.63
   3  -6  -1    7.93    1.48
   3  -6  -1    6.67    1.84
  -3   6   1    6.56    1.58
  -3   6   1    8.06    1.71
  -3   6   1    6.87    1.51
   2  -6  -1   17.42    2.66
   2  -6  -1   12.71    1.61
   2  -6  -1   10.82    1.72
   2  -6  -1   13.29    1.45
  -2   6   1   15.56    1.94
  -2   6   1   14.57    1.56
  -2   6   1   13.44    1.85
   1  -6  -1   10.73    2.22
   1  -6  -1   17.28    1.58
   1  -6  -1   19.18    1.81
   1  -6  -1   17.28    2.04
  -1   6   1   18.83    1.60
  -1   6   1   15.60    1.98
  -1   6   1   19.64    1.91
   0  -6  -1    3.19    1.31
   0  -6  -1    2.77    1.28
   0  -6  -1    3.26    0.99
   0  -6  -1    4.16    1.13
   0   6   1    3.98    1.21
   0   6   1    0.28    0.96
   0   6   1    2.28    1.15
  -1  -6  -1   13.75    1.55
  -1  -6  -1   14.14    1.44
  -1  -6  -1   14.26    1.59
  -1  -6  -1   15.57    1.70
   1   6   1   15.97    1.77
   1   6   1   16.02    1.74
   1   6   1   12.32    1.65
   1   6   1   14.02    0.78
  -2  -6  -1   21.46    1.74
  -2  -6  -1   20.14    1.61
  -2  -6  -1   21.53    1.94
  -2  -6  -1   21.29    1.54
   2   6   1   19.56    1.77
   2   6   1   21.84    1.31
   2   6   1   21.32    1.92
   2   6   1   19.73    1.86
  -3  -6  -1   26.16    1.85
  -3  -6  -1   24.60    1.70
  -3  -6  -1   22.16    1.87
   3   6   1   23.24    1.79
   3   6   1   24.40    1.90
   3   6   1   25.82    2.00
   3   6   1   24.58    1.75
  -4  -6  -1   22.08    2.06
  -4  -6  -1   21.18    1.76
  -4  -6  -1   20.84    1.89
  -4  -6  -1   20.08    1.76
   4   6   1   18.62    1.81
   4   6   1   21.86    1.75
   4   6   1   22.15    2.09
   4   6   1   21.40    2.36
  -5  -6  -1    1.94    1.60
  -5  -6  -1    5.29    1.49
  -5  -6  -1    3.23    1.26
  -5  -6  -1    2.29    1.23
   5   6   1    2.27    1.07
   5   6   1    2.86    1.34
   5   6   1    1.67    1.29
   5   6   1    2.30    1.32
  -6  -6  -1    5.81    1.83
  -6  -6  -1    9.08    2.32
  -6  -6  -1    8.57    1.73
   6   6   1   11.95    1.74
   6   6   1   10.65    2.08
   6   6   1   10.16    1.32
   6   6   1   10.85    1.86
   6   6   1    8.33    1.57
  -7  -6  -1    8.44    2.17
  -7  -6  -1    5.62    2.05
  -7  -6  -1    7.51    1.66
   7   6   1    6.89    1.69
   7   6   1    6.67    2.09
   7   6   1    6.56    1.97
   7   6   1    7.25    1.82
  -8  -6  -1    4.63    2.73
  -8  -6  -1    4.78    1.90
   8   6   1    6.57    2.21
   8   6   1    7.73    2.41
   8   6   1    7.35    1.90
  -9  -6  -1   -2.07    2.58
  -9  -6  -1   -0.08    2.12
   9   6   1   -1.25    2.30
   9   6   1    0.13    2.18
   6  -7  -1    0.92    2.55
   6  -7  -1   -1.63    3.00
  -6   7   1    0.78    2.44
   5  -7  -1    4.78    3.03
   5  -7  -1   -2.15    2.17
  -5   7   1    1.89    2.33
  -5   7   1    0.18    1.45
   4  -7  -1   16.47    2.80
   4  -7  -1   15.76    1.96
   4  -7  -1   11.94    2.96
  -4   7   1   13.54    2.47
  -4   7   1   12.03    1.99
  -4   7   1   13.90    2.38
  -4   7   1   13.29    1.66
   3  -7  -1   10.97    1.80
   3  -7  -1    7.63    1.36
   3  -7  -1    3.83    1.99
   3  -7  -1    5.38    2.47
  -3   7   1    9.35    1.42
  -3   7   1    9.39    1.64
  -3   7   1    7.73    2.11
  -3   7   1    6.23    1.70
   2  -7  -1    0.67    1.34
   2  -7  -1   -0.20    0.92
   2  -7  -1    0.45    1.59
   2  -7  -1   -1.52    1.93
  -2   7   1   -0.48    1.20
  -2   7   1    2.12    1.14
  -2   7   1    0.27    1.32
   1  -7  -1    0.64    1.11
   1  -7  -1   -0.85    1.97
   1  -7  -1    0.60    1.03
   1  -7  -1    1.61    1.36
  -1   7   1   -0.17    1.42
  -1   7   1    2.65    1.12
  -1   7   1   -0.11    1.30
   0  -7  -1   61.94    3.09
   0  -7  -1   58.65    3.32
   0  -7  -1   58.74    2.87
   0  -7  -1   60.50    3.41
   0   7   1   56.99    3.14
   0   7   1   57.87    2.94
   0   7   1   55.49    3.14
  -1  -7  -1   45.71    2.94
  -1  -7  -1   45.57    2.49
  -1  -7  -1   40.84    2.36
  -1  -7  -1   48.46    2.51
   1   7   1   43.29    2.70
   1   7   1   42.03    2.62
   1   7   1   43.61    2.63
  -2  -7  -1   -0.11    1.05
  -2  -7  -1   -0.01    1.04
  -2  -7  -1    2.92    1.12
  -2  -7  -1    0.51    0.97
   2   7   1    1.91    0.69
   2   7   1    0.75    1.08
   2   7   1    0.86    1.24
   2   7   1    1.64    1.22
  -3  -7  -1   -1.59    0.85
  -3  -7  -1    0.68    1.17
  -3  -7  -1   -0.07    1.08
   3   7   1    0.28    1.12
   3   7   1    1.87    1.25
   3   7   1   -1.19    1.11
   3   7   1   -0.19    0.82
   3   7   1    0.39    1.03
  -4  -7  -1   42.92    2.66
  -4  -7  -1   42.32    2.62
  -4  -7  -1   47.81    2.60
   4   7   1   45.82    2.74
   4   7   1   51.38    2.60
   4   7   1   45.58    3.17
   4   7   1   47.17    2.73
   4   7   1   46.77    2.83
  -5  -7  -1   26.19    2.20
  -5  -7  -1   29.29    2.40
  -5  -7  -1   30.92    2.28
   5   7   1   31.23    2.35
   5   7   1   28.69    2.23
   5   7   1   25.66    2.70
   5   7   1   28.17    2.36
   5   7   1   26.09    2.39
  -6  -7  -1    4.64    1.73
  -6  -7  -1    3.85    1.86
   6   7   1    2.00    1.61
   6   7   1    2.80    1.53
   6   7   1    3.57    1.65
   6   7   1    4.13    1.08
   6   7   1    1.70    1.70
   6   7   1    2.92    1.72
  -7  -7  -1    1.13    1.62
  -7  -7  -1    0.97    1.91
  -7  -7  -1   -0.30    2.24
   7   7   1    1.41    1.80
   7   7   1    1.63    1.56
   7   7   1   -0.76    1.40
   7   7   1    1.71    1.96
  -8  -7  -1    8.98    3.07
  -8  -7  -1    8.60    2.11
   8   7   1   11.00    2.46
   8   7   1    8.89    2.50
  -9  -7  -1    5.15    3.05
  -9  -7  -1    0.41    1.93
   9   7   1    6.85    2.78
   9   7   1    4.50    2.58
   5  -8  -1   -1.36    2.53
   5  -8  -1    2.61    3.12
  -5   8   1    2.37    2.38
  -5   8   1    0.44    1.86
   4  -8  -1    1.56    2.75
   4  -8  -1   -3.00    2.23
   4  -8  -1   -1.56    1.40
  -4   8   1   -0.52    2.19
  -4   8   1    0.25    1.46
   3  -8  -1   16.41    2.27
   3  -8  -1   12.89    2.84
   3  -8  -1   21.09    2.95
  -3   8   1   16.92    2.77
  -3   8   1   17.91    1.93
  -3   8   1   17.23    2.42
   2  -8  -1   30.61    3.32
   2  -8  -1   32.60    2.38
   2  -8  -1   34.46    3.28
   2  -8  -1   38.38    2.99
  -2   8   1   31.82    2.83
  -2   8   1   29.25    2.32
  -2   8   1   29.18    3.15
   1  -8  -1    4.67    1.71
   1  -8  -1    3.39    2.14
   1  -8  -1    2.86    1.27
   1  -8  -1    1.93    1.77
  -1   8   1    2.25    1.81
  -1   8   1    2.84    1.57
  -1   8   1    5.17    1.33
   0  -8  -1    1.01    1.48
   0  -8  -1   -2.02    1.05
   0  -8  -1   -1.74    1.70
   0  -8  -1    0.10    1.24
   0   8   1   -0.60    1.16
   0   8   1    0.24    1.40
   0   8   1    0.04    1.57
  -1  -8  -1   46.82    2.84
  -1  -8  -1   46.76    2.90
  -1  -8  -1   44.25    3.25
  -1  -8  -1   47.34    2.71
   1   8   1   43.59    2.99
   1   8   1   37.26    2.74
   1   8   1   41.72    2.91
  -2  -8  -1   28.59    2.57
  -2  -8  -1   28.86    2.10
  -2  -8  -1   28.78    2.26
  -2  -8  -1   31.05    2.77
   2   8   1   30.45    2.42
   2   8   1   30.52    2.83
   2   8   1   29.50    2.62
   2   8   1   30.13    2.52
  -3  -8  -1   -2.34    1.32
  -3  -8  -1    1.54    1.38
  -3  -8  -1   -0.75    1.09
   3   8   1    1.30    0.91
   3   8   1    2.80    1.47
   3   8   1   -0.31    1.44
   3   8   1   -0.38    1.17
   3   8   1   -1.83    1.36
  -4  -8  -1    7.84    1.66
  -4  -8  -1    5.40    1.69
  -4  -8  -1    4.59    1.63
   4   8   1    8.60    1.95
   4   8   1    5.85    1.37
   4   8   1    5.99    1.81
   4   8   1    6.40    1.50
   4   8   1    7.06    1.76
  -5  -8  -1   23.69    2.38
  -5  -8  -1   24.55    2.45
   5   8   1   23.58    2.15
   5   8   1   24.17    2.61
   5   8   1   25.58    3.03
   5   8   1   25.25    2.38
   5   8   1   28.09    2.82
   6   8   1   11.91    2.56
   6   8   1    9.60    1.51
   6   8   1    8.69    2.01
   6   8   1   12.90    2.20
   6   8   1    9.47    2.06
   6   8   1   10.86    2.12
   6   8   1   10.46    2.11
   6   8   1   11.68    2.30
   7   8   1   -0.69    1.49
   7   8   1    2.91    1.82
   7   8   1   -0.14    1.76
   7   8   1    0.42    1.73
   7   8   1   -0.52    2.10
   7   8   1   -0.41    1.77
   7   8   1    0.16    1.57
  -8  -8  -1    4.84    2.23
   8   8   1    4.08    2.54
   8   8   1    2.42    2.30
   8   8   1    4.50    2.14
   4  -9  -1    3.42    2.67
  -4   9   1    0.07    2.32
  -4   9   1   -0.59    1.67
   3  -9  -1   -0.04    1.83
   3  -9  -1    0.05    1.75
  -3   9   1   -0.89    1.77
  -3   9   1    1.45    2.22
   2  -9  -1   11.68    2.57
   2  -9  -1   12.17    2.38
   2  -9  -1    9.15    3.54
  -2   9   1   12.99    2.32
  -2   9   1   10.93    2.54
   1  -9  -1   15.90    2.50
   1  -9  -1   21.19    2.77
   1  -9  -1   19.57    2.62
  -1   9   1   19.47    2.49
  -1   9   1   15.35    2.79
   0  -9  -1    0.69    1.79
   0  -9  -1   -0.68    2.04
   0  -9  -1    0.01    1.82
   0  -9  -1    0.65    1.73
   0   9   1    0.07    1.70
   0   9   1   -0.29    1.74
  -1  -9  -1   -0.01    1.53
  -1  -9  -1   -2.49    1.17
  -1  -9  -1    0.26    1.40
  -1  -9  -1   -0.98    1.38
   1   9   1    0.72    1.23
   1   9   1   -1.65    1.58
   1   9   1    1.47    1.32
  -2  -9  -1   13.79    2.19
  -2  -9  -1   15.37    2.66
  -2  -9  -1   12.72    1.83
   2   9   1   15.32    2.40
   2   9   1   13.67    2.17
   2   9   1   13.73    1.96
   2   9   1    9.53    2.10
  -3  -9  -1   11.17    2.35
  -3  -9  -1   14.44    2.22
  -3  -9  -1   14.00    1.93
   3   9   1   10.19    1.81
   3   9   1   10.87    2.26
   3   9   1   16.23    2.52
   3   9   1   14.71    2.47
  -4  -9  -1    4.15    1.51
  -4  -9  -1    3.44    1.72
  -4  -9  -1    2.54    1.69
   4   9   1    2.10    1.41
   4   9   1    3.63    1.76
   4   9   1    4.26    1.94
   4   9   1    2.96    1.86
  -5  -9  -1    0.32    1.50
  -5  -9  -1    0.97    1.55
   5   9   1    1.48    1.76
   5   9   1   -0.96    1.71
   5   9   1    0.29    1.40
   5   9   1    1.89    1.72
   6   9   1   -0.89    1.77
   6   9   1    0.48    1.82
   6   9   1    2.23    1.67
   6   9   1    3.35    2.14
   6   9   1    0.15    1.73
   6   9   1    3.74    1.91
   7   9   1   -0.17    2.09
   7   9   1   -0.34    1.75
   7   9   1    0.63    1.92
   7   9   1   -2.41    1.99
   7   9   1    2.57    2.21
   8   9   1    1.77    2.11
   8   9   1    3.34    2.78
   8   9   1    0.44    2.06
   3 -10  -1    1.56    2.62
   3 -10  -1    0.00    2.08
  -3  10   1    1.44    2.56
  -3  10   1    1.29    1.97
   2 -10  -1   -3.64    1.92
   2 -10  -1   -1.77    1.60
  -2  10   1   -1.39    1.73
  -2  10   1   -0.54    2.32
   1 -10  -1   -1.64    1.44
   1 -10  -1    0.36    2.26
  -1  10   1   -0.22    2.28
  -1  10   1    0.91    1.49
   0 -10  -1    0.10    2.20
   0 -10  -1   -0.57    1.99
   0  10   1   -2.91    1.75
   0  10   1    0.61    2.09
  -1 -10  -1   -1.82    2.05
  -1 -10  -1    4.23    2.07
   1  10   1   -1.68    1.87
   1  10   1    5.14    2.21
  -2 -10  -1   -0.64    1.66
  -2 -10  -1    4.79    2.32
   2  10   1    0.30    1.97
   2  10   1    0.51    1.91
  -3 -10  -1    0.44    1.29
  -3 -10  -1    1.33    2.07
   3  10   1   -0.45    1.38
   3  10   1    0.08    1.75
  -4 -10  -1    0.68    1.78
  -4 -10  -1   -2.10    1.71
   4  10   1    1.46    2.06
   4  10   1   -1.35    1.72
  -5 -10  -1    1.98    1.86
  -5 -10  -1    3.14    1.84
   5  10   1    2.95    1.93
   5  10   1    3.61    2.10
  -6 -10  -1   -1.53    1.54
   6  10   1    5.03    2.28
   6  10   1    0.09    1.85
   7  10   1   -0.55    1.91
   7  10   1   -0.49    2.07
   7  10   1    2.26    2.10
   1 -11  -1    2.47    2.42
   1 -11  -1    0.39    2.48
  -1  11   1    2.29    2.69
  -1  11   1   -0.20    2.00
   0 -11  -1    2.93    2.41
   0 -11  -1   -1.76    2.28
   0  11   1   -2.23    2.38
   0  11   1    1.17    2.33
  -1 -11  -1    1.25    2.46
  -1 -11  -1    3.12    2.33
   1  11   1    3.48    2.38
   1  11   1   -1.57    2.21
  -2 -11  -1    6.43    2.41
  -2 -11  -1   10.71    3.08
   2  11   1    3.77    2.45
   2  11   1    9.68    2.26
  -3 -11  -1   -1.35    2.24
  -3 -11  -1    4.42    1.80
   3  11   1   -2.36    1.92
   3  11   1    1.72    2.40
  -4 -11  -1    5.16    2.59
  -4 -11  -1    5.65    1.87
   4  11   1    7.39    2.61
   4  11   1    4.18    2.51
  -5 -11  -1    3.63    2.21
  -5 -11  -1    0.55    2.06
   5  11   1    0.91    2.15
   5  11   1    5.03    2.56
   4  11  -2    2.69    2.54
   4  11  -2   -0.76    1.80
  -4 -11   2   -1.11    1.98
   3  11  -2    7.63    2.61
   3  11  -2    3.89    2.56
  -3 -11   2    5.78    2.28
   2  11  -2   -1.26    2.38
   2  11  -2    3.12    2.52
  -2 -11   2    3.04    1.80
  -2 -11   2   -0.78    2.41
   1  11  -2    9.76    2.75
   1  11  -2    4.47    2.89
  -1 -11   2    8.23    2.99
  -1 -11   2   15.37    3.00
   0  11  -2    2.10    2.20
   0  11  -2   -1.86    2.56
   0 -11   2   -4.77    2.17
   0 -11   2    0.16    2.46
   6  10  -2    8.23    3.17
   6  10  -2    4.14    2.66
  -6 -10   2    6.86    2.22
  -6 -10   2    6.66    2.58
   5  10  -2    3.02    2.59
   5  10  -2    2.14    2.40
  -5 -10   2    2.09    2.27
  -5 -10   2    0.45    1.84
   4  10  -2   11.38    2.96
   4  10  -2   13.14    2.81
  -4 -10   2   12.40    2.49
  -4 -10   2   15.33    3.02
   3  10  -2   -1.39    1.52
   3  10  -2   -0.41    2.06
   3  10  -2   -1.41    2.06
  -3 -10   2    0.13    1.88
  -3 -10   2   -2.60    2.02
   2  10  -2    4.64    2.47
   2  10  -2    8.63    2.47
   2  10  -2    5.84    2.53
  -2 -10   2    6.22    2.20
  -2 -10   2    5.47    2.48
   1  10  -2    5.80    2.60
   1  10  -2   -0.52    2.58
   1  10  -2    8.03    2.43
  -1 -10   2    6.02    2.18
  -1 -10   2    3.33    2.48
   0  10  -2   26.93    3.60
   0  10  -2   19.38    2.89
   0  10  -2   13.19    2.88
   0 -10   2   20.82    3.00
   0 -10   2   15.05    3.07
  -1  10  -2    0.48    1.75
  -1  10  -2   -3.31    2.26
   1 -10   2    0.66    2.23
   1 -10   2   -1.64    2.15
  -2  10  -2    1.36    1.86
  -2  10  -2    2.73    2.77
   2 -10   2    3.15    2.42
   2 -10   2    3.07    2.31
  -3  10  -2    0.19    1.72
  -3  10  -2    3.25    2.92
   3 -10   2   -1.41    2.40
   3 -10   2    2.72    2.34
   7   9  -2    4.06    2.89
   7   9  -2    6.74    2.27
   7   9  -2    6.76    2.80
  -7  -9   2    7.37    2.46
   6   9  -2   -0.42    2.19
   6   9  -2    1.39    2.44
  -6  -9   2   -0.91    1.52
  -6  -9   2    0.04    1.98
   5   9  -2    0.51    2.12
   5   9  -2    0.66    2.28
  -5  -9   2    0.18    1.69
  -5  -9   2   -3.67    1.77
   4   9  -2    1.92    1.96
   4   9  -2    1.15    2.15
  -4  -9   2    0.21    1.91
  -4  -9   2    2.03    1.59
  -4  -9   2    0.82    1.71
   3   9  -2   12.76    2.81
   3   9  -2    9.86    2.37
  -3  -9   2    9.40    1.85
  -3  -9   2   12.35    2.16
  -3  -9   2   11.51    2.51
   2   9  -2    4.30    1.73
   2   9  -2    1.11    1.80
   2   9  -2    3.50    2.10
  -2  -9   2    4.36    1.81
  -2  -9   2    2.21    1.92
   1   9  -2   -1.21    1.78
   1   9  -2   -1.41    1.62
   1   9  -2    0.25    1.95
  -1  -9   2    0.25    1.23
  -1  -9   2   -0.75    1.98
   0   9  -2   -0.03    1.57
   0   9  -2    0.68    1.76
   0   9  -2   -0.63    1.95
   0  -9   2    3.64    1.90
   0  -9   2    2.57    2.17
  -1   9  -2   15.24    2.50
  -1   9  -2   15.40    2.71
  -1   9  -2   16.06    2.97
   1  -9   2   14.12    2.41
   1  -9   2   17.19    2.67
  -2   9  -2    5.21    1.90
  -2   9  -2    2.17    2.41
  -2   9  -2    2.56    1.71
   2  -9   2    2.23    2.29
   2  -9   2   -0.34    1.96
  -3   9  -2    4.30    2.16
  -3   9  -2    3.00    1.73
  -3   9  -2    1.95    2.60
   3  -9   2    0.24    1.97
   3  -9   2    2.09    2.47
  -4   9  -2    1.05    1.55
  -4   9  -2    1.98    2.53
   4  -9   2   -1.26    2.36
   4  -9   2    3.11    2.21
   8   8  -2    4.74    2.99
   8   8  -2    3.41    2.47
  -8  -8   2    1.66    2.10
  -8  -8   2    2.30    2.34
   7   8  -2    0.91    2.48
   7   8  -2    3.16    2.09
  -7  -8   2    0.82    2.16
  -7  -8   2    0.50    2.12
   6   8  -2    2.88    1.81
   6   8  -2    3.17    2.38
   6   8  -2    1.58    2.06
  -6  -8   2   -1.85    1.69
  -6  -8   2    0.35    1.52
   5   8  -2    2.51    2.00
   5   8  -2    2.37    1.51
   5   8  -2    1.95    2.24
  -5  -8   2    0.68    1.66
  -5  -8   2    2.57    1.37
  -5  -8   2    4.78    2.05
   4   8  -2   11.85    2.74
   4   8  -2   14.46    2.43
   4   8  -2   12.55    1.93
  -4  -8   2   15.25    2.50
  -4  -8   2   10.21    1.94
  -4  -8   2   10.80    1.71
  -4  -8   2    9.66    1.66
   3   8  -2    4.70    2.09
   3   8  -2    4.34    1.62
  -3  -8   2    2.25    1.40
  -3  -8   2    2.04    1.31
  -3  -8   2    2.60    1.77
  -3  -8   2    2.04    1.54
   2   8  -2   -0.65    1.69
   2   8  -2   -1.44    1.48
  -2  -8   2    0.67    1.18
  -2  -8   2    0.44    1.43
  -2  -8   2   -1.83    1.07
  -2  -8   2   -0.85    1.68
   1   8  -2   14.50    2.21
   1   8  -2   12.36    2.47
   1   8  -2   13.51    2.36
  -1  -8   2   11.81    1.78
  -1  -8   2   16.01    2.18
  -1  -8   2    9.91    2.31
   0   8  -2   26.93    3.26
   0   8  -2   31.20    2.93
   0   8  -2   33.23    3.25
   0  -8   2   31.74    3.14
   0  -8   2   31.45    2.55
   0  -8   2   31.26    2.71
  -1   8  -2    3.29    1.95
  -1   8  -2    0.97    1.53
  -1   8  -2   -1.47    1.65
   1  -8   2   -0.67    1.38
   1  -8   2    2.64    1.32
   1  -8   2    2.24    1.29
  -2   8  -2    0.86    2.03
  -2   8  -2    1.82    1.46
  -2   8  -2    1.74    1.86
   2  -8   2    0.13    1.72
   2  -8   2    0.52    1.99
   2  -8   2   -0.70    1.17
  -3   8  -2   17.35    2.58
  -3   8  -2   12.95    2.77
  -3   8  -2   13.28    2.12
   3  -8   2   12.48    2.73
   3  -8   2   15.18    2.44
  -4   8  -2    7.92    1.88
  -4   8  -2   11.13    2.83
  -4   8  -2   11.79    2.40
   4  -8   2    9.32    2.24
   4  -8   2    8.22    2.72
  -5   8  -2   -2.97    2.21
  -5   8  -2    2.94    2.24
   5  -8   2   -0.28    2.43
   8   7  -2    4.89    2.58
   8   7  -2    5.81    2.87
  -8  -7   2    3.53    1.99
  -8  -7   2    0.91    2.22
   7   7  -2   19.39    2.74
   7   7  -2   22.23    3.34
   7   7  -2   23.00    3.28
  -7  -7   2   19.62    2.66
  -7  -7   2   12.38    2.56
   6   7  -2    1.01    1.74
   6   7  -2    1.96    1.75
   6   7  -2    0.10    1.33
   6   7  -2    0.97    2.12
  -6  -7   2   -0.30    1.26
  -6  -7   2    1.59    1.87
  -6  -7   2   -0.90    1.62
   5   7  -2    2.14    1.27
   5   7  -2    1.13    1.46
   5   7  -2   -0.63    1.81
   5   7  -2    1.11    1.14
  -5  -7   2    1.35    1.04
  -5  -7   2    1.79    1.41
  -5  -7   2    3.27    1.73
  -5  -7   2    2.03    1.28
   4   7  -2   32.19    2.76
   4   7  -2   35.64    2.05
   4   7  -2   34.71    2.80
   4   7  -2   38.11    3.39
  -4  -7   2   34.67    2.29
  -4  -7   2   33.06    2.14
  -4  -7   2   36.06    2.54
  -4  -7   2   32.08    2.74
   3   7  -2   69.93    3.67
   3   7  -2   72.45    3.50
   3   7  -2   72.64    4.07
   3   7  -2   72.18    2.71
  -3  -7   2   69.74    3.64
  -3  -7   2   73.11    3.32
  -3  -7   2   75.68    3.39
  -3  -7   2   71.55    3.51
   2   7  -2   -0.38    0.90
   2   7  -2   -1.63    1.32
   2   7  -2   -0.42    1.50
  -2  -7   2    0.74    1.24
  -2  -7   2    0.27    1.22
  -2  -7   2    0.12    1.07
  -2  -7   2   -1.94    1.24
   1   7  -2   15.13    2.48
   1   7  -2   11.72    1.82
  -1  -7   2   12.61    1.83
  -1  -7   2   13.06    2.11
  -1  -7   2   16.47    1.84
  -1  -7   2   15.13    1.88
   0   7  -2   54.89    3.57
   0   7  -2   53.42    3.22
   0   7  -2   53.18    3.02
   0  -7   2   56.97    2.87
   0  -7   2   51.81    3.05
   0  -7   2   51.77    2.80
  -1   7  -2   53.80    3.11
  -1   7  -2   56.64    3.57
  -1   7  -2   51.36    2.84
   1  -7   2   51.21    3.44
   1  -7   2   54.10    2.68
   1  -7   2   50.54    2.81
   1  -7   2   55.87    3.11
  -2   7  -2    0.84    1.34
  -2   7  -2    1.62    1.61
  -2   7  -2    2.53    1.83
   2  -7   2   -0.18    1.67
   2  -7   2    0.05    1.43
   2  -7   2    0.66    1.11
   2  -7   2   -5.14    1.54
  -3   7  -2    9.80    2.27
  -3   7  -2    6.36    1.65
  -3   7  -2    5.73    2.18
   3  -7   2    3.13    1.27
   3  -7   2    5.45    1.78
   3  -7   2    4.27    1.67
   3  -7   2    4.35    2.03
  -4   7  -2    9.70    2.23
  -4   7  -2    7.83    2.36
  -4   7  -2    9.76    1.89
   4  -7   2    6.59    1.40
   4  -7   2    9.40    1.97
   4  -7   2    6.50    2.31
   4  -7   2    6.55    2.54
  -5   7  -2   22.51    3.24
  -5   7  -2   19.13    2.93
   5  -7   2   14.42    2.84
   5  -7   2   19.19    2.35
   5  -7   2   25.68    4.33
  -6   7  -2    3.39    2.21
  -6   7  -2    1.76    2.46
   6  -7   2   -0.71    2.51
   9   6  -2    2.46    2.62
   9   6  -2    2.92    2.21
   9   6  -2    0.92    2.91
  -9  -6   2    0.66    2.30
   8   6  -2    1.53    1.78
   8   6  -2    2.15    2.33
   8   6  -2   -0.03    2.48
  -8  -6   2    2.77    2.18
  -8  -6   2    1.49    1.76
   7   6  -2   13.43    2.15
   7   6  -2   13.45    2.44
   7   6  -2   10.70    2.79
  -7  -6   2   12.29    2.27
  -7  -6   2    7.35    2.15
   6   6  -2   44.47    2.53
   6   6  -2   44.69    2.90
   6   6  -2   44.40    3.48
   6   6  -2   46.51    3.87
  -6  -6   2   38.14    2.89
  -6  -6   2   40.63    2.41
  -6  -6   2   38.39    3.15
   5   6  -2    3.37    1.58
   5   6  -2    4.60    2.03
   5   6  -2    3.53    1.28
   5   6  -2    5.07    1.11
  -5  -6   2    3.41    1.31
  -5  -6   2    2.38    1.47
  -5  -6   2    1.56    1.63
  -5  -6   2    3.87    1.11
   4   6  -2    6.17    1.70
   4   6  -2    8.53    1.68
   4   6  -2    8.32    1.27
  -4  -6   2    7.04    1.50
  -4  -6   2    8.19    1.69
  -4  -6   2    7.67    1.23
  -4  -6   2    5.86    1.34
  -4  -6   2    8.34    1.19
   3   6  -2   30.34    2.35
   3   6  -2   27.96    2.72
   3   6  -2   27.56    2.23
   3   6  -2   31.57    1.61
  -3  -6   2   25.68    1.87
  -3  -6   2   28.27    2.07
  -3  -6   2   28.12    1.77
  -3  -6   2   28.64    2.01
   2   6  -2  107.83    3.46
   2   6  -2  111.35    4.99
   2   6  -2  107.87    4.38
   2   6  -2  108.39    4.17
  -2  -6   2  105.48    4.34
  -2  -6   2  115.27    4.29
  -2  -6   2  107.62    4.09
  -2  -6   2  114.63    4.11
   1   6  -2    1.05    1.19
   1   6  -2   -0.62    0.77
   1   6  -2    1.35    1.36
  -1  -6   2    0.90    1.00
  -1  -6   2   -1.13    1.04
  -1  -6   2    0.50    0.45
  -1  -6   2   -0.29    1.26
  -1  -6   2    0.51    1.05
   0   6  -2    3.25    1.35
   0   6  -2    4.00    0.44
   0   6  -2    1.20    1.42
   0  -6   2    2.39    1.23
   0  -6   2    3.11    0.67
   0  -6   2    2.16    1.15
   0  -6   2    3.12    1.41
   0  -6   2    2.50    1.06
  -1   6  -2    7.81    1.73
  -1   6  -2   11.52    1.63
  -1   6  -2    9.71    2.04
   1  -6   2   10.20    1.45
   1  -6   2    9.66    1.41
   1  -6   2   11.58    1.64
   1  -6   2   10.52    1.83
  -2   6  -2   55.74    2.93
  -2   6  -2   56.80    3.45
  -2   6  -2   58.11    3.31
   2  -6   2   64.84    3.36
   2  -6   2   52.41    3.05
   2  -6   2   53.17    2.75
   2  -6   2   56.51    2.75
  -3   6  -2    5.43    1.86
  -3   6  -2   -1.30    1.35
  -3   6  -2    1.89    1.17
   3  -6   2    0.02    0.97
   3  -6   2    7.10    2.19
   3  -6   2    0.63    1.57
   3  -6   2    0.97    1.32
  -4   6  -2    1.48    1.55
  -4   6  -2    1.14    1.16
  -4   6  -2    4.69    1.97
   4  -6   2    2.26    1.86
   4  -6   2    3.20    1.47
   4  -6   2    0.79    0.97
   4  -6   2    1.55    1.81
  -5   6  -2    0.44    1.63
  -5   6  -2    1.46    1.87
  -5   6  -2    2.61    1.40
   5  -6   2    0.97    1.34
   5  -6   2    6.66    2.38
   5  -6   2    3.00    2.10
   5  -6   2    1.63    1.14
  -6   6  -2    5.99    2.38
  -6   6  -2    3.91    2.54
   6  -6   2    9.95    2.78
   6  -6   2    9.23    2.96
  -7   6  -2    2.28    2.30
  -7   6  -2    0.31    2.55
   7  -6   2   -2.78    2.91
   7  -6   2   -0.02    2.76
   9   5  -2    3.83    2.72
   9   5  -2    6.22    2.38
  -9  -5   2    4.68    2.57
  -9  -5   2    4.21    2.92
   8   5  -2    0.22    2.19
   8   5  -2    3.19    2.28
  -8  -5   2   -0.61    2.26
  -8  -5   2    1.31    2.17
   7   5  -2    0.66    1.80
   7   5  -2   -0.04    1.40
  -7  -5   2    0.52    1.90
  -7  -5   2    0.65    1.66
  -7  -5   2   -2.35    2.04
   6   5  -2   20.10    2.28
   6   5  -2   21.61    2.80
   6   5  -2   26.89    2.31
  -6  -5   2   14.11    2.25
  -6  -5   2   18.06    1.48
  -6  -5   2   20.17    2.20
  -6  -5   2   22.00    3.16
   5   5  -2   17.11    1.37
   5   5  -2   19.01    1.54
   5   5  -2   19.07    2.54
   5   5  -2   20.79    1.95
   5   5  -2   16.93    2.32
  -5  -5   2   17.01    1.98
  -5  -5   2   17.06    1.52
  -5  -5   2   16.05    2.12
  -5  -5   2   16.05    1.36
   4   5  -2    8.79    2.00
   4   5  -2    9.68    1.70
   4   5  -2   10.61    1.20
   4   5  -2    9.65    1.23
  -4  -5   2    7.31    1.47
  -4  -5   2    9.96    1.71
  -4  -5   2   10.00    1.39
  -4  -5   2   10.94    1.27
   3   5  -2    6.13    0.99
   3   5  -2    3.94    1.15
   3   5  -2    5.44    0.91
   3   5  -2    5.17    1.63
  -3  -5   2    5.53    1.12
  -3  -5   2    6.31    0.97
  -3  -5   2    7.28    1.07
  -3  -5   2    5.56    1.31
  -3  -5   2    7.85    1.47
   2   5  -2    8.95    1.30
   2   5  -2    8.36    1.24
   2   5  -2    7.75    0.74
   2   5  -2    9.39    1.14
   2   5  -2    8.49    1.71
  -2  -5   2   11.59    1.28
  -2  -5   2   10.01    1.44
  -2  -5   2    9.23    1.18
  -2  -5   2    8.37    1.12
   1   5  -2   25.07    1.67
   1   5  -2   25.23    2.17
   1   5  -2   26.32    1.85
   1   5  -2   24.76    1.61
  -1  -5   2   25.31    1.07
  -1  -5   2   27.22    1.80
  -1  -5   2   25.07    1.68
  -1  -5   2   29.11    1.89
  -1  -5   2   31.08    1.98
   0   5  -2   21.11    2.32
   0   5  -2   20.46    1.47
   0   5  -2   18.10    1.10
   0   5  -2   19.08    1.67
   0  -5   2   19.34    1.53
   0  -5   2   22.39    1.92
   0  -5   2   23.81    2.03
   0  -5   2   19.28    1.70
   0  -5   2   18.42    0.98
  -1   5  -2    0.23    0.80
  -1   5  -2    0.36    0.29
  -1   5  -2    0.38    0.67
  -1   5  -2    0.29    1.04
  -1   5  -2   -0.90    1.16
   1  -5   2   -0.44    0.59
   1  -5   2    0.59    0.65
   1  -5   2    1.28    1.00
   1  -5   2    0.74    0.72
   1  -5   2    0.60    1.08
  -2   5  -2    7.37    1.71
  -2   5  -2    7.61    0.71
  -2   5  -2   10.23    1.45
  -2   5  -2   11.09    1.74
   2  -5   2    6.22    1.43
   2  -5   2    8.36    1.23
   2  -5   2    6.29    1.32
   2  -5   2    8.64    1.35
  -3   5  -2    1.45    0.97
  -3   5  -2   -0.58    1.34
  -3   5  -2    3.42    1.48
   3  -5   2    0.76    1.43
   3  -5   2    2.01    0.94
   3  -5   2    1.32    1.51
   3  -5   2    1.56    1.12
  -4   5  -2    4.82    1.88
  -4   5  -2    5.71    1.36
  -4   5  -2    4.45    1.78
   4  -5   2    4.62    1.83
   4  -5   2    7.37    1.59
   4  -5   2    9.36    2.08
   4  -5   2    6.60    1.22
   4  -5   2    0.26    1.22
  -5   5  -2    2.40    1.78
  -5   5  -2    0.88    1.78
  -5   5  -2   -1.73    1.04
   5  -5   2    2.52    1.96
   5  -5   2   -0.78    1.82
   5  -5   2   -0.72    1.25
   5  -5   2    0.18    0.97
  -6   5  -2   -0.34    1.96
  -6   5  -2   -0.87    1.71
   6  -5   2    1.10    2.13
   6  -5   2    0.61    2.23
  -7   5  -2    0.86    2.22
  -7   5  -2   -2.41    2.29
   7  -5   2   -0.45    2.37
   7  -5   2   -4.43    2.34
  -8   5  -2    0.98    2.90
  -8   5  -2    1.87    2.62
   8  -5   2   -3.15    2.80
   8  -5   2    0.29    2.08
   9   4  -2    1.45    2.52
   9   4  -2   -0.01    2.14
  -9  -4   2    1.44    2.40
  -9  -4   2   -0.54    2.49
   8   4  -2    2.22    2.12
   8   4  -2    3.22    2.10
  -8  -4   2   -0.66    2.01
  -8  -4   2    0.97    1.77
   7   4  -2   12.21    2.14
   7   4  -2    8.15    2.41
  -7  -4   2   10.09    2.28
  -7  -4   2   11.07    1.78
  -7  -4   2    9.00    2.24
   6   4  -2   21.36    2.30
   6   4  -2   20.39    2.54
   6   4  -2   18.58    1.55
  -6  -4   2   17.91    2.36
  -6  -4   2   20.30    2.94
  -6  -4   2   22.63    2.13
   5   4  -2    0.38    0.73
   5   4  -2    0.59    0.99
   5   4  -2   -0.25    0.99
   5   4  -2   -0.36    0.63
  -5  -4   2   -0.97    1.28
  -5  -4   2   -0.98    0.70
  -5  -4   2   -1.23    1.06
  -5  -4   2    0.34    0.64
  -5  -4   2   -0.92    1.09
   4   4  -2    0.93    1.07
   4   4  -2   -0.50    0.61
   4   4  -2    0.96    1.02
   4   4  -2   -0.16    0.76
   4   4  -2   -0.45    0.59
  -4  -4   2   -0.50    0.91
  -4  -4   2    0.53    0.66
  -4  -4   2    0.41    1.10
  -4  -4   2    0.22    0.63
  -4  -4   2    0.61    1.02
   3   4  -2   53.40    2.16
   3   4  -2   54.73    2.13
   3   4  -2   52.35    2.70
   3   4  -2   50.67    2.95
  -3  -4   2   52.22    2.32
  -3  -4   2   52.91    2.51
  -3  -4   2   50.48    2.53
  -3  -4   2   53.21    2.22
  -3  -4   2   55.40    2.02
   2   4  -2   46.19    1.97
   2   4  -2   43.75    1.69
   2   4  -2   47.26    2.30
   2   4  -2   42.69    2.65
  -2  -4   2   45.96    2.25
  -2  -4   2   46.63    2.02
  -2  -4   2   45.14    2.10
  -2  -4   2   45.35    1.87
  -2  -4   2   44.17    2.25
   1   4  -2    1.68    0.80
   1   4  -2    2.55    0.83
   1   4  -2    1.28    1.14
   1   4  -2    1.69    0.77
   1   4  -2    2.43    0.44
  -1  -4   2    2.59    0.92
  -1  -4   2    2.43    0.89
  -1  -4   2    0.62    0.74
  -1  -4   2    2.00    0.92
   0   4  -2   19.77    1.53
   0   4  -2   20.63    1.41
   0   4  -2   21.89    0.89
   0   4  -2   21.28    1.30
   0   4  -2   21.08    1.90
   0  -4   2   21.26    1.45
   0  -4   2   21.59    0.93
   0  -4   2   21.33    1.64
   0  -4   2   21.09    1.54
   0  -4   2   19.94    1.51
  -1   4  -2   28.89    1.65
  -1   4  -2   35.85    2.43
  -1   4  -2   28.53    1.88
  -1   4  -2   29.51    1.26
   1  -4   2   28.87    1.97
   1  -4   2   32.35    1.84
   1  -4   2   29.10    1.62
   1  -4   2   32.86    1.79
   1  -4   2   29.22    1.67
  -2   4  -2   84.66    3.85
  -2   4  -2   83.90    3.11
  -2   4  -2   87.48    3.42
  -2   4  -2   85.08    3.21
  -2   4  -2   82.69    2.83
   2  -4   2   85.47    3.13
   2  -4   2   83.18    3.25
   2  -4   2   87.39    3.26
   2  -4   2   82.81    3.55
  -3   4  -2   18.50    1.36
  -3   4  -2   14.99    1.65
  -3   4  -2   18.95    2.05
  -3   4  -2   20.45    2.13
  -3   4  -2   20.34    1.58
   3  -4   2   20.33    1.74
   3  -4   2   18.90    1.49
   3  -4   2   21.20    1.70
   3  -4   2   20.75    1.96
  -4   4  -2   39.92    2.72
  -4   4  -2   35.66    2.17
  -4   4  -2   36.61    1.99
  -4   4  -2   30.77    2.01
  -4   4  -2   38.39    2.90
   4  -4   2   40.68    2.60
   4  -4   2   37.84    2.21
   4  -4   2   34.65    2.66
   4  -4   2   33.26    1.99
  -5   4  -2    8.94    1.39
  -5   4  -2   12.69    1.62
  -5   4  -2   12.46    2.37
  -5   4  -2    9.04    2.15
   5  -4   2   13.25    1.33
   5  -4   2    8.93    2.04
   5  -4   2   15.70    1.55
   5  -4   2   16.89    2.27
  -6   4  -2    7.27    2.29
  -6   4  -2    5.88    2.21
   6  -4   2    8.85    2.29
   6  -4   2    9.44    2.06
   6  -4   2    6.31    2.14
  -7   4  -2    9.91    2.67
  -7   4  -2    9.26    2.64
   7  -4   2    6.36    2.55
   7  -4   2    8.66    2.65
  -8   4  -2    7.50    2.96
  -8   4  -2    6.65    2.91
   8  -4   2    5.66    2.89
   8  -4   2    4.87    2.70
   9   3  -2   15.69    3.16
   9   3  -2   14.26    2.97
  -9  -3   2    9.60    3.07
  -9  -3   2   11.39    2.81
   8   3  -2   -0.71    1.41
   8   3  -2    2.48    1.79
  -8  -3   2   -0.19    2.02
  -8  -3   2   -0.53    1.67
   7   3  -2    3.34    1.78
   7   3  -2    1.26    1.44
  -7  -3   2    3.78    1.58
  -7  -3   2    0.24    2.02
  -7  -3   2    2.86    1.63
   6   3  -2   17.74    2.60
   6   3  -2   19.27    1.57
   6   3  -2   17.24    2.14
  -6  -3   2   17.33    2.30
  -6  -3   2   19.11    2.54
  -6  -3   2   18.08    1.97
   5   3  -2   85.15    4.32
   5   3  -2   90.57    2.88
   5   3  -2   92.53    2.90
   5   3  -2   93.75    3.82
   5   3  -2   91.29    3.14
  -5  -3   2   92.52    3.68
  -5  -3   2   92.79    2.94
  -5  -3   2   91.96    3.98
  -5  -3   2   89.25    4.48
   4   3  -2    0.56    0.82
   4   3  -2    1.50    0.58
   4   3  -2    1.74    1.11
   4   3  -2    1.35    0.56
  -4  -3   2    1.40    0.59
  -4  -3   2    2.82    0.97
  -4  -3   2    2.37    0.99
  -4  -3   2    1.57    0.51
  -4  -3   2    1.96    1.35
   3   3  -2   24.12    1.45
   3   3  -2   23.45    1.24
   3   3  -2   24.52    1.09
   3   3  -2   23.30    1.88
  -3  -3   2   23.36    2.03
  -3  -3   2   26.39    1.32
  -3  -3   2   23.04    1.61
  -3  -3   2   24.44    1.71
  -3  -3   2   22.32    1.21
   2   3  -2   63.15    2.23
   2   3  -2   61.79    3.05
   2   3  -2   64.90    2.83
   2   3  -2   65.78    2.17
   2   3  -2   67.25    2.26
   2   3  -2   69.32    2.36
  -2  -3   2   64.85    2.58
  -2  -3   2   61.95    2.63
  -2  -3   2   65.43    2.44
  -2  -3   2   65.66    2.18
  -2  -3   2   64.06    2.41
   1   3  -2  163.11    4.71
   1   3  -2  170.24    5.38
   1   3  -2  170.46    5.11
   1   3  -2  170.13    5.80
   1   3  -2  169.26    4.71
   1   3  -2  163.93    4.98
  -1  -3   2  167.72    5.11
  -1  -3   2  166.05    5.29
  -1  -3   2  175.72    5.52
  -1  -3   2  160.53    5.28
  -1  -3   2  168.36    5.05
  -1  -3   2  170.70    5.19
   0   3  -2   40.63    1.76
   0   3  -2   40.36    1.84
   0   3  -2   37.31    2.12
   0   3  -2   39.46    1.88
   0   3  -2   38.99    1.19
   0  -3   2   39.09    1.19
   0  -3   2   39.95    1.83
   0  -3   2   38.91    1.77
   0  -3   2   41.10    1.86
   0  -3   2   38.36    1.83
   0  -3   2   40.81    1.76
  -1   3  -2   44.04    1.66
  -1   3  -2   42.30    2.48
  -1   3  -2   40.80    1.53
  -1   3  -2   42.12    1.77
  -1   3  -2   44.27    2.08
   1  -3   2   40.12    1.83
   1  -3   2   43.86    2.15
   1  -3   2   38.66    1.87
   1  -3   2   43.86    1.87
   1  -3   2   44.18    2.11
   1  -3   2   43.29    1.79
  -2   3  -2   15.40    1.25
  -2   3  -2   16.03    1.21
  -2   3  -2   15.90    1.07
  -2   3  -2   15.88    1.52
  -2   3  -2   15.88    1.61
   2  -3   2   17.39    1.26
   2  -3   2   14.81    1.18
   2  -3   2   15.75    1.29
   2  -3   2   12.02    1.46
  -3   3  -2   19.94    1.72
  -3   3  -2   18.39    1.30
  -3   3  -2   20.28    1.96
  -3   3  -2   19.32    1.32
   3  -3   2   20.94    1.40
   3  -3   2   19.76    1.51
   3  -3   2   22.49    1.33
   3  -3   2   19.80    1.81
  -4   3  -2   21.74    2.24
  -4   3  -2   23.23    2.05
  -4   3  -2   22.75    1.51
  -4   3  -2   21.61    1.41
  -4   3  -2   20.60    1.74
   4  -3   2   23.04    1.50
   4  -3   2   21.01    2.06
   4  -3   2   19.85    1.35
   4  -3   2   22.72    1.88
  -5   3  -2   22.92    2.78
  -5   3  -2   23.72    1.63
  -5   3  -2   22.95    1.66
  -5   3  -2   18.88    2.34
  -5   3  -2   25.42    2.08
   5  -3   2   24.72    1.52
   5  -3   2   22.03    2.37
   5  -3   2   20.36    2.09
   5  -3   2   23.84    1.65
  -6   3  -2    0.00    1.24
  -6   3  -2   -1.36    1.64
  -6   3  -2    0.04    1.70
   6  -3   2   -1.49    1.64
   6  -3   2   -0.94    1.58
  -7   3  -2    1.29    2.13
  -7   3  -2    0.85    2.12
   7  -3   2   -0.81    2.05
   7  -3   2   -0.89    1.90
   7  -3   2    1.45    2.11
  -8   3  -2    6.27    2.69
  -8   3  -2    1.95    2.38
   8  -3   2    3.25    2.42
   8  -3   2   -1.05    2.38
   8  -3   2   -2.50    2.10
  -9   3  -2    4.98    2.88
  -9   3  -2    6.36    3.25
   9  -3   2    7.88    3.14
   9  -3   2    9.61    2.94
   9   2  -2   10.37    3.25
   9   2  -2   11.12    2.83
  -9  -2   2    8.60    3.08
  -9  -2   2    5.40    2.65
   8   2  -2   13.50    2.65
   8   2  -2   10.00    2.46
  -8  -2   2    5.65    2.29
  -8  -2   2    6.23    2.23
   7   2  -2    0.24    1.33
   7   2  -2   -0.45    1.57
   7   2  -2   -2.08    1.17
  -7  -2   2    0.52    1.83
  -7  -2   2   -0.59    1.86
  -7  -2   2    1.69    1.43
   6   2  -2    2.55    1.63
   6   2  -2    1.20    1.50
   6   2  -2    1.69    1.01
  -6  -2   2    2.00    1.16
  -6  -2   2    0.11    1.46
  -6  -2   2    2.61    1.86
   5   2  -2   36.33    1.15
   5   2  -2   39.01    2.44
   5   2  -2   41.24    1.85
   5   2  -2   40.13    1.16
   5   2  -2   42.23    2.69
   5   2  -2   35.98    1.15
  -5  -2   2   41.33    2.97
  -5  -2   2   41.75    2.59
  -5  -2   2   41.84    2.22
   4   2  -2   44.01    1.51
   4   2  -2   42.29    2.49
   4   2  -2   40.97    1.69
   4   2  -2   46.40    2.28
  -4  -2   2   41.78    2.37
  -4  -2   2   43.64    2.56
  -4  -2   2   46.92    2.18
  -4  -2   2   45.22    1.51
   3   2  -2   12.93    0.86
   3   2  -2   14.38    0.80
   3   2  -2   14.39    1.41
   3   2  -2   14.37    0.79
   3   2  -2   14.20    0.86
   3   2  -2   14.14    1.29
  -3  -2   2   16.78    1.87
  -3  -2   2   16.49    1.55
  -3  -2   2   13.60    0.85
  -3  -2   2   16.18    1.41
  -3  -2   2   15.35    0.95
   2   2  -2   27.74    1.00
   2   2  -2   28.47    1.26
   2   2  -2   28.64    1.37
   2   2  -2   27.46    1.26
   2   2  -2   28.01    1.00
   2   2  -2   27.86    1.64
   2   2  -2   28.84    1.73
  -2  -2   2   27.82    1.26
  -2  -2   2   27.70    1.58
  -2  -2   2   28.40    1.33
  -2  -2   2   28.24    1.26
  -2  -2   2   28.39    1.73
  -2  -2   2   28.90    1.57
   1   2  -2   44.80    2.07
   1   2  -2   44.26    1.48
   1   2  -2   46.24    1.47
   1   2  -2   45.33    1.66
   1   2  -2   43.45    1.67
   1   2  -2   44.68    1.97
  -1  -2   2   47.36    1.69
  -1  -2   2   43.13    1.82
  -1  -2   2   42.89    1.77
  -1  -2   2   44.54    1.49
  -1  -2   2   44.22    1.66
   0   2  -2    9.06    0.80
   0   2  -2   10.28    1.20
   0   2  -2   10.00    0.89
   0   2  -2    9.23    0.90
   0   2  -2    9.51    1.04
   0   2  -2    7.51    0.66
   0   2  -2    9.19    0.84
   0  -2   2    8.35    0.80
   0  -2   2    9.87    1.10
   0  -2   2    9.44    0.74
   0  -2   2    7.67    1.28
   0  -2   2   11.19    0.86
   0  -2   2   10.36    0.92
  -1   2  -2   46.03    1.78
  -1   2  -2   48.06    2.35
  -1   2  -2   48.50    1.93
  -1   2  -2   48.32    1.56
  -1   2  -2   47.27    1.80
   1  -2   2   43.91    1.77
   1  -2   2   46.68    1.60
   1  -2   2   47.18    1.93
   1  -2   2   47.74    1.95
   1  -2   2   47.63    1.77
   1  -2   2   47.22    1.80
  -2   2  -2   50.55    2.04
  -2   2  -2   49.34    2.56
  -2   2  -2   47.48    2.14
  -2   2  -2   46.76    1.87
  -2   2  -2   50.47    1.92
  -2   2  -2   49.08    1.80
  -2   2  -2   46.54    1.79
   2  -2   2   46.93    1.88
   2  -2   2   46.30    1.90
   2  -2   2   49.24    2.01
   2  -2   2   48.57    2.08
   2  -2   2   49.23    1.96
  -3   2  -2    0.51    1.08
  -3   2  -2    1.23    0.80
  -3   2  -2    1.78    0.67
  -3   2  -2    1.31    0.95
  -3   2  -2    0.55    0.51
   3  -2   2    0.38    0.61
   3  -2   2    1.54    0.64
   3  -2   2    0.38    0.75
   3  -2   2   -0.61    0.88
  -4   2  -2   17.74    2.08
  -4   2  -2   14.01    1.02
  -4   2  -2   15.32    1.66
  -4   2  -2   13.84    1.13
  -4   2  -2   17.89    1.84
   4  -2   2   14.04    1.18
   4  -2   2   14.00    1.62
   4  -2   2   12.96    1.53
   4  -2   2   15.02    1.10
  -5   2  -2   31.87    2.45
  -5   2  -2   30.94    2.30
  -5   2  -2   31.53    2.76
  -5   2  -2   28.70    1.60
  -5   2  -2   31.76    1.61
   5  -2   2   34.63    1.60
   5  -2   2   31.82    2.37
   5  -2   2   30.66    1.68
   5  -2   2   28.53    2.32
  -6   2  -2   11.72    1.97
  -6   2  -2   11.02    2.32
  -6   2  -2    7.04    1.97
   6  -2   2    9.00    0.96
   6  -2   2   11.95    2.07
   6  -2   2    9.40    1.91
   6  -2   2   12.59    1.13
  -7   2  -2    0.21    1.96
  -7   2  -2    0.60    1.88
   7  -2   2    0.90    1.85
   7  -2   2    2.36    1.95
   7  -2   2   -1.20    1.65
  -8   2  -2    0.73    1.72
  -8   2  -2   -0.81    2.01
   8  -2   2    0.87    2.20
   8  -2   2    1.35    2.11
   8  -2   2    1.89    2.12
  -9   2  -2    0.68    2.51
  -9   2  -2    2.89    2.66
   9  -2   2    3.49    2.62
   9  -2   2    5.35    3.11
   9  -2   2    2.00    2.36
   9   1  -2   -2.24    2.39
   9   1  -2    0.60    2.66
  -9  -1   2    0.87    2.52
  -9  -1   2   -2.21    2.30
   8   1  -2    6.20    2.54
   8   1  -2    5.81    2.28
  -8  -1   2    1.81    2.14
  -8  -1   2    3.04    2.42
   7   1  -2    5.52    2.01
   7   1  -2    6.38    2.25
   7   1  -2    4.66    1.43
  -7  -1   2    7.13    2.40
  -7  -1   2    6.60    1.56
  -7  -1   2    5.10    1.70
   6   1  -2    2.31    1.62
   6   1  -2   -0.43    1.41
   6   1  -2   -0.01    1.05
  -6  -1   2    0.68    1.55
  -6  -1   2   -0.20    1.09
  -6  -1   2    0.26    1.23
   5   1  -2    0.12    0.88
   5   1  -2    0.36    0.82
   5   1  -2    0.19    1.14
  -5  -1   2    0.31    0.96
  -5  -1   2    0.49    1.39
  -5  -1   2    0.34    1.22
   4   1  -2    0.39    0.60
   4   1  -2    1.11    0.83
   4   1  -2   -0.29    0.88
  -4  -1   2   -0.16    0.80
  -4  -1   2    2.82    1.26
  -4  -1   2    0.22    0.79
   3   1  -2   -1.85    0.82
   3   1  -2    0.38    0.32
   3   1  -2   -1.10    0.69
   3   1  -2    0.90    0.49
   3   1  -2    0.46    0.31
  -3  -1   2   -0.13    0.71
  -3  -1   2    0.07    0.30
  -3  -1   2    0.08    0.81
  -3  -1   2   -0.63    0.75
  -3  -1   2    0.41    0.32
   2   1  -2    0.09    0.25
   2   1  -2    0.63    0.57
   2   1  -2    0.27    0.33
   2   1  -2    0.66    0.72
   2   1  -2    0.21    0.32
  -2  -1   2    0.86    0.67
  -2  -1   2    0.21    0.32
  -2  -1   2    0.24    0.71
  -2  -1   2    0.40    0.24
  -2  -1   2    0.98    0.66
  -2  -1   2    0.38    0.36
   1   1  -2    2.81    0.72
   1   1  -2    3.36    0.50
   1   1  -2    3.68    0.56
   1   1  -2    3.35    0.55
   1   1  -2    3.69    0.56
   1   1  -2    2.51    0.62
   1   1  -2    3.40    0.51
   1   1  -2    4.15    0.84
  -1  -1   2    4.09    0.72
  -1  -1   2    3.57    0.59
  -1  -1   2    3.51    0.66
  -1  -1   2    3.50    0.47
  -1  -1   2    4.10    0.57
  -1  -1   2    2.75    0.49
   0   1  -2   45.35    1.37
   0   1  -2   45.71    2.04
   0   1  -2   43.24    1.62
   0   1  -2   43.55    1.59
   0   1  -2   44.78    1.64
   0   1  -2   43.42    1.44
   0   1  -2   47.04    1.95
   0   1  -2   46.88    1.61
   0  -1   2   46.09    1.66
   0  -1   2   45.29    1.62
   0  -1   2   47.03    1.67
   0  -1   2   44.33    2.11
   0  -1   2   41.12    1.45
   0  -1   2   47.03    1.93
   0  -1   2   45.48    1.61
   0  -1   2   46.33    1.48
  -1   1  -2   16.47    1.19
  -1   1  -2   16.04    0.92
  -1   1  -2   15.68    0.92
  -1   1  -2   17.01    1.00
  -1   1  -2   17.31    0.92
  -1   1  -2   16.93    0.93
   1  -1   2   16.78    0.76
   1  -1   2   15.70    0.96
   1  -1   2   15.62    1.23
   1  -1   2   17.39    0.84
   1  -1   2   16.69    0.87
   1  -1   2   15.70    0.78
   1  -1   2   16.97    0.86
   1  -1   2   16.19    0.74
  -2   1  -2    6.68    0.51
  -2   1  -2    9.76    0.94
  -2   1  -2    8.61    0.94
  -2   1  -2    8.64    1.11
   2  -1   2    7.12    0.78
   2  -1   2    8.16    0.76
   2  -1   2    7.15    0.54
   2  -1   2    7.05    0.89
   2  -1   2    7.89    0.69
   2  -1   2    9.34    0.84
  -3   1  -2   24.03    1.58
  -3   1  -2   22.72    0.95
  -3   1  -2   25.19    1.65
  -3   1  -2   22.90    1.70
  -3   1  -2   23.29    0.99
  -3   1  -2   24.04    1.27
   3  -1   2   22.01    1.48
   3  -1   2   24.01    1.21
   3  -1   2   24.38    1.16
   3  -1   2   22.76    1.59
  -4   1  -2   12.02    1.43
  -4   1  -2   11.18    0.93
  -4   1  -2   17.39    1.06
  -4   1  -2   11.09    0.77
  -4   1  -2   12.51    1.49
  -4   1  -2   13.12    1.82
   4  -1   2   12.89    1.42
   4  -1   2   12.48    0.91
   4  -1   2   11.46    0.97
   4  -1   2   10.80    1.34
  -5   1  -2   34.96    2.51
  -5   1  -2   35.71    2.42
  -5   1  -2   34.85    1.55
  -5   1  -2   34.05    2.27
   5  -1   2   34.45    1.57
   5  -1   2   33.36    2.22
   5  -1   2   35.23    2.29
   5  -1   2   35.88    1.50
  -6   1  -2   -1.13    1.21
  -6   1  -2   -0.66    1.16
  -6   1  -2   -0.74    0.53
  -6   1  -2   -0.10    1.40
   6  -1   2   -0.04    1.36
   6  -1   2    0.31    1.42
   6  -1   2    0.27    0.58
   6  -1   2    0.85    0.62
  -7   1  -2    0.82    1.91
  -7   1  -2   -1.16    1.80
  -7   1  -2    1.69    1.63
   7  -1   2    1.82    1.76
   7  -1   2   -0.08    1.66
  -8   1  -2    3.84    2.16
  -8   1  -2    5.69    2.12
   8  -1   2    8.10    2.55
   8  -1   2   15.93    2.73
   8  -1   2    6.67    2.25
  -9   1  -2    7.52    2.91
  -9   1  -2    0.75    2.26
   9  -1   2    8.59    2.76
   9  -1   2   10.19    2.65
   9  -1   2    5.80    2.85
   9   0  -2   -1.69    2.44
   9   0  -2    2.70    2.76
  -9   0   2   -1.01    2.50
  -9   0   2    3.17    2.16
   8   0  -2    7.44    2.61
   8   0  -2    9.18    2.44
  -8   0   2    6.67    2.68
  -8   0   2    6.46    2.48
   7   0  -2    6.92    1.64
   7   0  -2    3.32    1.73
   7   0  -2    4.08    2.02
  -7   0   2    1.98    2.13
  -7   0   2    1.09    1.48
  -7   0   2    3.03    2.06
   6   0  -2    2.78    1.19
   6   0  -2    1.17    1.61
   6   0  -2    2.47    1.67
  -6   0   2    0.83    1.14
  -6   0   2    2.72    1.73
  -6   0   2    2.28    1.82
   5   0  -2    9.12    1.30
   5   0  -2    6.90    1.37
   5   0  -2    6.42    1.67
  -5   0   2    7.16    1.60
  -5   0   2    5.14    1.21
  -5   0   2    7.14    1.75
   4   0  -2    1.86    1.10
   4   0  -2    4.90    1.23
   4   0  -2    3.11    0.86
  -4   0   2    3.10    1.17
  -4   0   2    2.71    0.94
  -4   0   2    1.58    0.94
   3   0  -2   30.20    1.46
   3   0  -2   27.90    2.08
   3   0  -2   23.68    1.68
  -3   0   2   33.12    0.93
  -3   0   2   29.34    2.04
  -3   0   2   31.96    1.71
  -3   0   2   29.30    1.84
  -3   0   2   32.23    0.92
   2   0  -2   32.49    1.25
   2   0  -2   31.35    1.04
   2   0  -2   23.29    1.43
   2   0  -2   31.50    1.02
   2   0  -2   29.49    1.74
  -2   0   2   31.67    1.06
  -2   0   2   31.87    1.09
  -2   0   2   32.47    1.55
  -2   0   2   30.68    1.70
  -2   0   2   32.57    1.22
  -2   0   2   29.43    1.54
   1   0  -2    2.78    0.56
   1   0  -2    3.82    0.81
   1   0  -2    2.69    0.60
   1   0  -2    3.51    0.43
   1   0  -2    3.49    0.34
   1   0  -2    2.83    0.57
   1   0  -2    2.64    0.39
   1   0  -2    3.67    0.72
  -1   0   2    3.83    0.65
  -1   0   2    3.08    0.40
  -1   0   2    3.00    0.66
  -1   0   2    3.35    0.73
  -1   0   2    3.57    0.43
  -1   0   2    2.97    0.63
  -1   0   2    3.28    0.42
  -1   0   2    4.70    0.65
   0   0  -2    0.32    0.28
   0   0  -2    0.27    0.41
   0   0  -2   -0.18    0.52
   0   0  -2   -0.24    0.55
   0   0  -2    0.32    0.43
   0   0  -2    0.06    0.28
   0   0   2    0.14    0.45
   0   0   2   -0.07    0.44
   0   0   2    0.30    0.37
   0   0   2   -0.28    0.49
   0   0   2   -0.17    0.41
   0   0   2    0.16    0.24
   0   0   2    0.30    0.33
   0   0   2    0.43    0.27
  -1   0  -2   17.91    1.09
  -1   0  -2   16.84    0.74
  -1   0  -2   16.23    0.77
  -1   0  -2   17.03    0.87
  -1   0  -2   16.92    0.87
  -1   0  -2   16.48    0.69
  -1   0  -2   17.38    0.84
  -1   0  -2   18.45    1.15
   1   0   2   13.51    1.02
   1   0   2   15.75    0.72
   1   0   2   16.24    0.66
   1   0   2   17.12    1.04
   1   0   2   17.62    0.92
   1   0   2   15.72    0.88
   1   0   2   15.88    0.86
  -2   0  -2  270.09    7.39
  -2   0  -2  261.89    7.75
  -2   0  -2  242.36    7.79
  -2   0  -2  256.10    7.51
  -2   0  -2  277.52    7.07
   2   0   2  263.47    7.53
   2   0   2  255.79    7.80
   2   0   2  252.53    7.06
   2   0   2  267.73    7.36
   2   0   2  260.72    7.53
   2   0   2  263.04    7.35
   2   0   2  260.02    7.71
   2   0   2  259.90    7.51
   2   0   2  263.77    7.40
  -3   0  -2    5.00    0.84
  -3   0  -2    5.27    1.22
  -3   0  -2    5.04    0.65
  -3   0  -2    3.97    0.59
  -3   0  -2    5.64    1.05
   3   0   2    4.21    0.89
   3   0   2    5.04    0.93
   3   0   2    5.44    0.66
  -4   0  -2    0.26    0.15
  -4   0  -2   -1.93    0.73
  -4   0  -2    0.23    0.41
  -4   0  -2    0.03    0.92
  -4   0  -2   -0.42    1.15
   4   0   2    0.13    0.50
   4   0   2    1.02    0.50
   4   0   2    0.20    0.62
   4   0   2    0.29    0.63
  -5   0  -2   67.29    3.59
  -5   0  -2   69.35    3.42
  -5   0  -2   66.71    2.27
  -5   0  -2   69.49    3.00
   5   0   2   67.99    2.27
   5   0   2   67.16    2.32
   5   0   2   71.25    3.06
   5   0   2   68.40    3.01
  -6   0  -2   55.00    2.95
  -6   0  -2   55.11    1.88
  -6   0  -2   55.13    3.37
  -6   0  -2   52.83    3.34
   6   0   2   51.63    1.92
   6   0   2   52.20    1.87
   6   0   2   54.08    2.93
   6   0   2   54.71    3.07
  -7   0  -2    1.76    2.01
  -7   0  -2    1.11    1.63
  -7   0  -2   -0.37    1.52
   7   0   2    1.38    1.52
   7   0   2   -0.66    1.51
  -8   0  -2    3.91    2.03
  -8   0  -2    1.77    2.22
   8   0   2    0.99    1.82
   8   0   2    0.82    1.98
   8   0   2   -4.08    1.90
  -9   0  -2    7.59    2.49
  -9   0  -2   11.40    3.14
   9   0   2   16.05    2.73
   9   0   2   12.59    2.82
   9   0   2   14.38    3.44
 -10   0  -2    4.15    2.65
 -10   0  -2    4.01    3.16
  10   0   2    3.78    2.70
  10   0   2    6.21    2.92
   9  -1  -2    1.19    2.66
   9  -1  -2   -0.97    2.73
  -9   1   2    0.92    2.79
  -9   1   2   -1.00    2.69
   8  -1  -2    4.76    2.69
   8  -1  -2    3.97    2.48
   8  -1  -2    7.66    2.83
  -8   1   2    3.61    2.49
  -8   1   2    3.51    2.44
   7  -1  -2    2.37    2.04
   7  -1  -2    1.90    2.05
   7  -1  -2    2.37    1.52
  -7   1   2    4.48    1.87
  -7   1   2    4.20    2.15
  -7   1   2    1.19    1.56
   6  -1  -2   22.11    2.11
   6  -1  -2   21.70    2.78
   6  -1  -2   17.01    2.51
  -6   1   2   22.36    2.92
  -6   1   2   16.51    1.89
  -6   1   2   17.87    2.39
   5  -1  -2   22.05    1.97
   5  -1  -2   23.53    2.44
   5  -1  -2   25.14    2.60
  -5   1   2   17.60    1.86
  -5   1   2   22.38    2.38
  -5   1   2   23.16    2.29
   4  -1  -2   22.08    1.98
   4  -1  -2   23.26    2.03
   4  -1  -2   25.42    1.74
  -4   1   2   21.73    1.78
  -4   1   2   22.66    1.80
  -4   1   2   22.23    1.66
   3  -1  -2   21.03    1.35
   3  -1  -2   19.77    1.78
   3  -1  -2   19.69    1.71
  -3   1   2   18.93    0.79
  -3   1   2   18.79    1.63
  -3   1   2   19.19    0.81
  -3   1   2   18.26    0.77
  -3   1   2   18.43    0.78
  -3   1   2   21.11    1.46
  -3   1   2   18.69    1.54
   2  -1  -2  213.00    6.71
   2  -1  -2  204.04    6.66
   2  -1  -2  214.48    6.31
  -2   1   2  215.78    6.51
  -2   1   2  211.82    5.98
  -2   1   2  210.98    5.99
  -2   1   2  217.72    6.60
  -2   1   2  216.48    5.97
  -2   1   2  217.52    6.01
  -2   1   2  217.99    6.48
   1  -1  -2  139.81    4.12
   1  -1  -2  136.21    4.35
   1  -1  -2  147.40    4.65
   1  -1  -2  138.63    4.32
   1  -1  -2  142.80    4.24
   1  -1  -2  141.93    4.32
   1  -1  -2  151.97    4.67
   1  -1  -2  142.19    4.09
  -1   1   2  143.28    4.10
  -1   1   2  146.21    4.40
  -1   1   2  143.54    4.35
  -1   1   2  142.95    4.53
  -1   1   2  144.63    4.14
  -1   1   2  149.75    4.70
  -1   1   2  144.23    4.36
   0  -1  -2   38.28    1.37
   0  -1  -2   34.21    1.82
   0  -1  -2   38.83    1.30
   0  -1  -2   37.58    1.26
   0  -1  -2   36.61    1.45
   0  -1  -2   38.79    1.72
   0  -1  -2   38.17    1.33
   0  -1  -2   37.65    1.35
   0   1   2   38.41    1.43
   0   1   2   38.99    1.30
   0   1   2   36.10    1.55
   0   1   2   35.12    1.74
   0   1   2   37.49    1.36
   0   1   2   36.78    1.33
  -1  -1  -2   64.87    2.29
  -1  -1  -2   68.61    2.09
  -1  -1  -2   65.16    2.23
  -1  -1  -2   65.28    2.15
  -1  -1  -2   66.97    2.15
  -1  -1  -2   63.58    2.10
   1   1   2   64.86    2.08
   1   1   2   63.51    2.12
   1   1   2   63.06    2.15
   1   1   2   63.32    2.08
   1   1   2   65.32    2.04
   1   1   2   65.59    2.28
   1   1   2   63.86    2.10
  -2  -1  -2  974.96   26.60
  -2  -1  -2  924.51   26.48
  -2  -1  -2  984.74   26.74
  -2  -1  -2  996.27   26.82
  -2  -1  -2  988.62   26.61
  -2  -1  -2  970.69   26.44
   2   1   2 1000.00   26.77
   2   1   2  954.67   26.76
   2   1   2  944.75   26.50
   2   1   2  970.07   26.40
   2   1   2  951.59   26.25
   2   1   2  985.89   26.72
   2   1   2  966.55   26.41
   2   1   2  971.10   26.36
  -3  -1  -2   38.54    1.94
  -3  -1  -2   36.47    1.57
  -3  -1  -2   36.95    1.43
  -3  -1  -2   36.11    1.44
  -3  -1  -2   38.95    1.95
   3   1   2   33.68    1.12
   3   1   2   39.64    1.48
   3   1   2   34.41    1.46
   3   1   2   35.89    1.62
   3   1   2   36.03    1.79
   3   1   2   39.32    1.45
   3   1   2   38.92    1.14
  -4  -1  -2    0.48    0.87
  -4  -1  -2    1.83    0.51
  -4  -1  -2    1.90    1.20
  -4  -1  -2    1.21    1.00
   4   1   2    1.21    0.85
   4   1   2    0.71    0.25
   4   1   2    0.17    0.53
   4   1   2    0.59    0.48
   4   1   2    1.55    0.84
  -5  -1  -2    0.15    0.27
  -5  -1  -2   -0.27    0.40
  -5  -1  -2   -1.04    1.21
  -5  -1  -2   -0.21    0.87
  -5  -1  -2    0.55    0.80
   5   1   2    0.25    0.26
   5   1   2    0.26    0.45
   5   1   2   -0.51    0.87
   5   1   2   -1.81    0.79
   5   1   2    1.04    0.53
  -6  -1  -2   64.72    3.97
  -6  -1  -2   71.33    2.30
  -6  -1  -2   70.52    3.87
  -6  -1  -2   75.84    3.45
   6   1   2   71.54    3.32
   6   1   2   68.99    2.35
   6   1   2   71.74    2.33
  -7  -1  -2   21.93    3.04
  -7  -1  -2   18.06    2.17
  -7  -1  -2   20.64    2.72
   7   1   2   19.34    2.19
   7   1   2   19.46    2.21
  -8  -1  -2    1.30    1.95
  -8  -1  -2   -1.78    1.90
  -8  -1  -2   -0.64    1.70
   8   1   2   -0.81    1.72
   8   1   2    1.25    1.61
  -9  -1  -2   -2.07    1.88
  -9  -1  -2    1.57    1.94
   9   1   2    1.91    2.22
   9   1   2   -0.75    1.99
   9   1   2   -0.87    1.84
 -10  -1  -2    5.54    3.06
 -10  -1  -2    2.21    2.66
  10   1   2    2.16    2.23
  10   1   2    3.30    2.67
  10   1   2    3.89    3.27
   8  -2  -2   -1.04    2.62
   8  -2  -2    2.31    2.43
   8  -2  -2    8.78    2.35
  -8   2   2    3.55    2.52
  -8   2   2    5.02    2.65
   7  -2  -2    2.50    2.06
   7  -2  -2    3.33    2.33
   7  -2  -2    7.48    1.98
  -7   2   2   -1.28    2.03
  -7   2   2    2.60    2.19
   6  -2  -2    2.43    1.81
   6  -2  -2    1.59    1.58
   6  -2  -2    3.98    1.81
  -6   2   2    1.88    1.80
  -6   2   2    2.99    1.60
  -6   2   2    4.17    1.93
   5  -2  -2   20.34    2.37
   5  -2  -2   25.79    2.15
   5  -2  -2   22.84    2.54
  -5   2   2   22.43    2.40
  -5   2   2   17.39    2.23
  -5   2   2   19.73    0.78
  -5   2   2   24.51    2.05
  -5   2   2   17.60    0.70
   4  -2  -2   42.68    2.34
   4  -2  -2   41.84    2.79
   4  -2  -2   41.96    2.59
  -4   2   2   41.09    1.52
  -4   2   2   43.79    1.48
  -4   2   2   44.45    2.64
  -4   2   2   41.55    1.52
  -4   2   2   43.41    2.57
  -4   2   2   39.82    2.30
   3  -2  -2    1.52    0.92
   3  -2  -2    2.71    1.23
   3  -2  -2    2.13    0.90
  -3   2   2    1.95    0.48
  -3   2   2    0.98    0.46
  -3   2   2    0.58    0.37
  -3   2   2    1.82    0.85
  -3   2   2    1.58    0.92
  -3   2   2    0.92    0.96
   2  -2  -2    0.75    0.79
   2  -2  -2    3.37    1.32
   2  -2  -2   -1.12    0.75
  -2   2   2   -0.09    0.47
  -2   2   2   -0.44    0.75
  -2   2   2   -0.02    0.41
  -2   2   2    1.09    0.73
  -2   2   2   -0.41    0.86
  -2   2   2    0.39    0.42
   1  -2  -2  108.15    3.35
   1  -2  -2  107.20    3.50
   1  -2  -2  105.41    3.73
   1  -2  -2  100.69    3.83
  -1   2   2  110.50    3.52
  -1   2   2  109.14    3.34
  -1   2   2  108.25    3.52
  -1   2   2  105.31    3.50
  -1   2   2  105.20    3.23
  -1   2   2  108.01    3.29
   0  -2  -2  203.29    5.84
   0  -2  -2  204.04    6.17
   0  -2  -2  201.77    6.27
   0  -2  -2  199.76    6.00
   0  -2  -2  201.47    5.98
   0   2   2  208.66    5.89
   0   2   2  197.59    6.14
   0   2   2  207.53    5.85
   0   2   2  202.86    5.88
   0   2   2  207.99    6.24
   0   2   2  205.82    5.98
   0   2   2  205.64    6.02
   0   2   2  202.94    5.88
  -1  -2  -2   23.42    1.23
  -1  -2  -2   27.92    1.15
  -1  -2  -2   25.53    1.15
  -1  -2  -2   25.88    0.97
  -1  -2  -2   26.18    1.01
  -1  -2  -2   25.67    1.23
  -1  -2  -2   26.49    1.26
   1   2   2   26.03    1.15
   1   2   2   25.01    1.17
   1   2   2   24.42    1.10
   1   2   2   24.62    1.16
   1   2   2   25.28    1.19
   1   2   2   23.97    0.99
   1   2   2   24.28    1.19
   1   2   2   25.21    1.19
   1   2   2   25.10    0.94
  -2  -2  -2   13.65    0.98
  -2  -2  -2   14.69    1.16
  -2  -2  -2   12.47    0.90
  -2  -2  -2   13.79    0.72
  -2  -2  -2   13.41    0.89
  -2  -2  -2   15.05    0.87
   2   2   2   13.56    0.89
   2   2   2   13.57    0.95
   2   2   2   15.24    0.75
   2   2   2   14.74    0.81
   2   2   2   13.80    0.82
   2   2   2   13.03    0.84
   2   2   2   16.77    1.12
   2   2   2   12.81    0.80
  -3  -2  -2   26.11    1.44
  -3  -2  -2   27.78    1.29
  -3  -2  -2   25.20    1.73
  -3  -2  -2   23.87    1.49
  -3  -2  -2   26.90    1.81
   3   2   2   22.53    1.29
   3   2   2   24.54    1.27
   3   2   2   27.08    1.09
   3   2   2   24.82    1.08
   3   2   2   24.82    1.32
   3   2   2   22.58    1.16
   3   2   2   25.37    1.21
  -4  -2  -2   89.77    3.78
  -4  -2  -2   88.72    3.15
  -4  -2  -2   90.39    2.85
  -4  -2  -2   88.11    3.75
  -4  -2  -2   86.78    2.73
   4   2   2   85.71    2.82
   4   2   2   90.11    3.35
   4   2   2   85.78    2.86
   4   2   2   88.94    3.23
   4   2   2   87.22    2.75
  -5  -2  -2    7.76    0.74
  -5  -2  -2    5.79    1.61
  -5  -2  -2    5.96    1.26
  -5  -2  -2    6.55    0.65
  -5  -2  -2    5.62    1.11
   5   2   2    5.73    0.74
   5   2   2    6.87    1.28
   5   2   2    6.08    0.69
   5   2   2    5.84    1.09
  -6  -2  -2    0.36    0.52
  -6  -2  -2   -0.54    1.33
  -6  -2  -2    0.95    1.17
  -6  -2  -2    0.61    1.64
   6   2   2    1.16    0.56
   6   2   2    0.89    0.49
   6   2   2    0.60    0.63
   6   2   2    0.79    1.12
   6   2   2    2.52    1.26
  -7  -2  -2    7.12    1.70
  -7  -2  -2    8.13    2.00
  -7  -2  -2    8.50    1.90
   7   2   2   10.18    1.78
   7   2   2    5.43    1.69
  -8  -2  -2    6.41    2.55
  -8  -2  -2    5.57    1.88
  -8  -2  -2    7.83    2.39
   8   2   2    4.72    1.97
   8   2   2   10.67    2.00
  -9  -2  -2    1.20    1.99
  -9  -2  -2   -0.39    2.41
   9   2   2   -0.24    2.54
   9   2   2   -0.79    2.09
   9   2   2   -0.47    1.99
 -10  -2  -2   -0.94    2.62
 -10  -2  -2    1.74    2.44
  10   2   2    0.62    2.40
  10   2   2    1.27    3.05
  10   2   2    5.66    2.53
   8  -3  -2    0.70    3.08
   8  -3  -2    0.27    2.41
   8  -3  -2    3.30    2.37
  -8   3   2    0.48    2.50
  -8   3   2    1.43    2.11
   7  -3  -2    3.18    2.25
   7  -3  -2    1.60    1.97
   7  -3  -2   -1.94    2.32
  -7   3   2    1.12    2.26
  -7   3   2    1.84    2.18
   6  -3  -2   -0.85    1.65
   6  -3  -2   -2.19    1.98
   6  -3  -2    1.60    1.65
  -6   3   2   -0.13    1.85
  -6   3   2    2.21    1.49
  -6   3   2    1.65    1.77
   5  -3  -2    8.03    1.77
   5  -3  -2    5.71    2.14
   5  -3  -2    7.52    1.83
  -5   3   2    5.24    1.49
  -5   3   2    7.09    1.84
  -5   3   2    6.21    1.63
   4  -3  -2    9.83    1.61
   4  -3  -2    9.77    1.78
   4  -3  -2    9.84    2.08
  -4   3   2    9.43    1.72
  -4   3   2   11.56    0.99
  -4   3   2    7.43    1.41
  -4   3   2   10.04    1.66
  -4   3   2   10.07    0.84
  -4   3   2    8.90    0.88
   3  -3  -2   13.79    1.56
   3  -3  -2   13.33    1.49
   3  -3  -2   11.51    1.85
   3  -3  -2   12.72    1.05
  -3   3   2   16.17    1.77
  -3   3   2   14.39    1.61
  -3   3   2   12.61    1.01
  -3   3   2   11.44    1.40
  -3   3   2   13.46    0.98
   2  -3  -2   34.62    1.60
   2  -3  -2   36.42    1.97
   2  -3  -2   32.87    1.95
   2  -3  -2   36.64    2.53
  -2   3   2   34.34    1.99
  -2   3   2   34.76    1.82
  -2   3   2   32.45    1.74
  -2   3   2   36.03    1.54
  -2   3   2   34.16    1.45
   1  -3  -2  100.48    3.81
   1  -3  -2   96.03    3.49
   1  -3  -2   99.18    3.30
   1  -3  -2  102.44    3.37
   1  -3  -2  104.52    4.18
  -1   3   2   99.61    3.57
  -1   3   2  101.63    3.53
  -1   3   2  104.37    3.31
  -1   3   2   99.57    3.28
  -1   3   2   97.87    3.25
  -1   3   2  101.53    3.24
   0  -3  -2    0.27    0.41
   0  -3  -2    0.03    0.60
   0  -3  -2    0.70    0.76
   0  -3  -2    0.78    0.53
   0  -3  -2    0.03    0.67
   0   3   2    0.27    0.49
   0   3   2    0.76    0.30
   0   3   2   -0.15    0.61
   0   3   2   -0.29    0.50
   0   3   2    0.23    0.51
   0   3   2    0.62    0.57
  -1  -3  -2   73.46    2.73
  -1  -3  -2   78.66    2.63
  -1  -3  -2   76.00    2.82
  -1  -3  -2   73.75    2.62
   1   3   2   78.54    2.41
   1   3   2   77.82    2.36
   1   3   2   73.68    2.61
   1   3   2   75.60    2.71
   1   3   2   74.95    2.53
   1   3   2   77.45    2.55
   1   3   2   74.78    2.55
  -2  -3  -2   35.60    1.70
  -2  -3  -2   35.26    1.76
  -2  -3  -2   33.86    1.60
  -2  -3  -2   33.10    1.68
   2   3   2   33.29    1.37
   2   3   2   32.96    1.48
   2   3   2   34.47    1.42
   2   3   2   33.25    1.52
   2   3   2   32.06    1.55
   2   3   2   31.72    1.53
   2   3   2   33.15    1.48
  -3  -3  -2   47.71    2.22
  -3  -3  -2   44.53    2.42
  -3  -3  -2   47.80    1.92
  -3  -3  -2   44.97    2.38
  -3  -3  -2   46.87    2.13
   3   3   2   48.03    1.92
   3   3   2   47.08    1.92
   3   3   2   48.81    1.90
   3   3   2   48.61    1.85
  -4  -3  -2    4.22    1.22
  -4  -3  -2    4.04    1.05
  -4  -3  -2    3.77    1.22
  -4  -3  -2    5.14    0.76
  -4  -3  -2    3.21    0.92
   4   3   2    3.75    0.66
   4   3   2    2.66    0.58
   4   3   2    3.12    0.70
   4   3   2    3.92    0.96
  -5  -3  -2    2.78    0.69
  -5  -3  -2    2.57    1.01
  -5  -3  -2    2.24    1.41
  -5  -3  -2    3.73    1.37
   5   3   2    1.60    1.07
   5   3   2    2.60    0.61
   5   3   2    1.81    0.93
   5   3   2    2.11    0.60
   5   3   2    2.46    0.71
  -6  -3  -2   25.22    2.24
  -6  -3  -2   28.95    1.45
  -6  -3  -2   24.90    2.68
  -6  -3  -2   28.00    2.39
   6   3   2   24.76    1.39
   6   3   2   25.51    1.34
   6   3   2   26.60    2.05
   6   3   2   32.02    2.38
   6   3   2   24.98    1.50
  -7  -3  -2   11.06    2.56
  -7  -3  -2    9.72    1.83
  -7  -3  -2   12.74    2.42
   7   3   2   12.11    1.84
   7   3   2    7.42    1.84
  -8  -3  -2    0.11    2.22
  -8  -3  -2   -0.33    1.65
  -8  -3  -2   -2.03    1.75
   8   3   2    0.49    1.75
   8   3   2   -0.28    1.57
  -9  -3  -2    3.03    2.72
  -9  -3  -2   -2.48    2.03
   9   3   2   -0.86    1.98
   9   3   2    1.49    1.99
   9   3   2   -2.37    2.29
 -10  -3  -2    3.07    2.91
 -10  -3  -2    2.60    2.53
  10   3   2    6.39    2.76
  10   3   2    3.30    3.10
   8  -4  -2    3.04    2.63
   8  -4  -2   -0.71    3.31
  -8   4   2    0.78    2.77
  -8   4   2    1.72    2.86
   7  -4  -2   -0.95    2.85
   7  -4  -2    0.07    2.30
  -7   4   2   -1.86    2.26
  -7   4   2    0.46    2.27
   6  -4  -2    0.13    1.77
   6  -4  -2    2.41    1.93
   6  -4  -2    0.00    1.84
  -6   4   2   -1.13    1.54
  -6   4   2    1.00    2.03
  -6   4   2   -1.72    2.00
   5  -4  -2   56.11    3.44
   5  -4  -2   53.64    3.42
   5  -4  -2   48.05    3.96
  -5   4   2   53.23    3.61
  -5   4   2   56.92    3.32
  -5   4   2   52.12    3.08
   4  -4  -2   16.85    2.00
   4  -4  -2   15.20    1.32
   4  -4  -2   16.00    2.04
   4  -4  -2   14.24    2.22
  -4   4   2   16.23    1.23
  -4   4   2   16.97    1.43
  -4   4   2   15.77    2.14
  -4   4   2   16.22    2.08
  -4   4   2   12.18    1.76
   3  -4  -2    4.06    1.31
   3  -4  -2    3.29    1.65
   3  -4  -2    1.05    0.71
   3  -4  -2    1.21    0.96
  -3   4   2    0.98    0.61
  -3   4   2    1.44    0.72
  -3   4   2    2.61    1.16
  -3   4   2    1.79    1.26
  -3   4   2    1.15    1.02
   2  -4  -2    3.54    1.01
   2  -4  -2    2.86    0.89
   2  -4  -2    1.77    1.40
   2  -4  -2    3.43    1.15
  -2   4   2    2.39    0.89
  -2   4   2    3.25    0.75
  -2   4   2    3.09    0.99
  -2   4   2    3.45    0.91
   1  -4  -2  195.03    5.97
   1  -4  -2  186.51    6.20
   1  -4  -2  198.57    6.86
   1  -4  -2  192.60    6.09
  -1   4   2  197.49    5.86
  -1   4   2  189.90    5.67
  -1   4   2  197.11    5.89
  -1   4   2  192.67    5.86
  -1   4   2  193.33    6.19
  -1   4   2  192.67    6.20
   0  -4  -2   28.76    1.59
   0  -4  -2   25.66    1.25
   0  -4  -2   26.60    1.62
   0  -4  -2   24.62    2.16
   0  -4  -2   25.69    1.41
   0   4   2   28.29    1.26
   0   4   2   30.58    1.37
   0   4   2   28.30    1.46
   0   4   2   27.99    1.49
   0   4   2   25.70    1.59
   0   4   2   27.41    1.58
  -1  -4  -2    2.04    0.80
  -1  -4  -2    5.15    0.92
  -1  -4  -2    5.62    0.95
  -1  -4  -2    2.98    1.19
   1   4   2    5.83    1.01
   1   4   2    4.27    0.85
   1   4   2    4.34    0.84
   1   4   2    5.43    0.84
   1   4   2    6.37    0.71
   1   4   2    6.38    0.83
   1   4   2    6.43    0.90
  -2  -4  -2    0.50    0.75
  -2  -4  -2   -0.81    0.63
  -2  -4  -2   -0.34    0.76
  -2  -4  -2   -0.34    0.77
   2   4   2    0.22    0.75
   2   4   2    1.05    0.67
   2   4   2   -0.78    0.58
   2   4   2    0.11    0.60
  -3  -4  -2  150.98    5.20
  -3  -4  -2  144.78    4.78
  -3  -4  -2  158.82    5.00
  -3  -4  -2  152.03    5.08
  -3  -4  -2  147.02    4.99
   3   4   2  156.87    4.74
   3   4   2  144.85    4.80
   3   4   2  148.47    4.69
   3   4   2  148.53    4.78
  -4  -4  -2   75.64    3.47
  -4  -4  -2   75.11    3.17
  -4  -4  -2   77.44    2.93
  -4  -4  -2   77.22    3.42
   4   4   2   75.38    2.73
   4   4   2   77.87    3.07
   4   4   2   76.66    2.73
   4   4   2   72.42    2.82
  -5  -4  -2   23.14    2.26
  -5  -4  -2   25.21    2.34
  -5  -4  -2   20.81    1.68
  -5  -4  -2   21.21    1.48
   5   4   2   21.57    1.89
   5   4   2   23.41    1.40
   5   4   2   17.98    1.30
   5   4   2   23.43    1.57
   5   4   2   23.34    1.82
  -6  -4  -2    1.48    1.54
  -6  -4  -2    1.80    1.80
  -6  -4  -2    0.82    1.36
  -6  -4  -2    0.11    0.82
   6   4   2    1.22    1.35
   6   4   2    0.38    0.66
   6   4   2    1.60    1.22
   6   4   2    0.11    0.82
   6   4   2    0.39    0.66
  -7  -4  -2   40.00    2.72
  -7  -4  -2   40.28    3.53
  -7  -4  -2   34.34    3.47
   7   4   2   36.80    2.64
   7   4   2   39.62    2.66
  -8  -4  -2   11.14    2.75
  -8  -4  -2    4.96    1.96
  -8  -4  -2    5.30    2.54
   8   4   2   11.54    2.01
   8   4   2    8.85    1.94
  -9  -4  -2    6.27    2.44
  -9  -4  -2    4.46    2.20
   9   4   2    8.98    2.06
   9   4   2   12.97    2.78
   9   4   2   10.99    2.95
 -10  -4  -2   -0.57    1.96
 -10  -4  -2   -1.12    2.04
  10   4   2   -1.37    2.35
  10   4   2    1.31    2.71
   7  -5  -2    8.92    2.86
   7  -5  -2    9.49    3.67
  -7   5   2    7.71    2.83
  -7   5   2    7.40    2.43
   6  -5  -2    1.44    2.14
   6  -5  -2    1.04    2.91
  -6   5   2   -0.27    2.26
  -6   5   2   -0.94    1.43
  -6   5   2    3.78    1.96
   5  -5  -2   -0.05    2.34
   5  -5  -2    1.46    1.91
  -5   5   2   -0.51    1.64
  -5   5   2   -2.15    1.73
  -5   5   2   -0.75    1.32
   4  -5  -2   28.11    3.33
   4  -5  -2   28.95    2.55
   4  -5  -2   26.53    1.97
   4  -5  -2   29.31    2.79
  -4   5   2   33.35    2.83
  -4   5   2   28.89    1.74
  -4   5   2   28.22    2.38
  -4   5   2   31.30    2.44
   3  -5  -2   54.89    2.51
   3  -5  -2   61.78    4.03
   3  -5  -2   53.64    3.14
  -3   5   2   49.60    2.27
  -3   5   2   54.81    2.35
  -3   5   2   51.19    3.08
  -3   5   2   50.47    2.87
  -3   5   2   53.43    2.83
   2  -5  -2    3.23    1.76
   2  -5  -2    2.25    1.26
   2  -5  -2    3.47    0.98
   2  -5  -2    3.50    1.06
  -2   5   2    2.99    0.83
  -2   5   2    4.50    1.04
  -2   5   2    1.87    1.19
  -2   5   2    3.69    1.20
   1  -5  -2    5.27    0.63
   1  -5  -2    6.67    1.11
   1  -5  -2    5.46    1.28
   1  -5  -2    8.45    1.65
  -1   5   2    7.48    1.03
  -1   5   2    6.21    0.97
  -1   5   2    6.12    1.12
  -1   5   2    9.10    1.04
  -1   5   2    7.45    1.33
   0  -5  -2  123.26    3.70
   0  -5  -2  121.87    4.32
   0  -5  -2  121.65    4.90
   0  -5  -2  119.89    4.50
   0   5   2  127.80    4.24
   0   5   2  125.46    4.54
   0   5   2  128.50    4.20
   0   5   2  131.73    4.08
   0   5   2  127.11    4.44
   0   5   2  128.30    3.72
  -1  -5  -2   93.61    3.57
  -1  -5  -2   92.26    3.36
  -1  -5  -2   86.57    2.94
  -1  -5  -2   85.44    3.39
   1   5   2   89.67    3.30
   1   5   2   88.03    3.22
   1   5   2   89.88    3.39
   1   5   2   87.26    3.13
   1   5   2   83.42    3.16
  -2  -5  -2   11.79    1.20
  -2  -5  -2   13.34    1.48
  -2  -5  -2   10.47    1.39
  -2  -5  -2   14.45    1.39
   2   5   2   15.69    1.50
   2   5   2   16.17    1.37
   2   5   2   13.89    1.39
   2   5   2   13.77    1.23
   2   5   2   12.57    1.21
  -3  -5  -2    1.90    1.00
  -3  -5  -2    1.97    0.93
  -3  -5  -2    0.80    0.80
  -3  -5  -2    1.54    0.88
   3   5   2    0.83    0.72
   3   5   2    1.46    0.71
   3   5   2    1.52    0.87
   3   5   2    1.41    0.87
  -4  -5  -2   75.23    3.54
  -4  -5  -2   77.12    3.31
  -4  -5  -2   79.59    3.25
  -4  -5  -2   75.84    3.56
  -4  -5  -2   80.57    3.15
   4   5   2   73.93    2.92
   4   5   2   77.86    3.10
   4   5   2   78.99    2.96
   4   5   2   77.14    3.08
  -5  -5  -2    5.69    1.74
  -5  -5  -2    9.70    1.66
  -5  -5  -2    7.68    1.37
  -5  -5  -2    8.44    1.55
   5   5   2    9.24    1.40
   5   5   2    8.79    1.49
   5   5   2    6.18    0.99
   5   5   2    8.82    1.12
  -6  -5  -2    8.33    2.17
  -6  -5  -2    4.74    1.88
  -6  -5  -2    7.43    1.22
  -6  -5  -2    5.74    1.45
   6   5   2    3.85    1.04
   6   5   2    3.86    1.51
   6   5   2    8.27    1.54
   6   5   2    3.59    0.83
  -7  -5  -2    0.09    1.84
  -7  -5  -2   -0.45    1.35
  -7  -5  -2    0.97    2.08
   7   5   2    1.18    1.00
   7   5   2    2.59    1.79
   7   5   2    0.66    1.39
   7   5   2    0.02    0.75
  -8  -5  -2    3.23    1.93
  -8  -5  -2    3.89    2.04
   8   5   2    1.99    1.59
   8   5   2    6.16    2.16
   8   5   2    4.48    2.15
  -9  -5  -2    0.35    2.73
  -9  -5  -2    0.97    1.81
   9   5   2    2.55    1.86
   9   5   2   -1.72    2.08
   9   5   2   -0.35    2.15
 -10  -5  -2   -2.15    2.75
  10   5   2    0.19    2.42
  10   5   2    0.56    1.99
   6  -6  -2    1.92    2.38
   6  -6  -2    6.61    2.74
  -6   6   2    5.51    2.57
   5  -6  -2    4.55    2.92
   5  -6  -2    2.52    2.21
  -5   6   2    0.85    2.13
  -5   6   2    0.81    1.72
  -5   6   2    0.10    1.71
   4  -6  -2   -2.17    1.70
   4  -6  -2    0.64    2.39
   4  -6  -2    1.98    1.26
  -4   6   2    1.79    1.46
  -4   6   2    2.00    0.97
  -4   6   2    1.83    1.83
  -4   6   2    1.18    1.40
   3  -6  -2   30.24    2.85
   3  -6  -2   26.28    3.22
   3  -6  -2   26.07    2.08
  -3   6   2   28.38    2.40
  -3   6   2   29.71    2.20
  -3   6   2   27.03    1.82
  -3   6   2   23.69    2.71
   2  -6  -2   12.89    1.59
   2  -6  -2    8.40    1.55
   2  -6  -2   10.93    2.48
  -2   6   2   11.61    1.38
  -2   6   2   11.27    1.91
  -2   6   2    8.95    1.54
  -2   6   2   10.46    1.46
   1  -6  -2    0.15    1.23
   1  -6  -2    0.82    1.03
   1  -6  -2   -5.32    1.57
  -1   6   2   -0.81    0.81
  -1   6   2   -0.32    1.10
  -1   6   2    0.49    0.80
  -1   6   2    1.54    1.26
   0  -6  -2   13.79    2.08
   0  -6  -2    8.88    1.62
   0  -6  -2   12.17    1.49
   0   6   2   11.85    1.17
   0   6   2   12.19    1.66
   0   6   2   13.55    1.44
   0   6   2   12.01    1.63
  -1  -6  -2   27.09    2.08
  -1  -6  -2   28.21    2.09
  -1  -6  -2   28.52    1.28
  -1  -6  -2   24.86    1.68
   1   6   2   28.16    1.89
   1   6   2   28.48    2.04
   1   6   2   29.04    1.83
   1   6   2   25.83    1.67
  -2  -6  -2    1.35    0.78
  -2  -6  -2    0.52    1.09
  -2  -6  -2    1.07    1.06
  -2  -6  -2    1.04    0.74
   2   6   2   -0.05    0.85
   2   6   2    0.23    1.00
   2   6   2    2.43    0.97
   2   6   2    1.95    0.76
  -3  -6  -2    1.92    0.88
  -3  -6  -2    0.79    0.99
  -3  -6  -2    1.57    1.01
  -3  -6  -2    0.83    0.94
   3   6   2    0.85    0.89
   3   6   2    1.37    1.01
   3   6   2    1.12    0.90
   3   6   2    0.78    1.05
  -4  -6  -2    0.18    1.06
  -4  -6  -2   -0.19    1.10
  -4  -6  -2    1.28    1.23
  -4  -6  -2    0.79    0.78
   4   6   2   -1.15    0.92
   4   6   2    0.01    0.95
   4   6   2    1.05    1.10
   4   6   2    0.43    1.00
  -5  -6  -2    0.64    1.52
  -5  -6  -2    0.08    1.16
  -5  -6  -2   -0.04    1.17
  -5  -6  -2    0.16    1.42
   5   6   2   -0.75    1.24
   5   6   2   -0.14    1.07
   5   6   2   -0.77    1.05
   5   6   2    0.73    0.95
  -6  -6  -2    1.01    1.49
  -6  -6  -2    0.86    1.85
  -6  -6  -2    0.46    1.62
   6   6   2    0.86    1.46
   6   6   2   -0.43    1.34
   6   6   2    1.34    1.26
   6   6   2   -0.28    0.79
   6   6   2    0.80    1.17
  -7  -6  -2    1.91    2.06
  -7  -6  -2    0.74    2.14
  -7  -6  -2   -0.64    1.60
   7   6   2    1.14    1.75
   7   6   2    1.14    1.34
   7   6   2   -0.05    1.18
   7   6   2    0.33    0.89
   7   6   2    0.30    1.43
  -8  -6  -2    1.73    1.70
  -8  -6  -2   -0.41    1.72
   8   6   2    0.80    1.59
   8   6   2    3.10    2.08
   8   6   2    1.23    1.96
  -9  -6  -2    1.42    2.64
  -9  -6  -2   -0.45    1.73
   9   6   2    1.36    1.73
   9   6   2    2.08    2.28
   6  -7  -2    0.23    2.59
   6  -7  -2    3.42    3.40
  -6   7   2    3.12    2.76
   5  -7  -2    2.70    2.51
   5  -7  -2    2.62    3.07
  -5   7   2    1.87    2.35
  -5   7   2    3.04    1.75
   4  -7  -2    5.95    1.93
   4  -7  -2    5.74    2.84
   4  -7  -2    6.06    1.78
  -4   7   2    6.78    2.27
  -4   7   2    4.02    1.71
   3  -7  -2    1.72    2.44
   3  -7  -2    4.90    1.73
   3  -7  -2    4.90    1.67
  -3   7   2    3.18    1.28
  -3   7   2    3.80    1.30
  -3   7   2    3.99    1.92
   2  -7  -2   -0.40    1.57
   2  -7  -2    1.59    2.48
   2  -7  -2    0.12    1.33
  -2   7   2    0.71    1.01
  -2   7   2    0.83    1.51
  -2   7   2    0.40    1.36
  -2   7   2    1.15    1.00
   1  -7  -2    7.78    1.83
   1  -7  -2    5.63    2.20
   1  -7  -2    6.43    1.31
  -1   7   2    6.14    1.33
  -1   7   2   10.56    1.93
  -1   7   2    6.99    1.22
  -1   7   2    8.27    1.71
   0  -7  -2   12.23    1.75
   0  -7  -2   11.91    1.96
   0  -7  -2   12.04    2.34
   0   7   2   13.33    1.41
   0   7   2   12.74    1.92
   0   7   2   12.73    1.61
   0   7   2   11.97    1.90
  -1  -7  -2    4.23    1.08
  -1  -7  -2    3.82    1.26
  -1  -7  -2    5.73    1.57
   1   7   2    1.86    1.13
   1   7   2    4.14    1.39
   1   7   2    2.81    0.99
   1   7   2    6.32    1.55
  -2  -7  -2   19.36    2.02
  -2  -7  -2   16.42    1.91
  -2  -7  -2   15.46    1.68
   2   7   2   18.12    1.79
   2   7   2   15.86    1.99
   2   7   2   18.94    1.98
   2   7   2   17.13    1.89
  -3  -7  -2   -0.04    1.13
  -3  -7  -2    0.20    0.98
  -3  -7  -2   -0.42    1.08
  -3  -7  -2    1.33    1.30
   3   7   2    0.44    1.14
   3   7   2    1.33    1.28
   3   7   2    0.41    0.99
   3   7   2    1.46    1.29
  -4  -7  -2    6.06    1.46
  -4  -7  -2    8.04    1.56
  -4  -7  -2    7.93    1.63
  -4  -7  -2    8.40    1.59
   4   7   2    7.65    1.38
   4   7   2    8.06    1.48
   4   7   2    9.23    1.82
   4   7   2    5.05    1.38
  -5  -7  -2    2.90    1.47
  -5  -7  -2    1.13    1.26
  -5  -7  -2   -0.21    1.60
   5   7   2   -0.21    1.46
   5   7   2   -0.62    1.17
   5   7   2   -0.55    1.22
   5   7   2    2.04    1.47
   5   7   2   -0.48    0.90
  -6  -7  -2   15.20    2.64
   6   7   2   16.86    2.27
   6   7   2   14.30    1.97
   6   7   2   12.40    1.51
   6   7   2   14.23    2.20
   6   7   2   12.42    1.95
   6   7   2   15.28    2.32
   6   7   2   13.49    1.98
  -7  -7  -2    4.96    1.88
  -7  -7  -2    6.69    2.51
   7   7   2    4.02    1.79
   7   7   2    4.61    1.94
   7   7   2    1.13    0.95
   7   7   2    3.65    1.42
   7   7   2    4.28    1.98
   7   7   2    3.44    1.47
  -8  -7  -2    1.02    2.50
  -8  -7  -2    2.75    1.74
   8   7   2    0.32    1.93
   8   7   2    1.92    2.03
   8   7   2    1.14    2.03
  -9  -7  -2    2.17    2.86
   9   7   2   -0.21    1.61
   9   7   2    1.64    2.30
   5  -8  -2    0.87    3.51
   5  -8  -2    0.42    2.56
  -5   8   2    2.18    2.59
  -5   8   2    0.56    1.67
   4  -8  -2    0.19    2.32
   4  -8  -2   -2.41    2.59
  -4   8   2    0.98    1.61
  -4   8   2    3.04    2.35
   3  -8  -2   17.32    2.32
   3  -8  -2   20.50    3.01
   3  -8  -2   16.80    3.43
  -3   8   2   24.68    3.09
  -3   8   2   16.83    2.39
  -3   8   2   19.38    1.99
   2  -8  -2    4.12    1.75
   2  -8  -2    3.18    1.57
   2  -8  -2    2.79    2.32
  -2   8   2    0.36    1.77
  -2   8   2    3.61    1.31
  -2   8   2    2.04    1.70
   1  -8  -2   12.29    1.99
   1  -8  -2   13.62    2.10
   1  -8  -2    9.47    2.53
  -1   8   2   13.80    1.77
  -1   8   2   12.85    2.22
  -1   8   2   11.78    2.18
   0  -8  -2    0.43    2.13
   0  -8  -2    2.73    1.71
   0  -8  -2    3.88    1.58
   0   8   2    1.17    1.18
   0   8   2   -1.81    1.40
   0   8   2   -0.51    1.14
  -1  -8  -2   26.27    2.71
  -1  -8  -2   22.10    2.71
  -1  -8  -2   21.59    2.30
   1   8   2   24.13    2.65
   1   8   2   19.17    2.43
   1   8   2   25.90    2.25
   1   8   2   19.90    2.29
  -2  -8  -2    0.65    1.49
  -2  -8  -2    2.10    1.28
  -2  -8  -2   -0.01    0.93
   2   8   2   -0.25    1.26
   2   8   2    0.93    0.92
   2   8   2   -0.71    1.38
   2   8   2   -1.56    1.11
  -3  -8  -2   18.59    2.35
  -3  -8  -2   16.79    2.16
  -3  -8  -2   17.48    2.08
   3   8   2   18.80    2.35
   3   8   2   16.75    2.23
   3   8   2   19.53    2.22
   3   8   2   20.91    2.04
   3   8   2   18.40    1.60
  -4  -8  -2    9.24    1.88
  -4  -8  -2   16.78    2.19
  -4  -8  -2   11.20    1.89
   4   8   2   12.17    1.71
   4   8   2    9.72    1.75
   4   8   2    9.30    1.59
   4   8   2   11.37    2.10
   4   8   2   11.74    2.06
  -5  -8  -2   11.80    2.02
  -5  -8  -2   16.13    2.29
  -5  -8  -2   13.19    1.99
   5   8   2   15.44    2.13
   5   8   2   14.81    1.82
   5   8   2   10.02    1.88
   5   8   2   13.37    2.22
   5   8   2   16.82    2.36
   6   8   2   -0.81    1.46
   6   8   2    1.77    1.49
   6   8   2   -3.67    1.50
   6   8   2    0.58    1.11
   6   8   2   -4.00    1.65
   6   8   2    0.90    1.55
   6   8   2    0.58    1.68
   6   8   2    1.03    1.44
   7   8   2   17.34    2.48
   7   8   2   18.19    2.77
   7   8   2   16.02    2.30
   7   8   2   19.09    2.89
   7   8   2   12.84    2.34
   7   8   2   14.45    2.78
   7   8   2   18.52    2.34
   8   8   2    3.02    2.13
   8   8   2    2.19    2.23
   8   8   2    4.62    2.26
   8   8   2    0.92    2.29
  -9  -8  -2    1.51    2.97
   9   8   2    0.91    2.38
   9   8   2    0.59    2.25
   4  -9  -2   -1.36    2.70
   4  -9  -2    0.48    3.16
  -4   9   2    4.23    2.56
  -4   9   2    1.01    1.84
   3  -9  -2    2.30    2.86
   3  -9  -2   -1.50    2.32
   3  -9  -2   -2.93    1.72
  -3   9   2   -0.55    1.62
  -3   9   2    1.99    2.30
   2  -9  -2   13.00    2.31
   2  -9  -2    4.57    2.58
   2  -9  -2   10.98    2.71
  -2   9   2   12.19    2.58
  -2   9   2   10.88    2.34
   1  -9  -2   -0.64    1.97
   1  -9  -2   -1.43    1.72
   1  -9  -2   -0.50    2.27
  -1   9   2    1.21    1.74
  -1   9   2   -1.70    1.80
   0  -9  -2   16.84    2.91
   0  -9  -2    9.79    2.40
   0  -9  -2   16.20    2.17
   0   9   2   11.56    2.32
   0   9   2   16.60    2.54
  -1  -9  -2    1.81    1.31
  -1  -9  -2    2.83    1.97
  -1  -9  -2    3.82    1.92
   1   9   2    0.97    1.72
   1   9   2    1.96    1.12
   1   9   2    3.68    1.84
  -2  -9  -2   14.43    2.24
  -2  -9  -2    9.74    2.38
  -2  -9  -2   13.06    2.16
   2   9   2   12.15    1.84
   2   9   2   16.40    2.35
   2   9   2   11.20    2.26
  -3  -9  -2    1.19    1.37
  -3  -9  -2   -0.55    1.31
  -3  -9  -2    0.11    1.52
   3   9   2   -0.53    1.26
   3   9   2    0.40    1.24
   3   9   2    0.90    1.66
  -4  -9  -2   32.70    2.54
  -4  -9  -2   32.33    2.64
  -4  -9  -2   35.05    3.20
   4   9   2   31.08    2.68
   4   9   2   34.32    2.58
   4   9   2   41.28    3.21
  -5  -9  -2   -1.31    1.47
  -5  -9  -2    1.07    1.64
  -5  -9  -2    1.89    1.61
   5   9   2    0.67    1.72
   5   9   2    3.32    1.83
   5   9   2    2.63    1.63
   6   9   2    2.75    2.10
   6   9   2    3.48    1.89
   6   9   2    1.54    1.60
   6   9   2    0.93    1.78
   6   9   2   -0.74    1.87
   6   9   2    0.91    1.61
   7   9   2    3.09    1.79
   7   9   2    1.25    1.93
   7   9   2    2.03    2.02
   7   9   2    0.99    1.92
   7   9   2    2.79    2.15
   7   9   2    2.24    1.81
   7   9   2    1.84    1.77
   8   9   2   11.84    2.89
   8   9   2    9.54    2.70
   8   9   2   17.12    3.55
  -3  10   2    2.94    2.07
   2 -10  -2    1.00    2.01
   2 -10  -2   -0.80    2.31
  -2  10   2    1.72    2.18
  -2  10   2   -0.98    1.88
   1 -10  -2    1.61    2.13
   1 -10  -2    3.22    2.39
  -1  10   2    1.58    2.12
  -1  10   2    0.95    1.88
   0 -10  -2   -1.18    1.41
   0 -10  -2    1.65    2.21
   0  10   2   -2.10    2.22
   0  10   2    0.62    1.97
  -1 -10  -2    2.15    1.56
  -1 -10  -2    7.16    2.10
   1  10   2    4.43    2.21
   1  10   2    5.01    2.15
  -2 -10  -2   -0.58    1.79
  -2 -10  -2    0.57    2.14
   2  10   2   -1.35    1.86
   2  10   2   -0.66    1.76
  -3 -10  -2    1.39    1.46
  -3 -10  -2    3.52    2.18
   3  10   2    6.45    2.28
   3  10   2    3.96    1.92
  -4 -10  -2    2.45    2.02
  -4 -10  -2    1.55    1.81
   4  10   2    1.54    1.72
   4  10   2    3.59    1.68
  -5 -10  -2    0.78    1.77
  -5 -10  -2   -0.05    1.84
   5  10   2    2.92    2.07
   5  10   2    1.74    1.78
  -6 -10  -2    5.18    2.23
   6  10   2    3.15    2.14
   6  10   2    4.11    2.36
   6  10   2    3.17    2.10
   7  10   2    7.89    2.40
   7  10   2    4.05    3.07
   7  10   2    4.89    2.22
   7  10   2    5.11    3.41
   1 -11  -2   -1.34    2.32
   1 -11  -2    2.30    2.46
  -1  11   2   -0.63    1.63
  -1  11   2   -1.87    2.57
   0 -11  -2    7.86    2.17
   0 -11  -2    4.05    2.57
   0  11   2    3.62    2.49
   0  11   2    3.74    2.43
  -1 -11  -2    3.04    1.85
  -1 -11  -2    2.75    2.00
   1  11   2   -5.47    1.86
   1  11   2    1.22    2.26
  -2 -11  -2    1.34    2.55
  -2 -11  -2   -2.00    1.94
   2  11   2    0.61    1.77
   2  11   2    0.85    2.03
  -3 -11  -2    8.00    2.91
  -3 -11  -2    2.14    2.03
   3  11   2    1.98    2.07
   3  11   2    2.78    2.36
  -4 -11  -2    5.57    2.52
  -4 -11  -2    7.72    2.38
   4  11   2   12.01    2.92
   4  11   2    7.29    2.26
  -5 -11  -2    0.76    2.15
   5  11   2    0.29    2.31
   5  11   2    4.17    2.35
   5  11   2    4.74    2.48
   6  11   2   -2.56    2.30
   6  11   2   -0.05    2.13
   3  11  -3   -1.64    2.34
   3  11  -3   -0.32    2.46
   3  11  -3   -1.78    2.77
  -3 -11   3   -2.20    2.03
   2  11  -3    5.59    3.65
   2  11  -3    6.09    3.03
   2  11  -3    6.05    2.28
  -2 -11   3   13.15    2.80
   1  11  -3    3.46    2.88
   1  11  -3    4.74    2.64
  -1 -11   3    1.76    2.67
  -1 -11   3    5.23    2.05
   0  11  -3   -5.54    2.50
   0  11  -3   -1.99    2.13
   0 -11   3    0.17    2.40
   0 -11   3   -3.06    2.43
   5  10  -3   11.23    3.36
   5  10  -3   10.57    2.88
  -5 -10   3    6.78    2.30
  -5 -10   3    9.62    2.83
   4  10  -3   18.33    3.62
   4  10  -3   22.51    3.31
  -4 -10   3   22.34    3.42
  -4 -10   3   20.69    2.93
   3  10  -3    0.82    2.42
   3  10  -3   -0.22    2.24
  -3 -10   3    1.11    1.95
  -3 -10   3    2.96    2.39
   2  10  -3   -0.58    2.03
   2  10  -3   -1.78    2.52
   2  10  -3    0.93    2.34
  -2 -10   3    3.35    2.11
  -2 -10   3   -1.41    1.99
   1  10  -3   12.50    2.70
   1  10  -3   15.28    3.13
   1  10  -3   11.36    3.19
  -1 -10   3   18.33    2.82
  -1 -10   3   11.38    2.81
   0  10  -3   24.68    3.17
   0  10  -3   15.43    3.40
   0  10  -3   19.99    3.40
   0 -10   3   27.18    2.99
   0 -10   3   17.95    3.14
  -1  10  -3   -1.22    2.47
  -1  10  -3    2.45    1.99
  -1  10  -3   -0.12    2.42
   1 -10   3   -0.10    2.35
   1 -10   3    0.20    1.69
  -2  10  -3    7.53    2.19
  -2  10  -3    2.24    2.87
   2 -10   3    3.11    2.50
   2 -10   3    4.43    2.59
   7   9  -3   15.87    3.76
   7   9  -3   10.44    2.97
  -7  -9   3    7.03    2.55
   6   9  -3    2.44    2.64
   6   9  -3   -0.62    2.24
  -6  -9   3    2.79    2.24
  -6  -9   3   -2.80    2.20
   5   9  -3    0.96    2.22
   5   9  -3    0.17    2.48
  -5  -9   3   -2.51    1.60
  -5  -9   3   -0.05    2.08
   4   9  -3    8.56    2.52
   4   9  -3    5.18    2.67
  -4  -9   3    9.57    2.17
  -4  -9   3    6.44    1.72
   3   9  -3   33.52    3.32
   3   9  -3   29.18    3.93
  -3  -9   3   33.68    3.26
  -3  -9   3   27.13    2.77
  -3  -9   3   39.66    3.59
   2   9  -3   -1.09    1.41
   2   9  -3   -2.30    1.93
  -2  -9   3   -1.66    1.67
  -2  -9   3   -2.34    1.81
  -2  -9   3   -0.10    1.29
   1   9  -3    0.17    1.99
   1   9  -3   -1.75    2.01
   1   9  -3    1.46    1.89
  -1  -9   3   -2.13    1.91
  -1  -9   3   -0.90    1.62
   0   9  -3    8.02    2.46
   0   9  -3    5.00    1.98
   0   9  -3    0.66    2.36
   0  -9   3    4.39    1.68
   0  -9   3    8.11    2.37
  -1   9  -3   14.36    2.90
  -1   9  -3    3.80    2.61
  -1   9  -3   10.48    2.28
   1  -9   3   11.20    2.12
   1  -9   3    9.77    2.65
  -2   9  -3   -1.20    1.47
  -2   9  -3    0.57    1.91
  -2   9  -3    2.16    2.49
   2  -9   3   -0.74    2.23
   2  -9   3    0.12    2.06
  -3   9  -3   -1.35    1.71
  -3   9  -3   -2.11    2.43
  -3   9  -3    4.46    2.21
   3  -9   3   -2.54    1.65
   3  -9   3   -0.80    1.98
  -4   9  -3    5.64    2.39
  -4   9  -3    0.51    2.69
  -4   9  -3   -0.69    1.69
   4  -9   3    1.79    2.02
   4  -9   3   -0.64    2.14
   7   8  -3    1.91    2.18
   7   8  -3    3.83    2.26
  -7  -8   3    3.68    2.20
  -7  -8   3    1.65    2.34
   6   8  -3    7.96    2.45
   6   8  -3    5.07    2.68
  -6  -8   3    6.30    2.29
  -6  -8   3    5.36    1.73
   5   8  -3    4.76    1.82
   5   8  -3    2.75    2.11
   5   8  -3    2.59    2.29
  -5  -8   3    2.75    1.33
  -5  -8   3    5.22    1.77
  -5  -8   3    2.48    2.00
   4   8  -3    0.78    1.85
   4   8  -3    2.03    1.56
   4   8  -3    3.60    2.31
  -4  -8   3    3.90    2.02
  -4  -8   3    1.89    1.60
  -4  -8   3    2.43    1.33
   3   8  -3    4.17    2.28
   3   8  -3    2.42    1.59
   3   8  -3    5.08    2.02
  -3  -8   3    4.76    1.46
  -3  -8   3    5.61    1.79
  -3  -8   3    4.61    1.53
  -3  -8   3    3.69    1.93
   2   8  -3    6.86    2.08
   2   8  -3    1.92    2.03
  -2  -8   3    2.61    1.62
  -2  -8   3   -0.56    1.23
  -2  -8   3    3.29    1.46
  -2  -8   3    0.47    1.74
   1   8  -3   -0.84    1.83
   1   8  -3    6.31    2.06
  -1  -8   3    0.95    2.11
  -1  -8   3    1.71    1.36
  -1  -8   3    2.96    1.45
  -1  -8   3    3.14    1.62
   0   8  -3    7.49    1.92
   0   8  -3    7.01    1.89
   0   8  -3    3.59    2.19
   0  -8   3    7.32    1.62
   0  -8   3    9.14    2.17
   0  -8   3    5.64    1.75
  -1   8  -3   -0.18    1.52
  -1   8  -3    2.20    1.97
  -1   8  -3   -1.82    1.80
   1  -8   3    0.60    1.68
   1  -8   3   -0.08    1.28
   1  -8   3    1.79    1.98
  -2   8  -3   -0.47    1.42
  -2   8  -3   -0.21    2.06
  -2   8  -3   -0.17    1.77
   2  -8   3    0.45    1.93
   2  -8   3   -1.57    1.45
   2  -8   3   -0.81    1.67
  -3   8  -3    2.98    2.40
  -3   8  -3    3.14    1.58
  -3   8  -3    7.01    2.19
   3  -8   3    4.91    1.67
   3  -8   3    2.97    2.23
  -4   8  -3    1.64    1.93
  -4   8  -3    1.21    2.37
  -4   8  -3   -0.34    1.35
   4  -8   3   -1.51    2.29
   4  -8   3    0.83    1.90
  -5   8  -3    4.29    2.38
  -5   8  -3    2.53    2.48
   5  -8   3    3.85    2.30
   5  -8   3    2.37    2.68
   8   7  -3    2.57    2.87
   8   7  -3    7.36    2.74
  -8  -7   3   -0.30    2.35
  -8  -7   3    3.58    2.10
   7   7  -3    9.26    2.68
   7   7  -3    7.92    2.98
  -7  -7   3    9.90    2.25
  -7  -7   3    9.46    2.56
   6   7  -3    0.35    1.76
   6   7  -3    0.96    2.19
  -6  -7   3    0.17    1.52
  -6  -7   3   -2.34    1.86
  -6  -7   3   -1.55    1.74
   5   7  -3    4.68    2.34
   5   7  -3    6.12    1.88
  -5  -7   3    2.74    1.12
  -5  -7   3    2.60    1.88
  -5  -7   3    4.60    1.49
  -5  -7   3    2.36    1.78
   4   7  -3   46.98    3.89
   4   7  -3   42.43    2.93
   4   7  -3   47.49    3.33
  -4  -7   3   46.54    2.38
  -4  -7   3   43.26    2.89
  -4  -7   3   44.41    2.62
  -4  -7   3   45.55    3.18
   3   7  -3   13.93    1.92
   3   7  -3   15.53    2.79
   3   7  -3   16.43    2.36
  -3  -7   3   18.33    1.98
  -3  -7   3   15.62    1.78
  -3  -7   3   17.61    2.38
  -3  -7   3   18.42    1.80
   2   7  -3   12.48    2.26
   2   7  -3    6.54    1.53
   2   7  -3    9.23    2.00
  -2  -7   3   11.18    1.68
  -2  -7   3   10.38    1.78
  -2  -7   3   14.60    2.14
  -2  -7   3    9.47    1.75
   1   7  -3   14.46    2.20
   1   7  -3    9.30    1.36
   1   7  -3    9.65    2.30
  -1  -7   3   13.52    2.09
  -1  -7   3   13.78    1.92
  -1  -7   3   13.91    2.16
  -1  -7   3   12.25    1.71
   0   7  -3   45.57    3.56
   0   7  -3   42.39    2.78
   0  -7   3   46.68    3.20
   0  -7   3   44.92    2.93
   0  -7   3   45.71    2.90
   0  -7   3   46.93    2.75
  -1   7  -3    5.98    1.59
  -1   7  -3    6.48    1.97
  -1   7  -3    9.00    2.37
   1  -7   3    8.06    2.08
   1  -7   3    3.87    1.41
   1  -7   3    8.20    1.77
  -2   7  -3   15.94    2.12
  -2   7  -3   10.92    2.34
  -2   7  -3   13.02    2.36
   2  -7   3   12.52    1.73
   2  -7   3   13.48    2.13
   2  -7   3   10.99    2.28
  -3   7  -3    8.96    1.73
  -3   7  -3   10.36    2.32
  -3   7  -3    9.84    2.45
   3  -7   3    9.39    1.63
   3  -7   3    8.63    1.94
   3  -7   3   10.13    2.10
  -4   7  -3   10.01    2.56
  -4   7  -3   12.51    2.57
  -4   7  -3    8.63    1.71
   4  -7   3    7.04    1.45
   4  -7   3    5.55    1.87
   4  -7   3    7.97    2.02
  -5   7  -3    5.94    2.30
  -5   7  -3    1.70    2.33
   5  -7   3    0.79    1.72
   5  -7   3    1.30    2.36
  -6   7  -3    5.22    2.59
  -6   7  -3    7.57    2.61
   6  -7   3    5.54    2.85
   8   6  -3    2.87    2.43
   8   6  -3   -0.73    2.42
   8   6  -3    1.68    1.86
  -8  -6   3   -3.09    2.02
  -8  -6   3   -0.02    2.05
   7   6  -3   15.69    2.99
   7   6  -3   15.00    2.28
   7   6  -3   17.94    3.04
  -7  -6   3   12.76    2.63
  -7  -6   3   15.76    2.55
   6   6  -3   25.81    3.50
   6   6  -3   25.04    3.14
   6   6  -3   19.88    2.26
  -6  -6   3   17.77    2.67
  -6  -6   3   22.49    2.57
   5   6  -3   10.98    2.15
   5   6  -3   10.55    2.23
   5   6  -3    7.76    1.42
  -5  -6   3    8.61    1.93
  -5  -6   3   11.45    2.16
  -5  -6   3    9.35    1.48
  -5  -6   3    6.61    1.25
   4   6  -3    2.51    1.01
   4   6  -3    2.64    1.41
   4   6  -3    5.23    2.12
  -4  -6   3    5.26    0.94
  -4  -6   3    2.55    1.37
  -4  -6   3    0.61    1.50
  -4  -6   3    3.86    1.22
  -4  -6   3    3.75    1.58
   3   6  -3   18.27    1.25
   3   6  -3   18.59    2.25
   3   6  -3   19.98    2.23
   3   6  -3   20.45    2.84
  -3  -6   3   22.08    2.30
  -3  -6   3   18.88    1.52
  -3  -6   3   21.01    2.03
  -3  -6   3   17.55    1.77
   2   6  -3   30.31    2.44
   2   6  -3   34.17    2.99
   2   6  -3   35.46    2.48
   2   6  -3   35.70    1.32
  -2  -6   3   37.33    2.49
  -2  -6   3   35.36    2.26
  -2  -6   3   35.92    2.38
  -2  -6   3   39.84    2.25
   1   6  -3   19.19    2.03
   1   6  -3   17.30    2.57
   1   6  -3   13.29    1.61
  -1  -6   3   15.08    1.91
  -1  -6   3   14.66    2.00
  -1  -6   3   17.21    1.72
  -1  -6   3   17.19    1.71
   0   6  -3   18.18    2.00
   0   6  -3   15.38    1.27
   0   6  -3   15.45    2.50
   0  -6   3   17.51    1.67
   0  -6   3   17.27    2.03
   0  -6   3   18.85    1.81
   0  -6   3   20.61    2.22
  -1   6  -3    3.30    1.26
  -1   6  -3    4.62    0.58
  -1   6  -3    3.72    1.89
   1  -6   3    4.64    0.93
   1  -6   3    4.74    1.62
   1  -6   3    2.71    1.04
   1  -6   3    5.40    1.32
   1  -6   3    6.48    1.49
  -2   6  -3   24.24    2.40
  -2   6  -3   24.29    2.26
  -2   6  -3   23.27    2.60
   2  -6   3   28.79    2.41
   2  -6   3   19.53    1.98
   2  -6   3   24.71    2.06
   2  -6   3   23.14    2.51
  -3   6  -3   21.62    2.72
  -3   6  -3   25.19    2.98
  -3   6  -3   26.42    2.27
   3  -6   3   21.71    2.25
   3  -6   3   19.17    2.59
   3  -6   3   23.00    2.07
   3  -6   3   20.21    2.36
  -4   6  -3   23.13    2.99
  -4   6  -3   22.59    2.81
  -4   6  -3   24.67    2.36
   4  -6   3   20.60    2.76
   4  -6   3   21.32    1.96
   4  -6   3   21.44    2.71
   4  -6   3   26.06    2.44
  -5   6  -3    4.22    2.09
  -5   6  -3    2.24    2.16
   5  -6   3   -0.13    1.94
   5  -6   3    2.19    1.49
   5  -6   3    2.75    1.28
   5  -6   3    2.26    1.71
  -6   6  -3    1.18    2.14
  -6   6  -3   -0.60    2.22
   6  -6   3   -0.89    1.79
   6  -6   3    0.47    2.83
  -7   6  -3    7.41    2.75
  -7   6  -3    0.19    2.52
   7  -6   3    2.70    2.86
   7  -6   3   -0.45    5.05
   9   5  -3   -0.03    2.73
   9   5  -3    2.95    2.74
   9   5  -3    7.54    2.51
  -9  -5   3   -2.42    2.22
  -9  -5   3    3.21    2.24
   8   5  -3    1.51    1.90
   8   5  -3    1.19    2.27
   8   5  -3    0.54    2.43
  -8  -5   3    1.11    2.18
  -8  -5   3    1.88    2.01
  -8  -5   3    2.30    2.02
   7   5  -3    2.18    2.31
   7   5  -3    2.01    2.03
   7   5  -3    2.00    1.66
  -7  -5   3   -1.17    1.72
  -7  -5   3   -0.88    1.98
   6   5  -3    8.35    2.19
   6   5  -3    5.99    1.71
   6   5  -3    6.34    2.43
  -6  -5   3    4.86    1.74
  -6  -5   3    9.36    2.15
   5   5  -3   13.82    1.67
   5   5  -3   11.73    2.21
   5   5  -3   17.42    2.59
  -5  -5   3   13.96    2.07
  -5  -5   3   13.65    1.51
  -5  -5   3   12.82    2.14
  -5  -5   3   12.47    1.31
   4   5  -3    6.97    0.88
   4   5  -3   10.16    1.20
   4   5  -3    8.59    1.26
   4   5  -3    8.38    2.06
   4   5  -3    7.36    1.70
  -4  -5   3    7.65    1.17
  -4  -5   3   10.55    1.56
  -4  -5   3    7.82    1.73
  -4  -5   3    6.83    1.23
   3   5  -3    2.32    1.54
   3   5  -3    2.51    0.75
   3   5  -3    2.71    0.99
   3   5  -3    2.44    1.17
  -3  -5   3    2.97    1.07
  -3  -5   3    2.84    0.99
  -3  -5   3    1.94    0.70
  -3  -5   3    4.10    1.35
  -3  -5   3    2.04    1.02
   2   5  -3    9.28    0.74
   2   5  -3    9.73    1.19
   2   5  -3    8.38    1.35
   2   5  -3    8.36    1.94
   2   5  -3    9.35    1.57
  -2  -5   3    9.34    1.26
  -2  -5   3   10.38    1.14
  -2  -5   3   11.44    1.57
  -2  -5   3   10.21    1.38
   1   5  -3    2.41    1.02
   1   5  -3    2.55    1.03
   1   5  -3    2.67    1.17
   1   5  -3    1.72    0.90
  -1  -5   3    3.47    0.98
  -1  -5   3    2.65    1.01
  -1  -5   3    3.22    1.06
  -1  -5   3    2.77    1.12
   0   5  -3   18.00    1.45
   0   5  -3   20.13    1.97
   0   5  -3   18.83    2.34
   0  -5   3   22.18    1.95
   0  -5   3   22.39    2.01
   0  -5   3   19.15    1.78
   0  -5   3   20.41    1.70
  -1   5  -3   16.62    1.07
  -1   5  -3   14.96    1.86
  -1   5  -3   12.33    1.95
   1  -5   3   15.59    1.22
   1  -5   3   15.89    1.48
   1  -5   3   17.60    1.62
   1  -5   3   17.20    1.73
   1  -5   3   14.95    1.85
  -2   5  -3   -0.46    1.18
  -2   5  -3    0.46    0.56
  -2   5  -3   -0.03    0.89
  -2   5  -3    0.57    1.44
   2  -5   3    0.76    1.06
   2  -5   3    0.15    0.93
   2  -5   3   -0.13    1.27
   2  -5   3   -0.01    1.14
  -3   5  -3    3.68    1.61
  -3   5  -3    3.14    1.36
  -3   5  -3    3.14    0.85
  -3   5  -3    3.56    1.17
   3  -5   3    2.55    1.28
   3  -5   3    6.91    1.69
   3  -5   3    1.05    1.18
   3  -5   3    4.08    1.11
  -4   5  -3    8.58    2.27
  -4   5  -3   12.94    2.05
  -4   5  -3   10.13    1.34
  -4   5  -3   10.62    1.45
   4  -5   3   11.07    1.71
   4  -5   3    9.84    1.42
   4  -5   3    9.93    2.06
   4  -5   3   11.91    2.15
  -5   5  -3    2.36    1.18
  -5   5  -3    6.10    2.09
  -5   5  -3    4.02    1.94
   5  -5   3    2.80    1.39
   5  -5   3    4.74    1.16
   5  -5   3    6.26    2.18
   5  -5   3    3.25    1.60
  -6   5  -3    1.81    2.09
  -6   5  -3    4.31    2.27
   6  -5   3    3.84    2.53
   6  -5   3    0.93    2.24
  -7   5  -3    2.81    2.41
  -7   5  -3   -3.41    2.25
   7  -5   3    1.32    2.51
   7  -5   3   -0.33    2.44
  -8   5  -3    3.86    2.63
  -8   5  -3    2.03    2.89
   8  -5   3    0.18    3.19
   8  -5   3    1.00    2.90
   9   4  -3   -0.91    2.21
   9   4  -3    0.13    2.59
  -9  -4   3   -0.01    2.50
  -9  -4   3   -0.85    2.51
   8   4  -3   -0.05    1.86
   8   4  -3   -0.96    2.11
  -8  -4   3   -0.18    2.08
  -8  -4   3   -0.71    1.70
   7   4  -3    4.11    1.91
   7   4  -3    6.20    2.30
  -7  -4   3    2.60    1.85
  -7  -4   3    1.14    1.99
  -7  -4   3    3.07    1.80
   6   4  -3    2.20    1.46
   6   4  -3    2.61    1.50
  -6  -4   3   -0.35    1.54
  -6  -4   3    1.19    1.92
  -6  -4   3    3.42    1.82
   5   4  -3   -0.44    1.33
   5   4  -3    1.20    1.77
   5   4  -3    0.48    1.09
   5   4  -3    0.88    0.71
   5   4  -3    0.28    0.63
  -5  -4   3    2.08    1.54
  -5  -4   3    0.17    1.20
  -5  -4   3    0.16    0.80
  -5  -4   3    0.45    0.71
  -5  -4   3    0.74    1.25
   4   4  -3    0.52    0.53
   4   4  -3   -0.55    0.69
   4   4  -3    1.05    0.96
   4   4  -3    1.17    1.44
   4   4  -3    0.14    1.18
  -4  -4   3    1.72    0.93
  -4  -4   3   -0.16    0.72
  -4  -4   3    2.08    1.29
  -4  -4   3    0.41    0.71
   3   4  -3    1.69    1.06
   3   4  -3    1.84    0.68
   3   4  -3    0.64    0.77
   3   4  -3    0.80    1.28
  -3  -4   3    1.56    0.83
  -3  -4   3    1.94    0.54
  -3  -4   3    1.05    0.73
  -3  -4   3    2.57    1.16
  -3  -4   3    1.80    0.82
   2   4  -3    5.97    0.94
   2   4  -3    7.70    0.72
   2   4  -3    8.77    1.72
   2   4  -3    7.82    1.29
  -2  -4   3    6.63    1.07
  -2  -4   3    8.16    1.35
  -2  -4   3    7.65    0.80
  -2  -4   3    6.73    1.01
  -2  -4   3    7.13    1.25
   1   4  -3   16.79    1.38
   1   4  -3   14.16    1.64
   1   4  -3   14.34    2.01
   1   4  -3   16.43    1.64
  -1  -4   3   14.76    1.26
  -1  -4   3   18.36    1.40
  -1  -4   3   16.08    1.34
  -1  -4   3   14.50    1.23
   0   4  -3   33.15    1.74
   0   4  -3   30.74    2.42
   0   4  -3   32.63    1.90
   0   4  -3   28.00    1.71
   0  -4   3   30.52    1.75
   0  -4   3   31.65    1.74
   0  -4   3   34.33    1.90
   0  -4   3   31.14    1.88
  -1   4  -3    0.55    0.77
  -1   4  -3   -0.56    0.85
  -1   4  -3    1.28    0.57
  -1   4  -3    1.31    0.77
   1  -4   3    0.17    0.67
   1  -4   3    0.18    0.98
   1  -4   3    1.54    0.83
   1  -4   3   -0.31    0.77
   1  -4   3   -1.03    0.78
  -2   4  -3    1.82    0.64
  -2   4  -3    1.42    1.03
  -2   4  -3    1.30    0.83
  -2   4  -3    1.19    1.08
   2  -4   3    3.11    1.04
   2  -4   3    2.46    0.97
   2  -4   3    1.30    0.84
   2  -4   3    2.05    0.90
   2  -4   3    1.32    0.95
  -3   4  -3   60.26    2.54
  -3   4  -3   52.89    3.16
  -3   4  -3   56.28    3.02
  -3   4  -3   58.69    2.48
   3  -4   3   55.71    2.52
   3  -4   3   56.38    3.03
   3  -4   3   59.50    2.72
   3  -4   3   55.00    2.68
  -4   4  -3   12.74    2.25
  -4   4  -3   12.01    1.39
  -4   4  -3   10.97    1.89
  -4   4  -3   11.59    1.47
   4  -4   3   10.09    1.66
   4  -4   3   12.21    1.38
   4  -4   3   13.19    1.58
   4  -4   3   12.80    1.93
  -5   4  -3   -0.16    0.85
  -5   4  -3    0.10    1.11
  -5   4  -3    0.82    1.79
  -5   4  -3   -0.08    1.65
   5  -4   3   -0.66    1.42
   5  -4   3    0.71    0.87
   5  -4   3    1.12    1.11
   5  -4   3   -0.64    1.14
  -6   4  -3    1.83    1.93
  -6   4  -3    1.87    2.01
  -6   4  -3   -0.70    1.22
   6  -4   3   -0.63    1.05
   6  -4   3   -0.50    1.74
   6  -4   3   -1.71    1.82
  -7   4  -3    8.17    2.56
  -7   4  -3   15.89    2.99
   7  -4   3   16.42    3.06
   7  -4   3   17.89    2.94
  -8   4  -3    2.96    2.77
  -8   4  -3    2.85    2.51
   8  -4   3    0.19    2.90
   8  -4   3    7.16    2.78
   9   3  -3   -0.39    2.27
   9   3  -3    0.94    2.72
  -9  -3   3    0.28    2.58
  -9  -3   3    2.71    2.68
   8   3  -3    2.28    2.47
   8   3  -3    4.26    2.17
  -8  -3   3    0.38    2.26
  -8  -3   3    0.69    1.86
   7   3  -3    3.13    1.99
   7   3  -3    2.35    1.83
  -7  -3   3    0.42    1.94
  -7  -3   3   -0.19    1.56
  -7  -3   3    1.71    1.46
   6   3  -3    6.40    1.69
   6   3  -3    6.59    1.96
  -6  -3   3    3.28    1.39
  -6  -3   3    3.84    1.51
  -6  -3   3    1.45    1.90
   5   3  -3    5.02    1.70
   5   3  -3    7.43    0.80
   5   3  -3    9.07    1.58
   5   3  -3    5.87    0.74
  -5  -3   3    7.77    0.76
  -5  -3   3    7.20    0.80
  -5  -3   3    8.49    1.81
  -5  -3   3    5.68    1.43
  -5  -3   3    8.97    2.08
   4   3  -3   54.96    3.20
   4   3  -3   52.25    2.04
   4   3  -3   56.37    2.56
   4   3  -3   52.35    1.82
  -4  -3   3   57.25    2.76
  -4  -3   3   58.69    2.13
  -4  -3   3   55.07    2.85
  -4  -3   3   52.55    2.13
  -4  -3   3   50.81    3.02
   3   3  -3   58.76    3.09
   3   3  -3   65.63    1.96
   3   3  -3   59.97    1.93
   3   3  -3   60.42    2.28
   3   3  -3   63.24    2.46
   3   3  -3   59.37    3.23
  -3  -3   3   62.71    2.69
  -3  -3   3   62.40    2.81
  -3  -3   3   65.67    2.42
  -3  -3   3   63.17    2.36
   2   3  -3   15.90    1.57
   2   3  -3   15.46    1.62
   2   3  -3   15.22    0.83
   2   3  -3   13.34    1.00
   2   3  -3   16.70    1.14
  -2  -3   3   20.41    1.73
  -2  -3   3   16.03    1.27
  -2  -3   3   15.89    0.81
  -2  -3   3   19.17    1.55
  -2  -3   3   15.36    1.16
   1   3  -3    7.09    0.74
   1   3  -3    7.84    0.88
   1   3  -3    4.82    0.41
   1   3  -3    5.34    1.62
  -1  -3   3    8.40    1.23
  -1  -3   3    9.52    1.14
  -1  -3   3    7.10    0.92
  -1  -3   3    6.81    0.86
  -1  -3   3    7.11    0.84
   0   3  -3  237.63    7.03
   0   3  -3  229.05    7.87
   0   3  -3  236.14    7.44
   0   3  -3  237.74    7.20
   0  -3   3  227.39    7.10
   0  -3   3  237.79    7.05
   0  -3   3  241.86    7.18
   0  -3   3  240.21    7.13
  -1   3  -3   65.99    2.59
  -1   3  -3   63.96    2.74
  -1   3  -3   73.55    3.64
  -1   3  -3   62.79    2.64
   1  -3   3   66.58    2.61
   1  -3   3   64.02    2.57
   1  -3   3   79.00    2.85
   1  -3   3   68.64    2.52
   1  -3   3   67.32    2.22
   1  -3   3   65.91    2.08
  -2   3  -3   24.66    1.53
  -2   3  -3   28.21    1.54
  -2   3  -3   26.11    2.07
  -2   3  -3   27.85    1.84
   2  -3   3   23.52    1.78
   2  -3   3   25.74    1.39
   2  -3   3   25.38    1.64
   2  -3   3   25.07    1.53
   2  -3   3   27.21    1.47
  -3   3  -3    5.09    1.00
  -3   3  -3    7.85    1.66
  -3   3  -3    5.51    1.31
  -3   3  -3    7.13    0.93
   3  -3   3    4.09    1.25
   3  -3   3    6.49    0.97
   3  -3   3    4.56    0.94
   3  -3   3    5.45    1.04
  -4   3  -3   66.37    2.52
  -4   3  -3   61.21    3.43
  -4   3  -3   55.92    2.72
  -4   3  -3   64.40    3.16
  -4   3  -3   63.64    2.97
   4  -3   3   62.83    2.68
   4  -3   3   60.06    2.51
   4  -3   3   59.26    2.96
   4  -3   3   66.35    2.94
  -5   3  -3   35.26    2.39
  -5   3  -3   38.55    3.14
  -5   3  -3   30.41    2.71
  -5   3  -3   37.91    1.91
   5  -3   3   33.98    2.73
   5  -3   3   37.29    2.63
   5  -3   3   36.03    2.19
   5  -3   3   35.27    1.98
  -6   3  -3    2.30    1.54
  -6   3  -3    1.73    1.89
  -6   3  -3    2.49    1.57
   6  -3   3    0.59    1.73
   6  -3   3    3.39    1.82
   6  -3   3    1.96    1.08
   6  -3   3    2.53    0.94
  -7   3  -3   -0.95    1.61
  -7   3  -3    2.68    2.22
  -7   3  -3    0.07    1.96
   7  -3   3    0.49    1.98
   7  -3   3   -0.70    1.79
  -8   3  -3    6.01    2.61
  -8   3  -3   10.16    2.94
   8  -3   3    9.32    2.67
   8  -3   3   15.42    2.98
   8  -3   3    9.39    2.73
  -9   3  -3    1.43    2.63
  -9   3  -3    0.74    2.64
   9  -3   3    2.18    2.72
   9  -3   3    2.20    2.73
   9   2  -3    1.99    2.51
   9   2  -3    2.93    2.97
  -9  -2   3    5.45    2.84
  -9  -2   3    4.02    2.72
   8   2  -3    1.77    2.49
   8   2  -3    4.44    2.27
  -8  -2   3   -2.36    2.15
  -8  -2   3    0.77    2.28
   7   2  -3   32.39    3.69
   7   2  -3   27.09    2.97
  -7  -2   3   23.59    3.08
  -7  -2   3   22.34    2.88
  -7  -2   3   30.76    2.48
   6   2  -3   10.58    2.28
   6   2  -3   11.08    1.27
   6   2  -3   10.76    1.98
  -6  -2   3    8.87    2.05
  -6  -2   3    9.12    2.02
  -6  -2   3   10.95    1.82
   5   2  -3   18.06    2.34
   5   2  -3   22.86    2.18
   5   2  -3   18.97    0.79
   5   2  -3   20.86    1.26
  -5  -2   3   22.32    2.69
  -5  -2   3   17.88    1.86
  -5  -2   3   19.29    2.16
   4   2  -3    1.83    1.01
   4   2  -3    2.63    0.54
   4   2  -3    1.52    0.49
   4   2  -3    1.64    1.02
  -4  -2   3    2.35    1.21
  -4  -2   3    3.07    1.16
  -4  -2   3    1.85    0.54
  -4  -2   3    2.14    0.51
  -4  -2   3    2.43    1.07
   3   2  -3  146.78    4.30
   3   2  -3  135.92    4.01
   3   2  -3  149.88    5.42
   3   2  -3  145.19    4.79
  -3  -2   3  139.49    4.90
  -3  -2   3  136.72    5.33
  -3  -2   3  146.35    4.33
  -3  -2   3  144.55    4.90
  -3  -2   3  146.74    4.40
   2   2  -3   28.55    1.36
   2   2  -3   23.67    1.76
   2   2  -3   23.06    2.01
   2   2  -3   27.60    1.48
  -2  -2   3   29.77    1.42
  -2  -2   3   28.34    1.72
  -2  -2   3   24.23    1.51
  -2  -2   3   26.34    1.30
   1   2  -3   11.84    1.22
   1   2  -3   11.13    0.62
   1   2  -3   11.27    0.83
   1   2  -3   14.59    1.67
   1   2  -3   12.59    1.00
  -1  -2   3   13.40    1.02
  -1  -2   3   11.91    0.68
  -1  -2   3   13.63    1.17
  -1  -2   3   13.17    1.29
  -1  -2   3   11.95    1.08
  -1  -2   3   11.90    0.71
   0   2  -3    0.00    0.77
   0   2  -3    0.48    0.14
   0   2  -3    0.36    0.67
   0   2  -3   -0.31    0.58
   0   2  -3    0.93    0.74
   0   2  -3    0.05    0.44
   0  -2   3    0.14    0.57
   0  -2   3    0.70    0.66
   0  -2   3    0.58    0.19
   0  -2   3    0.70    0.55
   0  -2   3    0.92    0.68
  -1   2  -3  207.12    6.21
  -1   2  -3  199.31    6.05
  -1   2  -3  187.10    6.62
  -1   2  -3  207.65    6.00
   1  -2   3  198.80    5.95
   1  -2   3  193.72    5.63
   1  -2   3  201.32    6.04
   1  -2   3  203.18    5.66
   1  -2   3  200.90    5.95
   1  -2   3  201.77    6.04
  -2   2  -3   98.75    3.34
  -2   2  -3   99.81    4.06
  -2   2  -3   98.54    3.52
  -2   2  -3   99.50    3.50
   2  -2   3   97.93    3.23
   2  -2   3   97.16    3.41
   2  -2   3   97.78    3.54
   2  -2   3  103.17    3.23
   2  -2   3   94.86    3.31
  -3   2  -3    4.30    1.27
  -3   2  -3    7.24    0.81
  -3   2  -3    6.22    1.20
  -3   2  -3    7.03    1.09
   3  -2   3    6.61    0.94
   3  -2   3    4.02    1.09
   3  -2   3    5.56    1.04
   3  -2   3    7.13    1.05
  -4   2  -3    0.91    0.90
  -4   2  -3    0.76    1.23
  -4   2  -3    1.29    0.54
  -4   2  -3    0.89    0.62
  -4   2  -3    1.46    1.09
   4  -2   3    1.60    0.74
   4  -2   3    1.37    0.76
   4  -2   3    0.41    0.90
   4  -2   3    1.06    1.03
  -5   2  -3   60.29    3.76
  -5   2  -3   60.62    2.28
  -5   2  -3   65.33    3.33
  -5   2  -3   65.27    2.60
  -5   2  -3   61.62    3.22
   5  -2   3   66.74    3.19
   5  -2   3   63.31    3.25
   5  -2   3   61.54    2.48
   5  -2   3   63.87    2.62
  -6   2  -3   20.90    2.55
  -6   2  -3   26.19    2.68
  -6   2  -3   20.27    2.67
   6  -2   3   24.99    1.52
   6  -2   3   26.18    2.61
   6  -2   3   27.45    1.70
   6  -2   3   23.58    2.45
  -7   2  -3    0.45    1.79
  -7   2  -3    0.30    1.93
  -7   2  -3    2.13    1.61
   7  -2   3    1.23    1.89
   7  -2   3    1.48    1.89
  -8   2  -3   -0.93    2.02
  -8   2  -3   -0.35    1.70
  -8   2  -3    0.64    1.66
   8  -2   3   -2.96    2.04
   8  -2   3   -0.39    2.09
  -9   2  -3    6.46    2.91
  -9   2  -3    2.45    2.76
   9  -2   3    4.88    2.75
   9  -2   3    1.38    2.49
   9  -2   3    7.29    2.64
   9   1  -3    0.96    2.69
   9   1  -3    3.22    2.93
  -9  -1   3    2.18    2.69
  -9  -1   3    1.19    2.66
   8   1  -3    4.16    2.49
   8   1  -3    0.88    1.91
  -8  -1   3   -0.04    2.19
  -8  -1   3   -2.45    2.14
   7   1  -3   -0.90    1.81
   7   1  -3   -0.50    1.76
  -7  -1   3   -1.10    1.32
  -7  -1   3    0.64    1.94
  -7  -1   3   -0.26    1.47
   6   1  -3   21.80    2.87
   6   1  -3   16.53    2.37
   6   1  -3   24.21    1.73
  -6  -1   3   24.24    3.00
  -6  -1   3   16.96    2.01
  -6  -1   3   17.61    2.43
   5   1  -3   14.24    1.25
   5   1  -3   15.95    1.99
   5   1  -3   13.61    2.18
  -5  -1   3   14.60    2.06
  -5  -1   3   11.62    1.64
  -5  -1   3   12.73    1.93
   4   1  -3    1.88    1.00
   4   1  -3    1.93    0.65
   4   1  -3    2.19    0.31
   4   1  -3    2.19    0.32
   4   1  -3    2.81    1.11
  -4  -1   3    3.05    1.14
  -4  -1   3    2.08    0.34
  -4  -1   3    3.65    1.12
  -4  -1   3    1.90    0.31
  -4  -1   3    1.78    1.16
   3   1  -3    0.00    0.39
   3   1  -3   -0.54    0.38
   3   1  -3   -0.39    0.99
   3   1  -3   -0.17    0.89
   3   1  -3   -0.50    0.43
  -3  -1   3   -0.12    0.45
  -3  -1   3    0.27    0.89
  -3  -1   3   -0.39    0.91
  -3  -1   3   -0.74    0.72
  -3  -1   3    0.08    0.42
   2   1  -3   59.60    1.95
   2   1  -3   54.67    2.33
   2   1  -3   58.62    2.80
   2   1  -3   55.32    1.96
  -2  -1   3   54.54    2.38
  -2  -1   3   56.34    2.69
  -2  -1   3   56.51    2.02
  -2  -1   3   55.54    2.44
  -2  -1   3   56.50    1.97
   1   1  -3  147.79    4.50
   1   1  -3  142.98    4.37
   1   1  -3  149.37    4.36
   1   1  -3  140.07    4.84
   1   1  -3  158.94    5.13
  -1  -1   3  145.13    4.45
  -1  -1   3  144.71    4.60
  -1  -1   3  144.71    4.37
  -1  -1   3  143.88    4.41
  -1  -1   3  145.07    4.52
   0   1  -3   15.83    0.94
   0   1  -3   14.59    0.96
   0   1  -3   14.04    0.74
   0   1  -3   14.73    0.93
   0   1  -3   15.10    1.45
   0   1  -3   13.61    1.29
   0   1  -3   15.02    0.70
   0  -1   3   15.66    0.91
   0  -1   3   13.86    1.21
   0  -1   3   15.53    0.86
   0  -1   3   12.37    0.88
   0  -1   3   12.90    0.89
   0  -1   3   14.26    1.03
   0  -1   3   14.86    1.29
   0  -1   3   15.19    0.77
  -1   1  -3    4.03    0.67
  -1   1  -3    4.52    0.50
  -1   1  -3    5.28    1.03
  -1   1  -3    4.51    0.63
  -1   1  -3    2.95    0.54
  -1   1  -3    4.00    0.72
   1  -1   3    4.49    0.50
   1  -1   3    3.48    0.70
   1  -1   3    3.90    0.67
   1  -1   3    5.22    0.63
   1  -1   3    3.68    0.76
   1  -1   3    4.57    0.66
   1  -1   3    4.71    0.61
  -2   1  -3  106.00    3.25
  -2   1  -3  107.79    3.47
  -2   1  -3  109.48    3.78
  -2   1  -3  111.43    3.51
  -2   1  -3  110.86    4.11
   2  -1   3  110.80    3.59
   2  -1   3  110.14    3.46
   2  -1   3  106.99    3.25
   2  -1   3  108.63    3.53
   2  -1   3  106.60    3.46
   2  -1   3  102.73    3.40
  -3   1  -3   28.57    1.05
  -3   1  -3   22.12    1.91
  -3   1  -3   25.52    1.81
  -3   1  -3   25.61    1.69
  -3   1  -3   24.31    1.01
   3  -1   3   29.61    1.75
   3  -1   3   27.63    1.46
   3  -1   3   24.75    1.55
   3  -1   3   29.25    1.41
  -4   1  -3   26.77    0.98
  -4   1  -3   25.31    0.93
  -4   1  -3   25.47    2.17
  -4   1  -3   23.92    1.41
  -4   1  -3   26.36    1.75
  -4   1  -3   26.13    1.92
   4  -1   3   28.14    1.77
   4  -1   3   24.77    1.32
   4  -1   3   28.05    1.44
   4  -1   3   23.70    1.77
  -5   1  -3    5.17    1.30
  -5   1  -3    5.61    0.87
  -5   1  -3    7.13    1.34
  -5   1  -3    6.45    1.76
   5  -1   3    6.98    0.99
   5  -1   3    6.62    0.88
   5  -1   3    7.08    1.37
   5  -1   3    5.84    1.36
  -6   1  -3    1.24    1.66
  -6   1  -3    2.47    1.78
  -6   1  -3    1.89    0.72
  -6   1  -3    2.97    1.52
   6  -1   3    1.90    1.46
   6  -1   3    2.83    0.79
   6  -1   3    4.27    0.97
   6  -1   3    1.35    1.42
  -7   1  -3    3.92    1.99
  -7   1  -3    4.14    1.79
  -7   1  -3    3.74    2.15
   7  -1   3    3.46    1.47
   7  -1   3    1.16    1.69
  -8   1  -3    4.81    2.08
  -8   1  -3    3.80    2.07
  -8   1  -3    5.53    2.19
   8  -1   3    5.23    2.17
   8  -1   3    2.25    2.12
  -9   1  -3   -0.26    2.41
  -9   1  -3    1.08    2.61
   9  -1   3   -2.93    2.21
   9  -1   3    0.65    2.49
   9  -1   3   -0.27    2.39
   9   0  -3   -0.03    2.81
   9   0  -3   -1.81    2.68
  -9   0   3   -4.87    2.46
  -9   0   3   -2.55    2.45
   8   0  -3   -0.69    2.37
   8   0  -3   -0.85    2.34
  -8   0   3    2.18    2.40
  -8   0   3    0.35    2.37
   7   0  -3    8.13    2.36
   7   0  -3   13.35    2.81
  -7   0   3    3.86    1.76
  -7   0   3    3.72    2.19
  -7   0   3    8.78    2.54
   6   0  -3    3.93    1.94
   6   0  -3    4.62    1.33
   6   0  -3    2.96    1.83
  -6   0   3    3.62    1.61
  -6   0   3    2.54    1.79
  -6   0   3    5.18    2.05
   5   0  -3    0.35    1.34
   5   0  -3    1.77    1.04
   5   0  -3   -0.29    1.34
  -5   0   3    0.37    1.16
  -5   0   3    0.20    1.39
  -5   0   3    0.68    1.48
   4   0  -3   20.97    1.35
   4   0  -3   22.14    2.14
   4   0  -3   17.83    1.88
  -4   0   3   21.32    1.73
  -4   0   3   19.47    1.93
  -4   0   3   16.49    1.68
   3   0  -3   56.90    2.74
   3   0  -3   54.85    2.91
   3   0  -3   53.18    2.00
   3   0  -3   53.97    1.72
  -3   0   3   55.95    1.80
  -3   0   3   57.43    1.84
  -3   0   3   54.85    2.40
  -3   0   3   56.76    2.58
  -3   0   3   55.13    2.77
   2   0  -3   90.83    2.82
   2   0  -3   91.53    2.79
   2   0  -3   95.02    2.80
   2   0  -3   75.29    3.27
   2   0  -3   97.81    3.78
  -2   0   3   93.38    3.37
  -2   0   3   96.97    3.54
  -2   0   3   92.18    3.31
  -2   0   3   95.58    2.88
  -2   0   3   92.57    2.83
  -2   0   3   89.68    2.83
   1   0  -3    0.95    0.28
   1   0  -3    0.77    0.70
   1   0  -3    0.75    0.67
   1   0  -3    1.36    0.58
   1   0  -3    1.07    0.46
   1   0  -3    1.13    0.85
   1   0  -3    0.97    0.46
  -1   0   3    1.39    0.47
  -1   0   3    1.67    0.43
  -1   0   3    1.21    0.59
  -1   0   3    0.42    0.73
  -1   0   3    1.46    0.34
  -1   0   3    1.43    0.56
   0   0  -3   73.89    2.49
   0   0  -3   79.07    3.19
   0   0  -3   78.85    2.52
   0   0  -3   77.73    2.86
   0   0  -3   79.34    2.63
   0   0  -3   77.24    2.62
   0   0   3   77.46    3.13
   0   0   3   78.41    2.36
   0   0   3   78.81    2.36
   0   0   3   77.51    2.77
   0   0   3   79.70    2.65
   0   0   3   77.85    2.57
   0   0   3   77.37    2.45
   0   0   3   78.80    2.52
  -1   0  -3  189.93    5.43
  -1   0  -3  185.93    5.63
  -1   0  -3  194.30    5.45
  -1   0  -3  196.00    6.09
  -1   0  -3  192.04    5.60
  -1   0  -3  198.38    5.67
  -1   0  -3  195.18    6.10
  -1   0  -3  192.40    5.69
   1   0   3  201.33    5.67
   1   0   3  189.28    5.99
   1   0   3  202.05    5.61
   1   0   3  195.57    5.71
   1   0   3  194.05    5.63
   1   0   3  196.01    6.09
  -2   0  -3   82.59    2.55
  -2   0  -3   81.98    3.07
  -2   0  -3   77.64    2.42
  -2   0  -3   79.47    3.16
  -2   0  -3   81.07    2.76
  -2   0  -3   77.92    2.67
   2   0   3   83.84    2.88
   2   0   3   77.59    2.71
   2   0   3   84.49    2.76
   2   0   3   80.35    2.67
   2   0   3   82.68    2.50
   2   0   3   81.88    2.42
  -3   0  -3    3.16    1.24
  -3   0  -3    2.61    0.78
  -3   0  -3    3.93    0.88
   3   0   3    2.39    0.67
   3   0   3    4.80    0.79
   3   0   3    3.69    0.88
   3   0   3    3.36    0.95
   3   0   3    4.38    0.69
  -4   0  -3    2.80    0.95
  -4   0  -3    1.99    0.62
  -4   0  -3    3.92    1.14
  -4   0  -3    3.68    1.11
   4   0   3    3.01    0.77
   4   0   3    2.30    0.95
   4   0   3    2.91    0.67
   4   0   3    2.43    0.94
  -5   0  -3   57.13    2.64
  -5   0  -3   55.76    3.35
  -5   0  -3   62.87    3.22
  -5   0  -3   59.25    2.18
   5   0   3   56.83    2.77
   5   0   3   60.27    2.26
   5   0   3   54.52    2.14
   5   0   3   53.59    2.80
  -6   0  -3    6.01    0.77
  -6   0  -3    5.76    1.96
  -6   0  -3    8.20    1.70
  -6   0  -3    7.52    1.82
   6   0   3    5.60    1.31
   6   0   3    6.75    0.95
   6   0   3    9.62    0.94
   6   0   3    7.28    1.55
  -7   0  -3    3.24    1.76
  -7   0  -3    5.29    1.73
  -7   0  -3    4.32    2.16
   7   0   3    4.31    1.80
   7   0   3    3.99    1.73
  -8   0  -3    0.16    1.86
  -8   0  -3   -1.32    1.67
  -8   0  -3    0.46    2.21
   8   0   3   -0.73    1.41
   8   0   3   -0.90    1.76
  -9   0  -3    4.30    2.27
  -9   0  -3    4.32    2.77
   9   0   3   -0.15    2.63
   9   0   3    5.70    2.46
   9   0   3    8.10    2.67
 -10   0  -3    2.04    2.83
 -10   0  -3    0.37    2.57
  10   0   3    2.46    2.50
  10   0   3    4.39    2.74
  10   0   3    2.00    3.03
   8  -1  -3   -0.51    2.61
   8  -1  -3   -3.39    2.22
  -8   1   3   -1.33    2.37
  -8   1   3   -0.61    2.19
   7  -1  -3    3.48    2.28
   7  -1  -3    6.08    1.76
   7  -1  -3    0.56    2.21
  -7   1   3    3.37    2.21
  -7   1   3   -1.13    2.06
  -7   1   3   -0.82    1.70
   6  -1  -3   33.13    3.26
   6  -1  -3   21.57    2.67
   6  -1  -3   30.15    2.36
  -6   1   3   26.88    2.80
  -6   1   3   18.71    2.34
  -6   1   3   22.97    2.49
   5  -1  -3   26.25    2.36
   5  -1  -3   29.20    2.10
   5  -1  -3   29.49    2.79
  -5   1   3   26.92    2.66
  -5   1   3   29.25    2.50
  -5   1   3   31.37    2.50
   4  -1  -3    0.97    1.15
   4  -1  -3    0.54    1.33
   4  -1  -3    2.61    0.97
  -4   1   3    1.67    0.29
  -4   1   3    1.43    0.32
  -4   1   3    2.28    1.28
  -4   1   3    1.29    1.23
  -4   1   3    0.89    0.32
  -4   1   3    1.70    1.08
   3  -1  -3    0.36    0.93
   3  -1  -3   -0.89    0.76
   3  -1  -3    1.20    0.73
  -3   1   3    0.18    0.89
  -3   1   3    0.97    0.38
  -3   1   3    0.95    0.93
  -3   1   3    0.81    0.87
  -3   1   3    0.53    0.33
  -3   1   3   -0.10    0.39
   2  -1  -3  332.58   10.28
   2  -1  -3  340.30    9.32
   2  -1  -3  327.51   10.20
   2  -1  -3  330.78    9.54
  -2   1   3  341.66    9.98
  -2   1   3  340.61    9.92
  -2   1   3  328.11    9.38
  -2   1   3  341.22    9.36
  -2   1   3  336.47    9.83
   1  -1  -3   85.88    2.74
   1  -1  -3   89.17    3.37
   1  -1  -3   83.27    2.68
   1  -1  -3   84.93    3.48
   1  -1  -3   85.71    2.92
   1  -1  -3   83.88    2.65
  -1   1   3   88.49    2.91
  -1   1   3   86.59    2.76
  -1   1   3   88.13    2.95
  -1   1   3   87.43    2.70
  -1   1   3   82.87    2.73
  -1   1   3   84.17    2.98
   0  -1  -3   50.89    1.89
   0  -1  -3   50.31    1.76
   0  -1  -3   51.27    2.14
   0  -1  -3   48.79    1.78
   0  -1  -3   51.55    1.77
   0  -1  -3   46.84    1.89
   0  -1  -3   49.06    2.53
   0  -1  -3   49.98    1.70
   0   1   3   51.41    1.78
   0   1   3   50.80    1.89
   0   1   3   50.45    1.69
   0   1   3   47.84    2.26
   0   1   3   51.92    1.78
   0   1   3   49.54    2.10
   0   1   3   50.92    1.82
  -1  -1  -3    1.15    0.40
  -1  -1  -3    1.27    0.19
  -1  -1  -3    1.55    0.59
  -1  -1  -3    0.85    0.61
  -1  -1  -3    1.16    0.46
  -1  -1  -3    0.80    0.41
  -1  -1  -3    0.26    0.36
   1   1   3    0.97    0.45
   1   1   3    1.13    0.43
   1   1   3    1.20    0.53
   1   1   3    0.98    0.43
   1   1   3    1.22    0.39
   1   1   3    0.20    0.59
   1   1   3    1.02    0.18
   1   1   3    0.55    0.42
  -2  -1  -3  322.46    9.45
  -2  -1  -3  324.30    9.11
  -2  -1  -3  320.90    9.57
  -2  -1  -3  332.65    8.96
  -2  -1  -3  311.18    9.28
  -2  -1  -3  319.06    8.78
   2   1   3  334.16    8.95
   2   1   3  311.02    9.19
   2   1   3  327.29    9.17
   2   1   3  311.29    8.78
   2   1   3  336.13    9.13
   2   1   3  317.98    9.40
  -3  -1  -3   35.46    1.99
  -3  -1  -3   39.96    2.19
  -3  -1  -3   38.15    1.93
  -3  -1  -3   36.85    1.50
   3   1   3   39.87    1.19
   3   1   3   38.10    1.18
   3   1   3   40.00    1.61
   3   1   3   37.04    1.73
   3   1   3   36.33    1.43
   3   1   3   36.59    1.63
  -4  -1  -3   57.27    2.89
  -4  -1  -3   60.50    2.18
  -4  -1  -3   61.85    3.02
  -4  -1  -3   60.76    2.34
   4   1   3   60.36    2.28
   4   1   3   60.94    2.68
   4   1   3   61.56    2.21
   4   1   3   59.17    2.57
  -5  -1  -3    0.34    0.52
  -5  -1  -3    0.12    0.78
  -5  -1  -3   -0.59    0.87
  -5  -1  -3    0.45    1.29
   5   1   3   -0.52    0.93
   5   1   3   -0.50    0.62
   5   1   3    0.98    0.60
   5   1   3   -0.47    0.88
  -6  -1  -3   57.99    3.51
  -6  -1  -3   61.90    3.02
  -6  -1  -3   61.94    3.61
  -6  -1  -3   62.31    2.24
   6   1   3   57.68    2.86
   6   1   3   57.71    3.00
   6   1   3   60.36    2.37
   6   1   3   61.55    2.26
  -7  -1  -3    3.40    1.77
  -7  -1  -3    0.90    1.92
  -7  -1  -3    3.29    1.55
   7   1   3    2.62    1.27
   7   1   3    1.43    1.52
  -8  -1  -3   11.59    2.81
  -8  -1  -3    7.89    2.20
  -8  -1  -3   15.80    2.51
   8   1   3   13.49    2.47
   8   1   3   14.40    2.30
  -9  -1  -3   -2.84    2.23
  -9  -1  -3   -1.47    2.06
  -9  -1  -3   -1.94    2.07
   9   1   3   -0.13    1.92
   9   1   3    0.52    1.71
 -10  -1  -3    1.00    2.79
 -10  -1  -3    2.63    2.32
  10   1   3    5.06    2.73
  10   1   3    6.69    2.57
  10   1   3    2.04    2.43
   8  -2  -3    6.64    2.72
   8  -2  -3    0.67    2.91
  -8   2   3    1.62    2.55
  -8   2   3    2.54    2.55
   7  -2  -3    1.44    2.05
   7  -2  -3    0.10    2.41
   7  -2  -3   -0.89    1.70
  -7   2   3    0.51    1.64
  -7   2   3    2.91    2.23
  -7   2   3    0.63    2.18
   6  -2  -3   -0.98    1.90
   6  -2  -3   -0.74    1.68
   6  -2  -3    0.66    1.35
  -6   2   3   -0.88    1.80
  -6   2   3   -1.69    1.61
  -6   2   3    2.34    1.96
   5  -2  -3   92.71    4.60
   5  -2  -3   89.03    4.64
   5  -2  -3   95.46    3.87
  -5   2   3   91.80    4.51
  -5   2   3   89.99    4.28
   4  -2  -3   20.79    2.19
   4  -2  -3   21.17    2.30
   4  -2  -3   20.68    1.74
  -4   2   3   19.48    0.99
  -4   2   3   20.86    2.14
  -4   2   3   19.20    0.97
  -4   2   3   21.10    1.06
  -4   2   3   23.66    1.98
  -4   2   3   19.95    2.01
   3  -2  -3    6.91    1.53
   3  -2  -3    7.40    1.19
   3  -2  -3    9.06    1.45
  -3   2   3    8.03    0.77
  -3   2   3    7.23    1.30
  -3   2   3    7.78    0.67
  -3   2   3    7.52    0.66
  -3   2   3    7.80    1.31
  -3   2   3    6.52    1.21
   2  -2  -3   10.99    1.51
   2  -2  -3   11.17    1.14
   2  -2  -3   11.21    1.69
  -2   2   3   10.35    1.30
  -2   2   3   11.39    1.27
  -2   2   3   10.17    0.88
  -2   2   3    9.48    0.78
  -2   2   3   11.06    0.83
  -2   2   3   11.89    1.35
   1  -2  -3  157.72    4.88
   1  -2  -3  154.79    5.52
   1  -2  -3  157.04    5.52
   1  -2  -3  158.25    4.68
  -1   2   3  160.33    4.92
  -1   2   3  155.65    4.76
  -1   2   3  154.84    4.66
  -1   2   3  157.89    5.04
  -1   2   3  158.96    4.73
   0  -2  -3   29.76    1.06
   0  -2  -3   27.47    1.26
   0  -2  -3   27.09    0.97
   0  -2  -3   28.82    1.28
   0  -2  -3   28.35    1.90
   0  -2  -3   27.33    1.35
   0  -2  -3   27.53    1.64
   0   2   3   30.00    1.50
   0   2   3   30.62    1.35
   0   2   3   29.40    1.71
   0   2   3   27.38    1.25
   0   2   3   28.69    1.26
  -1  -2  -3    8.94    0.59
  -1  -2  -3   11.16    0.94
  -1  -2  -3    9.84    0.83
  -1  -2  -3   10.79    0.91
  -1  -2  -3    9.86    0.61
  -1  -2  -3   11.06    1.11
   1   2   3   11.21    0.92
   1   2   3    9.99    0.85
   1   2   3    7.28    0.59
   1   2   3   10.36    1.07
   1   2   3   10.17    0.56
   1   2   3   11.06    0.85
  -2  -2  -3    1.32    0.52
  -2  -2  -3    1.54    0.72
  -2  -2  -3    1.28    0.65
  -2  -2  -3    0.57    0.68
  -2  -2  -3    1.88    0.64
  -2  -2  -3    1.18    0.55
   2   2   3    1.23    0.29
   2   2   3    1.35    0.30
   2   2   3    1.29    0.48
   2   2   3    1.56    0.53
   2   2   3    1.70    0.51
   2   2   3    1.75    0.55
  -3  -2  -3   35.54    2.00
  -3  -2  -3   39.15    1.61
  -3  -2  -3   36.43    1.80
  -3  -2  -3   37.68    1.44
  -3  -2  -3   35.13    2.00
   3   2   3   36.53    1.39
   3   2   3   36.19    1.84
   3   2   3   35.30    1.35
   3   2   3   35.86    1.40
   3   2   3   36.70    1.57
   3   2   3   36.19    1.65
  -4  -2  -3   24.90    2.00
  -4  -2  -3   23.18    1.37
  -4  -2  -3   25.31    1.25
  -4  -2  -3   23.72    1.79
  -4  -2  -3   23.20    1.71
   4   2   3   24.09    1.31
   4   2   3   23.90    1.24
   4   2   3   23.26    1.59
   4   2   3   24.24    0.99
   4   2   3   21.90    0.97
  -5  -2  -3    7.99    0.85
  -5  -2  -3    8.41    1.73
  -5  -2  -3   10.31    1.54
  -5  -2  -3    7.02    1.05
   5   2   3    6.26    1.18
   5   2   3    6.37    0.91
   5   2   3    7.81    0.49
   5   2   3    6.06    1.30
   5   2   3    6.74    0.82
   5   2   3    7.41    0.49
  -6  -2  -3    2.34    0.68
  -6  -2  -3    2.71    1.29
  -6  -2  -3    1.61    1.36
  -6  -2  -3    4.16    1.59
   6   2   3    2.43    0.80
   6   2   3    0.60    1.18
   6   2   3    1.34    1.28
   6   2   3    0.96    0.67
  -7  -2  -3    3.54    2.13
  -7  -2  -3    4.71    1.90
  -7  -2  -3    2.60    1.40
   7   2   3    4.95    1.67
   7   2   3    5.27    1.62
  -8  -2  -3    0.80    1.89
  -8  -2  -3   -0.87    1.73
  -8  -2  -3    0.71    2.16
   8   2   3    4.02    1.88
   8   2   3   -0.35    1.71
  -9  -2  -3    0.91    1.81
  -9  -2  -3    0.91    1.92
  -9  -2  -3    2.92    2.30
   9   2   3   -0.66    1.53
   9   2   3    1.70    1.99
 -10  -2  -3    2.45    2.94
 -10  -2  -3   -2.01    1.94
  10   2   3    2.99    2.22
  10   2   3    1.48    2.63
  10   2   3   -1.55    2.88
   8  -3  -3    2.77    2.48
   8  -3  -3    6.48    2.58
  -8   3   3    4.93    2.70
  -8   3   3    3.73    2.81
   7  -3  -3    1.89    2.85
   7  -3  -3    5.33    1.99
   7  -3  -3    0.47    2.37
  -7   3   3    1.80    2.38
  -7   3   3    4.83    2.39
   6  -3  -3    1.82    1.81
   6  -3  -3   -2.32    2.17
   6  -3  -3   -0.52    1.54
  -6   3   3   -1.03    1.77
  -6   3   3    0.55    1.73
  -6   3   3    1.61    1.99
   5  -3  -3    5.21    2.20
   5  -3  -3   12.06    2.15
   5  -3  -3   10.46    1.86
  -5   3   3    8.85    1.74
  -5   3   3   12.61    2.31
  -5   3   3    7.28    1.66
   4  -3  -3    7.61    1.66
   4  -3  -3    6.09    1.42
   4  -3  -3    3.87    1.82
  -4   3   3    3.99    1.57
  -4   3   3    4.54    1.36
  -4   3   3    5.78    0.83
  -4   3   3    4.67    0.66
  -4   3   3    5.10    1.60
  -4   3   3    5.49    0.75
   3  -3  -3   20.31    2.22
   3  -3  -3   24.60    2.17
   3  -3  -3   22.75    1.80
  -3   3   3   23.63    1.28
  -3   3   3   24.91    1.36
  -3   3   3   21.25    1.19
  -3   3   3   22.27    1.91
  -3   3   3   23.26    1.86
  -3   3   3   24.09    1.87
   2  -3  -3    1.99    0.91
   2  -3  -3    2.20    1.12
   2  -3  -3    2.06    1.16
  -2   3   3    1.81    0.78
  -2   3   3    1.27    0.51
  -2   3   3    2.03    0.96
  -2   3   3    2.05    0.63
  -2   3   3    1.51    0.90
  -2   3   3    2.17    0.53
   1  -3  -3    4.56    0.85
   1  -3  -3    3.69    1.49
   1  -3  -3    4.23    0.70
   1  -3  -3    5.55    1.44
  -1   3   3    4.29    0.98
  -1   3   3    5.48    0.82
  -1   3   3    6.09    0.75
  -1   3   3    5.62    0.74
  -1   3   3    5.67    1.10
   0  -3  -3   11.55    1.03
   0  -3  -3   10.82    1.10
   0  -3  -3   12.08    1.69
   0  -3  -3   12.87    1.50
   0   3   3   12.94    1.31
   0   3   3   11.24    0.97
   0   3   3   10.65    1.23
   0   3   3   12.62    1.02
   0   3   3   10.98    0.98
   0   3   3   13.00    1.14
  -1  -3  -3    9.45    0.89
  -1  -3  -3    9.35    1.12
  -1  -3  -3   11.29    1.36
  -1  -3  -3    8.17    0.94
  -1  -3  -3    9.51    0.86
   1   3   3    9.49    0.93
   1   3   3    8.67    1.03
   1   3   3    8.68    0.42
   1   3   3    7.15    0.41
   1   3   3   10.44    1.04
   1   3   3    9.19    0.83
   1   3   3    8.78    0.82
  -2  -3  -3    2.83    0.71
  -2  -3  -3    2.18    0.89
  -2  -3  -3    2.16    0.74
  -2  -3  -3    2.32    0.93
  -2  -3  -3    3.06    0.90
   2   3   3    2.44    0.56
   2   3   3    2.33    0.68
   2   3   3    2.63    0.73
   2   3   3    2.86    0.66
   2   3   3    3.16    0.58
   2   3   3    2.85    0.61
  -3  -3  -3    4.65    0.71
  -3  -3  -3    4.23    1.01
  -3  -3  -3    3.85    0.98
  -3  -3  -3    3.18    0.83
  -3  -3  -3    3.75    1.15
  -3  -3  -3    2.95    0.77
   3   3   3    3.58    0.72
   3   3   3    4.55    0.72
   3   3   3    4.32    0.65
   3   3   3    4.13    0.83
  -4  -3  -3    0.11    0.67
  -4  -3  -3    1.33    1.01
  -4  -3  -3    1.14    0.94
  -4  -3  -3    0.63    0.77
   4   3   3    0.12    0.61
   4   3   3   -0.22    0.48
   4   3   3    0.10    0.82
   4   3   3    0.24    0.52
  -5  -3  -3    2.12    0.66
  -5  -3  -3    0.08    1.26
  -5  -3  -3    1.45    1.24
  -5  -3  -3    0.04    0.87
   5   3   3    0.32    0.69
   5   3   3    1.23    0.62
   5   3   3   -0.62    0.98
   5   3   3    0.81    0.73
   5   3   3    1.04    0.55
  -6  -3  -3    1.10    1.60
  -6  -3  -3    0.14    1.38
  -6  -3  -3    0.08    1.05
   6   3   3   -1.38    1.11
   6   3   3    0.74    0.96
   6   3   3   -0.98    0.77
   6   3   3   -0.01    0.59
   6   3   3   -0.01    0.52
   6   3   3    0.07    0.67
  -7  -3  -3    1.66    1.37
  -7  -3  -3    0.47    1.98
  -7  -3  -3   -0.58    1.64
   7   3   3    0.51    1.42
   7   3   3    0.93    0.70
   7   3   3    0.18    1.40
   7   3   3    0.66    0.85
  -8  -3  -3   10.09    2.52
  -8  -3  -3    4.67    2.52
  -8  -3  -3    6.09    1.75
   8   3   3   10.08    2.00
   8   3   3    4.65    1.99
  -9  -3  -3    1.89    2.26
  -9  -3  -3   -1.69    1.86
  -9  -3  -3    1.84    2.07
   9   3   3   -0.18    2.08
   9   3   3    3.70    2.02
 -10  -3  -3    0.73    2.89
  10   3   3   -1.94    2.53
  10   3   3    0.65    2.45
  10   3   3    1.24    2.10
   7  -4  -3   -0.55    3.07
   7  -4  -3   -1.71    1.91
  -7   4   3    0.98    2.48
  -7   4   3   -3.23    2.17
   6  -4  -3   -0.05    2.56
   6  -4  -3    2.21    1.87
   6  -4  -3    2.02    2.05
  -6   4   3    1.49    2.16
  -6   4   3    0.79    1.58
  -6   4   3    0.85    1.86
   5  -4  -3   13.36    2.49
   5  -4  -3   15.22    2.26
   5  -4  -3   18.81    2.36
  -5   4   3   16.44    2.28
  -5   4   3   17.71    2.47
  -5   4   3   14.00    2.11
   4  -4  -3    0.85    1.43
   4  -4  -3    0.43    1.87
   4  -4  -3    1.01    1.40
  -4   4   3    0.26    1.46
  -4   4   3    1.21    1.24
  -4   4   3    1.94    0.89
  -4   4   3    2.77    1.32
  -4   4   3    0.32    0.65
   3  -4  -3    3.28    1.49
   3  -4  -3   -0.75    1.16
   3  -4  -3    3.59    1.99
  -3   4   3    1.64    0.75
  -3   4   3    0.33    1.01
  -3   4   3    0.46    0.69
  -3   4   3   -0.31    1.06
  -3   4   3    0.93    1.26
  -3   4   3    0.75    0.64
   2  -4  -3    3.17    1.29
   2  -4  -3    2.25    1.66
   2  -4  -3    2.90    1.10
  -2   4   3    1.46    0.80
  -2   4   3    2.72    0.87
  -2   4   3    1.97    1.05
  -2   4   3    2.14    0.66
  -2   4   3    0.55    0.70
  -2   4   3    1.11    0.60
   1  -4  -3   52.47    2.27
   1  -4  -3   51.22    2.38
   1  -4  -3   50.32    2.70
   1  -4  -3   54.15    3.17
  -1   4   3   52.62    1.96
  -1   4   3   53.22    2.53
  -1   4   3   52.66    2.13
  -1   4   3   55.39    2.15
  -1   4   3   53.23    2.40
   0  -4  -3    0.93    0.93
   0  -4  -3    2.15    0.87
   0  -4  -3   -0.40    1.33
   0  -4  -3    1.70    0.94
   0   4   3    1.81    0.75
   0   4   3    2.24    0.24
   0   4   3    1.49    0.65
   0   4   3    2.08    0.71
   0   4   3    4.76    1.00
  -1  -4  -3   24.71    1.88
  -1  -4  -3   21.23    1.60
  -1  -4  -3   21.64    1.44
   1   4   3   21.58    1.55
   1   4   3   22.81    0.87
   1   4   3   23.80    1.39
   1   4   3   21.95    0.78
   1   4   3   21.35    1.35
   1   4   3   22.53    1.39
   1   4   3   21.00    1.47
  -2  -4  -3    2.03    0.98
  -2  -4  -3    2.14    0.83
  -2  -4  -3    2.86    0.71
  -2  -4  -3    3.86    1.00
   2   4   3    3.16    0.71
   2   4   3    2.79    0.70
   2   4   3    3.27    0.67
   2   4   3    1.58    0.82
   2   4   3    2.52    0.73
   2   4   3    2.96    0.60
  -3  -4  -3   54.37    2.49
  -3  -4  -3   54.55    2.68
  -3  -4  -3   55.36    2.48
  -3  -4  -3   55.97    2.57
   3   4   3   54.91    2.24
   3   4   3   52.37    2.21
   3   4   3   55.70    2.10
   3   4   3   58.26    2.30
   3   4   3   55.60    2.35
  -4  -4  -3    7.92    1.19
  -4  -4  -3    9.26    1.07
  -4  -4  -3    9.85    1.53
  -4  -4  -3    6.70    1.32
   4   4   3    7.00    0.91
   4   4   3    7.49    0.96
   4   4   3    7.06    0.98
   4   4   3    6.85    1.23
   4   4   3    6.81    1.04
  -5  -4  -3   49.85    3.02
  -5  -4  -3   52.85    2.80
  -5  -4  -3   54.73    2.40
  -5  -4  -3   55.72    3.24
   5   4   3   47.52    2.12
   5   4   3   50.78    2.19
   5   4   3   47.32    2.18
   5   4   3   47.81    2.34
   5   4   3   52.08    2.65
  -6  -4  -3    3.18    1.80
  -6  -4  -3    1.47    1.63
  -6  -4  -3    2.53    1.34
   6   4   3    2.99    0.84
   6   4   3    3.41    0.97
   6   4   3    2.90    0.80
   6   4   3    3.35    1.37
   6   4   3    1.80    1.43
   6   4   3    5.00    0.89
  -7  -4  -3    0.65    2.07
  -7  -4  -3    3.69    1.64
  -7  -4  -3    5.71    1.74
   7   4   3    2.53    1.04
   7   4   3    3.03    1.71
   7   4   3    3.55    1.73
   7   4   3    3.04    0.86
  -8  -4  -3    2.78    1.77
  -8  -4  -3    3.52    2.45
  -8  -4  -3    1.17    2.07
   8   4   3    2.58    1.92
   8   4   3    1.96    1.83
  -9  -4  -3   15.15    3.41
  -9  -4  -3   17.19    3.35
  -9  -4  -3    9.22    2.30
   9   4   3   12.48    2.37
   9   4   3   17.94    2.96
 -10  -4  -3   -0.86    2.95
  10   4   3    2.52    2.57
  10   4   3    2.64    2.86
  10   4   3    2.19    1.99
   7  -5  -3   -2.02    3.17
   7  -5  -3    0.67    2.13
  -7   5   3   -1.92    2.46
   6  -5  -3    0.20    2.05
   6  -5  -3    7.32    3.18
  -6   5   3    1.76    1.81
  -6   5   3    0.73    2.10
  -6   5   3   -0.01    1.58
   5  -5  -3   -0.04    2.69
   5  -5  -3   -0.29    1.75
  -5   5   3    2.07    1.56
  -5   5   3    2.82    1.79
  -5   5   3    0.80    2.02
   4  -5  -3   24.70    3.41
   4  -5  -3   26.25    2.77
   4  -5  -3   25.16    2.72
  -4   5   3   30.91    2.53
  -4   5   3   29.19    2.50
  -4   5   3   24.32    2.68
  -4   5   3   30.67    1.92
  -4   5   3   26.86    1.66
   3  -5  -3    3.57    2.04
   3  -5  -3    2.43    1.53
   3  -5  -3    3.69    1.58
  -3   5   3    2.99    1.55
  -3   5   3    2.74    1.18
  -3   5   3    1.50    0.76
  -3   5   3    2.41    1.37
  -3   5   3    3.59    1.00
   2  -5  -3   27.87    2.99
   2  -5  -3   37.31    2.63
   2  -5  -3   28.60    2.02
   2  -5  -3   26.05    2.21
  -2   5   3   24.80    1.89
  -2   5   3   27.66    1.70
  -2   5   3   29.47    2.22
  -2   5   3   26.10    1.73
   1  -5  -3    0.85    1.62
   1  -5  -3   -0.82    0.95
   1  -5  -3   -0.26    1.01
   1  -5  -3   -0.15    0.81
  -1   5   3    0.88    0.99
  -1   5   3    1.00    0.99
  -1   5   3    0.20    0.66
  -1   5   3    0.13    0.64
  -1   5   3    0.73    0.55
   0  -5  -3   48.78    3.08
   0  -5  -3   50.00    2.26
   0  -5  -3   53.34    2.11
   0  -5  -3   51.66    2.62
   0   5   3   50.75    1.70
   0   5   3   50.32    2.58
   0   5   3   52.45    2.23
   0   5   3   49.88    2.38
   0   5   3   50.00    2.15
  -1  -5  -3    0.19    0.65
  -1  -5  -3   -0.18    0.81
  -1  -5  -3    0.36    0.64
  -1  -5  -3   -0.81    0.99
   1   5   3    0.24    0.36
   1   5   3   -0.61    0.82
   1   5   3    0.33    0.71
   1   5   3   -1.25    0.35
   1   5   3   -1.05    0.65
   1   5   3   -0.36    0.63
  -2  -5  -3   97.43    3.80
  -2  -5  -3   97.91    3.66
  -2  -5  -3   99.33    3.88
  -2  -5  -3  104.83    3.70
   2   5   3   97.46    3.70
   2   5   3   93.94    3.49
   2   5   3   94.48    3.42
   2   5   3  100.56    3.37
   2   5   3   99.46    3.52
  -3  -5  -3   10.61    1.43
  -3  -5  -3   10.19    1.41
  -3  -5  -3    8.56    1.20
  -3  -5  -3   10.33    1.32
   3   5   3    9.70    1.18
   3   5   3    8.55    1.10
   3   5   3   11.85    1.33
   3   5   3    9.38    1.27
   3   5   3    8.80    1.07
  -4  -5  -3   21.42    2.08
  -4  -5  -3   26.06    1.97
  -4  -5  -3   22.86    1.87
  -4  -5  -3   22.92    1.87
   4   5   3   23.50    1.51
   4   5   3   26.78    1.77
   4   5   3   20.63    1.58
   4   5   3   22.71    1.55
   4   5   3   25.80    1.57
  -5  -5  -3    3.86    1.40
  -5  -5  -3    5.58    1.23
  -5  -5  -3    3.49    1.58
  -5  -5  -3    5.41    1.68
   5   5   3    4.55    1.38
   5   5   3    4.74    1.17
   5   5   3    5.83    1.12
   5   5   3    5.80    0.99
   5   5   3    3.71    0.94
  -6  -5  -3   50.35    3.55
  -6  -5  -3   54.63    2.85
  -6  -5  -3   53.38    3.74
   6   5   3   58.03    2.54
   6   5   3   54.89    2.55
   6   5   3   59.23    3.28
   6   5   3   55.09    3.05
   6   5   3   51.54    2.69
  -7  -5  -3    4.15    1.82
  -7  -5  -3    5.28    2.18
  -7  -5  -3    5.33    1.64
   7   5   3    5.09    1.25
   7   5   3    5.53    1.75
   7   5   3    4.62    1.00
   7   5   3    2.91    1.41
  -8  -5  -3    3.24    2.36
  -8  -5  -3    2.56    1.82
  -8  -5  -3    2.88    2.47
   8   5   3    1.26    1.98
   8   5   3    5.23    2.15
  -9  -5  -3    3.38    2.61
  -9  -5  -3   -0.59    1.90
  -9  -5  -3   -0.26    2.74
   9   5   3    1.12    1.74
   9   5   3    2.06    2.30
   9   5   3    2.84    2.23
 -10  -5  -3   10.51    3.64
  10   5   3   10.43    2.88
  10   5   3   14.03    3.12
   6  -6  -3    5.91    3.47
   6  -6  -3    0.76    2.38
  -6   6   3    2.96    2.10
  -6   6   3    2.66    2.08
   5  -6  -3    9.32    2.52
   5  -6  -3    7.18    3.13
  -5   6   3    5.35    2.38
  -5   6   3    6.08    1.87
   4  -6  -3   -1.12    1.81
   4  -6  -3   -1.99    2.30
  -4   6   3    2.13    1.21
  -4   6   3    0.72    1.81
  -4   6   3    1.20    1.49
   3  -6  -3   25.44    2.71
   3  -6  -3   19.45    3.17
  -3   6   3   22.12    1.66
  -3   6   3   16.34    2.23
  -3   6   3   20.60    2.48
  -3   6   3   20.28    1.91
   2  -6  -3    1.11    1.18
   2  -6  -3   -1.15    1.93
   2  -6  -3   -0.94    1.02
  -2   6   3   -0.02    1.31
  -2   6   3    1.78    0.93
  -2   6   3    2.06    0.93
  -2   6   3   -1.50    1.10
   1  -6  -3   39.89    2.70
   1  -6  -3   38.31    2.37
   1  -6  -3   37.59    3.35
  -1   6   3   45.43    2.59
  -1   6   3   41.19    1.84
  -1   6   3   39.77    2.16
  -1   6   3   39.24    2.64
   0  -6  -3   -0.75    1.57
   0  -6  -3   -1.56    1.03
   0  -6  -3   -0.21    0.97
   0  -6  -3   -0.27    0.50
   0   6   3   -0.95    0.93
   0   6   3    0.20    1.09
   0   6   3   -0.57    0.81
   0   6   3    1.10    0.47
  -1  -6  -3    2.39    1.18
  -1  -6  -3    1.94    0.72
  -1  -6  -3    1.38    1.36
  -1  -6  -3    2.73    1.10
   1   6   3    3.16    0.99
   1   6   3    1.64    0.92
   1   6   3    0.75    0.61
   1   6   3    2.42    1.12
  -2  -6  -3    6.26    1.22
  -2  -6  -3    2.81    1.12
  -2  -6  -3    7.65    1.50
  -2  -6  -3    5.81    1.03
   2   6   3    5.65    1.12
   2   6   3    4.85    0.95
   2   6   3    3.66    1.02
   2   6   3    6.12    1.32
  -3  -6  -3   52.66    2.53
  -3  -6  -3   50.77    2.73
  -3  -6  -3   52.09    2.64
  -3  -6  -3   55.20    2.80
   3   6   3   56.57    2.55
   3   6   3   54.16    2.41
   3   6   3   51.78    2.67
   3   6   3   53.70    2.42
   3   6   3   50.14    2.49
  -4  -6  -3    0.26    1.35
  -4  -6  -3    1.43    1.21
  -4  -6  -3    2.72    1.22
  -4  -6  -3    2.58    1.38
   4   6   3    2.29    0.95
   4   6   3    1.61    0.89
   4   6   3    2.70    1.10
   4   6   3    0.10    0.95
  -5  -6  -3   -0.83    1.24
  -5  -6  -3   -0.72    1.30
  -5  -6  -3    0.60    1.42
   5   6   3    0.21    0.84
   5   6   3   -0.45    1.30
   5   6   3   -0.45    1.03
   5   6   3   -2.07    1.10
   5   6   3   -1.25    0.91
  -6  -6  -3    9.16    1.91
  -6  -6  -3   10.28    2.23
  -6  -6  -3   10.20    2.30
  -6  -6  -3   12.92    1.85
   6   6   3   11.47    1.63
   6   6   3    9.56    1.75
   6   6   3   11.41    1.41
   6   6   3   10.84    1.94
   6   6   3    7.99    1.70
  -7  -6  -3   13.00    1.98
  -7  -6  -3    6.28    2.43
  -7  -6  -3   14.07    2.71
   7   6   3   10.93    1.74
   7   6   3   11.29    2.18
   7   6   3   14.66    1.90
   7   6   3   11.26    2.25
   7   6   3   11.31    1.41
  -8  -6  -3    4.61    2.60
  -8  -6  -3    7.03    2.71
  -8  -6  -3    3.43    1.63
   8   6   3    8.65    2.39
   8   6   3    7.01    2.05
  -9  -6  -3    1.30    2.82
   9   6   3    1.31    2.26
   9   6   3   -0.47    1.83
   9   6   3    0.99    2.28
   5  -7  -3   -0.61    2.99
   5  -7  -3   -1.70    2.24
  -5   7   3    0.65    2.32
  -5   7   3   -0.21    1.68
   4  -7  -3   -2.01    2.01
   4  -7  -3    3.14    2.83
  -4   7   3   -1.62    1.43
  -4   7   3   -1.96    1.88
   3  -7  -3   -1.26    1.33
   3  -7  -3    1.07    1.92
   3  -7  -3    1.36    2.55
  -3   7   3    0.06    1.76
  -3   7   3    1.57    0.99
  -3   7   3    1.80    1.55
   2  -7  -3    1.26    1.73
   2  -7  -3    4.46    1.47
   2  -7  -3    0.65    2.27
  -2   7   3    1.60    1.18
  -2   7   3    1.74    1.47
  -2   7   3    3.15    1.68
   1  -7  -3    0.48    1.32
   1  -7  -3    2.36    1.58
   1  -7  -3   -1.34    2.02
  -1   7   3    0.97    1.37
  -1   7   3   -0.28    0.96
  -1   7   3    3.53    1.53
   0  -7  -3    1.68    1.99
   0  -7  -3    1.17    1.14
   0  -7  -3    1.84    1.01
   0   7   3    0.85    1.40
   0   7   3    3.94    1.43
   0   7   3    0.19    0.78
  -1  -7  -3   14.32    1.80
  -1  -7  -3   14.61    2.33
  -1  -7  -3   13.04    1.96
   1   7   3   15.70    1.71
   1   7   3   11.16    1.12
   1   7   3   14.97    1.80
   1   7   3   12.91    1.74
  -2  -7  -3    7.89    1.32
  -2  -7  -3    6.09    1.68
  -2  -7  -3    7.12    1.12
  -2  -7  -3    6.52    1.72
   2   7   3   10.17    1.67
   2   7   3    7.24    1.21
   2   7   3   10.71    1.38
   2   7   3    9.32    1.50
  -3  -7  -3    3.88    1.53
  -3  -7  -3    5.63    1.58
  -3  -7  -3    4.13    1.24
  -3  -7  -3    3.95    1.35
   3   7   3    5.47    1.30
   3   7   3    4.51    1.28
   3   7   3    4.02    1.16
   3   7   3    5.46    1.40
  -4  -7  -3    1.56    1.44
  -4  -7  -3    1.53    1.41
  -4  -7  -3    3.12    1.44
   4   7   3    0.95    1.04
   4   7   3    3.13    1.39
   4   7   3    2.35    1.12
   4   7   3    2.42    0.93
   4   7   3    2.59    1.27
  -5  -7  -3   10.08    1.84
  -5  -7  -3   13.69    2.18
  -5  -7  -3   10.77    1.99
   5   7   3    9.84    1.75
   5   7   3   11.19    1.54
   5   7   3   12.39    1.78
   5   7   3   13.87    1.99
   5   7   3   11.95    2.05
  -6  -7  -3   19.98    2.79
  -6  -7  -3   20.71    2.51
  -6  -7  -3   21.22    3.01
   6   7   3   19.24    2.52
   6   7   3   17.72    1.87
   6   7   3   25.48    2.56
   6   7   3   19.31    2.16
   6   7   3   21.45    2.33
  -7  -7  -3    4.43    2.34
  -7  -7  -3    6.22    2.40
   7   7   3    5.19    1.61
   7   7   3    4.52    1.51
   7   7   3    2.71    1.95
   7   7   3    0.69    0.92
   7   7   3    3.36    1.90
  -8  -7  -3    1.13    1.87
  -8  -7  -3    1.33    2.53
   8   7   3   -0.61    1.87
   8   7   3    4.21    2.28
   8   7   3   -0.95    2.03
  -9  -7  -3    0.99    2.77
   9   7   3    1.52    2.23
   9   7   3    2.12    2.34
   9   7   3    3.77    2.13
   5  -8  -3    7.32    2.82
   5  -8  -3    4.33    3.36
  -5   8   3    7.06    2.82
  -5   8   3    5.62    2.12
   4  -8  -3   -0.26    2.81
   4  -8  -3    4.36    2.57
  -4   8   3   -1.08    2.15
  -4   8   3   -0.30    1.73
   3  -8  -3    2.32    1.73
   3  -8  -3    3.27    2.70
   3  -8  -3    2.39    2.30
  -3   8   3    1.79    1.16
  -3   8   3   -0.69    1.57
  -3   8   3    4.85    2.18
   2  -8  -3    6.52    2.30
   2  -8  -3    4.06    2.91
   2  -8  -3    6.45    1.93
  -2   8   3    6.65    1.45
  -2   8   3    3.64    1.80
  -2   8   3    6.84    2.08
   1  -8  -3   23.11    2.49
   1  -8  -3   20.48    2.70
   1  -8  -3   13.57    2.88
  -1   8   3   15.59    2.40
  -1   8   3   19.37    2.00
  -1   8   3   22.41    2.57
   0  -8  -3    4.71    1.69
   0  -8  -3    5.88    2.38
   0  -8  -3    3.27    1.76
   0   8   3    4.77    1.37
   0   8   3    3.26    1.66
   0   8   3    3.06    1.68
  -1  -8  -3   10.39    2.52
  -1  -8  -3   11.70    1.94
  -1  -8  -3    8.96    2.04
   1   8   3   10.84    1.65
   1   8   3    9.25    1.99
   1   8   3    6.93    1.75
  -2  -8  -3   15.13    2.25
  -2  -8  -3   17.35    1.97
  -2  -8  -3   26.99    2.74
   2   8   3   16.47    2.14
   2   8   3   16.96    2.32
   2   8   3   19.82    2.01
  -3  -8  -3   55.41    3.15
  -3  -8  -3   48.29    2.82
  -3  -8  -3   52.34    3.17
  -3  -8  -3   50.21    3.52
   3   8   3   54.62    3.11
   3   8   3   50.72    3.19
   3   8   3   54.50    2.93
   3   8   3   49.01    2.84
  -4  -8  -3    2.47    1.41
  -4  -8  -3    4.08    1.68
  -4  -8  -3    2.52    1.57
   4   8   3    5.10    1.80
   4   8   3    5.78    1.74
   4   8   3    2.34    1.22
   4   8   3    3.98    1.46
   4   8   3    1.84    1.25
  -5  -8  -3    1.48    1.58
  -5  -8  -3    1.58    1.56
  -5  -8  -3    3.06    1.76
   5   8   3    1.25    1.20
   5   8   3    2.45    1.59
   5   8   3   -2.34    1.47
   5   8   3    1.52    1.32
   5   8   3    1.01    1.46
  -6  -8  -3   13.15    2.70
  -6  -8  -3   11.63    2.25
   6   8   3   10.48    2.13
   6   8   3    9.99    1.58
   6   8   3    7.41    1.80
   6   8   3    9.60    2.31
   6   8   3   13.24    2.23
   6   8   3   12.57    2.31
   7   8   3   29.96    3.12
   7   8   3   26.93    2.98
   7   8   3   30.27    3.20
   7   8   3   26.16    3.06
   7   8   3   26.74    2.78
   7   8   3   28.62    2.75
   7   8   3   24.55    2.53
   7   8   3   22.88    2.15
  -8  -8  -3    1.36    2.47
   8   8   3    5.68    2.62
   8   8   3    2.51    2.01
   8   8   3    0.60    2.22
  -9  -8  -3    3.35    2.99
   9   8   3    1.42    2.38
   9   8   3    1.73    2.38
   4  -9  -3    8.45    3.22
   4  -9  -3   12.19    3.19
  -4   9   3    8.39    2.82
  -4   9   3    8.42    2.37
   3  -9  -3   -1.91    2.57
   3  -9  -3    0.63    2.49
  -3   9   3    0.88    1.92
  -3   9   3   -0.02    2.22
  -3   9   3   -1.05    1.39
   2  -9  -3    2.95    2.59
   2  -9  -3    2.80    1.97
   2  -9  -3    5.25    2.04
  -2   9   3   -0.07    1.75
  -2   9   3    5.27    2.20
   1  -9  -3    3.00    1.90
   1  -9  -3    0.99    2.41
   1  -9  -3    1.84    2.14
  -1   9   3    4.66    2.09
  -1   9   3    2.15    1.95
   0  -9  -3   45.99    3.35
   0  -9  -3   37.33    3.58
   0  -9  -3   39.69    3.96
   0   9   3   38.76    3.32
   0   9   3   37.83    3.10
  -1  -9  -3    2.44    1.83
  -1  -9  -3   -1.42    1.75
  -1  -9  -3   -0.03    1.83
   1   9   3    2.07    1.40
   1   9   3   -0.67    1.56
  -2  -9  -3   -1.37    1.74
  -2  -9  -3    2.18    1.30
  -2  -9  -3    1.74    1.72
   2   9   3    4.33    1.87
   2   9   3    2.76    1.15
   2   9   3    1.17    1.53
  -3  -9  -3   12.58    2.35
  -3  -9  -3    9.02    2.26
  -3  -9  -3    9.36    1.73
   3   9   3   10.88    2.20
   3   9   3    8.39    1.94
   3   9   3    9.25    1.90
  -4  -9  -3   32.56    3.20
  -4  -9  -3   37.37    3.20
   4   9   3   35.53    3.07
   4   9   3   39.47    3.37
   4   9   3   32.57    2.78
  -5  -9  -3    3.30    1.88
  -5  -9  -3    4.35    1.83
   5   9   3    4.32    1.91
   5   9   3    4.57    1.57
   5   9   3    6.87    2.18
  -6  -9  -3    4.63    2.03
  -6  -9  -3    5.17    1.90
   6   9   3    3.95    2.03
   6   9   3    5.48    1.82
   6   9   3    3.27    1.74
   6   9   3    5.96    2.14
   7   9   3    7.30    2.20
   7   9   3    8.53    2.23
   7   9   3    6.03    2.15
   7   9   3    6.23    1.97
   7   9   3    3.55    2.21
   8   9   3    5.94    2.25
   8   9   3   10.11    2.57
   8   9   3    9.55    2.54
   2 -10  -3   -2.73    4.57
   2 -10  -3    0.58    2.60
   2 -10  -3    2.34    2.24
  -2  10   3    0.22    1.99
  -2  10   3    2.41    2.47
   1 -10  -3   -0.10    2.12
   1 -10  -3   -0.66    2.28
   1 -10  -3    1.06    2.70
  -1  10   3    0.42    2.03
  -1  10   3   -1.97    1.85
   0 -10  -3    0.83    2.29
   0 -10  -3    2.64    2.38
   0 -10  -3    2.78    2.19
   0  10   3   -0.28    2.14
   0  10   3    4.10    1.77
  -1 -10  -3   18.97    2.89
  -1 -10  -3   21.26    2.93
  -1 -10  -3   12.19    2.38
   1  10   3   21.87    2.87
   1  10   3   11.62    2.64
  -2 -10  -3   -2.36    1.97
  -2 -10  -3    2.30    1.90
  -2 -10  -3    1.37    2.00
   2  10   3    2.48    2.01
   2  10   3   -0.22    1.66
  -3 -10  -3    0.10    1.77
  -3 -10  -3    1.44    2.16
  -3 -10  -3   -0.65    1.89
   3  10   3   -0.92    1.60
   3  10   3    1.45    1.94
  -4 -10  -3    1.77    1.78
  -4 -10  -3    0.49    1.91
   4  10   3    2.84    2.11
   4  10   3    1.82    1.63
   4  10   3    2.45    2.15
  -5 -10  -3    5.70    2.18
  -5 -10  -3    7.47    2.29
   5  10   3    3.69    2.33
   5  10   3    7.42    2.30
   5  10   3    7.14    1.94
  -6 -10  -3   -1.17    1.74
  -6 -10  -3   -2.90    1.67
   6  10   3   -0.83    1.85
   6  10   3   -3.48    2.03
   7  10   3   -1.46    2.60
   7  10   3   -1.13    2.02
   7  10   3    0.76    2.53
   7  10   3    2.09    2.85
   0 -11  -3    6.23    2.53
   0 -11  -3    2.97    2.57
   0  11   3    1.00    2.42
   0  11   3    1.89    2.55
  -1 -11  -3    1.17    2.34
  -1 -11  -3    0.30    1.78
   1  11   3   -0.10    2.24
   1  11   3    0.24    2.08
  -2 -11  -3    0.23    2.13
  -2 -11  -3   -3.09    2.24
   2  11   3   -4.60    1.67
   2  11   3    0.43    2.16
  -3 -11  -3   -0.15    2.08
  -3 -11  -3    0.58    2.40
   3  11   3   -0.15    1.91
   3  11   3    2.79    2.38
  -4 -11  -3    5.97    2.63
   4  11   3    6.85    2.12
   4  11   3    7.49    2.68
   4  11   3    3.42    2.42
  -5 -11  -3    1.56    2.23
   5  11   3   -0.13    1.75
   5  11   3   -1.53    1.97
  -6 -11  -3   -0.07    2.12
   6  11   3   -2.59    2.29
   6  11   3    0.91    2.17
   5  10  -4    8.18    3.26
   5  10  -4    9.67    3.07
  -5 -10   4    3.71    2.44
  -5 -10   4   16.09    3.33
   4  10  -4    5.47    2.78
   4  10  -4    0.78    2.78
  -4 -10   4    6.51    2.24
  -4 -10   4    6.41    2.25
   3  10  -4    4.69    2.91
   3  10  -4    5.35    2.52
  -3 -10   4    8.01    2.28
  -3 -10   4    4.55    2.31
   2  10  -4    0.59    2.58
   2  10  -4    3.74    2.61
  -2 -10   4    0.22    2.36
  -2 -10   4    1.53    2.10
   1  10  -4    0.91    2.76
   1  10  -4    9.65    2.96
   1  10  -4    7.89    2.42
  -1 -10   4    7.32    2.47
  -1 -10   4    6.29    2.59
   0  10  -4    3.52    2.16
   0  10  -4    6.42    2.85
   0  10  -4    0.91    2.87
   0 -10   4    1.89    2.28
   0 -10   4    6.84    2.69
  -1  10  -4    7.63    2.98
  -1  10  -4    7.06    2.25
  -1  10  -4    4.66    2.80
   1 -10   4    9.28    2.80
   1 -10   4    6.69    2.55
  -2  10  -4    8.61    3.21
  -2  10  -4    3.62    1.98
  -2  10  -4    9.77    2.96
   2 -10   4    4.57    2.64
   2 -10   4    4.56    2.60
   6   9  -4    3.20    2.95
   6   9  -4   -1.03    2.42
  -6  -9   4    2.70    2.42
   5   9  -4   -1.27    2.42
   5   9  -4    6.60    2.70
  -5  -9   4    1.00    1.81
  -5  -9   4    3.36    2.45
   4   9  -4   18.52    3.60
   4   9  -4   15.71    2.99
  -4  -9   4   12.85    2.48
  -4  -9   4   15.60    2.97
   3   9  -4    2.06    2.54
   3   9  -4    2.71    2.30
  -3  -9   4    4.40    2.08
  -3  -9   4    1.99    2.20
   2   9  -4   11.37    2.58
   2   9  -4    5.51    2.69
  -2  -9   4    6.80    2.16
  -2  -9   4   10.69    2.36
  -2  -9   4    7.60    2.08
   1   9  -4    3.45    2.31
   1   9  -4    5.15    2.63
  -1  -9   4    5.85    2.07
  -1  -9   4    5.22    2.36
  -1  -9   4    0.86    2.29
   0   9  -4    1.49    2.61
   0   9  -4    6.13    1.72
   0   9  -4    4.06    2.35
   0  -9   4    5.32    2.29
   0  -9   4    3.10    2.01
  -1   9  -4   -0.43    1.68
  -1   9  -4   -1.05    2.71
  -1   9  -4    0.36    2.37
   1  -9   4   -1.73    2.01
   1  -9   4   -1.25    2.04
  -2   9  -4    6.64    2.58
  -2   9  -4   11.28    2.97
  -2   9  -4    8.51    2.13
   2  -9   4    9.33    2.61
   2  -9   4    6.00    2.57
  -3   9  -4    6.56    2.44
  -3   9  -4    4.71    2.83
  -3   9  -4    3.35    1.91
   3  -9   4    5.34    2.67
   3  -9   4    2.34    2.33
  -4   9  -4    4.42    2.44
  -4   9  -4    0.57    2.78
   4  -9   4   -1.84    2.21
   4  -9   4   -1.27    2.55
   7   8  -4    1.60    2.13
   7   8  -4    1.44    2.80
  -7  -8   4    1.85    2.22
  -7  -8   4    2.24    2.50
   6   8  -4    5.37    2.93
   6   8  -4    4.89    2.17
  -6  -8   4    1.85    2.26
  -6  -8   4    1.63    2.15
   5   8  -4    1.72    2.20
   5   8  -4   -0.60    2.31
   5   8  -4    1.27    2.03
  -5  -8   4    1.68    1.29
  -5  -8   4    3.24    1.73
  -5  -8   4    1.10    2.03
   4   8  -4   -0.48    1.54
   4   8  -4    0.61    2.04
   4   8  -4    1.37    2.24
  -4  -8   4    0.74    1.98
  -4  -8   4    0.37    1.46
  -4  -8   4   -0.04    1.56
   3   8  -4   -1.26    1.99
   3   8  -4   -1.04    1.65
   3   8  -4   -1.07    1.79
  -3  -8   4    1.07    1.24
  -3  -8   4   -0.95    1.86
  -3  -8   4   -1.09    1.12
   2   8  -4   -0.63    1.77
   2   8  -4   -0.38    1.47
  -2  -8   4    1.35    1.85
  -2  -8   4   -1.17    1.31
  -2  -8   4    0.95    1.61
  -2  -8   4   -0.69    1.53
   1   8  -4    3.00    1.92
   1   8  -4    0.02    2.02
  -1  -8   4    2.42    1.67
  -1  -8   4    2.81    1.90
  -1  -8   4    0.08    1.73
  -1  -8   4    2.00    1.49
   0   8  -4    3.39    2.48
   0   8  -4    4.99    2.09
   0  -8   4    6.18    2.05
   0  -8   4    3.82    1.26
   0  -8   4    3.26    2.07
   0  -8   4    4.60    1.50
  -1   8  -4    0.32    2.28
  -1   8  -4    3.88    2.12
  -1   8  -4    0.15    1.47
   1  -8   4    3.19    1.47
   1  -8   4    2.34    2.16
  -2   8  -4    0.94    2.19
  -2   8  -4   -0.89    2.02
  -2   8  -4   -0.06    1.48
   2  -8   4   -0.57    2.03
   2  -8   4    0.90    1.83
  -3   8  -4    3.82    2.21
  -3   8  -4    4.19    2.59
  -3   8  -4    0.53    1.47
   3  -8   4    1.79    1.56
   3  -8   4    2.34    2.30
  -4   8  -4   -1.09    2.26
  -4   8  -4    4.91    2.38
  -4   8  -4    3.91    1.61
   4  -8   4   -1.41    1.87
   4  -8   4    1.16    2.43
  -5   8  -4    2.64    2.21
  -5   8  -4    4.23    2.73
   5  -8   4    3.82    2.21
   5  -8   4    0.79    2.63
  -8  -7   4   -1.87    1.94
   7   7  -4    1.87    2.25
   7   7  -4   -0.12    1.88
  -7  -7   4   -0.34    2.30
  -7  -7   4   -1.85    1.96
   6   7  -4    1.74    2.49
   6   7  -4    5.39    2.17
  -6  -7   4    3.75    2.26
  -6  -7   4    3.98    2.08
   5   7  -4    4.43    2.47
   5   7  -4    2.55    1.99
  -5  -7   4    0.14    1.91
  -5  -7   4    3.64    1.98
  -5  -7   4    1.64    1.45
  -5  -7   4    2.51    1.17
   4   7  -4   -0.06    2.03
   4   7  -4    1.41    1.74
   4   7  -4    1.12    1.82
  -4  -7   4   -0.53    1.21
  -4  -7   4    3.39    1.56
  -4  -7   4    1.50    1.20
   3   7  -4   -1.14    1.87
   3   7  -4    1.64    1.46
   3   7  -4    2.01    1.77
  -3  -7   4    0.16    1.34
  -3  -7   4    1.13    1.27
  -3  -7   4   -0.28    1.18
  -3  -7   4   -0.62    0.92
   2   7  -4   25.75    3.36
   2   7  -4   22.68    2.56
   2   7  -4   28.42    2.76
  -2  -7   4   24.16    2.30
  -2  -7   4   27.15    2.31
  -2  -7   4   27.32    2.83
  -2  -7   4   24.43    2.47
   1   7  -4    9.69    2.07
   1   7  -4    7.82    1.55
   1   7  -4   11.08    2.61
  -1  -7   4   10.56    1.89
  -1  -7   4    8.39    2.05
  -1  -7   4    9.78    1.66
  -1  -7   4   10.51    2.06
   0   7  -4    3.05    1.78
   0   7  -4    2.18    2.15
   0  -7   4    5.24    1.45
   0  -7   4    3.05    1.42
   0  -7   4    4.35    1.85
   0  -7   4    3.89    1.57
  -1   7  -4    1.32    1.71
  -1   7  -4    0.02    2.17
   1  -7   4    1.77    1.31
   1  -7   4    2.45    1.53
   1  -7   4    1.64    1.54
   1  -7   4    1.35    1.77
  -2   7  -4   36.07    3.40
  -2   7  -4   37.41    3.60
  -2   7  -4   36.16    2.67
   2  -7   4   39.22    3.01
   2  -7   4   36.93    2.65
   2  -7   4   39.90    3.43
  -3   7  -4    9.38    2.49
  -3   7  -4   12.36    2.60
  -3   7  -4   10.17    1.82
   3  -7   4    8.75    2.10
   3  -7   4    9.46    2.06
   3  -7   4    8.06    1.67
  -4   7  -4    4.55    2.36
  -4   7  -4    5.24    2.20
  -4   7  -4    1.13    1.30
   4  -7   4    4.83    2.30
   4  -7   4    7.51    2.14
   4  -7   4    1.11    1.35
  -5   7  -4   -2.97    2.24
  -5   7  -4    4.37    2.40
   5  -7   4    2.92    2.47
   5  -7   4    1.54    1.78
  -6   7  -4   12.64    2.99
  -6   7  -4    7.74    2.66
   6  -7   4    5.40    2.87
   8   6  -4    3.35    2.59
   8   6  -4    2.47    2.24
  -8  -6   4   -0.39    2.37
  -8  -6   4   -1.15    1.88
   7   6  -4    5.25    2.81
   7   6  -4   12.60    2.94
  -7  -6   4    7.16    2.11
  -7  -6   4    8.49    2.58
   6   6  -4    1.44    1.95
   6   6  -4    1.50    2.22
  -6  -6   4   -2.00    1.90
  -6  -6   4    0.55    1.76
   5   6  -4   29.43    3.67
   5   6  -4   34.14    3.24
  -5  -6   4   33.04    2.23
  -5  -6   4   35.44    2.97
  -5  -6   4   34.57    3.02
  -5  -6   4   31.88    2.50
   4   6  -4    3.81    1.83
   4   6  -4    2.39    1.59
  -4  -6   4    2.31    1.30
  -4  -6   4    1.32    1.69
  -4  -6   4    2.66    1.12
  -4  -6   4    2.17    1.59
   3   6  -4    7.45    1.88
   3   6  -4    6.92    1.80
   3   6  -4    8.77    2.03
  -3  -6   4    9.03    1.50
  -3  -6   4    6.69    1.74
  -3  -6   4    9.58    1.15
  -3  -6   4    8.32    1.59
   2   6  -4    3.87    1.51
   2   6  -4    3.66    1.61
   2   6  -4    2.29    1.49
  -2  -6   4    0.65    1.00
  -2  -6   4    1.43    1.35
  -2  -6   4    1.49    1.17
  -2  -6   4    1.43    0.99
   1   6  -4   88.55    4.78
   1   6  -4   90.67    4.03
   1   6  -4   83.00    3.80
  -1  -6   4   90.19    3.88
  -1  -6   4   85.28    3.82
  -1  -6   4   89.70    3.95
  -1  -6   4   83.20    3.67
   0   6  -4   19.21    1.71
   0   6  -4   27.87    2.59
   0   6  -4   18.04    2.83
   0  -6   4   18.80    1.94
   0  -6   4   25.57    2.12
   0  -6   4   21.66    2.50
   0  -6   4   19.68    1.78
  -1   6  -4   14.56    2.76
  -1   6  -4   16.39    1.26
  -1   6  -4   15.45    2.19
   1  -6   4   12.62    1.85
   1  -6   4   12.19    1.86
   1  -6   4   10.28    1.99
   1  -6   4   14.29    1.78
  -2   6  -4    9.85    2.48
  -2   6  -4    7.06    1.92
  -2   6  -4    7.64    1.55
   2  -6   4    6.90    1.95
   2  -6   4    5.93    1.39
   2  -6   4    6.15    1.42
  -3   6  -4   46.30    3.32
  -3   6  -4   42.96    3.64
  -3   6  -4   43.44    2.81
   3  -6   4   46.82    3.03
   3  -6   4   44.64    3.39
   3  -6   4   40.38    2.61
  -4   6  -4   17.58    2.79
  -4   6  -4   12.19    2.44
  -4   6  -4    9.36    1.69
   4  -6   4   10.02    1.60
   4  -6   4   10.48    1.99
   4  -6   4    8.84    2.33
  -5   6  -4    2.62    2.20
  -5   6  -4    3.69    2.12
   5  -6   4    1.84    1.76
   5  -6   4    0.60    1.14
   5  -6   4    2.26    1.71
  -6   6  -4   -1.98    2.27
  -6   6  -4   -0.39    1.56
   6  -6   4   -0.89    1.78
  -7   6  -4    5.93    2.87
  -7   6  -4   13.80    3.16
   7  -6   4   10.38    3.12
   8   5  -4   10.92    3.08
   8   5  -4    9.16    2.54
   8   5  -4   11.35    2.89
  -8  -5   4    9.89    2.23
  -8  -5   4   11.01    2.88
   7   5  -4    1.11    1.64
   7   5  -4    1.27    2.35
   7   5  -4    3.08    2.26
  -7  -5   4   -0.19    1.67
  -7  -5   4    2.11    2.19
   6   5  -4    5.90    2.46
   6   5  -4    5.90    1.76
   6   5  -4    5.31    2.10
  -6  -5   4    4.58    1.75
  -6  -5   4    5.95    1.85
   5   5  -4    1.06    1.57
   5   5  -4   -0.53    1.57
   5   5  -4    1.05    1.21
  -5  -5   4   -0.51    1.57
  -5  -5   4    0.81    0.95
  -5  -5   4   -2.95    1.28
  -5  -5   4    0.37    1.05
   4   5  -4   57.81    2.66
   4   5  -4   62.14    3.71
   4   5  -4   55.51    3.89
  -4  -5   4   59.94    3.30
  -4  -5   4   60.29    2.97
  -4  -5   4   59.42    3.32
  -4  -5   4   52.61    2.71
   3   5  -4   35.32    2.71
   3   5  -4   34.76    1.69
   3   5  -4   32.38    3.05
  -3  -5   4   34.46    2.21
  -3  -5   4   32.30    2.45
  -3  -5   4   35.37    2.27
  -3  -5   4   35.34    1.53
  -3  -5   4   34.52    2.11
   2   5  -4    6.89    0.60
   2   5  -4    6.06    1.94
   2   5  -4    6.87    1.57
   2   5  -4    8.69    1.63
  -2  -5   4    8.32    1.41
  -2  -5   4    9.42    1.09
  -2  -5   4    8.67    1.56
  -2  -5   4    7.51    1.30
   1   5  -4    1.54    1.20
   1   5  -4    3.70    1.12
   1   5  -4    3.57    1.72
  -1  -5   4    2.84    1.06
  -1  -5   4    3.75    1.20
  -1  -5   4    3.58    1.21
  -1  -5   4    2.97    1.17
   0   5  -4   93.74    3.84
   0   5  -4   96.79    4.01
   0   5  -4   99.49    4.64
   0  -5   4  102.63    3.99
   0  -5   4   99.15    3.81
   0  -5   4   98.24    4.09
   0  -5   4   98.83    3.95
  -1   5  -4   22.50    2.35
  -1   5  -4   25.20    2.27
  -1   5  -4   23.14    1.51
   1  -5   4   24.63    1.96
   1  -5   4   25.42    2.30
   1  -5   4   22.51    2.05
   1  -5   4   24.26    1.92
  -2   5  -4    0.85    1.77
  -2   5  -4   -0.32    1.29
  -2   5  -4    0.97    0.72
   2  -5   4   -0.02    1.38
   2  -5   4    0.21    0.98
   2  -5   4   -0.27    1.13
   2  -5   4    0.54    1.17
   2  -5   4    1.16    1.11
  -3   5  -4    0.76    1.71
  -3   5  -4    0.29    1.04
  -3   5  -4    0.59    0.80
  -3   5  -4    0.93    1.49
   3  -5   4    1.16    1.33
   3  -5   4   -0.88    1.06
   3  -5   4    0.26    1.21
   3  -5   4   -0.39    1.45
  -4   5  -4   30.18    3.05
  -4   5  -4   32.93    2.91
  -4   5  -4   31.67    2.14
  -4   5  -4   33.44    2.15
   4  -5   4   33.21    3.06
   4  -5   4   29.16    2.61
   4  -5   4   29.46    2.19
   4  -5   4   36.24    2.57
  -5   5  -4    4.00    2.08
  -5   5  -4    5.72    2.15
   5  -5   4    4.37    1.95
   5  -5   4    7.80    1.75
   5  -5   4    4.85    1.29
   5  -5   4    3.64    1.65
  -6   5  -4   -0.73    2.04
  -6   5  -4   -0.66    1.42
   6  -5   4   -0.87    1.47
   6  -5   4    0.65    2.18
   6  -5   4   -0.98    2.12
  -7   5  -4    1.72    2.48
  -7   5  -4   -0.02    2.39
   7  -5   4   -1.86    2.29
   7  -5   4    0.80    2.42
   8   4  -4    3.53    2.21
   8   4  -4    3.22    2.45
   8   4  -4    2.17    2.19
  -8  -4   4    0.89    2.05
  -8  -4   4   -0.39    2.29
  -8  -4   4    2.29    2.02
   7   4  -4    4.99    2.29
   7   4  -4    7.69    2.08
   7   4  -4    5.38    2.61
  -7  -4   4    1.06    1.67
  -7  -4   4    3.66    2.20
   6   4  -4   10.15    2.43
   6   4  -4   11.09    1.93
   6   4  -4    6.69    2.05
  -6  -4   4    8.08    2.17
  -6  -4   4    6.38    1.80
   5   4  -4    1.60    1.39
   5   4  -4    0.00    1.54
   5   4  -4    2.08    2.03
  -5  -4   4   -0.09    1.60
  -5  -4   4    0.63    0.78
  -5  -4   4    1.25    1.45
  -5  -4   4    3.02    1.03
   4   4  -4   17.82    1.71
   4   4  -4   16.24    2.26
   4   4  -4   16.95    1.37
   4   4  -4   15.23    2.53
  -4  -4   4   19.14    1.66
  -4  -4   4   17.36    1.48
  -4  -4   4   12.97    1.95
  -4  -4   4   16.79    2.03
   3   4  -4    8.75    0.62
   3   4  -4    9.61    1.73
   3   4  -4   11.64    2.07
   3   4  -4    9.02    1.12
   3   4  -4    9.99    1.12
  -3  -4   4    8.82    1.62
  -3  -4   4    9.03    1.24
  -3  -4   4    8.72    1.35
  -3  -4   4   10.45    1.48
   2   4  -4   34.00    2.41
   2   4  -4   28.35    2.29
   2   4  -4   27.28    1.32
   2   4  -4   30.49    1.71
  -2  -4   4   30.29    1.32
  -2  -4   4   31.53    2.10
  -2  -4   4   32.03    1.92
  -2  -4   4   27.70    2.00
  -2  -4   4   29.69    1.78
   1   4  -4   23.99    1.58
   1   4  -4   23.43    2.06
   1   4  -4   26.13    2.11
   1   4  -4   26.44    1.87
  -1  -4   4   22.85    1.82
  -1  -4   4   26.81    1.82
  -1  -4   4   22.30    1.62
  -1  -4   4   27.78    1.60
   0   4  -4    4.69    1.15
   0   4  -4    5.03    0.87
   0   4  -4    3.78    1.51
   0   4  -4    8.21    1.31
   0  -4   4    6.48    1.10
   0  -4   4    6.09    1.16
   0  -4   4    4.31    0.92
   0  -4   4    5.57    1.15
  -1   4  -4   11.12    1.88
  -1   4  -4   10.84    1.17
  -1   4  -4   13.71    1.62
  -1   4  -4   11.57    1.29
   1  -4   4   10.99    1.42
   1  -4   4   11.57    0.70
   1  -4   4   10.86    0.53
   1  -4   4   13.56    1.44
   1  -4   4   12.09    1.36
   1  -4   4   10.44    1.59
  -2   4  -4   22.56    2.08
  -2   4  -4   20.79    1.49
  -2   4  -4   17.20    2.49
   2  -4   4   19.37    1.93
   2  -4   4   18.28    1.49
   2  -4   4   18.87    1.31
   2  -4   4   20.28    1.60
   2  -4   4   18.82    1.63
  -3   4  -4   13.99    2.16
  -3   4  -4   16.16    2.00
  -3   4  -4   12.51    1.45
  -3   4  -4   14.28    1.47
   3  -4   4   14.65    1.52
   3  -4   4   11.27    1.57
   3  -4   4   14.48    1.50
   3  -4   4   10.74    1.80
  -4   4  -4   10.39    2.07
  -4   4  -4   13.82    1.42
  -4   4  -4   14.30    2.17
  -4   4  -4   11.68    1.56
   4  -4   4    9.91    1.64
   4  -4   4    8.91    1.87
   4  -4   4   11.99    1.68
   4  -4   4   10.51    1.44
  -5   4  -4   -2.69    1.68
  -5   4  -4   -0.66    1.09
  -5   4  -4   -0.46    1.69
  -5   4  -4    0.36    0.87
   5  -4   4    0.54    1.21
   5  -4   4    2.01    1.64
   5  -4   4   -0.93    1.28
   5  -4   4    0.82    0.99
  -6   4  -4    5.13    1.64
  -6   4  -4    4.55    2.17
  -6   4  -4    4.03    2.17
   6  -4   4    1.07    1.46
   6  -4   4    2.30    1.95
   6  -4   4    2.21    1.98
   6  -4   4    3.56    1.21
  -7   4  -4   -0.52    2.15
  -7   4  -4    2.16    2.43
   7  -4   4    3.02    1.83
   7  -4   4    3.49    2.14
  -8   4  -4    0.94    2.53
  -8   4  -4    1.51    2.48
   8  -4   4    1.82    2.58
   8  -4   4    1.95    2.39
   9   3  -4   -0.65    2.57
   9   3  -4    2.16    2.91
   8   3  -4    5.82    2.31
   8   3  -4    8.39    2.52
  -8  -3   4    1.86    2.41
  -8  -3   4    4.72    2.55
   7   3  -4    2.72    1.97
   7   3  -4    2.30    2.18
  -7  -3   4    3.02    1.70
  -7  -3   4    2.92    2.23
  -7  -3   4    2.46    2.25
   6   3  -4   -0.52    1.66
   6   3  -4    1.55    1.60
  -6  -3   4    1.64    1.97
  -6  -3   4   -2.70    1.54
  -6  -3   4   -1.02    1.80
   5   3  -4    5.83    1.89
   5   3  -4    5.07    1.72
   5   3  -4    7.80    1.70
  -5  -3   4    5.33    1.56
  -5  -3   4    4.38    1.74
  -5  -3   4    6.22    0.88
  -5  -3   4    7.52    0.84
  -5  -3   4    6.70    2.07
   4   3  -4   64.51    3.57
   4   3  -4   59.53    3.56
   4   3  -4   70.79    2.50
   4   3  -4   69.88    3.06
  -4  -3   4   68.76    3.13
  -4  -3   4   63.75    3.28
  -4  -3   4   71.51    2.59
  -4  -3   4   71.94    2.69
   3   3  -4   11.27    1.66
   3   3  -4   10.68    1.02
   3   3  -4   13.84    1.32
   3   3  -4   12.57    2.03
  -3  -3   4   12.44    1.20
  -3  -3   4   13.29    1.29
  -3  -3   4   10.19    1.52
  -3  -3   4   11.68    1.63
   2   3  -4    4.54    0.82
   2   3  -4    3.93    0.36
   2   3  -4    6.01    1.36
   2   3  -4    3.94    0.77
   2   3  -4    2.59    1.17
  -2  -3   4    3.81    0.85
  -2  -3   4    3.12    1.09
  -2  -3   4    4.90    1.17
  -2  -3   4    3.97    0.34
  -2  -3   4    6.71    1.02
   1   3  -4   23.21    0.96
   1   3  -4   26.00    2.22
   1   3  -4   22.17    1.42
   1   3  -4   20.17    1.86
  -1  -3   4   23.46    1.73
  -1  -3   4   23.51    1.26
  -1  -3   4   22.31    1.47
  -1  -3   4   21.41    1.33
  -1  -3   4   23.29    1.44
   0   3  -4  117.47    5.08
   0   3  -4  126.65    4.38
   0   3  -4  128.68    4.24
   0   3  -4  132.23    4.84
   0  -3   4  125.31    4.27
   0  -3   4  129.90    4.26
   0  -3   4  132.59    4.43
   0  -3   4  133.30    4.43
  -1   3  -4   37.25    1.87
  -1   3  -4   36.53    1.94
  -1   3  -4   36.81    2.75
  -1   3  -4   34.73    2.01
   1  -3   4   35.85    1.97
   1  -3   4   37.16    1.90
   1  -3   4   34.79    1.82
   1  -3   4   35.30    1.21
   1  -3   4   35.75    1.92
   1  -3   4   34.20    1.24
  -2   3  -4   28.72    2.50
  -2   3  -4   29.50    1.70
  -2   3  -4   26.53    1.78
  -2   3  -4   29.78    1.70
   2  -3   4   29.64    1.75
   2  -3   4   30.02    1.59
   2  -3   4   30.40    1.94
   2  -3   4   31.17    1.87
   2  -3   4   28.52    1.39
  -3   3  -4    7.50    1.83
  -3   3  -4   12.35    1.38
  -3   3  -4    8.81    1.44
  -3   3  -4    8.65    1.15
   3  -3   4    8.82    1.16
   3  -3   4    9.12    1.12
   3  -3   4    8.57    1.28
   3  -3   4    7.95    1.42
   3  -3   4    8.07    1.16
  -4   3  -4   94.83    4.82
  -4   3  -4   93.83    3.98
  -4   3  -4   98.41    4.14
  -4   3  -4   97.63    3.36
   4  -3   4   96.03    3.64
   4  -3   4   99.29    4.18
   4  -3   4   97.99    3.75
   4  -3   4   97.36    3.79
  -5   3  -4    0.71    1.32
  -5   3  -4    0.25    0.69
  -5   3  -4    0.77    1.11
  -5   3  -4    0.43    1.50
   5  -3   4    1.48    0.90
   5  -3   4    1.42    1.49
   5  -3   4    2.86    1.19
   5  -3   4   -0.21    1.21
  -6   3  -4   12.87    2.36
  -6   3  -4   15.72    2.52
  -6   3  -4   23.11    2.47
   6  -3   4   20.78    1.82
   6  -3   4   13.30    2.03
   6  -3   4   20.49    2.41
   6  -3   4   21.26    1.69
  -7   3  -4   -1.92    2.17
  -7   3  -4    1.13    1.75
  -7   3  -4    2.82    2.27
   7  -3   4    2.46    1.71
   7  -3   4    1.22    1.90
  -8   3  -4    9.57    2.52
  -8   3  -4    2.93    2.49
  -8   3  -4    7.18    2.76
   8  -3   4    9.23    2.59
   8  -3   4    7.46    2.74
  -9   3  -4    1.11    2.76
  -9   3  -4   -4.24    2.29
   9  -3   4    1.23    2.66
   9  -3   4   -1.38    2.59
   9   2  -4   -2.48    2.60
   9   2  -4    5.53    3.22
  -9  -2   4   -0.43    2.77
  -9  -2   4    1.24    2.09
   8   2  -4   -1.30    1.80
   8   2  -4    1.26    2.38
  -8  -2   4   -0.33    2.38
  -8  -2   4    1.15    2.42
   7   2  -4   47.34    3.66
   7   2  -4   46.02    4.27
  -7  -2   4   43.68    3.74
   6   2  -4    6.89    1.98
   6   2  -4    6.64    2.16
  -6  -2   4    1.21    1.41
  -6  -2   4    6.22    2.26
  -6  -2   4    6.15    2.00
   5   2  -4   10.06    2.14
   5   2  -4    5.87    1.72
  -5  -2   4   10.41    2.24
  -5  -2   4    8.79    1.87
  -5  -2   4    6.42    1.57
  -5  -2   4    9.56    0.71
   4   2  -4    3.17    0.26
   4   2  -4    5.52    1.59
   4   2  -4    4.05    0.65
   4   2  -4    4.57    1.24
  -4  -2   4    3.99    1.33
  -4  -2   4    5.15    1.47
  -4  -2   4    2.88    1.24
  -4  -2   4    4.29    0.69
  -4  -2   4    4.34    0.76
   3   2  -4  201.41    6.57
   3   2  -4  203.99    6.07
   3   2  -4  196.63    7.17
   3   2  -4  212.60    7.38
  -3  -2   4  212.67    6.24
  -3  -2   4  205.43    6.14
  -3  -2   4  211.51    6.76
  -3  -2   4  207.32    6.73
   2   2  -4   25.35    1.40
   2   2  -4   25.75    1.59
   2   2  -4   25.59    1.93
   2   2  -4   26.32    2.19
  -2  -2   4   26.26    1.57
  -2  -2   4   27.73    1.84
  -2  -2   4   24.94    1.46
  -2  -2   4   26.21    1.49
   1   2  -4   27.62    2.34
   1   2  -4   32.68    1.12
   1   2  -4   33.54    1.62
   1   2  -4   39.89    1.66
  -1  -2   4   34.51    1.93
  -1  -2   4   30.98    1.41
  -1  -2   4   33.53    1.82
  -1  -2   4   34.51    1.67
  -1  -2   4   32.91    1.27
  -1  -2   4   34.55    1.77
   0   2  -4   12.50    1.69
   0   2  -4   11.64    0.83
   0   2  -4   12.25    1.06
   0   2  -4   11.39    1.80
   0   2  -4   10.14    0.63
   0  -2   4   12.42    0.93
   0  -2   4   12.40    1.01
   0  -2   4   14.43    1.36
   0  -2   4   12.96    1.10
   0  -2   4   13.22    1.28
   0  -2   4   13.16    1.18
  -1   2  -4  236.11    7.20
  -1   2  -4  244.97    7.20
  -1   2  -4  243.18    7.66
  -1   2  -4  239.49    8.07
   1  -2   4  235.54    7.19
   1  -2   4  232.54    6.80
   1  -2   4  248.25    7.33
   1  -2   4  240.46    7.19
   1  -2   4  249.53    7.20
  -2   2  -4   12.95    1.39
  -2   2  -4   11.67    1.31
  -2   2  -4   11.76    1.17
  -2   2  -4   13.94    2.04
   2  -2   4   11.95    1.19
   2  -2   4   12.50    1.33
   2  -2   4   14.16    1.15
   2  -2   4   11.42    0.95
   2  -2   4   12.53    1.07
  -3   2  -4   25.92    1.79
  -3   2  -4   28.98    1.82
  -3   2  -4   25.19    2.33
  -3   2  -4   25.13    1.55
   3  -2   4   26.59    1.49
   3  -2   4   24.02    1.28
   3  -2   4   27.75    1.69
   3  -2   4   25.67    1.55
   3  -2   4   26.85    1.83
  -4   2  -4   -0.09    0.87
  -4   2  -4   -0.72    1.00
  -4   2  -4    0.47    0.50
  -4   2  -4    0.61    1.40
   4  -2   4    0.43    1.06
   4  -2   4   -0.71    0.92
   4  -2   4    0.06    0.94
   4  -2   4    0.58    0.84
  -5   2  -4   34.63    2.47
  -5   2  -4   31.27    2.95
  -5   2  -4   31.55    2.45
  -5   2  -4   33.77    1.66
   5  -2   4   32.11    1.82
   5  -2   4   28.33    2.42
   5  -2   4   33.20    2.28
   5  -2   4   34.69    1.99
  -6   2  -4   -1.23    1.36
  -6   2  -4    2.40    1.46
  -6   2  -4   -2.23    1.47
   6  -2   4    0.79    1.58
   6  -2   4    1.43    1.44
   6  -2   4    1.73    0.95
   6  -2   4    1.84    1.15
  -7   2  -4    9.08    2.56
  -7   2  -4    8.90    2.25
  -7   2  -4    9.90    2.11
   7  -2   4    8.80    2.14
   7  -2   4    9.84    1.96
  -8   2  -4    1.85    1.87
  -8   2  -4    1.39    2.18
  -8   2  -4    1.66    2.41
   8  -2   4    1.86    2.14
   8  -2   4   -0.21    2.23
  -9   2  -4    0.74    2.62
  -9   2  -4    0.23    2.30
   9  -2   4    4.77    2.71
   9  -2   4    1.63    2.54
   9  -2   4    1.72    2.43
   8   1  -4    0.68    2.56
   8   1  -4   -0.82    2.48
  -8  -1   4   -1.30    1.60
  -8  -1   4    0.34    2.33
   7   1  -4    7.35    2.38
   7   1  -4    4.08    2.48
  -7  -1   4    8.98    2.58
  -7  -1   4    4.19    2.33
  -7  -1   4    2.72    1.83
   6   1  -4   18.44    2.88
   6   1  -4   18.60    2.59
  -6  -1   4   13.56    2.34
  -6  -1   4   24.03    3.06
   5   1  -4   17.62    2.54
   5   1  -4   14.77    2.03
   5   1  -4   17.11    1.24
  -5  -1   4   14.40    2.11
  -5  -1   4   13.90    2.10
  -5  -1   4   11.88    1.86
   4   1  -4    1.62    1.31
   4   1  -4    1.61    0.44
   4   1  -4    2.16    0.52
   4   1  -4    1.78    1.26
  -4  -1   4    1.19    0.99
  -4  -1   4    0.50    1.14
  -4  -1   4    0.96    0.51
  -4  -1   4    1.26    1.39
  -4  -1   4    1.99    0.51
   3   1  -4   15.84    0.97
   3   1  -4   14.97    1.63
   3   1  -4   16.38    1.97
   3   1  -4   15.55    0.64
  -3  -1   4   18.06    2.06
  -3  -1   4   15.03    0.61
  -3  -1   4   16.72    1.73
  -3  -1   4   17.31    1.08
  -3  -1   4   16.42    1.05
  -3  -1   4   19.13    1.68
   2   1  -4  101.41    3.20
   2   1  -4   98.05    3.95
   2   1  -4   96.82    3.66
   2   1  -4  104.24    4.28
  -2  -1   4  100.07    3.76
  -2  -1   4   98.77    3.34
  -2  -1   4  102.66    3.66
  -2  -1   4  102.21    3.29
   1   1  -4   15.78    1.10
   1   1  -4   18.98    1.41
   1   1  -4   20.08    2.16
   1   1  -4   16.91    1.70
  -1  -1   4   14.10    1.24
  -1  -1   4   16.50    0.63
  -1  -1   4   15.60    1.21
  -1  -1   4   13.76    1.22
  -1  -1   4   15.87    0.59
  -1  -1   4   16.61    1.25
   0   1  -4    6.16    0.84
   0   1  -4    6.31    1.18
   0   1  -4    4.61    1.37
   0   1  -4    6.68    0.71
   0   1  -4    4.85    0.52
   0  -1   4    6.16    0.84
   0  -1   4    4.24    0.78
   0  -1   4    5.46    0.90
   0  -1   4    6.24    0.64
   0  -1   4    5.63    0.91
   0  -1   4    6.24    0.90
  -1   1  -4    7.83    0.71
  -1   1  -4    5.34    0.93
  -1   1  -4    5.36    1.22
  -1   1  -4    6.50    0.91
  -1   1  -4    7.79    1.33
  -1   1  -4    8.76    0.89
  -1   1  -4    9.11    0.93
   1  -1   4    8.64    0.95
   1  -1   4    8.23    0.94
   1  -1   4    7.11    0.84
   1  -1   4    7.74    1.05
   1  -1   4    8.50    0.77
  -2   1  -4   19.66    1.78
  -2   1  -4   17.08    1.20
  -2   1  -4   20.30    1.34
  -2   1  -4   20.27    1.31
  -2   1  -4   17.37    1.05
  -2   1  -4   15.99    1.35
   2  -1   4   17.24    1.08
   2  -1   4   16.30    1.14
   2  -1   4   21.69    1.27
   2  -1   4   18.26    1.38
   2  -1   4   19.88    1.25
  -3   1  -4    2.49    1.01
  -3   1  -4    0.43    0.84
  -3   1  -4    0.97    0.53
  -3   1  -4    0.76    0.99
  -3   1  -4    0.71    0.66
   3  -1   4    1.41    0.79
   3  -1   4    1.27    0.45
   3  -1   4    0.38    0.70
   3  -1   4    0.59    0.67
   3  -1   4    1.70    0.73
  -4   1  -4    5.45    0.45
  -4   1  -4    5.28    1.55
  -4   1  -4    6.17    1.27
  -4   1  -4    4.18    0.42
  -4   1  -4    5.91    1.21
   4  -1   4    4.12    0.93
   4  -1   4    5.67    1.07
   4  -1   4    3.93    1.14
   4  -1   4    4.73    0.85
  -5   1  -4    1.59    0.72
  -5   1  -4    4.76    1.40
  -5   1  -4    2.27    1.38
  -5   1  -4    1.77    1.27
   5  -1   4    2.79    0.90
   5  -1   4    2.91    1.04
   5  -1   4    4.63    1.09
   5  -1   4    2.69    1.18
  -6   1  -4    5.32    1.67
  -6   1  -4    4.81    1.56
  -6   1  -4    5.55    2.11
   6  -1   4    4.81    1.12
   6  -1   4    6.21    1.07
   6  -1   4    4.36    1.58
   6  -1   4    4.18    1.54
  -7   1  -4    0.91    2.09
  -7   1  -4    3.17    1.72
  -7   1  -4    0.43    1.89
   7  -1   4    1.76    1.80
   7  -1   4    2.53    1.82
  -8   1  -4    0.90    2.24
  -8   1  -4    0.49    2.14
  -8   1  -4    0.78    1.80
   8  -1   4   -1.28    2.00
   8  -1   4    4.36    2.10
  -9   1  -4    3.37    2.29
  -9   1  -4    0.94    2.65
  -9   1  -4   -2.99    2.01
   9  -1   4    0.69    2.37
   9  -1   4   -0.19    1.73
   8   0  -4    5.15    2.60
   8   0  -4    0.64    2.57
  -8   0   4    3.46    2.63
  -8   0   4   -1.32    2.40
   7   0  -4   -3.62    1.94
   7   0  -4    2.75    2.33
  -7   0   4   -2.19    1.52
  -7   0   4   -1.00    1.46
  -7   0   4   -1.68    2.07
   6   0  -4    9.72    2.42
   6   0  -4    6.33    2.22
   6   0  -4   10.08    1.49
  -6   0   4    8.72    2.35
  -6   0   4    3.41    2.02
  -6   0   4    4.98    1.69
   5   0  -4    7.17    1.14
   5   0  -4    7.40    2.01
   5   0  -4    5.87    1.90
  -5   0   4    4.39    1.45
  -5   0   4    6.82    1.66
  -5   0   4    5.21    1.51
   4   0  -4   13.98    2.07
   4   0  -4   11.66    1.89
   4   0  -4   13.93    0.69
   4   0  -4   14.35    1.17
  -4   0   4   13.93    0.85
  -4   0   4   13.65    1.81
  -4   0   4   12.85    1.64
  -4   0   4   15.59    2.12
  -4   0   4   12.39    0.78
   3   0  -4   11.86    0.88
   3   0  -4   12.84    1.55
   3   0  -4   11.37    1.63
   3   0  -4   10.50    0.75
  -3   0   4    9.21    1.38
  -3   0   4   13.70    1.58
  -3   0   4   10.54    0.84
  -3   0   4   10.34    1.61
  -3   0   4   11.39    0.92
   2   0  -4    3.79    0.61
   2   0  -4    4.41    1.23
   2   0  -4    4.27    1.33
   2   0  -4    3.46    0.48
  -2   0   4    4.56    0.69
  -2   0   4    3.72    0.59
  -2   0   4    4.95    0.74
  -2   0   4    4.46    1.05
  -2   0   4    4.59    1.15
  -2   0   4    6.12    1.18
   1   0  -4    2.43    0.63
   1   0  -4    3.41    1.08
   1   0  -4    3.06    1.01
   1   0  -4    3.47    1.36
   1   0  -4    1.71    0.41
  -1   0   4    2.72    0.79
  -1   0   4    3.11    0.71
  -1   0   4    3.66    0.69
  -1   0   4    2.54    0.45
  -1   0   4    3.27    0.81
   0   0  -4    5.85    1.24
   0   0  -4    6.11    0.88
   0   0  -4    5.90    0.76
   0   0  -4    5.09    0.63
   0   0  -4    6.55    1.12
   0   0   4    5.49    0.76
   0   0   4    7.74    0.99
   0   0   4    6.28    0.59
   0   0   4    5.20    0.83
   0   0   4    5.99    0.59
   0   0   4    5.32    0.98
   0   0   4    5.94    0.69
  -1   0  -4   17.62    1.46
  -1   0  -4   16.91    0.85
  -1   0  -4   18.51    1.16
  -1   0  -4   16.78    1.05
  -1   0  -4   16.66    0.83
  -1   0  -4   16.75    0.96
  -1   0  -4   15.82    1.56
   1   0   4   18.14    1.08
   1   0   4   17.02    1.19
   1   0   4   18.31    1.15
   1   0   4   17.31    1.01
  -2   0  -4   10.54    0.83
  -2   0  -4    8.91    0.96
  -2   0  -4   12.58    1.34
  -2   0  -4   12.49    1.67
  -2   0  -4   10.61    1.02
  -2   0  -4    9.06    0.77
   2   0   4    8.55    0.95
   2   0   4   10.43    0.70
   2   0   4    9.95    0.82
   2   0   4   11.79    1.04
   2   0   4    9.69    1.08
  -3   0  -4   19.15    0.83
  -3   0  -4   17.44    1.38
  -3   0  -4   17.48    1.70
  -3   0  -4   18.36    1.82
  -3   0  -4   19.39    1.28
  -3   0  -4   16.32    1.20
   3   0   4   16.97    0.80
   3   0   4   17.92    1.27
   3   0   4   18.59    1.47
   3   0   4   19.16    1.35
  -4   0  -4    1.50    1.01
  -4   0  -4    1.33    0.97
  -4   0  -4    1.79    0.80
   4   0   4    2.25    0.79
   4   0   4    1.88    0.77
   4   0   4    0.50    0.63
   4   0   4    2.31    0.92
  -5   0  -4    0.40    0.63
  -5   0  -4   -0.33    0.98
  -5   0  -4    0.92    1.09
  -5   0  -4    0.46    1.13
   5   0   4    0.63    1.08
   5   0   4    0.98    0.76
   5   0   4    0.60    1.01
   5   0   4   -0.83    0.83
  -6   0  -4    0.66    1.36
  -6   0  -4    2.15    1.53
  -6   0  -4    0.59    0.68
  -6   0  -4    0.47    1.70
   6   0   4    1.82    1.07
   6   0   4    0.24    1.04
   6   0   4    0.88    0.82
   6   0   4    1.58    0.96
  -7   0  -4   23.60    2.45
  -7   0  -4   17.21    2.64
  -7   0  -4   14.07    2.00
   7   0   4   20.17    2.33
   7   0   4   26.49    2.70
  -8   0  -4    0.58    1.80
  -8   0  -4   -0.46    1.91
  -8   0  -4   -1.20    2.11
   8   0   4   -0.19    1.94
   8   0   4    1.84    1.94
  -9   0  -4   -2.16    1.69
  -9   0  -4   -2.83    1.77
  -9   0  -4    2.85    2.24
   9   0   4    2.59    2.41
   9   0   4    0.54    2.14
 -10   0  -4    0.84    2.87
  10   0   4   -3.09    2.58
  10   0   4    3.83    3.15
  10   0   4   -1.00    2.51
   8  -1  -4   -7.18    2.51
   8  -1  -4   -0.91    2.29
  -8   1   4    0.29    2.49
  -8   1   4   -4.26    2.46
   7  -1  -4   -0.38    2.32
   7  -1  -4   -1.38    2.05
  -7   1   4    2.22    1.82
  -7   1   4    1.57    2.24
  -7   1   4    2.91    2.28
   6  -1  -4   34.83    3.54
   6  -1  -4   34.19    2.48
   6  -1  -4   33.67    3.46
  -6   1   4   32.66    2.80
  -6   1   4   26.31    2.91
  -6   1   4   30.74    3.13
   5  -1  -4   -1.80    1.58
   5  -1  -4    1.32    1.62
   5  -1  -4   -0.52    1.05
  -5   1   4   -0.13    1.13
  -5   1   4   -0.80    1.32
  -5   1   4    0.61    1.56
   4  -1  -4    9.42    1.85
   4  -1  -4    6.32    1.77
   4  -1  -4   11.04    1.25
  -4   1   4   10.81    1.85
  -4   1   4    7.40    0.72
  -4   1   4    7.11    0.67
  -4   1   4    8.96    0.63
  -4   1   4    9.46    1.67
  -4   1   4    6.92    1.50
   3  -1  -4    0.58    1.08
   3  -1  -4    2.89    0.82
   3  -1  -4    2.32    0.51
   3  -1  -4    1.51    0.99
  -3   1   4    3.21    0.58
  -3   1   4    1.87    1.07
  -3   1   4    3.46    0.65
  -3   1   4    3.16    1.14
  -3   1   4    2.91    1.23
   2  -1  -4   50.17    2.94
   2  -1  -4   52.82    1.89
   2  -1  -4   48.53    2.59
   2  -1  -4   52.77    1.99
  -2   1   4   48.67    2.46
  -2   1   4   54.41    2.47
  -2   1   4   54.62    2.38
  -2   1   4   53.33    2.00
  -2   1   4   53.06    1.95
   1  -1  -4   -0.36    0.94
   1  -1  -4    0.29    0.53
   1  -1  -4    0.10    0.80
   1  -1  -4    0.41    0.52
   1  -1  -4    0.98    0.85
   1  -1  -4    0.92    1.17
  -1   1   4    1.13    0.61
  -1   1   4    0.79    0.57
  -1   1   4   -0.22    0.85
  -1   1   4    0.29    0.54
  -1   1   4    0.53    0.73
   0  -1  -4   73.29    2.49
   0  -1  -4   70.64    3.61
   0  -1  -4   72.02    2.96
   0  -1  -4   78.90    2.89
   0  -1  -4   80.96    2.62
   0  -1  -4   78.09    2.56
   0   1   4   74.87    2.66
   0   1   4   78.42    2.51
   0   1   4   80.07    2.85
   0   1   4   80.49    2.64
   0   1   4   75.75    2.68
  -1  -1  -4    3.37    0.79
  -1  -1  -4    3.08    0.37
  -1  -1  -4    3.42    0.99
  -1  -1  -4    2.76    0.65
  -1  -1  -4    2.84    1.08
   1   1   4    2.73    0.70
   1   1   4    2.99    0.70
   1   1   4    3.29    0.71
   1   1   4    3.62    0.38
   1   1   4    2.90    0.67
   1   1   4    3.41    0.67
  -2  -1  -4   55.24    2.49
  -2  -1  -4   57.74    2.30
  -2  -1  -4   54.65    1.99
  -2  -1  -4   59.02    2.11
  -2  -1  -4   53.92    2.62
   2   1   4   57.06    2.10
   2   1   4   56.10    1.99
   2   1   4   54.87    2.21
   2   1   4   57.34    2.15
  -3  -1  -4    3.08    0.74
  -3  -1  -4    5.51    0.55
  -3  -1  -4    1.35    1.01
  -3  -1  -4    3.76    0.85
   3   1   4    4.30    0.52
   3   1   4    3.13    0.86
   3   1   4    4.95    0.56
   3   1   4    3.92    0.79
  -4  -1  -4  193.28    6.65
  -4  -1  -4  188.24    6.58
  -4  -1  -4  191.70    6.16
   4   1   4  181.58    5.76
   4   1   4  191.87    5.71
   4   1   4  178.95    6.02
  -5  -1  -4    0.20    1.01
  -5  -1  -4    0.20    0.84
  -5  -1  -4    0.68    1.11
  -5  -1  -4    0.89    0.61
   5   1   4    1.34    0.85
   5   1   4    0.36    0.95
   5   1   4    2.40    0.78
   5   1   4    1.26    0.85
  -6  -1  -4    8.52    1.86
  -6  -1  -4   10.34    2.24
  -6  -1  -4    8.19    1.33
  -6  -1  -4    9.21    1.07
   6   1   4    8.86    1.07
   6   1   4    9.04    1.66
   6   1   4   11.15    1.24
   6   1   4    8.09    1.60
  -7  -1  -4    9.72    2.18
  -7  -1  -4    3.98    1.58
  -7  -1  -4    4.93    1.90
   7   1   4    3.90    1.39
   7   1   4    5.13    1.11
   7   1   4    5.57    0.94
   7   1   4    4.99    1.73
  -8  -1  -4   35.88    3.62
  -8  -1  -4   36.67    3.87
   8   1   4   41.43    3.23
   8   1   4   28.88    3.16
  -9  -1  -4    0.55    2.55
  -9  -1  -4    4.32    2.42
  -9  -1  -4   -0.41    1.82
   9   1   4   -0.89    2.07
   9   1   4    3.68    2.20
 -10  -1  -4    0.81    2.76
 -10  -1  -4   -0.87    2.34
  10   1   4    2.19    2.37
  10   1   4   -0.20    2.47
   8  -2  -4    0.10    2.37
   8  -2  -4   -4.03    2.10
  -8   2   4   -0.18    2.78
  -8   2   4    1.30    2.52
   7  -2  -4    2.71    2.39
   7  -2  -4    0.22    2.63
  -7   2   4    1.35    2.36
  -7   2   4    4.23    2.42
  -7   2   4    2.60    1.90
   6  -2  -4    1.77    1.57
   6  -2  -4    2.91    2.06
   6  -2  -4   -1.15    2.11
  -6   2   4    3.56    2.10
  -6   2   4   -0.97    1.76
  -6   2   4   -0.88    1.75
   5  -2  -4   28.88    2.31
   5  -2  -4   30.98    3.27
   5  -2  -4   23.17    3.06
  -5   2   4   32.39    2.81
  -5   2   4   27.23    2.72
   4  -2  -4    0.13    1.42
   4  -2  -4    3.03    1.08
   4  -2  -4   -1.21    1.53
  -4   2   4    1.43    1.31
  -4   2   4    2.26    1.15
  -4   2   4    1.92    1.32
  -4   2   4    2.51    0.68
  -4   2   4    1.84    0.50
  -4   2   4    1.70    0.58
   3  -2  -4   41.30    2.79
   3  -2  -4   41.88    2.16
   3  -2  -4   38.62    2.62
  -3   2   4   48.32    2.54
  -3   2   4   44.92    2.43
  -3   2   4   41.59    1.70
  -3   2   4   45.91    2.47
  -3   2   4   41.56    1.65
  -3   2   4   44.38    1.78
   2  -2  -4    4.00    0.66
   2  -2  -4    4.53    0.85
   2  -2  -4    3.99    1.22
   2  -2  -4    5.37    1.39
  -2   2   4    5.01    1.07
  -2   2   4    4.73    0.78
  -2   2   4    3.20    0.97
  -2   2   4    5.72    0.70
  -2   2   4    4.78    1.00
   1  -2  -4   79.13    2.64
   1  -2  -4   84.89    4.07
   1  -2  -4   77.13    3.65
   1  -2  -4   77.36    2.77
  -1   2   4   79.75    2.66
  -1   2   4   74.25    2.71
  -1   2   4   75.28    2.84
  -1   2   4   74.84    3.06
   0  -2  -4   30.05    1.53
   0  -2  -4   28.93    1.42
   0  -2  -4   31.21    1.47
   0  -2  -4   30.96    1.90
   0  -2  -4   35.53    1.51
   0  -2  -4   25.76    2.48
   0  -2  -4   30.61    1.28
   0   2   4   29.71    1.54
   0   2   4   32.67    1.49
   0   2   4   32.50    1.42
   0   2   4   29.82    1.73
  -1  -2  -4  116.22    3.77
  -1  -2  -4  127.37    4.53
  -1  -2  -4  121.02    3.74
  -1  -2  -4  120.04    3.54
  -1  -2  -4  112.04    4.07
  -1  -2  -4  121.83    3.91
   1   2   4  123.93    3.92
   1   2   4  119.03    3.93
   1   2   4  120.09    3.48
   1   2   4  116.19    3.81
   1   2   4  120.28    3.70
  -2  -2  -4   -0.01    0.78
  -2  -2  -4    0.79    0.68
  -2  -2  -4   -0.07    0.89
  -2  -2  -4    0.06    0.71
  -2  -2  -4    0.57    0.83
   2   2   4    0.62    0.57
   2   2   4    0.71    0.65
   2   2   4    0.10    0.62
   2   2   4   -0.30    0.55
   2   2   4    0.09    0.69
  -3  -2  -4   51.84    2.61
  -3  -2  -4   54.24    1.67
  -3  -2  -4   59.27    2.19
  -3  -2  -4   55.67    2.37
  -3  -2  -4   53.74    2.80
  -3  -2  -4   48.73    2.15
   3   2   4   52.93    2.21
   3   2   4   52.96    2.13
   3   2   4   55.68    2.37
   3   2   4   51.05    1.66
   3   2   4   55.22    1.92
  -4  -2  -4  123.22    3.77
  -4  -2  -4  119.22    4.58
  -4  -2  -4  119.30    4.71
  -4  -2  -4  121.63    4.45
   4   2   4  125.43    3.99
   4   2   4  123.98    3.61
   4   2   4  122.02    4.06
   4   2   4  119.31    4.28
   4   2   4  124.16    3.61
  -5  -2  -4   27.99    1.56
  -5  -2  -4   30.71    2.48
  -5  -2  -4   28.39    1.55
  -5  -2  -4   29.30    2.43
   5   2   4   24.85    1.82
   5   2   4   26.42    1.74
   5   2   4   26.13    1.48
   5   2   4   27.45    1.60
  -6  -2  -4    7.73    1.36
  -6  -2  -4    8.79    2.14
  -6  -2  -4    7.67    1.00
  -6  -2  -4   10.53    2.00
   6   2   4    7.79    1.45
   6   2   4   12.55    1.72
   6   2   4    8.17    1.03
   6   2   4    8.84    1.22
  -7  -2  -4    1.04    1.40
  -7  -2  -4    1.88    1.74
  -7  -2  -4   -2.42    1.89
   7   2   4   -0.21    0.77
   7   2   4    0.43    1.14
   7   2   4    1.90    1.03
   7   2   4    0.70    1.49
  -8  -2  -4    8.55    2.38
  -8  -2  -4    8.63    2.73
  -8  -2  -4    7.11    1.93
   8   2   4    7.83    2.14
   8   2   4    7.64    2.06
  -9  -2  -4    7.52    2.28
  -9  -2  -4    5.93    2.88
  -9  -2  -4    5.78    2.12
   9   2   4    7.07    2.51
   9   2   4    8.35    2.34
 -10  -2  -4    0.21    2.82
 -10  -2  -4    2.07    2.69
  10   2   4   -0.66    2.22
  10   2   4   -0.49    1.85
   8  -3  -4    0.62    3.40
   8  -3  -4    4.13    3.64
  -8   3   4    3.87    2.86
   7  -3  -4    0.48    2.91
   7  -3  -4    0.69    2.30
  -7   3   4   -0.06    2.05
  -7   3   4    1.29    2.45
  -7   3   4   -0.35    2.07
   6  -3  -4    8.29    2.44
   6  -3  -4    9.77    1.96
   6  -3  -4    4.80    2.71
  -6   3   4    4.87    1.82
  -6   3   4    5.75    2.14
  -6   3   4    6.28    1.93
   5  -3  -4    0.95    2.16
   5  -3  -4    1.86    1.43
   5  -3  -4   -0.57    1.70
  -5   3   4    0.41    1.70
  -5   3   4    2.26    1.83
  -5   3   4   -1.28    1.54
   4  -3  -4   11.11    2.25
   4  -3  -4   11.50    1.70
   4  -3  -4    6.87    2.15
  -4   3   4    9.06    0.92
  -4   3   4   13.97    1.98
  -4   3   4    7.76    1.67
  -4   3   4   10.82    1.04
  -4   3   4   10.47    1.03
  -4   3   4    8.26    1.77
   3  -3  -4    0.97    1.05
   3  -3  -4    0.41    1.30
   3  -3  -4   -0.27    1.50
  -3   3   4    0.89    0.84
  -3   3   4    0.10    0.56
  -3   3   4    1.59    0.60
  -3   3   4    0.10    0.90
  -3   3   4    1.23    0.72
  -3   3   4   -0.14    1.04
   2  -3  -4   32.99    1.91
   2  -3  -4   30.55    2.31
   2  -3  -4   34.24    2.68
  -2   3   4   32.36    1.95
  -2   3   4   35.30    1.59
  -2   3   4   33.59    1.64
  -2   3   4   33.62    1.53
  -2   3   4   37.59    2.07
  -2   3   4   35.25    1.84
   1  -3  -4    1.82    1.42
   1  -3  -4    2.40    0.67
   1  -3  -4    3.13    1.38
   1  -3  -4    0.75    0.80
  -1   3   4    1.83    0.61
  -1   3   4    1.60    0.61
  -1   3   4    2.91    0.99
  -1   3   4    2.98    0.74
  -1   3   4    3.10    0.89
   0  -3  -4   -0.33    1.24
   0  -3  -4    1.12    1.29
   0  -3  -4    2.03    0.71
   0  -3  -4    1.08    0.82
   0   3   4    0.97    0.62
   0   3   4    1.73    0.91
   0   3   4    0.74    0.71
   0   3   4    1.05    0.75
  -1  -3  -4   17.69    1.24
  -1  -3  -4   19.70    1.23
  -1  -3  -4   14.90    1.39
  -1  -3  -4   16.34    1.67
  -1  -3  -4   14.32    0.54
   1   3   4   16.08    1.33
   1   3   4   14.30    0.51
   1   3   4   16.15    1.12
   1   3   4   16.52    1.19
   1   3   4   15.92    0.96
  -2  -3  -4   60.88    2.80
  -2  -3  -4   66.04    2.63
  -2  -3  -4   64.13    2.35
  -2  -3  -4   56.03    2.86
  -2  -3  -4   58.93    2.27
   2   3   4   63.22    2.00
   2   3   4   60.06    2.28
   2   3   4   63.23    2.50
   2   3   4   65.29    2.46
   2   3   4   67.26    2.44
   2   3   4   62.45    1.99
  -3  -3  -4   28.40    1.71
  -3  -3  -4   30.05    1.57
  -3  -3  -4   29.72    1.87
  -3  -3  -4   29.66    1.93
   3   3   4   29.02    1.78
   3   3   4   30.87    1.66
   3   3   4   28.22    1.13
   3   3   4   30.65    1.57
   3   3   4   29.71    1.44
   3   3   4   28.94    1.12
  -4  -3  -4    5.06    1.14
  -4  -3  -4    6.13    1.10
  -4  -3  -4    5.88    0.89
  -4  -3  -4    7.62    1.36
  -4  -3  -4    7.13    0.79
   4   3   4    7.20    1.01
   4   3   4    5.91    1.15
   4   3   4    6.23    0.79
   4   3   4    4.93    0.84
  -5  -3  -4    6.72    1.36
  -5  -3  -4    5.99    1.04
  -5  -3  -4    5.78    1.49
  -5  -3  -4    6.48    0.95
  -5  -3  -4    7.07    1.69
   5   3   4    6.09    1.30
   5   3   4    3.78    0.87
   5   3   4    6.03    0.72
   5   3   4    7.36    1.19
  -6  -3  -4   28.47    1.91
  -6  -3  -4   24.32    2.73
  -6  -3  -4   28.63    2.46
  -6  -3  -4   26.25    1.64
   6   3   4   27.39    1.68
   6   3   4   21.77    2.29
   6   3   4   27.04    2.27
   6   3   4   28.57    1.84
  -7  -3  -4    7.40    1.59
  -7  -3  -4    5.17    2.32
  -7  -3  -4    5.95    2.04
   7   3   4    7.12    1.18
   7   3   4    7.40    1.80
   7   3   4    4.70    1.01
   7   3   4    5.26    1.76
  -8  -3  -4    0.68    1.90
  -8  -3  -4    3.32    1.75
  -8  -3  -4    2.72    2.40
   8   3   4    2.59    1.85
   8   3   4    3.20    1.84
  -9  -3  -4    2.53    2.78
  -9  -3  -4    1.07    1.97
  -9  -3  -4    4.89    2.08
   9   3   4    3.75    2.14
   9   3   4    5.02    2.40
 -10  -3  -4    1.81    2.61
 -10  -3  -4   -0.71    2.11
  10   3   4    4.81    2.39
  10   3   4    2.14    2.53
   7  -4  -4   -0.54    2.29
   7  -4  -4    2.54    3.32
  -7   4   4   -1.57    2.43
   6  -4  -4    2.88    2.09
   6  -4  -4   -1.20    2.63
   6  -4  -4   -2.28    1.85
  -6   4   4    1.21    2.17
  -6   4   4   -1.10    2.00
  -6   4   4    0.01    1.64
   5  -4  -4    1.35    1.63
   5  -4  -4   -0.16    2.31
   5  -4  -4    0.43    1.98
  -5   4   4    3.57    1.91
  -5   4   4    1.02    1.84
  -5   4   4    1.30    1.58
   4  -4  -4    1.50    2.08
   4  -4  -4    0.91    1.46
   4  -4  -4   -0.01    1.61
  -4   4   4   -0.60    1.34
  -4   4   4    0.16    0.80
  -4   4   4    1.32    1.60
  -4   4   4    1.97    1.44
  -4   4   4    0.63    0.64
   3  -4  -4   13.56    2.50
   3  -4  -4   13.13    1.86
   3  -4  -4   12.19    2.21
  -3   4   4   13.67    1.18
  -3   4   4   16.61    1.47
  -3   4   4   14.44    1.97
  -3   4   4   13.53    1.17
  -3   4   4   11.43    1.78
  -3   4   4   12.48    1.67
   2  -4  -4    4.10    1.22
   2  -4  -4    1.72    1.34
   2  -4  -4    3.50    1.60
  -2   4   4    4.86    1.00
  -2   4   4    3.57    0.90
  -2   4   4    3.87    0.83
  -2   4   4    2.63    0.97
  -2   4   4    3.46    0.74
  -2   4   4    2.80    1.16
   1  -4  -4   -1.44    0.79
   1  -4  -4   -0.25    1.04
   1  -4  -4    1.04    1.39
  -1   4   4    0.22    0.68
  -1   4   4   -0.45    0.78
  -1   4   4   -0.15    0.65
  -1   4   4    0.87    0.72
  -1   4   4    1.09    0.63
  -1   4   4    0.13    0.47
   0  -4  -4   23.31    2.04
   0  -4  -4   24.48    2.45
   0  -4  -4   22.65    1.67
   0   4   4   24.76    1.73
   0   4   4   24.87    1.45
   0   4   4   23.27    1.43
   0   4   4   25.52    1.56
   0   4   4   24.80    1.33
  -1  -4  -4  110.78    3.76
  -1  -4  -4  115.87    4.15
  -1  -4  -4  114.07    4.08
  -1  -4  -4  112.50    4.34
   1   4   4  113.09    3.87
   1   4   4  111.08    3.77
   1   4   4  111.46    4.07
   1   4   4  114.49    3.78
   1   4   4  115.28    3.70
  -2  -4  -4    0.12    0.71
  -2  -4  -4    0.26    0.81
  -2  -4  -4   -1.19    0.87
  -2  -4  -4    0.40    0.89
  -2  -4  -4    0.11    0.47
   2   4   4    0.84    0.66
   2   4   4   -0.78    0.69
   2   4   4   -0.27    0.54
   2   4   4    0.83    0.43
   2   4   4    0.74    0.74
  -3  -4  -4    7.52    1.28
  -3  -4  -4    5.47    0.99
  -3  -4  -4    7.24    1.08
  -3  -4  -4    4.89    1.18
  -3  -4  -4    6.20    0.96
   3   4   4    7.55    1.08
   3   4   4    6.63    0.96
   3   4   4    6.45    0.75
   3   4   4    7.54    0.96
  -4  -4  -4   17.90    1.98
  -4  -4  -4   16.75    1.38
  -4  -4  -4   16.33    1.76
  -4  -4  -4   19.65    1.76
   4   4   4   16.52    1.67
   4   4   4   19.34    1.36
   4   4   4   17.98    1.47
   4   4   4   14.76    1.17
  -5  -4  -4   56.20    2.87
  -5  -4  -4   57.98    3.40
  -5  -4  -4   59.48    2.36
  -5  -4  -4   55.83    3.16
   5   4   4   57.45    2.91
   5   4   4   56.08    2.55
   5   4   4   55.33    2.47
   5   4   4   55.77    2.26
  -6  -4  -4    4.65    1.93
  -6  -4  -4    6.51    1.36
  -6  -4  -4    4.14    1.82
   6   4   4    4.77    1.01
   6   4   4    5.73    1.22
   6   4   4    6.76    0.93
   6   4   4    4.07    1.18
   6   4   4    2.83    0.88
   6   4   4    4.00    1.60
  -7  -4  -4   -0.95    1.63
  -7  -4  -4    0.39    2.01
  -7  -4  -4    1.22    1.39
   7   4   4    1.20    1.08
   7   4   4    1.60    0.88
   7   4   4    0.14    1.55
   7   4   4    1.33    1.49
  -8  -4  -4    4.69    2.58
  -8  -4  -4    7.30    1.85
  -8  -4  -4    9.25    2.64
   8   4   4    7.77    2.06
   8   4   4    5.68    1.76
  -9  -4  -4   12.46    3.43
  -9  -4  -4   11.53    3.03
   9   4   4   16.01    2.58
   9   4   4   13.16    2.60
 -10  -4  -4    0.75    2.70
 -10  -4  -4   -0.50    2.12
  10   4   4    3.80    2.34
  10   4   4    1.68    2.49
   7  -5  -4   -1.16    3.37
   7  -5  -4    3.29    2.30
  -7   5   4   -1.63    2.52
   6  -5  -4    6.92    3.34
   6  -5  -4    3.36    2.12
  -6   5   4    0.53    2.36
  -6   5   4    2.42    2.08
   5  -5  -4   -0.36    2.60
   5  -5  -4   -1.74    1.81
  -5   5   4   -1.62    1.44
  -5   5   4   -2.49    1.89
   4  -5  -4    1.39    2.33
   4  -5  -4    4.64    1.85
   4  -5  -4    3.76    2.13
  -4   5   4    3.78    1.55
  -4   5   4    5.15    1.74
  -4   5   4    5.81    1.63
  -4   5   4    6.45    1.21
   3  -5  -4   33.00    2.73
   3  -5  -4   32.83    3.58
   3  -5  -4   41.00    3.58
  -3   5   4   32.76    1.99
  -3   5   4   31.95    2.27
  -3   5   4   30.37    2.54
  -3   5   4   34.91    2.67
  -3   5   4   32.19    1.86
   2  -5  -4   36.93    2.99
   2  -5  -4   47.22    3.38
   2  -5  -4   38.57    2.67
  -2   5   4   36.85    2.38
  -2   5   4   39.20    1.99
  -2   5   4   44.16    2.22
  -2   5   4   39.65    2.56
  -2   5   4   41.00    2.03
   1  -5  -4    2.11    1.19
   1  -5  -4    2.13    1.45
   1  -5  -4    1.84    1.78
  -1   5   4    0.67    0.87
  -1   5   4    0.92    0.50
  -1   5   4    2.20    1.09
  -1   5   4    1.33    0.77
  -1   5   4    0.00    0.79
  -1   5   4    1.06    0.83
   0  -5  -4    0.47    1.60
   0  -5  -4    4.80    1.18
   0  -5  -4    2.90    1.09
   0   5   4    3.09    0.85
   0   5   4    4.99    1.05
   0   5   4    4.29    1.13
   0   5   4    4.14    0.88
   0   5   4    3.67    1.20
  -1  -5  -4   70.23    3.48
  -1  -5  -4   76.93    2.99
  -1  -5  -4   66.95    2.95
   1   5   4   65.07    2.72
   1   5   4   68.05    3.07
   1   5   4   65.46    2.74
   1   5   4   71.27    2.90
   1   5   4   69.00    2.76
  -2  -5  -4   84.15    3.64
  -2  -5  -4   82.14    3.36
  -2  -5  -4   79.75    3.33
   2   5   4   79.67    3.24
   2   5   4   90.25    2.80
   2   5   4   84.06    3.37
   2   5   4   82.34    3.00
   2   5   4   80.72    2.69
   2   5   4   82.46    3.15
   2   5   4   80.89    3.15
  -3  -5  -4    3.21    0.96
  -3  -5  -4    4.84    0.99
  -3  -5  -4    5.91    1.33
  -3  -5  -4    4.28    1.24
   3   5   4    5.15    0.96
   3   5   4    4.24    1.06
   3   5   4    6.05    1.15
   3   5   4    4.40    0.87
  -4  -5  -4    7.83    1.58
  -4  -5  -4    5.98    1.36
  -4  -5  -4   11.00    1.59
  -4  -5  -4    7.18    1.45
   4   5   4    8.41    1.30
   4   5   4    7.17    1.08
   4   5   4    9.40    1.11
   4   5   4    9.78    1.34
  -5  -5  -4   34.08    2.74
  -5  -5  -4   31.53    2.48
  -5  -5  -4   34.97    2.88
   5   5   4   33.41    1.95
   5   5   4   34.93    2.18
   5   5   4   33.02    1.91
   5   5   4   31.68    2.42
  -6  -5  -4   62.29    4.12
  -6  -5  -4   68.81    2.96
  -6  -5  -4   69.81    3.99
  -6  -5  -4   68.55    3.46
   6   5   4   64.15    2.84
   6   5   4   71.81    3.10
   6   5   4   67.05    2.78
   6   5   4   67.21    3.51
  -7  -5  -4   -0.90    1.33
  -7  -5  -4   -0.18    1.32
  -7  -5  -4   -0.97    1.88
   7   5   4    0.60    0.87
   7   5   4   -0.45    1.56
   7   5   4   -0.01    1.03
   7   5   4    1.28    1.26
  -8  -5  -4    4.58    2.66
  -8  -5  -4    3.98    2.31
  -8  -5  -4    0.96    1.77
   8   5   4    3.00    1.84
   8   5   4    5.88    2.18
  -9  -5  -4    6.11    3.03
  -9  -5  -4    7.23    2.97
   9   5   4   10.76    2.74
   9   5   4   11.61    2.45
 -10  -5  -4   12.17    3.72
 -10  -5  -4   10.58    3.41
  10   5   4    7.61    2.58
  10   5   4    6.89    2.51
  10   5   4   11.26    3.12
   6  -6  -4    3.53    3.45
   6  -6  -4    3.48    2.44
  -6   6   4   -0.03    2.59
  -6   6   4    1.09    1.87
   5  -6  -4   19.00    3.13
   5  -6  -4   19.14    3.23
  -5   6   4   14.80    2.94
  -5   6   4   14.74    2.54
   4  -6  -4   -0.35    2.53
   4  -6  -4   -0.20    1.85
  -4   6   4   -1.52    1.49
  -4   6   4    0.44    1.90
   3  -6  -4    1.96    1.85
   3  -6  -4    4.65    2.48
  -3   6   4    2.75    1.29
  -3   6   4    4.23    1.69
  -3   6   4    5.07    1.76
  -3   6   4    2.59    1.02
   2  -6  -4   12.97    2.14
   2  -6  -4    9.71    2.70
  -2   6   4    9.36    1.85
  -2   6   4   12.20    1.37
  -2   6   4   12.71    1.57
  -2   6   4   11.22    1.88
   1  -6  -4   87.90    3.74
   1  -6  -4   85.56    4.99
   1  -6  -4   94.38    4.20
  -1   6   4   91.25    3.90
  -1   6   4   96.37    3.74
  -1   6   4   91.29    3.53
  -1   6   4   89.77    3.95
   0  -6  -4    4.10    1.38
   0  -6  -4    1.69    0.90
   0  -6  -4   -1.18    1.79
   0   6   4    2.20    1.29
   0   6   4    3.10    1.00
   0   6   4    2.25    1.12
   0   6   4    2.12    0.91
  -1  -6  -4   16.79    2.11
  -1  -6  -4   16.65    1.93
  -1  -6  -4   12.16    1.36
   1   6   4   13.78    1.54
   1   6   4   15.40    1.85
   1   6   4   13.69    1.60
   1   6   4   15.23    1.51
  -2  -6  -4   45.28    2.79
  -2  -6  -4   43.20    2.37
  -2  -6  -4   40.52    2.56
   2   6   4   40.65    2.15
   2   6   4   36.93    2.41
   2   6   4   41.31    1.65
   2   6   4   41.67    2.08
   2   6   4   41.47    2.18
  -3  -6  -4   89.86    3.83
  -3  -6  -4   81.70    3.83
  -3  -6  -4   88.63    3.66
   3   6   4   81.76    3.53
   3   6   4   89.02    3.25
   3   6   4   87.38    3.62
   3   6   4   82.57    3.40
   3   6   4   83.03    3.25
  -4  -6  -4    0.17    1.22
  -4  -6  -4    0.79    1.27
  -4  -6  -4   -1.22    1.32
  -4  -6  -4    1.23    1.24
   4   6   4    1.72    0.94
   4   6   4    1.88    1.17
   4   6   4    0.84    0.90
   4   6   4    2.44    1.14
  -5  -6  -4    0.82    1.55
  -5  -6  -4    1.22    1.36
  -5  -6  -4    0.94    1.43
   5   6   4    1.20    1.00
   5   6   4    1.47    1.30
   5   6   4    0.73    0.92
   5   6   4    1.74    1.52
   5   6   4   -0.60    0.95
  -6  -6  -4   20.39    2.52
  -6  -6  -4   19.50    2.59
  -6  -6  -4   20.72    2.79
   6   6   4   12.17    1.46
   6   6   4   19.64    1.91
   6   6   4   18.68    2.04
   6   6   4   19.83    2.38
  -7  -6  -4   13.80    1.83
  -7  -6  -4   12.46    2.70
  -7  -6  -4    9.82    2.49
   7   6   4   14.71    2.35
   7   6   4   13.23    2.35
   7   6   4    8.97    1.41
   7   6   4   13.95    1.99
  -8  -6  -4   -0.36    2.37
  -8  -6  -4    3.01    2.39
   8   6   4    2.96    2.08
   8   6   4    1.01    1.90
  -9  -6  -4    2.13    2.74
  -9  -6  -4    0.30    2.52
   9   6   4   -0.94    1.99
   9   6   4   -0.21    2.24
   5  -7  -4    3.04    3.30
   5  -7  -4   -0.08    2.41
  -5   7   4    1.49    2.05
  -5   7   4    0.65    2.46
   4  -7  -4    8.55    2.50
   4  -7  -4   10.90    3.37
  -4   7   4    5.25    1.98
  -4   7   4    6.70    2.34
   3  -7  -4    1.18    2.03
   3  -7  -4    2.14    2.08
  -3   7   4    1.60    1.10
  -3   7   4    0.48    1.62
  -3   7   4    0.55    1.12
  -3   7   4    1.50    1.82
   2  -7  -4    2.02    1.87
   2  -7  -4    2.25    2.41
  -2   7   4    3.38    1.32
  -2   7   4    4.91    1.73
  -2   7   4    2.11    1.06
  -2   7   4    1.00    1.21
   1  -7  -4    5.96    2.48
   1  -7  -4   13.26    2.21
  -1   7   4   11.10    2.04
  -1   7   4   11.67    1.73
  -1   7   4   12.79    2.05
  -1   7   4   10.26    1.47
   0  -7  -4    7.57    2.55
   0  -7  -4   12.10    1.79
   0   7   4   11.46    1.50
   0   7   4    8.43    1.83
   0   7   4   10.27    1.70
   0   7   4   11.59    1.68
  -1  -7  -4    5.75    1.07
  -1  -7  -4    8.03    1.50
  -1  -7  -4    8.12    2.16
   1   7   4    8.38    1.39
   1   7   4    7.46    1.67
   1   7   4    8.07    1.53
   1   7   4    7.15    1.48
  -2  -7  -4   11.59    1.42
  -2  -7  -4   10.96    2.12
  -2  -7  -4   13.58    2.01
   2   7   4   12.89    1.61
   2   7   4   11.49    1.86
   2   7   4   11.95    1.65
   2   7   4   13.23    1.50
  -3  -7  -4    9.79    1.58
  -3  -7  -4    7.57    1.75
  -3  -7  -4   12.04    2.03
   3   7   4   11.91    1.59
   3   7   4    9.93    1.48
   3   7   4    8.34    1.68
   3   7   4   11.90    1.40
   3   7   4    8.95    1.43
  -4  -7  -4    1.40    1.51
  -4  -7  -4    1.46    1.12
  -4  -7  -4    2.69    1.57
   4   7   4    1.92    1.40
   4   7   4    2.25    1.11
   4   7   4    0.57    1.23
   4   7   4    1.17    1.06
   4   7   4    1.87    1.10
  -5  -7  -4    8.50    2.00
  -5  -7  -4   10.30    1.90
  -5  -7  -4    9.14    2.19
   5   7   4   10.38    1.88
   5   7   4    9.00    1.44
   5   7   4   11.56    1.64
   5   7   4    7.90    1.63
  -6  -7  -4    2.72    1.93
  -6  -7  -4    4.74    1.89
  -6  -7  -4    3.84    1.84
   6   7   4    1.76    1.42
   6   7   4    3.35    1.89
   6   7   4    1.72    1.12
   6   7   4    3.01    1.34
   6   7   4    4.67    1.67
  -7  -7  -4   -1.56    1.90
  -7  -7  -4   -0.88    1.98
   7   7   4   -0.26    1.73
   7   7   4    0.22    1.00
   7   7   4    1.72    1.86
   7   7   4   -0.76    1.41
  -8  -7  -4    1.30    2.47
  -8  -7  -4   -1.17    2.30
   8   7   4    3.58    2.16
   8   7   4    2.16    2.06
  -9  -7  -4    0.70    2.72
  -9  -7  -4    2.13    2.82
   9   7   4    0.07    2.09
   9   7   4   -0.19    2.26
   4  -8  -4    4.62    3.17
   4  -8  -4    1.06    2.46
  -4   8   4    3.29    2.37
  -4   8   4    1.03    1.85
   3  -8  -4   -1.64    2.17
   3  -8  -4   -1.79    2.62
  -3   8   4    1.64    2.06
  -3   8   4    1.66    1.51
  -3   8   4    1.63    1.75
   2  -8  -4    9.57    2.90
   2  -8  -4   11.41    2.63
  -2   8   4   12.79    2.33
  -2   8   4    8.80    2.15
  -2   8   4   10.06    1.77
  -2   8   4    8.18    1.46
   1  -8  -4   12.96    2.45
   1  -8  -4   13.05    3.01
  -1   8   4   17.77    2.28
  -1   8   4   13.71    1.73
  -1   8   4   11.31    2.02
  -1   8   4   12.94    1.97
   0  -8  -4   -0.73    1.63
   0  -8  -4   -0.86    2.16
   0   8   4   -0.89    1.50
   0   8   4    1.65    1.51
   0   8   4    0.35    1.29
   0   8   4    0.38    1.09
  -1  -8  -4    0.03    2.00
  -1  -8  -4    0.55    1.52
   1   8   4    0.43    1.29
   1   8   4    0.06    1.30
   1   8   4    0.24    1.51
   1   8   4    1.32    1.14
  -2  -8  -4   10.76    2.10
  -2  -8  -4   10.40    2.26
   2   8   4   12.65    1.91
   2   8   4   11.27    2.08
   2   8   4   12.29    1.68
   2   8   4    9.21    1.75
  -3  -8  -4   20.21    2.33
  -3  -8  -4   26.81    2.85
  -3  -8  -4   22.38    2.15
   3   8   4   24.98    2.20
   3   8   4   24.97    2.29
   3   8   4   28.41    2.72
   3   8   4   24.81    2.47
  -4  -8  -4    2.54    1.66
  -4  -8  -4    3.41    1.53
  -4  -8  -4    2.18    1.69
   4   8   4    0.30    1.12
   4   8   4    3.64    1.66
   4   8   4    1.99    1.20
   4   8   4    3.31    1.56
  -5  -8  -4    1.13    1.57
  -5  -8  -4    2.45    1.55
  -5  -8  -4    0.32    1.70
   5   8   4    1.58    1.72
   5   8   4   -1.75    1.28
   5   8   4   -0.62    1.10
   5   8   4   -0.09    1.06
  -6  -8  -4    1.41    1.92
  -6  -8  -4    1.38    2.09
   6   8   4    1.06    1.94
   6   8   4    3.54    1.55
   6   8   4    2.61    1.68
   6   8   4    5.72    1.98
   6   8   4    2.31    1.39
   6   8   4    1.08    1.29
  -7  -8  -4    7.29    2.39
  -7  -8  -4    5.36    2.45
   7   8   4    5.25    1.35
   7   8   4    7.73    1.71
   7   8   4    8.44    2.38
   7   8   4    8.35    2.09
   7   8   4    8.55    2.38
  -8  -8  -4    2.61    2.49
  -8  -8  -4   -0.36    2.21
   8   8   4   -1.25    2.12
   8   8   4    2.17    2.44
  -9  -8  -4    0.41    2.69
   9   8   4    4.80    2.64
   9   8   4    4.52    2.39
   9   8   4    1.97    2.28
   3  -9  -4   -3.00    2.45
   3  -9  -4   -0.25    2.70
  -3   9   4    2.68    2.00
  -3   9   4   -0.21    1.40
  -3   9   4   -1.37    2.15
   2  -9  -4    2.31    2.49
   2  -9  -4   -2.91    2.52
  -2   9   4    1.21    1.48
  -2   9   4    0.35    1.90
  -2   9   4    2.78    2.03
   1  -9  -4   14.53    2.78
   1  -9  -4    8.95    2.95
  -1   9   4   11.63    2.27
  -1   9   4    9.42    2.09
  -1   9   4   14.49    2.13
   0  -9  -4   19.19    2.84
   0  -9  -4   24.19    3.55
   0   9   4   19.03    2.51
   0   9   4   21.03    2.48
   0   9   4   18.01    2.77
  -1  -9  -4   -1.95    2.14
  -1  -9  -4   -1.25    1.79
   1   9   4    1.04    1.52
   1   9   4    1.64    1.63
   1   9   4    0.88    1.79
  -2  -9  -4    3.71    2.45
  -2  -9  -4    4.04    2.04
   2   9   4    2.79    1.43
   2   9   4    7.81    1.90
   2   9   4    2.31    1.74
  -3  -9  -4   11.13    2.39
  -3  -9  -4    9.40    2.27
   3   9   4    5.85    1.65
   3   9   4    9.54    2.15
   3   9   4   13.44    2.26
  -4  -9  -4   11.80    2.56
  -4  -9  -4    8.94    2.22
   4   9   4   10.55    1.92
   4   9   4   14.30    2.34
   4   9   4   11.22    2.21
  -5  -9  -4    1.21    1.85
  -5  -9  -4   -0.05    1.73
   5   9   4    0.07    1.59
   5   9   4   -0.33    1.38
   5   9   4   -1.05    1.30
  -6  -9  -4    8.99    2.58
  -6  -9  -4   11.00    2.56
  -6  -9  -4    4.18    1.99
   6   9   4   16.14    2.53
   6   9   4   14.91    2.47
  -7  -9  -4    1.25    2.22
   7   9   4    1.56    1.94
   7   9   4    1.28    1.98
   7   9   4   -2.89    2.50
   7   9   4    5.09    2.26
   8   9   4    5.73    2.38
   8   9   4    1.62    2.67
   8   9   4    3.64    2.08
   2 -10  -4    0.14    2.66
   2 -10  -4   -1.71    2.92
  -2  10   4   -0.08    1.53
  -2  10   4    4.20    2.58
  -2  10   4    0.37    2.13
   1 -10  -4    1.05    2.40
   1 -10  -4   -0.27    2.61
  -1  10   4    0.81    1.65
  -1  10   4   -0.70    1.98
  -1  10   4   -0.03    1.84
   0 -10  -4    3.53    2.71
   0 -10  -4    7.69    2.15
   0  10   4    2.87    1.81
   0  10   4    5.91    2.35
   0  10   4    7.03    2.13
  -1 -10  -4    3.57    2.48
  -1 -10  -4    2.92    2.25
   1  10   4    4.10    1.87
   1  10   4    4.16    2.30
   1  10   4   -0.07    1.80
  -2 -10  -4    1.17    2.22
  -2 -10  -4    0.98    2.21
   2  10   4   -0.29    1.64
   2  10   4   -2.58    1.47
   2  10   4   -0.17    2.01
  -3 -10  -4   -0.96    1.87
  -3 -10  -4    1.23    2.20
   3  10   4    4.72    2.11
   3  10   4   -0.34    1.75
   3  10   4    4.89    2.09
  -4 -10  -4    3.09    2.20
  -4 -10  -4    3.40    2.13
   4  10   4    5.86    1.83
   4  10   4    2.43    2.19
   4  10   4    3.56    1.82
  -5 -10  -4   -0.10    1.90
  -5 -10  -4   -1.90    1.81
   5  10   4    0.50    1.83
   5  10   4   -3.25    2.10
  -6 -10  -4    5.64    2.33
  -6 -10  -4    5.85    2.19
   6  10   4    3.75    2.44
   6  10   4    4.32    1.97
   7  10   4   -0.41    1.61
   7  10   4   -5.98    1.94
   7  10   4    1.47    2.86
   7  10   4    0.65    2.05
   0 -11  -4    0.38    1.93
   0  11   4   -1.26    1.73
   0  11   4    2.17    2.00
   0  11   4    1.08    2.44
  -1 -11  -4    4.80    2.59
   1  11   4   -2.22    1.60
   1  11   4   -1.75    1.90
   1  11   4   -1.28    1.65
  -2 -11  -4   -4.76    2.07
   2  11   4   -2.39    1.84
   2  11   4   -1.39    2.08
   2  11   4    0.08    1.85
  -3 -11  -4   -0.29    2.39
   3  11   4    2.47    2.20
   3  11   4   -5.31    1.69
   3  11   4    2.72    1.88
  -4 -11  -4    0.61    2.31
   4  11   4   -0.71    2.06
   4  11   4    0.22    2.36
  -5 -11  -4   -1.90    2.12
   5  11   4   -1.21    1.94
   5  11   4    2.70    2.48
   6  11   4    1.72    2.02
   6  11   4   -0.04    2.53
   4  10  -5    1.02    2.49
   4  10  -5   -1.33    2.66
  -4 -10   5    1.99    2.25
  -4 -10   5    1.17    2.74
   3  10  -5    6.63    2.86
   3  10  -5    5.77    3.17
  -3 -10   5    4.80    2.77
  -3 -10   5    8.93    2.54
   2  10  -5   -0.94    3.13
   2  10  -5    2.09    2.61
  -2 -10   5    1.49    1.97
  -2 -10   5   -0.69    2.06
   1  10  -5    4.99    2.67
   1  10  -5    3.63    3.26
  -1 -10   5    2.58    2.62
  -1 -10   5    2.68    2.25
   0  10  -5    6.00    2.74
   0  10  -5    3.30    2.25
   0  10  -5   -0.18    3.02
   0 -10   5    1.37    2.29
   0 -10   5    2.63    1.89
  -1  10  -5   11.06    2.55
  -1  10  -5   10.83    3.24
  -1  10  -5    1.41    3.29
   1 -10   5    6.86    2.21
   1 -10   5    7.16    2.71
   5   9  -5   -0.25    2.43
   5   9  -5   -4.61    2.34
  -5  -9   5   -0.92    1.79
  -5  -9   5    1.07    2.42
   4   9  -5   -0.61    2.58
   4   9  -5    0.24    2.34
  -4  -9   5    2.53    2.09
  -4  -9   5    1.12    2.36
   3   9  -5    3.55    2.88
   3   9  -5   -1.33    2.16
  -3  -9   5    4.50    2.50
  -3  -9   5    3.56    2.16
   2   9  -5   28.76    3.54
   2   9  -5   33.67    4.50
  -2  -9   5   32.38    3.68
  -2  -9   5   28.45    3.25
   1   9  -5   -0.88    2.60
   1   9  -5   -0.08    2.22
  -1  -9   5    0.81    1.93
  -1  -9   5   -0.70    2.10
  -1  -9   5    2.53    2.33
   0   9  -5   -0.76    2.27
   0   9  -5    3.19    2.99
   0  -9   5    5.33    2.43
   0  -9   5    5.93    2.28
   0  -9   5    5.95    2.24
  -1   9  -5   -1.82    2.63
  -1   9  -5    1.51    1.42
  -1   9  -5   -0.85    2.44
   1  -9   5    1.15    2.29
   1  -9   5   -0.36    2.12
  -2   9  -5   19.16    3.54
  -2   9  -5   28.12    3.43
  -2   9  -5   23.21    2.96
   2  -9   5   24.98    2.91
   2  -9   5   21.42    3.34
  -3   9  -5    0.53    1.55
  -3   9  -5    1.02    2.83
  -3   9  -5    4.71    2.46
   3  -9   5    4.27    2.57
   3  -9   5    0.17    2.42
   6   8  -5   -1.11    2.41
   6   8  -5    4.00    2.89
  -6  -8   5   -3.18    2.02
  -6  -8   5    2.88    2.51
   5   8  -5   14.62    2.96
   5   8  -5   11.13    2.71
   5   8  -5   19.39    3.78
  -5  -8   5    8.51    2.37
  -5  -8   5   15.27    2.51
   4   8  -5    5.52    2.38
   4   8  -5    3.85    2.65
   4   8  -5    2.60    2.16
  -4  -8   5    2.28    2.22
  -4  -8   5    2.94    1.78
  -4  -8   5    5.86    2.01
   3   8  -5   -0.33    1.92
   3   8  -5   -1.33    1.60
  -3  -8   5    0.53    1.75
  -3  -8   5   -3.08    1.90
   2   8  -5   -1.92    2.10
   2   8  -5    2.28    2.01
  -2  -8   5   -0.85    1.21
  -2  -8   5    0.67    1.96
   1   8  -5   35.06    3.50
   1   8  -5   28.70    4.00
  -1  -8   5   30.92    3.05
  -1  -8   5   36.64    3.49
  -1  -8   5   31.73    2.89
   0   8  -5    5.79    2.81
   0   8  -5   10.28    2.49
   0  -8   5    9.96    2.30
   0  -8   5    5.85    2.38
   0  -8   5    7.12    2.08
  -1   8  -5    2.13    2.11
  -1   8  -5   -1.47    2.45
   1  -8   5   -1.44    2.24
   1  -8   5   -0.02    1.83
   1  -8   5   -0.03    1.78
  -2   8  -5    0.61    2.19
  -2   8  -5   -0.58    2.30
  -2   8  -5    0.47    1.52
   2  -8   5   -0.97    2.08
   2  -8   5    0.11    1.97
  -3   8  -5    5.90    2.75
  -3   8  -5    9.64    2.71
  -3   8  -5    7.94    1.95
   3  -8   5    6.15    2.57
   3  -8   5   10.84    2.45
  -4   8  -5    3.26    2.66
  -4   8  -5    3.65    2.25
   4  -8   5    0.40    2.09
   4  -8   5   -0.01    2.36
  -5   8  -5   -0.09    2.25
  -5   8  -5   -0.67    2.52
   5  -8   5   -1.60    2.47
   5  -8   5    0.78    2.17
   7   7  -5    5.16    2.59
   7   7  -5    2.71    2.95
  -7  -7   5    2.22    2.27
  -7  -7   5    1.54    2.50
   6   7  -5    5.78    2.43
   6   7  -5    0.70    2.61
  -6  -7   5    0.44    2.03
  -6  -7   5   -2.78    2.10
   5   7  -5    2.97    2.09
   5   7  -5    3.76    2.64
  -5  -7   5    1.75    1.96
  -5  -7   5    3.86    2.26
  -5  -7   5    1.48    1.52
   4   7  -5    3.09    2.44
   4   7  -5    2.71    1.90
   4   7  -5    3.22    2.08
  -4  -7   5    2.71    1.98
  -4  -7   5    5.31    1.46
  -4  -7   5    1.08    1.57
   3   7  -5    8.89    2.79
   3   7  -5    8.48    2.21
   3   7  -5    8.59    2.25
  -3  -7   5    9.08    1.75
  -3  -7   5    6.64    1.89
  -3  -7   5    7.98    2.15
   2   7  -5   20.13    3.35
   2   7  -5   16.08    2.51
   2   7  -5   15.22    2.27
  -2  -7   5   20.19    2.18
  -2  -7   5   20.22    1.94
  -2  -7   5   17.00    2.29
  -2  -7   5   22.84    2.70
   1   7  -5    4.65    2.39
   1   7  -5    7.50    1.75
   1   7  -5    3.10    1.48
  -1  -7   5    6.44    1.93
  -1  -7   5    6.18    1.61
  -1  -7   5    3.91    1.62
  -1  -7   5    3.76    1.80
   0   7  -5    0.85    2.17
   0   7  -5   -1.39    1.22
   0  -7   5   -0.14    1.30
   0  -7   5    0.93    1.09
   0  -7   5   -1.69    1.81
   0  -7   5    1.00    1.59
  -1   7  -5    2.98    1.90
  -1   7  -5    2.20    1.82
   1  -7   5    2.63    1.43
   1  -7   5    1.69    1.65
   1  -7   5    3.44    1.42
   1  -7   5    1.55    1.87
  -2   7  -5   25.03    3.57
  -2   7  -5   29.73    2.72
  -2   7  -5   22.63    2.96
   2  -7   5   21.79    2.26
   2  -7   5   27.23    2.61
   2  -7   5   27.23    3.05
  -3   7  -5    1.41    1.76
  -3   7  -5   -0.03    2.05
  -3   7  -5   -0.22    1.33
   3  -7   5   -1.70    1.94
   3  -7   5   -0.11    1.82
   3  -7   5   -1.36    2.27
  -4   7  -5    2.15    1.48
  -4   7  -5    4.17    2.25
  -4   7  -5    2.92    2.34
   4  -7   5    3.57    2.39
   4  -7   5   -0.12    1.89
  -5   7  -5    4.09    2.47
  -5   7  -5    1.95    2.40
   5  -7   5    0.54    1.84
   5  -7   5    1.16    1.91
  -6   7  -5    2.58    2.55
  -6   7  -5    6.46    2.79
   6  -7   5    4.84    2.30
  -8  -6   5   -2.45    2.01
   7   6  -5   -0.14    2.48
   7   6  -5    2.35    2.33
  -7  -6   5   -1.73    2.22
  -7  -6   5   -3.39    1.82
   6   6  -5    4.49    2.35
   6   6  -5    5.01    2.71
  -6  -6   5    3.32    2.32
  -6  -6   5    3.81    2.06
   5   6  -5   31.33    3.63
   5   6  -5   37.69    3.88
  -5  -6   5   32.52    3.32
  -5  -6   5   37.87    2.75
  -5  -6   5   36.74    2.87
  -5  -6   5   31.52    2.70
   4   6  -5    7.95    2.31
   4   6  -5    9.79    2.66
  -4  -6   5    7.67    1.60
  -4  -6   5    5.16    1.53
  -4  -6   5    3.29    1.89
  -4  -6   5    3.56    1.86
   3   6  -5   13.99    2.36
   3   6  -5   16.74    3.06
   3   6  -5   13.63    1.99
  -3  -6   5   19.21    2.01
  -3  -6   5   15.41    2.02
  -3  -6   5   16.08    2.35
   2   6  -5   36.90    3.13
   2   6  -5   35.28    2.79
   2   6  -5   35.91    3.24
  -2  -6   5   35.55    2.05
  -2  -6   5   36.98    2.63
  -2  -6   5   34.66    2.46
  -2  -6   5   33.24    2.71
   1   6  -5   50.57    3.59
   1   6  -5   52.83    3.15
   1   6  -5   51.26    3.22
  -1  -6   5   51.09    2.85
  -1  -6   5   50.18    2.96
  -1  -6   5   44.90    2.90
  -1  -6   5   52.24    3.11
   0   6  -5   -2.12    1.73
   0   6  -5    1.83    1.46
   0   6  -5   -0.47    1.03
   0  -6   5    1.63    1.45
   0  -6   5    1.62    1.09
   0  -6   5    1.29    0.99
   0  -6   5    0.08    0.94
  -1   6  -5   22.46    3.33
  -1   6  -5   23.65    2.64
  -1   6  -5   23.42    1.73
   1  -6   5   21.80    2.32
   1  -6   5   24.83    2.46
   1  -6   5   21.63    2.10
   1  -6   5   25.58    2.62
  -2   6  -5   18.54    3.12
  -2   6  -5   20.25    2.65
   2  -6   5   17.60    2.48
   2  -6   5   23.35    2.48
   2  -6   5   22.58    2.24
   2  -6   5   16.94    1.81
  -3   6  -5   23.21    3.28
  -3   6  -5   23.28    2.30
  -3   6  -5   22.86    2.83
   3  -6   5   15.91    2.63
   3  -6   5   22.09    2.55
   3  -6   5   18.42    2.08
  -4   6  -5    4.40    2.25
  -4   6  -5    0.13    1.29
  -4   6  -5    3.41    2.12
   4  -6   5   -0.04    1.27
   4  -6   5   -1.99    1.97
   4  -6   5   -1.24    1.67
  -5   6  -5   11.61    2.87
  -5   6  -5    6.60    2.44
   5  -6   5    8.87    2.60
   5  -6   5    8.14    2.05
   5  -6   5    4.88    1.48
  -6   6  -5    1.23    2.34
  -6   6  -5   -0.12    2.31
   6  -6   5    0.22    1.65
   6  -6   5    0.64    2.46
  -7   6  -5    4.00    2.68
  -7   6  -5    3.33    2.90
   7  -6   5    8.18    3.06
   8   5  -5   15.27    3.09
   8   5  -5   17.54    3.84
  -8  -5   5    8.56    2.32
  -8  -5   5   11.31    3.12
   7   5  -5    6.25    3.48
   7   5  -5   -1.16    2.45
   7   5  -5    2.11    2.29
  -7  -5   5    1.64    2.27
  -7  -5   5    1.36    2.00
   6   5  -5    5.61    1.81
   6   5  -5    5.86    2.31
   6   5  -5    5.00    2.53
  -6  -5   5    3.34    1.87
  -6  -5   5    5.40    2.27
   5   5  -5    8.85    2.08
   5   5  -5    8.67    1.64
   5   5  -5    9.47    2.65
  -5  -5   5    9.04    1.60
  -5  -5   5    7.21    2.03
  -5  -5   5    6.68    1.43
  -5  -5   5    9.18    2.21
   4   5  -5   63.23    4.13
   4   5  -5   67.92    3.02
   4   5  -5   61.75    4.08
  -4  -5   5   68.30    3.21
  -4  -5   5   65.32    3.45
  -4  -5   5   69.41    3.70
  -4  -5   5   68.10    3.16
   3   5  -5    0.76    1.51
   3   5  -5    1.15    1.44
   3   5  -5    0.78    0.87
  -3  -5   5    0.00    1.44
  -3  -5   5    2.77    1.29
  -3  -5   5    2.38    1.51
  -3  -5   5    3.20    1.18
   2   5  -5   14.66    2.60
   2   5  -5   13.53    1.83
   2   5  -5    9.56    2.11
  -2  -5   5   13.03    1.82
  -2  -5   5    8.59    1.58
  -2  -5   5   16.11    1.72
  -2  -5   5   15.08    1.81
  -2  -5   5   13.72    1.17
   1   5  -5    5.12    1.69
   1   5  -5    2.42    1.42
   1   5  -5    1.86    1.32
  -1  -5   5    2.34    1.15
  -1  -5   5    1.89    1.03
  -1  -5   5    0.03    1.08
  -1  -5   5    3.62    1.27
   0   5  -5   81.12    3.62
   0   5  -5   74.12    3.64
   0   5  -5   73.63    4.16
   0  -5   5   82.93    3.66
   0  -5   5   79.28    3.39
   0  -5   5   72.77    3.34
   0  -5   5   78.95    3.54
  -1   5  -5    4.40    2.14
  -1   5  -5    3.73    1.45
  -1   5  -5    3.34    1.10
   1  -5   5    2.85    1.25
   1  -5   5    2.52    1.61
   1  -5   5    3.16    1.27
   1  -5   5    3.33    1.30
  -2   5  -5   20.83    3.03
  -2   5  -5   18.00    1.62
  -2   5  -5   20.36    2.37
   2  -5   5   15.45    1.97
   2  -5   5   20.49    1.96
   2  -5   5   20.85    2.01
   2  -5   5   20.03    2.28
  -3   5  -5    1.22    0.93
  -3   5  -5    4.10    2.18
  -3   5  -5    1.30    1.07
  -3   5  -5    1.85    1.73
   3  -5   5   -2.18    1.32
   3  -5   5   -1.01    1.20
   3  -5   5    1.69    1.62
   3  -5   5    3.12    1.29
  -4   5  -5   35.53    2.33
  -4   5  -5   36.47    2.34
  -4   5  -5   35.22    3.53
  -4   5  -5   34.98    3.08
   4  -5   5   35.10    2.79
   4  -5   5   30.32    2.37
   4  -5   5   41.26    3.28
   4  -5   5   35.12    2.52
  -5   5  -5   -0.58    1.95
  -5   5  -5    0.54    1.92
   5  -5   5   -1.29    1.41
   5  -5   5   -0.13    1.52
   5  -5   5    1.09    1.75
   5  -5   5   -1.50    1.10
  -6   5  -5    9.77    2.80
  -6   5  -5    9.68    2.58
   6  -5   5    8.75    2.41
   6  -5   5   11.65    2.71
   6  -5   5   10.33    1.97
  -7   5  -5   -0.50    2.36
  -7   5  -5    0.92    2.41
   7  -5   5    0.12    1.89
   8   4  -5    1.57    2.33
   8   4  -5    5.75    2.77
   8   4  -5    2.62    2.23
  -8  -4   5    0.75    2.56
  -8  -4   5    1.13    2.25
   7   4  -5    7.23    2.68
   7   4  -5    9.99    2.32
   7   4  -5    7.14    2.91
  -7  -4   5    5.29    2.53
  -7  -4   5    6.04    2.05
   6   4  -5    1.52    1.80
   6   4  -5   -0.57    1.82
   6   4  -5    2.65    2.33
  -6  -4   5   -1.10    1.84
  -6  -4   5   -0.82    1.67
   5   4  -5    1.78    1.34
   5   4  -5    1.63    2.04
   5   4  -5    0.39    1.70
  -5  -4   5    2.13    1.84
  -5  -4   5    0.19    1.57
  -5  -4   5    1.78    1.12
  -5  -4   5    2.98    1.70
   4   4  -5    2.05    1.91
   4   4  -5    0.49    1.48
   4   4  -5    0.33    1.11
  -4  -4   5   -0.76    1.36
  -4  -4   5    1.04    1.24
  -4  -4   5    1.30    1.00
  -4  -4   5    0.48    0.94
   3   4  -5   25.84    1.80
   3   4  -5   31.90    2.97
   3   4  -5   30.48    1.74
   3   4  -5   28.79    2.48
  -3  -4   5   27.02    1.85
  -3  -4   5   27.86    2.31
  -3  -4   5   27.89    2.33
  -3  -4   5   29.22    2.03
   2   4  -5    1.54    1.55
   2   4  -5    0.85    1.35
   2   4  -5    2.28    0.90
   2   4  -5    0.55    0.62
  -2  -4   5    0.25    0.95
  -2  -4   5    0.09    0.90
  -2  -4   5    1.54    0.45
  -2  -4   5    1.01    1.22
  -2  -4   5    0.29    1.15
   1   4  -5    1.13    1.10
   1   4  -5    0.00    1.04
   1   4  -5    0.46    1.22
  -1  -4   5    1.67    1.03
  -1  -4   5    0.88    1.08
  -1  -4   5    1.27    0.94
  -1  -4   5    0.77    0.86
   0   4  -5    1.82    1.57
   0   4  -5    0.06    1.00
   0   4  -5   -0.91    1.17
   0  -4   5    0.17    0.73
   0  -4   5    0.68    1.02
   0  -4   5   -1.13    0.94
   0  -4   5   -1.14    0.84
  -1   4  -5    3.64    1.24
  -1   4  -5    4.91    1.26
  -1   4  -5    3.23    1.85
   1  -4   5    3.68    1.18
   1  -4   5    5.14    1.15
   1  -4   5    4.20    0.96
   1  -4   5    3.74    1.20
  -2   4  -5   -0.46    1.05
  -2   4  -5    2.40    1.82
  -2   4  -5    1.17    0.88
   2  -4   5   -0.71    0.76
   2  -4   5   -0.48    0.73
   2  -4   5    1.65    1.24
   2  -4   5    0.05    0.57
   2  -4   5    0.62    0.90
  -3   4  -5   -0.74    1.70
  -3   4  -5    0.77    0.94
  -3   4  -5    1.70    1.31
   3  -4   5    0.26    1.04
   3  -4   5    1.33    0.87
   3  -4   5   -0.41    1.16
   3  -4   5   -0.39    0.82
   3  -4   5   -1.03    0.94
  -4   4  -5    0.94    1.00
  -4   4  -5    0.01    0.95
  -4   4  -5    0.09    1.80
  -4   4  -5    1.11    1.60
   4  -4   5    1.13    1.25
   4  -4   5   -0.82    1.18
   4  -4   5    0.37    0.95
   4  -4   5    0.49    1.50
  -5   4  -5    2.97    1.83
  -5   4  -5    2.79    2.13
  -5   4  -5    2.49    1.39
   5  -4   5    5.56    1.60
   5  -4   5    2.66    1.20
   5  -4   5    3.25    1.58
   5  -4   5    1.82    1.81
  -6   4  -5    1.44    1.32
  -6   4  -5   -1.22    2.03
  -6   4  -5   -1.91    1.92
   6  -4   5    0.82    1.36
   6  -4   5   -1.47    1.47
   6  -4   5    0.99    1.25
   6  -4   5   -0.68    1.85
  -7   4  -5   -0.92    1.65
  -7   4  -5   -3.18    2.13
   7  -4   5   -1.98    1.55
   7  -4   5   -3.26    1.80
  -8   4  -5   -3.14    2.68
  -8   4  -5    0.15    2.49
   8  -4   5   -1.57    2.36
   8  -4   5    0.15    2.55
   8   3  -5    3.87    2.72
   8   3  -5    0.99    2.75
   8   3  -5   -0.40    2.70
  -8  -3   5   -2.12    2.08
  -8  -3   5   -1.08    2.52
   7   3  -5    1.49    1.75
   7   3  -5    0.18    2.06
   7   3  -5    3.45    2.57
  -7  -3   5   -0.37    1.79
  -7  -3   5   -0.07    2.20
   6   3  -5    1.48    1.73
   6   3  -5   -1.77    1.95
   6   3  -5    1.10    1.84
  -6  -3   5    1.21    1.99
  -6  -3   5   -1.15    1.58
   5   3  -5   18.18    2.73
   5   3  -5   15.17    2.26
   5   3  -5   17.29    2.89
  -5  -3   5   15.87    2.36
  -5  -3   5   11.99    1.97
   4   3  -5    1.04    0.77
   4   3  -5    1.35    1.31
   4   3  -5    2.37    1.82
   4   3  -5   -0.10    1.33
  -4  -3   5    0.51    1.30
  -4  -3   5    1.75    0.87
  -4  -3   5    0.96    1.17
  -4  -3   5    4.19    1.08
   3   3  -5    4.36    1.57
   3   3  -5    3.80    1.41
   3   3  -5    4.96    0.96
   3   3  -5    3.76    1.15
  -3  -3   5    3.51    1.32
  -3  -3   5    3.41    1.00
  -3  -3   5    4.48    1.05
  -3  -3   5    6.10    1.49
   2   3  -5    2.91    0.88
   2   3  -5    4.62    1.39
   2   3  -5    2.78    1.42
   2   3  -5    2.32    0.79
  -2  -3   5    3.32    1.18
  -2  -3   5    2.06    0.89
  -2  -3   5    2.88    0.98
  -2  -3   5    3.64    1.01
   1   3  -5    6.25    1.61
   1   3  -5    5.96    1.44
   1   3  -5    6.33    0.62
   1   3  -5    5.65    0.99
  -1  -3   5    8.85    0.93
  -1  -3   5    7.70    1.08
  -1  -3   5    8.09    1.38
  -1  -3   5    7.93    1.01
  -1  -3   5    7.35    1.27
   0   3  -5    7.05    1.47
   0   3  -5    9.48    1.30
   0   3  -5    8.33    1.14
   0   3  -5    8.88    1.64
   0  -3   5   12.15    1.45
   0  -3   5    7.17    1.12
   0  -3   5    9.82    1.17
   0  -3   5    9.15    1.31
  -1   3  -5    0.75    0.87
  -1   3  -5   -0.25    0.76
  -1   3  -5   -0.71    1.34
  -1   3  -5    2.25    1.01
   1  -3   5    0.81    0.83
   1  -3   5    0.18    0.83
   1  -3   5    1.26    0.32
   1  -3   5    1.46    0.88
   1  -3   5   -0.01    0.88
  -2   3  -5   45.92    2.31
  -2   3  -5   51.40    2.60
  -2   3  -5   50.24    2.46
  -2   3  -5   48.95    3.12
   2  -3   5   50.04    2.25
   2  -3   5   50.90    1.93
   2  -3   5   54.03    2.58
   2  -3   5   49.47    2.41
   2  -3   5   56.63    2.62
  -3   3  -5    1.05    1.60
  -3   3  -5    1.12    1.13
  -3   3  -5    0.16    0.81
   3  -3   5    0.75    1.13
   3  -3   5    0.20    0.75
   3  -3   5    0.07    0.95
   3  -3   5    1.05    0.81
   3  -3   5   -0.48    0.99
  -4   3  -5    9.69    2.06
  -4   3  -5    6.26    1.60
  -4   3  -5   10.71    1.19
  -4   3  -5    7.54    1.53
   4  -3   5    9.66    1.78
   4  -3   5    8.97    1.31
   4  -3   5    8.42    1.51
   4  -3   5    9.94    1.37
  -5   3  -5   15.07    2.36
  -5   3  -5   15.63    2.94
  -5   3  -5   19.75    2.20
   5  -3   5   17.65    2.15
   5  -3   5   18.18    1.68
   5  -3   5   19.32    1.97
   5  -3   5   15.52    2.20
  -6   3  -5   17.47    2.54
  -6   3  -5   13.91    2.51
  -6   3  -5   14.84    2.17
   6  -3   5   12.11    2.06
   6  -3   5   19.19    1.97
   6  -3   5   13.49    1.51
   6  -3   5   13.07    2.01
  -7   3  -5    0.50    2.29
  -7   3  -5   -0.78    2.21
  -7   3  -5    0.25    1.70
   7  -3   5    2.28    2.13
   7  -3   5    1.28    1.62
  -8   3  -5    1.28    2.40
  -8   3  -5    3.84    1.99
  -8   3  -5    2.25    2.60
   8  -3   5    2.36    2.54
   8  -3   5    4.09    2.28
   8   2  -5    1.80    2.69
   8   2  -5    2.64    2.71
  -8  -2   5    1.22    2.07
  -8  -2   5    1.95    2.62
   7   2  -5   18.04    3.04
   7   2  -5   14.64    2.79
  -7  -2   5   13.44    3.02
  -7  -2   5   10.68    2.70
  -7  -2   5    9.00    2.09
   6   2  -5    0.86    1.85
   6   2  -5    0.73    1.44
  -6  -2   5    0.93    1.60
  -6  -2   5    0.61    1.47
  -6  -2   5    1.86    2.03
   5   2  -5   13.30    2.53
   5   2  -5   15.88    2.77
   5   2  -5   10.74    2.10
  -5  -2   5    8.86    1.85
  -5  -2   5   11.06    2.12
  -5  -2   5   14.36    2.33
   4   2  -5    1.79    1.62
   4   2  -5    3.90    1.50
   4   2  -5    4.65    0.79
   4   2  -5    5.70    1.51
  -4  -2   5    4.85    0.99
  -4  -2   5    3.63    1.47
  -4  -2   5    5.16    0.89
  -4  -2   5    4.46    1.57
   3   2  -5   79.17    3.38
   3   2  -5   79.72    4.08
   3   2  -5   70.90    2.69
   3   2  -5   77.20    3.93
  -3  -2   5   76.40    3.46
  -3  -2   5   77.49    2.97
  -3  -2   5   75.90    3.36
  -3  -2   5   71.84    2.82
   2   2  -5   11.43    1.35
   2   2  -5   11.78    1.93
   2   2  -5   12.27    1.12
   2   2  -5    9.78    1.65
  -2  -2   5   12.60    1.23
  -2  -2   5   11.97    1.31
  -2  -2   5   11.41    1.40
  -2  -2   5   11.91    1.48
   1   2  -5  124.61    4.10
   1   2  -5  131.18    5.23
   1   2  -5  122.95    4.00
   1   2  -5  126.14    5.00
  -1  -2   5  121.97    3.69
  -1  -2   5  124.57    4.28
  -1  -2   5  125.83    4.43
  -1  -2   5  125.75    4.18
  -1  -2   5  128.41    4.33
   0   2  -5    2.48    1.36
   0   2  -5    2.77    0.87
   0   2  -5    3.70    0.54
   0   2  -5    2.44    1.22
   0  -2   5    4.46    1.02
   0  -2   5    3.39    0.93
   0  -2   5    3.85    0.90
   0  -2   5    3.44    0.74
   0  -2   5    5.28    1.13
  -1   2  -5   62.38    2.11
  -1   2  -5   64.66    3.17
  -1   2  -5   63.75    2.57
  -1   2  -5   58.91    3.48
  -1   2  -5   61.41    2.53
   1  -2   5   60.90    2.53
   1  -2   5   61.31    2.47
   1  -2   5   61.85    2.57
   1  -2   5   63.59    2.45
  -2   2  -5   56.52    2.72
  -2   2  -5   51.91    2.32
  -2   2  -5   55.47    3.36
  -2   2  -5   54.52    2.37
   2  -2   5   56.21    2.23
   2  -2   5   55.42    2.42
   2  -2   5   53.95    2.04
   2  -2   5   51.70    2.42
   2  -2   5   54.39    2.49
  -3   2  -5   87.13    4.44
  -3   2  -5   94.82    3.54
  -3   2  -5   90.18    3.39
  -3   2  -5   88.86    3.76
   3  -2   5   87.85    3.50
   3  -2   5   90.19    3.11
   3  -2   5   94.91    3.32
   3  -2   5   94.34    3.42
   3  -2   5   91.70    3.63
  -4   2  -5   -0.79    1.44
  -4   2  -5   -0.35    0.95
  -4   2  -5    0.76    0.93
  -4   2  -5   -0.37    1.01
   4  -2   5    1.12    0.88
   4  -2   5   -0.97    1.06
   4  -2   5   -1.55    0.91
   4  -2   5   -0.46    0.81
  -5   2  -5    3.77    1.97
  -5   2  -5    2.99    1.54
  -5   2  -5   -0.05    1.62
   5  -2   5    3.69    1.23
   5  -2   5    2.35    1.43
   5  -2   5    2.72    1.13
   5  -2   5    5.64    1.60
  -6   2  -5    8.26    1.91
  -6   2  -5    4.80    1.80
  -6   2  -5    2.75    1.65
   6  -2   5    6.56    1.54
   6  -2   5    4.51    1.22
   6  -2   5    3.96    1.75
   6  -2   5    6.23    1.75
  -7   2  -5   36.25    3.20
  -7   2  -5   23.55    2.83
  -7   2  -5   22.39    3.38
   7  -2   5   25.07    2.72
  -8   2  -5   -1.14    2.41
  -8   2  -5   -1.78    1.65
  -8   2  -5   -1.04    2.08
   8  -2   5   -1.58    2.01
   8  -2   5   -0.18    2.21
  -9   2  -5    1.65    2.41
  -9   2  -5    1.02    2.30
  -9   2  -5   -1.62    2.46
   9  -2   5    1.57    2.42
   9  -2   5    0.54    2.47
   8   1  -5    0.79    2.68
   8   1  -5   -0.38    2.62
  -8  -1   5    0.98    2.44
  -8  -1   5    0.71    2.56
   7   1  -5    1.42    2.29
   7   1  -5    1.36    2.30
  -7  -1   5    1.98    2.20
  -7  -1   5    0.06    2.25
  -7  -1   5   -0.13    1.97
   6   1  -5   19.51    3.07
   6   1  -5   19.49    2.87
  -6  -1   5   19.78    2.99
  -6  -1   5   17.10    2.65
   5   1  -5    6.66    2.16
   5   1  -5    8.48    2.15
  -5  -1   5    9.19    2.01
  -5  -1   5    5.70    1.71
  -5  -1   5    7.05    1.78
   4   1  -5   21.64    2.50
   4   1  -5   24.11    2.43
   4   1  -5   21.25    1.14
  -4  -1   5   20.68    2.20
  -4  -1   5   21.57    1.30
  -4  -1   5   24.71    2.73
  -4  -1   5   21.28    1.39
  -4  -1   5   18.45    2.06
   3   1  -5    8.17    1.70
   3   1  -5    4.69    1.34
   3   1  -5    6.82    1.62
   3   1  -5    5.79    0.75
  -3  -1   5    9.03    1.49
  -3  -1   5    4.76    1.35
  -3  -1   5    6.42    0.87
  -3  -1   5    6.28    0.95
   2   1  -5    3.66    1.29
   2   1  -5    2.80    1.19
   2   1  -5    3.44    0.76
   2   1  -5    3.49    1.20
  -2  -1   5    5.20    0.88
  -2  -1   5    4.54    0.85
  -2  -1   5    3.48    1.07
  -2  -1   5    3.65    1.16
   1   1  -5   29.39    2.18
   1   1  -5   29.61    1.53
   1   1  -5   30.54    2.64
   1   1  -5   29.28    1.77
  -1  -1   5   29.55    1.59
  -1  -1   5   28.96    1.03
  -1  -1   5   31.39    1.71
  -1  -1   5   29.67    1.06
  -1  -1   5   29.51    1.68
  -1  -1   5   32.38    1.80
   0   1  -5   43.88    2.00
   0   1  -5   65.99    3.73
   0   1  -5   47.66    2.09
   0  -1   5   49.21    1.80
   0  -1   5   48.98    2.14
   0  -1   5   52.02    2.15
   0  -1   5   49.13    2.14
   0  -1   5   49.98    2.33
  -1   1  -5    6.44    0.94
  -1   1  -5    5.79    1.83
  -1   1  -5    6.17    0.99
  -1   1  -5    9.27    2.13
  -1   1  -5    3.37    0.73
   1  -1   5    5.61    1.07
   1  -1   5    5.63    0.84
   1  -1   5    4.33    0.94
   1  -1   5    6.20    1.01
  -2   1  -5    7.64    1.35
  -2   1  -5    8.48    1.01
  -2   1  -5    7.07    0.93
  -2   1  -5   10.06    1.90
  -2   1  -5    5.33    0.95
   2  -1   5    6.76    0.98
   2  -1   5    4.97    0.85
   2  -1   5    4.79    0.96
   2  -1   5    5.92    0.86
  -3   1  -5   23.99    2.11
  -3   1  -5   23.51    1.58
  -3   1  -5   21.99    1.69
  -3   1  -5   22.40    1.51
   3  -1   5   25.41    1.58
   3  -1   5   21.95    1.54
   3  -1   5   26.73    1.71
   3  -1   5   24.71    1.71
   3  -1   5   23.89    1.22
  -4   1  -5   66.41    3.32
  -4   1  -5   63.88    3.75
  -4   1  -5   67.73    2.88
  -4   1  -5   58.85    2.65
   4  -1   5   67.05    3.05
   4  -1   5   65.61    2.84
   4  -1   5   69.40    2.86
   4  -1   5   69.90    2.73
  -5   1  -5    0.14    1.75
  -5   1  -5    0.88    1.22
  -5   1  -5    1.02    1.15
   5  -1   5    2.77    1.09
   5  -1   5    1.71    1.02
   5  -1   5    1.57    0.89
   5  -1   5    1.96    1.19
  -6   1  -5   -1.39    1.29
  -6   1  -5    0.33    1.41
  -6   1  -5   -0.23    1.93
   6  -1   5    0.19    1.35
   6  -1   5   -1.93    1.09
   6  -1   5   -0.44    1.40
   6  -1   5   -0.88    0.96
  -7   1  -5    9.41    2.10
  -7   1  -5    9.52    2.65
  -7   1  -5    9.45    2.18
   7  -1   5   13.41    2.29
   7  -1   5   12.95    1.62
   7  -1   5   11.26    2.21
  -8   1  -5   12.29    2.58
  -8   1  -5    7.18    2.72
  -8   1  -5    5.88    2.18
   8  -1   5    7.85    2.31
   8  -1   5    9.45    2.53
  -9   1  -5    0.61    2.11
  -9   1  -5    2.06    2.71
  -9   1  -5    0.25    2.32
   9  -1   5    0.55    2.43
   9  -1   5   -1.78    2.25
   8   0  -5   -1.43    1.99
   8   0  -5    2.94    2.84
  -8   0   5    0.63    2.57
  -8   0   5    1.54    2.54
   7   0  -5    0.78    2.41
   7   0  -5    4.75    2.13
  -7   0   5    2.45    2.31
  -7   0   5    0.32    1.84
  -7   0   5    2.67    1.93
   6   0  -5   -1.94    1.89
   6   0  -5    1.76    1.63
  -6   0   5    0.53    1.94
  -6   0   5   -0.22    1.69
  -6   0   5    0.25    1.89
   5   0  -5    5.37    2.12
   5   0  -5    0.09    1.79
  -5   0   5    0.06    1.55
  -5   0   5    2.91    1.64
  -5   0   5    1.63    1.75
   4   0  -5    6.05    1.84
   4   0  -5    5.12    0.59
   4   0  -5    6.59    0.84
   4   0  -5    6.68    1.85
  -4   0   5    4.79    0.83
  -4   0   5    5.84    1.27
  -4   0   5    5.12    1.62
  -4   0   5    7.44    1.83
  -4   0   5    5.87    0.77
   3   0  -5    8.89    1.86
   3   0  -5   10.59    0.79
   3   0  -5    9.14    0.80
   3   0  -5   11.99    1.85
  -3   0   5   11.58    0.99
  -3   0   5    9.07    0.99
  -3   0   5   10.65    1.42
  -3   0   5   11.33    1.78
  -3   0   5    8.50    1.50
   2   0  -5   13.84    1.75
   2   0  -5   12.72    1.66
   2   0  -5    9.97    0.93
   2   0  -5   10.55    1.84
   2   0  -5   10.21    0.69
  -2   0   5   10.55    1.47
  -2   0   5   14.15    1.49
  -2   0   5   12.38    1.16
  -2   0   5   14.28    1.14
   1   0  -5    0.66    0.62
   1   0  -5    0.49    1.44
   1   0  -5    0.65    0.98
   1   0  -5    0.40    0.97
  -1   0   5    0.22    0.47
  -1   0   5   -0.01    0.89
  -1   0   5    1.20    0.79
  -1   0   5    0.64    0.70
  -1   0   5   -0.20    0.62
   0   0  -5   16.83    1.77
   0   0  -5   15.24    1.39
   0   0  -5   12.82    1.14
   0   0  -5   11.46    1.88
   0   0   5   12.89    0.90
   0   0   5   14.14    1.43
   0   0   5   14.90    1.31
   0   0   5   14.52    1.23
   0   0   5   12.72    1.10
  -1   0  -5   51.94    2.11
  -1   0  -5   47.99    2.77
  -1   0  -5   48.86    2.89
  -1   0  -5   49.33    2.15
  -1   0  -5   46.86    1.80
   1   0   5   51.82    2.26
   1   0   5   50.56    2.16
   1   0   5   51.41    1.86
   1   0   5   54.45    2.19
   1   0   5   52.90    2.06
  -2   0  -5   23.64    1.49
  -2   0  -5   24.70    2.43
  -2   0  -5   13.29    1.93
  -2   0  -5   25.95    1.20
  -2   0  -5   20.39    1.00
  -2   0  -5   19.93    1.47
   2   0   5   20.86    1.45
   2   0   5   19.96    1.41
   2   0   5   22.11    1.31
   2   0   5   20.05    1.34
  -3   0  -5    8.64    1.81
  -3   0  -5    9.01    0.96
  -3   0  -5    9.83    1.10
  -3   0  -5    9.70    1.55
  -3   0  -5   10.48    1.22
   3   0   5    9.89    1.22
   3   0   5   10.55    0.81
   3   0   5    8.94    1.17
   3   0   5    9.43    1.10
  -4   0  -5   23.59    1.87
  -4   0  -5   21.15    1.47
  -4   0  -5   23.70    1.47
  -4   0  -5   22.78    2.30
  -4   0  -5   22.96    0.83
   4   0   5   22.64    0.83
   4   0   5   23.15    1.52
   4   0   5   24.49    1.78
   4   0   5   24.42    1.56
   4   0   5   26.37    1.67
  -5   0  -5    3.89    1.08
  -5   0  -5    3.68    1.75
  -5   0  -5    5.39    1.53
  -5   0  -5    3.14    1.00
   5   0   5    4.81    0.97
   5   0   5    4.26    1.29
   5   0   5    4.65    1.27
   5   0   5    6.68    1.18
  -6   0  -5   20.91    2.92
  -6   0  -5   23.56    2.06
  -6   0  -5   20.76    2.55
   6   0   5   16.12    1.88
   6   0   5   21.00    1.67
   6   0   5   19.53    1.75
   6   0   5   21.49    2.15
  -7   0  -5   11.26    2.31
  -7   0  -5    6.79    1.75
  -7   0  -5    7.95    2.50
   7   0   5    8.54    2.01
   7   0   5    8.86    1.38
   7   0   5    8.67    1.76
   7   0   5   12.13    1.29
  -8   0  -5   -0.64    1.81
  -8   0  -5   -0.55    1.66
  -8   0  -5   -2.39    1.43
   8   0   5    1.38    1.96
   8   0   5    0.90    1.97
  -9   0  -5    1.61    3.15
  -9   0  -5   -3.45    2.40
  -9   0  -5    1.81    2.27
   9   0   5    2.66    2.39
   9   0   5   -0.06    2.26
   8  -1  -5   -6.22    2.70
   8  -1  -5    0.72    2.65
  -8   1   5    1.00    2.70
  -8   1   5   -0.28    2.43
   7  -1  -5   -2.03    2.27
   7  -1  -5   -4.14    2.26
  -7   1   5    4.90    2.51
  -7   1   5   -1.71    1.68
  -7   1   5   -2.57    2.27
   6  -1  -5    2.26    2.11
   6  -1  -5    1.10    2.31
  -6   1   5    2.21    1.95
  -6   1   5    1.08    1.73
  -6   1   5   -1.00    2.02
   5  -1  -5   14.13    2.63
   5  -1  -5   13.47    2.30
   5  -1  -5   16.06    1.60
  -5   1   5   10.81    1.95
  -5   1   5    9.94    2.18
  -5   1   5   18.92    2.64
   4  -1  -5   14.53    1.39
   4  -1  -5   14.59    2.39
   4  -1  -5   14.66    2.14
  -4   1   5   12.36    1.10
  -4   1   5   13.41    1.98
  -4   1   5   16.99    2.24
  -4   1   5   14.82    1.10
  -4   1   5   12.53    1.90
   3  -1  -5    0.82    0.65
   3  -1  -5   -0.16    0.51
   3  -1  -5   -0.45    1.26
   3  -1  -5   -0.34    1.34
  -3   1   5   -0.13    1.08
  -3   1   5    0.08    0.60
  -3   1   5    1.64    0.72
  -3   1   5    0.58    1.12
  -3   1   5    0.79    1.10
   2  -1  -5    0.48    1.27
   2  -1  -5    0.52    0.54
   2  -1  -5    0.35    0.90
   2  -1  -5    0.60    0.90
   2  -1  -5    1.04    0.54
  -2   1   5   -1.16    0.82
  -2   1   5    0.93    0.69
  -2   1   5    0.81    0.61
  -2   1   5   -0.08    0.93
   1  -1  -5   36.82    2.95
   1  -1  -5   33.43    1.49
   1  -1  -5   35.54    2.12
   1  -1  -5   34.88    1.63
   1  -1  -5   32.70    1.93
  -1   1   5   37.44    1.66
  -1   1   5   35.44    1.71
  -1   1   5   34.00    1.81
  -1   1   5   34.08    1.89
   0  -1  -5  160.76    4.99
   0  -1  -5  165.02    5.65
   0  -1  -5  164.60    6.46
   0  -1  -5  158.73    5.56
   0  -1  -5  162.15    5.10
   0   1   5  168.34    5.24
   0   1   5  164.67    5.40
   0   1   5  164.54    4.99
   0   1   5  169.71    5.16
   0   1   5  182.56    5.75
  -1  -1  -5    0.15    0.79
  -1  -1  -5    2.54    1.21
  -1  -1  -5    1.81    1.10
  -1  -1  -5    0.42    0.71
  -1  -1  -5   -1.07    0.39
   1   1   5   -0.19    0.55
   1   1   5   -0.45    0.41
   1   1   5   -0.36    0.76
   1   1   5   -0.15    0.58
   1   1   5   -0.92    0.62
  -2  -1  -5   -0.87    0.82
  -2  -1  -5    0.82    0.75
  -2  -1  -5   -0.39    1.34
   2   1   5    0.71    0.75
   2   1   5    1.16    0.71
   2   1   5    0.89    0.64
   2   1   5    0.06    0.56
  -3  -1  -5   65.66    2.71
  -3  -1  -5   59.51    3.10
  -3  -1  -5   59.74    2.96
  -3  -1  -5   58.31    1.91
  -3  -1  -5   60.97    2.47
   3   1   5   62.68    1.89
   3   1   5   66.75    2.52
   3   1   5   64.98    2.64
   3   1   5   65.83    2.60
   3   1   5   63.40    2.17
  -4  -1  -5  106.81    3.25
  -4  -1  -5  107.76    4.52
  -4  -1  -5  116.59    4.73
  -4  -1  -5  113.79    4.23
   4   1   5  117.73    3.86
   4   1   5  111.29    4.06
   4   1   5  121.96    3.99
   4   1   5  111.56    3.25
  -5  -1  -5    0.62    0.82
  -5  -1  -5    0.37    1.42
  -5  -1  -5    0.49    0.90
   5   1   5    0.42    0.85
   5   1   5    0.06    0.79
   5   1   5    0.79    0.89
   5   1   5    1.74    1.11
  -6  -1  -5    1.95    1.57
  -6  -1  -5    1.68    1.12
  -6  -1  -5    1.93    1.07
  -6  -1  -5    0.25    1.80
   6   1   5    2.08    0.95
   6   1   5    0.20    0.94
   6   1   5    2.15    1.44
   6   1   5    2.34    1.14
  -7  -1  -5   18.14    2.49
  -7  -1  -5   20.02    3.07
  -7  -1  -5   17.46    1.95
   7   1   5   18.88    1.73
   7   1   5   18.64    2.36
   7   1   5   17.36    2.40
   7   1   5   16.50    1.47
  -8  -1  -5   12.61    3.09
  -8  -1  -5   18.59    2.95
   8   1   5   18.33    2.60
   8   1   5   16.03    2.65
  -9  -1  -5    0.73    2.01
  -9  -1  -5    1.42    2.18
   9   1   5   -2.28    1.98
   9   1   5    0.19    1.69
 -10  -1  -5    1.50    2.46
 -10  -1  -5    0.57    2.90
  10   1   5    1.51    2.71
  10   1   5    0.35    2.43
   8  -2  -5   -1.30    2.67
   8  -2  -5   -4.79    2.89
  -8   2   5    0.56    2.40
   7  -2  -5    4.23    2.74
   7  -2  -5    3.12    3.08
  -7   2   5    0.09    2.52
  -7   2   5    6.92    2.46
  -7   2   5    7.92    2.58
   6  -2  -5    2.46    2.32
   6  -2  -5    0.45    2.45
  -6   2   5   -0.98    1.51
  -6   2   5    0.36    1.73
  -6   2   5    0.48    2.09
   5  -2  -5    0.85    1.20
   5  -2  -5   -2.34    1.95
   5  -2  -5    0.16    1.94
  -5   2   5   -1.48    1.66
  -5   2   5    1.69    1.83
  -5   2   5   -0.80    1.54
   4  -2  -5   18.59    1.72
   4  -2  -5   11.76    2.38
   4  -2  -5   12.68    2.48
  -4   2   5   10.59    0.96
  -4   2   5   11.34    1.09
  -4   2   5   16.09    2.19
  -4   2   5   12.64    2.01
  -4   2   5   10.99    1.66
   3  -2  -5   87.54    4.39
   3  -2  -5   90.14    3.39
   3  -2  -5   85.03    4.45
   3  -2  -5   87.51    2.97
  -3   2   5   90.00    3.93
  -3   2   5   86.82    3.75
  -3   2   5   91.95    3.82
  -3   2   5   88.22    3.08
  -3   2   5   96.19    3.21
   2  -2  -5   -0.39    0.58
   2  -2  -5   -0.99    1.28
   2  -2  -5    0.27    0.72
   2  -2  -5    0.00    1.30
  -2   2   5    0.39    0.60
  -2   2   5    0.26    0.88
  -2   2   5   -1.13    0.95
  -2   2   5    0.57    0.62
  -2   2   5    1.50    0.93
   1  -2  -5   21.14    2.19
   1  -2  -5   18.63    1.31
   1  -2  -5   18.82    2.39
   1  -2  -5   18.67    1.24
   1  -2  -5   17.59    1.40
  -1   2   5   18.40    1.30
  -1   2   5   20.23    1.65
  -1   2   5   18.79    1.29
  -1   2   5   18.89    1.21
   0  -2  -5  190.90    5.76
   0  -2  -5  189.64    5.70
   0  -2  -5  185.49    7.09
   0  -2  -5  185.22    5.93
   0  -2  -5  184.98    6.29
   0   2   5  189.04    5.78
   0   2   5  188.65    6.00
   0   2   5  187.97    5.59
   0   2   5  183.55    5.68
  -1  -2  -5  179.21    5.68
  -1  -2  -5  191.75    6.70
  -1  -2  -5  180.43    5.51
  -1  -2  -5  168.00    5.82
  -1  -2  -5  173.58    5.53
  -1  -2  -5  181.72    5.17
   1   2   5  174.84    5.49
   1   2   5  181.26    5.66
   1   2   5  182.62    5.54
   1   2   5  180.63    5.62
   1   2   5  174.78    5.10
  -2  -2  -5   -0.16    1.09
  -2  -2  -5    2.26    1.01
  -2  -2  -5    1.82    0.81
  -2  -2  -5    0.07    0.88
   2   2   5    1.59    0.81
   2   2   5    0.94    0.72
   2   2   5    1.32    0.65
   2   2   5    0.09    0.64
  -3  -2  -5    4.62    1.34
  -3  -2  -5    5.57    0.94
  -3  -2  -5    4.18    1.12
  -3  -2  -5    6.20    1.04
   3   2   5    5.00    0.97
   3   2   5    7.47    1.18
   3   2   5    5.33    0.76
   3   2   5    4.89    0.89
  -4  -2  -5   99.31    4.36
  -4  -2  -5  100.27    3.04
  -4  -2  -5   98.70    3.96
  -4  -2  -5  106.52    4.26
  -4  -2  -5  102.08    3.55
   4   2   5   97.32    3.80
   4   2   5  101.12    3.14
   4   2   5  104.97    3.67
   4   2   5  102.82    3.57
  -5  -2  -5   58.65    2.98
  -5  -2  -5   57.60    2.23
  -5  -2  -5   54.97    3.27
  -5  -2  -5   57.73    3.37
   5   2   5   55.31    2.52
   5   2   5   57.46    2.85
   5   2   5   56.76    2.42
  -6  -2  -5    0.73    1.49
  -6  -2  -5    1.23    0.77
  -6  -2  -5    0.64    1.02
  -6  -2  -5    2.11    1.83
   6   2   5    1.22    1.00
   6   2   5    0.99    0.80
   6   2   5   -1.09    0.93
   6   2   5    2.52    1.04
  -7  -2  -5    0.64    2.15
  -7  -2  -5    0.10    1.20
  -7  -2  -5    0.39    1.28
   7   2   5    0.61    0.89
   7   2   5    0.17    1.48
   7   2   5    1.63    1.17
   7   2   5    1.66    1.65
  -8  -2  -5   12.60    2.41
  -8  -2  -5    8.34    1.82
  -8  -2  -5   12.54    3.07
   8   2   5   12.84    2.17
   8   2   5   13.22    2.38
  -9  -2  -5    8.32    2.73
  -9  -2  -5    3.82    2.97
   9   2   5   10.22    2.62
   9   2   5    5.86    1.88
 -10  -2  -5   -0.10    2.59
 -10  -2  -5    4.13    3.18
  10   2   5    1.15    2.39
  10   2   5    1.13    2.59
   7  -3  -5    3.84    3.14
   7  -3  -5    4.99    3.25
  -7   3   5    6.55    2.71
  -7   3   5    2.77    2.08
  -7   3   5    5.72    2.68
   6  -3  -5   19.04    3.53
   6  -3  -5   16.05    2.42
   6  -3  -5    9.53    2.63
  -6   3   5   12.04    2.57
  -6   3   5   11.05    2.34
  -6   3   5   14.31    2.75
   5  -3  -5    0.57    1.31
   5  -3  -5   -2.64    1.82
   5  -3  -5    0.83    2.30
  -5   3   5   -0.28    1.69
  -5   3   5   -2.70    1.62
  -5   3   5    0.18    1.62
   4  -3  -5    2.87    1.29
   4  -3  -5    3.92    2.27
   4  -3  -5    0.53    1.97
  -4   3   5    1.14    0.68
  -4   3   5    1.76    1.64
  -4   3   5    0.45    1.49
  -4   3   5    3.15    1.57
  -4   3   5    2.17    0.95
   3  -3  -5   66.44    3.97
   3  -3  -5   74.15    4.36
   3  -3  -5   67.99    3.04
  -3   3   5   64.35    2.48
  -3   3   5   66.28    2.55
  -3   3   5   65.99    3.11
  -3   3   5   69.38    2.70
  -3   3   5   66.71    3.43
  -3   3   5   69.89    3.34
   2  -3  -5   53.71    3.14
   2  -3  -5   56.10    2.60
   2  -3  -5   57.66    3.60
  -2   3   5   54.53    2.91
  -2   3   5   64.75    2.84
  -2   3   5   55.71    2.55
  -2   3   5   60.71    2.31
  -2   3   5   59.50    2.28
  -2   3   5   59.56    2.42
   1  -3  -5    2.62    1.56
   1  -3  -5    4.27    0.81
   1  -3  -5    2.93    0.74
   1  -3  -5    2.68    1.18
   1  -3  -5    1.50    0.84
  -1   3   5    3.62    0.82
  -1   3   5    4.04    0.95
  -1   3   5    3.44    0.74
  -1   3   5    3.14    1.10
   0  -3  -5    1.12    0.57
   0  -3  -5    0.23    0.36
   0  -3  -5    1.20    1.47
   0  -3  -5    0.96    0.79
   0  -3  -5   -0.48    0.62
   0  -3  -5    0.71    1.19
   0   3   5    0.01    0.71
   0   3   5    0.61    0.65
   0   3   5    2.19    0.75
   0   3   5   -1.18    0.79
  -1  -3  -5   55.99    2.28
  -1  -3  -5   49.28    1.81
  -1  -3  -5   57.15    2.71
  -1  -3  -5   63.13    3.26
  -1  -3  -5   61.03    2.49
   1   3   5   56.21    2.31
   1   3   5   58.69    1.98
   1   3   5   56.56    2.24
   1   3   5   53.04    1.79
   1   3   5   56.76    2.50
  -2  -3  -5   68.66    2.72
  -2  -3  -5   64.77    2.46
  -2  -3  -5   66.10    2.61
  -2  -3  -5   71.41    3.07
  -2  -3  -5   64.01    3.07
   2   3   5   67.39    2.56
   2   3   5   71.74    2.70
   2   3   5   67.61    2.03
   2   3   5   67.41    2.65
  -3  -3  -5    7.30    1.00
  -3  -3  -5    5.73    1.33
  -3  -3  -5    6.78    1.13
  -3  -3  -5    6.70    1.25
   3   3   5    7.43    0.96
   3   3   5    4.44    0.98
   3   3   5    6.20    0.94
   3   3   5    7.09    1.19
  -4  -3  -5   -0.65    0.67
  -4  -3  -5   -0.49    0.94
  -4  -3  -5    0.60    0.98
  -4  -3  -5   -1.01    1.00
   4   3   5   -0.34    0.69
   4   3   5   -0.06    0.68
   4   3   5    0.00    0.54
   4   3   5    0.53    0.80
  -5  -3  -5    7.69    1.36
  -5  -3  -5    9.03    0.96
  -5  -3  -5    6.36    1.45
  -5  -3  -5    7.48    1.66
   5   3   5    6.73    1.10
   5   3   5    8.88    1.27
   5   3   5    7.59    0.80
   5   3   5    7.45    1.38
  -6  -3  -5   27.49    2.85
  -6  -3  -5   28.39    2.86
  -6  -3  -5   28.85    1.79
  -6  -3  -5   29.60    1.82
   6   3   5   28.77    1.77
   6   3   5   31.98    1.97
   6   3   5   24.52    2.52
   6   3   5   21.69    2.22
  -7  -3  -5    0.16    2.08
  -7  -3  -5   -0.49    1.25
  -7  -3  -5    1.63    1.42
   7   3   5   -1.08    1.47
   7   3   5    0.49    0.89
   7   3   5   -0.47    1.11
   7   3   5    1.61    1.60
  -8  -3  -5   -0.08    2.27
  -8  -3  -5   -0.19    1.44
   8   3   5    0.93    1.74
   8   3   5   -0.32    1.34
  -9  -3  -5   -1.40    2.70
  -9  -3  -5    3.73    2.42
   9   3   5   -0.19    2.05
   9   3   5    2.13    1.84
 -10  -3  -5   -2.19    2.88
 -10  -3  -5   -1.29    2.42
  10   3   5    0.55    2.24
  10   3   5    1.09    2.48
   7  -4  -5    1.41    3.37
  -7   4   5   -0.72    2.05
   6  -4  -5    3.65    2.45
   6  -4  -5    2.82    2.06
   6  -4  -5    1.62    2.89
  -6   4   5    6.08    2.44
  -6   4   5    1.29    1.84
   5  -4  -5    2.59    2.68
   5  -4  -5    3.79    2.63
   5  -4  -5    9.95    1.95
  -5   4   5    5.35    2.11
  -5   4   5    2.83    1.73
  -5   4   5    6.81    2.02
   4  -4  -5    5.94    1.85
   4  -4  -5    6.27    2.53
   4  -4  -5    8.49    2.37
  -4   4   5    7.59    1.93
  -4   4   5    3.45    1.65
  -4   4   5    6.33    1.69
   3  -4  -5   17.90    2.03
   3  -4  -5   20.64    2.79
   3  -4  -5   14.21    2.33
  -3   4   5   18.80    1.60
  -3   4   5   13.71    2.01
  -3   4   5   16.36    2.11
  -3   4   5   19.31    1.86
  -3   4   5   14.88    1.30
   2  -4  -5    7.76    2.09
   2  -4  -5    2.30    1.19
   2  -4  -5   -0.76    1.76
  -2   4   5    1.92    0.89
  -2   4   5    0.80    1.31
  -2   4   5    1.02    0.67
  -2   4   5    0.44    0.89
  -2   4   5    2.27    0.93
  -2   4   5    1.79    0.75
   1  -4  -5   26.03    2.73
   1  -4  -5   24.47    2.78
   1  -4  -5   26.37    1.88
   1  -4  -5   23.03    1.18
  -1   4   5   23.15    1.54
  -1   4   5   23.10    1.47
  -1   4   5   25.83    1.73
  -1   4   5   23.29    1.98
  -1   4   5   24.44    1.64
   0  -4  -5   17.06    2.08
   0  -4  -5   15.02    1.30
   0  -4  -5   17.97    2.07
   0  -4  -5   15.52    1.56
   0   4   5   18.15    1.53
   0   4   5   15.95    1.34
   0   4   5   15.98    1.33
   0   4   5   12.49    1.46
  -1  -4  -5   24.63    2.12
  -1  -4  -5   20.57    1.93
  -1  -4  -5   20.39    1.65
  -1  -4  -5   23.54    1.50
   1   4   5   20.57    1.31
   1   4   5   22.61    1.25
   1   4   5   20.57    1.49
   1   4   5   20.54    1.39
  -2  -4  -5    4.75    1.21
  -2  -4  -5    4.66    0.81
  -2  -4  -5    4.70    1.27
  -2  -4  -5    4.32    0.57
  -2  -4  -5    4.30    1.11
   2   4   5    3.62    0.59
   2   4   5    4.45    0.78
   2   4   5    4.46    0.85
   2   4   5    4.19    0.63
   2   4   5    4.64    1.00
  -3  -4  -5    3.45    0.85
  -3  -4  -5    3.04    1.14
  -3  -4  -5    3.43    0.89
  -3  -4  -5    2.33    1.06
  -3  -4  -5    3.13    1.19
   3   4   5    3.69    0.90
   3   4   5    2.92    0.54
   3   4   5    4.95    1.03
   3   4   5    2.85    0.86
  -4  -4  -5   10.87    1.56
  -4  -4  -5   11.22    1.77
  -4  -4  -5   12.51    1.28
  -4  -4  -5   11.84    1.66
   4   4   5   11.43    1.24
   4   4   5   13.97    1.48
   4   4   5    9.60    0.80
   4   4   5   10.03    1.18
   4   4   5   11.31    1.44
  -5  -4  -5   17.87    2.35
  -5  -4  -5   17.52    1.22
  -5  -4  -5   19.00    2.02
  -5  -4  -5   18.50    2.38
   5   4   5   16.06    1.46
   5   4   5   15.89    1.88
   5   4   5   18.53    1.75
   5   4   5   17.82    1.30
  -6  -4  -5   -0.39    0.93
  -6  -4  -5    1.66    1.66
  -6  -4  -5   -2.23    1.52
  -6  -4  -5    0.50    1.42
   6   4   5   -0.61    0.62
   6   4   5    0.60    0.83
   6   4   5   -0.98    1.30
   6   4   5    0.85    1.08
  -7  -4  -5    1.96    1.21
  -7  -4  -5    0.05    1.87
  -7  -4  -5   -0.31    1.89
   7   4   5    1.77    1.69
   7   4   5    2.57    1.03
   7   4   5    0.32    1.61
   7   4   5    1.29    1.14
  -8  -4  -5   -1.07    2.25
  -8  -4  -5    2.14    2.21
   8   4   5    0.53    1.76
   8   4   5    1.45    1.92
  -9  -4  -5    0.71    2.77
  -9  -4  -5    2.98    1.98
   9   4   5    0.13    2.28
   9   4   5    0.73    2.10
 -10  -4  -5    1.36    3.09
 -10  -4  -5   -0.45    2.58
  10   4   5    2.44    2.43
  10   4   5    2.63    2.56
   6  -5  -5    8.85    2.56
   6  -5  -5    8.51    3.60
  -6   5   5    4.63    2.08
  -6   5   5    6.28    2.70
   5  -5  -5   -2.34    2.70
   5  -5  -5   -2.05    1.73
  -5   5   5    1.38    2.19
  -5   5   5   -0.74    1.61
   4  -5  -5    0.80    1.94
   4  -5  -5    2.71    2.61
   4  -5  -5    0.97    1.97
  -4   5   5    0.12    1.53
  -4   5   5    1.46    1.82
   3  -5  -5   22.01    2.88
   3  -5  -5   27.31    3.27
   3  -5  -5   31.16    2.74
  -3   5   5   27.96    1.79
  -3   5   5   20.66    2.47
  -3   5   5   31.60    2.11
  -3   5   5   31.54    2.61
   2  -5  -5   21.06    2.72
   2  -5  -5   15.29    2.68
   2  -5  -5   21.33    2.26
  -2   5   5   20.31    1.70
  -2   5   5   17.12    1.55
  -2   5   5   22.25    2.17
  -2   5   5   16.35    1.96
  -2   5   5   16.73    2.14
   1  -5  -5   -0.14    1.72
   1  -5  -5    1.50    1.78
   1  -5  -5    0.03    1.18
  -1   5   5    1.41    0.82
  -1   5   5    0.14    1.12
  -1   5   5   -0.86    0.94
  -1   5   5   -0.02    0.90
   0  -5  -5    0.95    1.31
   0  -5  -5    1.56    1.12
   0  -5  -5    2.40    1.38
   0   5   5    1.00    0.91
   0   5   5    0.19    0.79
   0   5   5    1.16    0.90
   0   5   5    0.27    0.74
  -1  -5  -5   46.37    2.87
  -1  -5  -5   51.31    2.67
  -1  -5  -5   50.24    2.70
   1   5   5   49.61    2.16
   1   5   5   51.99    2.50
   1   5   5   52.25    2.68
   1   5   5   54.82    2.41
  -2  -5  -5   33.71    2.43
  -2  -5  -5   33.50    2.23
  -2  -5  -5   35.44    2.32
   2   5   5   36.69    2.16
   2   5   5   34.68    1.91
   2   5   5   32.43    1.63
   2   5   5   33.45    1.92
  -3  -5  -5    2.55    0.82
  -3  -5  -5    2.68    1.25
  -3  -5  -5    2.43    1.15
  -3  -5  -5    2.05    1.17
   3   5   5    2.52    0.90
   3   5   5    2.59    1.01
   3   5   5    3.36    1.09
   3   5   5    1.63    0.71
  -4  -5  -5    9.11    1.41
  -4  -5  -5    6.96    1.46
  -4  -5  -5   12.18    1.91
  -4  -5  -5    9.27    1.71
   4   5   5   10.65    1.05
   4   5   5    8.61    1.20
   4   5   5   11.07    1.43
   4   5   5    8.24    1.41
  -5  -5  -5   25.76    2.27
  -5  -5  -5   27.60    2.48
  -5  -5  -5   27.09    2.77
   5   5   5   28.54    1.72
   5   5   5   25.97    1.53
   5   5   5   28.21    2.11
   5   5   5   25.95    2.39
   5   5   5   24.09    1.82
  -6  -5  -5    7.24    1.25
  -6  -5  -5    7.21    2.04
  -6  -5  -5    3.32    2.03
  -6  -5  -5    6.26    1.57
   6   5   5    5.28    1.11
   6   5   5    6.79    1.81
   6   5   5    6.66    1.12
   6   5   5    7.06    1.52
  -7  -5  -5    6.81    2.32
  -7  -5  -5    7.22    2.40
   7   5   5    5.80    1.42
   7   5   5    9.67    2.09
   7   5   5   11.66    2.20
   7   5   5    6.53    1.17
  -8  -5  -5    6.75    2.61
  -8  -5  -5    5.17    2.35
   8   5   5    9.92    2.30
   8   5   5    3.18    2.08
  -9  -5  -5    0.29    2.53
  -9  -5  -5    0.26    2.74
   9   5   5    2.21    1.89
   9   5   5    2.74    2.14
 -10  -5  -5    0.79    2.23
 -10  -5  -5    1.58    2.34
  10   5   5    3.32    2.70
  10   5   5    0.68    2.38
   6  -6  -5    7.44    2.47
   6  -6  -5    9.00    3.69
  -6   6   5    7.49    2.92
  -6   6   5    3.52    2.32
   5  -6  -5    5.75    2.34
   5  -6  -5   10.12    3.51
  -5   6   5    2.58    1.96
  -5   6   5    5.82    2.50
   4  -6  -5   -0.14    2.60
   4  -6  -5   -1.11    2.14
  -4   6   5    3.55    2.02
  -4   6   5   -0.31    1.59
   3  -6  -5    2.56    1.99
   3  -6  -5    1.13    1.72
  -3   6   5    1.05    1.65
  -3   6   5   -0.12    1.17
  -3   6   5    2.23    1.29
  -3   6   5    1.92    1.00
   2  -6  -5   23.33    3.32
   2  -6  -5   24.95    2.71
   2  -6  -5   30.79    3.96
  -2   6   5   21.07    2.57
  -2   6   5   23.92    2.02
  -2   6   5   20.74    2.32
  -2   6   5   26.77    1.94
   1  -6  -5   37.68    2.51
   1  -6  -5   37.42    3.77
   1  -6  -5   38.53    2.98
  -1   6   5   35.83    2.25
  -1   6   5   39.39    2.36
  -1   6   5   37.87    2.76
  -1   6   5   34.33    2.56
   0  -6  -5    1.08    1.67
   0  -6  -5    1.17    1.37
   0  -6  -5   -1.29    1.38
   0   6   5    5.25    1.27
   0   6   5    4.80    1.25
   0   6   5    3.63    1.07
   0   6   5    5.59    1.51
  -1  -6  -5    9.32    2.16
  -1  -6  -5    8.87    1.64
  -1  -6  -5    7.84    1.43
   1   6   5    8.76    1.27
   1   6   5    9.36    1.44
   1   6   5    8.24    1.62
   1   6   5    7.74    1.31
  -2  -6  -5   32.92    2.18
  -2  -6  -5   31.25    2.65
  -2  -6  -5   30.95    2.38
   2   6   5   31.54    1.87
   2   6   5   29.19    2.10
   2   6   5   33.10    2.33
   2   6   5   32.12    2.03
  -3  -6  -5   20.90    2.17
  -3  -6  -5   23.58    2.20
  -3  -6  -5   30.44    2.77
   3   6   5   24.74    2.13
   3   6   5   23.13    1.37
   3   6   5   23.75    1.85
   3   6   5   21.88    1.96
   3   6   5   21.98    1.60
  -4  -6  -5   15.87    2.21
  -4  -6  -5   17.89    2.30
  -4  -6  -5   16.05    1.66
  -4  -6  -5   13.84    1.92
   4   6   5   16.25    1.79
   4   6   5   16.95    1.39
   4   6   5   15.44    1.54
   4   6   5   19.64    1.87
  -5  -6  -5   14.82    2.39
  -5  -6  -5   17.57    2.32
  -5  -6  -5   15.83    2.15
   5   6   5   16.32    1.43
   5   6   5   17.21    1.96
   5   6   5   16.21    1.63
   5   6   5   15.17    1.78
   5   6   5   16.76    2.04
  -6  -6  -5    5.59    1.63
  -6  -6  -5    4.56    2.10
  -6  -6  -5    5.38    2.09
   6   6   5    4.36    1.20
   6   6   5    4.86    1.43
   6   6   5    7.55    1.36
   6   6   5    7.00    1.70
   6   6   5    5.80    1.88
  -7  -6  -5    1.57    2.07
  -7  -6  -5    1.30    2.05
  -7  -6  -5    1.67    1.49
   7   6   5    2.80    1.87
   7   6   5    2.54    1.56
   7   6   5   -0.13    1.61
   7   6   5    0.92    1.17
  -8  -6  -5    4.67    2.53
  -8  -6  -5    7.22    2.65
   8   6   5    6.70    2.24
   8   6   5   10.35    2.47
  -9  -6  -5    3.82    2.85
  -9  -6  -5    6.00    2.92
   9   6   5    3.55    1.98
   9   6   5    2.70    2.33
   5  -7  -5    1.77    3.30
   5  -7  -5    1.67    2.49
  -5   7   5    3.36    2.58
  -5   7   5    3.49    2.01
   4  -7  -5   10.59    2.62
   4  -7  -5   11.22    3.41
  -4   7   5    3.43    2.03
  -4   7   5    9.58    2.48
   3  -7  -5    2.27    1.66
   3  -7  -5    1.65    2.60
  -3   7   5    0.62    1.71
  -3   7   5   -0.06    1.33
  -3   7   5    2.85    1.96
   2  -7  -5   -2.41    1.68
   2  -7  -5   -1.59    2.27
  -2   7   5   -0.08    1.15
  -2   7   5   -0.72    1.03
  -2   7   5   -0.59    1.55
  -2   7   5    0.11    1.52
   1  -7  -5   13.37    2.88
   1  -7  -5   13.08    2.27
  -1   7   5   16.18    1.90
  -1   7   5   12.48    1.56
  -1   7   5   13.03    2.14
  -1   7   5   14.28    2.06
   0  -7  -5   -0.60    2.31
   0  -7  -5    3.84    1.68
   0   7   5    1.57    1.23
   0   7   5    2.67    1.09
   0   7   5    2.38    1.59
   0   7   5    4.45    1.37
  -1  -7  -5    4.09    1.60
  -1  -7  -5    1.33    1.17
  -1  -7  -5    2.14    2.23
   1   7   5    4.18    1.60
   1   7   5    3.58    1.31
   1   7   5    5.04    1.40
   1   7   5    6.47    1.30
  -2  -7  -5   -0.36    1.07
  -2  -7  -5    0.97    1.12
  -2  -7  -5   -3.05    1.51
   2   7   5    0.96    0.90
   2   7   5   -0.78    1.02
   2   7   5    0.37    0.78
   2   7   5   -0.22    1.31
  -3  -7  -5    0.05    1.65
  -3  -7  -5    0.13    1.31
  -3  -7  -5   -1.52    0.91
   3   7   5    0.02    0.79
   3   7   5   -0.75    1.16
   3   7   5    0.46    0.92
   3   7   5   -0.44    0.94
  -4  -7  -5   -1.29    1.47
  -4  -7  -5   -1.39    1.43
  -4  -7  -5   -1.14    1.38
   4   7   5    0.56    1.14
   4   7   5   -0.20    1.03
   4   7   5   -1.42    0.89
   4   7   5   -0.69    1.29
  -5  -7  -5    6.45    1.82
  -5  -7  -5    6.46    1.97
  -5  -7  -5    6.96    1.76
  -5  -7  -5    3.42    1.82
   5   7   5    6.93    1.28
   5   7   5    4.51    1.39
   5   7   5    6.74    1.79
   5   7   5    5.49    1.30
  -6  -7  -5    2.58    1.95
  -6  -7  -5    0.38    2.15
  -6  -7  -5    2.29    1.67
   6   7   5   -0.55    1.04
   6   7   5    0.59    1.31
   6   7   5    3.19    1.71
   6   7   5    0.55    1.41
  -7  -7  -5    0.22    2.22
  -7  -7  -5    1.28    2.14
  -7  -7  -5    0.84    1.95
   7   7   5   -1.36    1.52
   7   7   5   -0.30    1.84
   7   7   5    1.00    1.10
  -8  -7  -5   -0.41    2.25
  -8  -7  -5   -1.84    2.21
   8   7   5    1.30    2.15
   8   7   5    1.01    2.48
   8   7   5    1.90    2.19
  -9  -7  -5    1.62    2.65
  -9  -7  -5   -0.71    2.62
   9   7   5    1.55    2.38
   9   7   5    3.48    2.47
   4  -8  -5    1.84    2.50
   4  -8  -5    0.10    2.95
  -4   8   5    3.90    2.45
  -4   8   5   -0.78    1.89
   3  -8  -5    2.44    2.32
   3  -8  -5   -3.42    2.42
  -3   8   5   -1.91    1.82
  -3   8   5   -1.10    1.25
  -3   8   5    1.96    2.38
   2  -8  -5   -0.49    2.11
   2  -8  -5    0.47    2.49
  -2   8   5    0.32    1.10
  -2   8   5    5.23    2.01
  -2   8   5    0.27    1.73
  -2   8   5    0.20    1.30
   1  -8  -5   -2.91    2.46
   1  -8  -5   -0.14    1.45
  -1   8   5    0.08    1.11
  -1   8   5    2.80    1.69
  -1   8   5    0.83    1.31
  -1   8   5    1.78    1.81
   0  -8  -5   -0.15    2.45
   0  -8  -5    2.79    1.50
   0   8   5    1.40    1.39
   0   8   5    0.55    1.11
   0   8   5    0.20    1.64
   0   8   5    2.60    1.33
  -1  -8  -5   -4.19    1.96
  -1  -8  -5   -1.71    1.59
   1   8   5    0.05    0.82
   1   8   5    1.54    1.04
   1   8   5    1.09    1.58
   1   8   5   -1.31    1.33
  -2  -8  -5   -0.95    1.88
  -2  -8  -5   -0.87    1.61
   2   8   5    0.07    1.29
   2   8   5   -2.08    0.98
   2   8   5   -0.20    1.50
   2   8   5   -0.39    1.07
  -3  -8  -5    4.56    2.04
  -3  -8  -5   -0.30    1.25
  -3  -8  -5    1.92    1.32
   3   8   5    0.21    1.04
   3   8   5    1.25    1.12
   3   8   5   -1.51    1.05
   3   8   5    0.01    1.08
  -4  -8  -5    4.71    1.98
  -4  -8  -5    3.48    1.78
  -4  -8  -5    3.40    1.48
   4   8   5    3.40    1.55
   4   8   5    4.80    1.35
   4   8   5    4.44    1.83
   4   8   5    5.80    1.47
  -5  -8  -5    3.76    1.86
  -5  -8  -5    2.30    1.94
  -5  -8  -5    2.91    1.74
   5   8   5    5.23    1.40
   5   8   5    4.19    1.53
   5   8   5    5.91    1.68
  -6  -8  -5    3.86    2.11
  -6  -8  -5   -0.62    1.75
   6   8   5   -1.12    1.05
   6   8   5   -0.75    1.42
   6   8   5   -1.58    1.96
   6   8   5   -0.83    1.66
  -7  -8  -5    0.79    2.13
  -7  -8  -5   -0.54    2.04
   7   8   5   -3.31    1.92
   7   8   5   -0.29    1.84
  -8  -8  -5    5.89    2.81
   8   8   5    6.08    2.03
   8   8   5    5.99    2.53
   8   8   5    4.97    2.52
  -9  -8  -5    5.74    3.04
   9   8   5    4.59    2.81
   9   8   5    6.39    2.79
   3  -9  -5    4.05    2.96
   3  -9  -5    2.54    2.68
  -3   9   5    4.46    2.37
  -3   9   5    6.63    2.43
   2  -9  -5    3.08    2.53
   2  -9  -5   -1.34    2.60
  -2   9   5    2.53    2.01
  -2   9   5   -0.51    1.39
  -2   9   5    2.87    2.25
   1  -9  -5    2.18    2.82
   1  -9  -5    4.28    2.48
  -1   9   5    5.04    1.67
  -1   9   5    4.43    2.24
  -1   9   5    4.33    1.97
   0  -9  -5    0.68    2.69
   0  -9  -5   -0.68    2.06
   0   9   5    1.51    1.86
   0   9   5    0.32    1.07
   0   9   5    2.57    1.63
  -1  -9  -5   10.41    2.09
  -1  -9  -5    8.56    2.94
   1   9   5   14.57    2.55
   1   9   5   11.80    2.03
   1   9   5    8.95    1.90
  -2  -9  -5   11.90    2.54
  -2  -9  -5   12.80    2.98
   2   9   5   10.26    2.33
   2   9   5    6.96    1.84
   2   9   5   10.12    1.74
  -3  -9  -5    7.01    2.20
  -3  -9  -5    9.11    2.51
   3   9   5    8.13    2.12
   3   9   5    8.00    1.72
   3   9   5    7.99    2.00
  -4  -9  -5    1.52    2.02
  -4  -9  -5   -0.58    1.32
   4   9   5   -0.17    1.76
   4   9   5   -0.56    1.28
   4   9   5    1.10    1.66
  -5  -9  -5   20.86    3.01
  -5  -9  -5   16.85    2.66
   5   9   5   21.51    2.83
   5   9   5   17.02    2.45
  -6  -9  -5   10.20    2.69
  -6  -9  -5   14.96    2.83
   6   9   5    4.30    2.12
   6   9   5    9.50    2.60
   6   9   5   13.45    2.39
  -7  -9  -5    0.57    2.04
  -7  -9  -5   -0.77    2.09
   7   9   5   -3.17    2.20
   7   9   5   -0.12    2.01
  -8  -9  -5    0.29    2.51
   8   9   5    0.20    2.54
   8   9   5   -0.28    2.49
   8   9   5    2.01    2.32
  -2  10   5    5.77    2.68
   1 -10  -5   -1.60    2.72
   1 -10  -5    1.27    2.72
  -1  10   5    6.95    2.27
  -1  10   5    2.19    1.66
  -1  10   5    6.96    2.62
   0 -10  -5   -0.49    2.35
   0 -10  -5   -1.89    2.58
   0  10   5    0.65    1.58
   0  10   5    6.11    2.52
   0  10   5    3.63    2.06
  -1 -10  -5    1.44    2.62
  -1 -10  -5   -0.84    2.21
   1  10   5    0.40    2.17
   1  10   5   -1.33    1.73
   1  10   5    2.44    1.31
  -2 -10  -5   13.45    3.20
  -2 -10  -5   18.62    3.09
   2  10   5   14.11    2.44
   2  10   5   19.49    2.51
   2  10   5   14.64    2.43
  -3 -10  -5    6.20    2.63
  -3 -10  -5    6.02    2.44
   3  10   5    5.09    1.93
   3  10   5    6.70    2.32
   3  10   5    9.60    2.30
  -4 -10  -5    0.40    2.17
  -4 -10  -5   -1.77    2.02
   4  10   5   -1.37    1.73
   4  10   5    1.17    2.12
  -5 -10  -5   -1.84    1.97
  -5 -10  -5    1.95    2.40
   5  10   5    0.37    1.75
   5  10   5    0.80    2.23
  -6 -10  -5   11.90    3.11
  -6 -10  -5    9.99    2.54
   6  10   5   11.97    2.35
   6  10   5   11.56    2.75
  -7 -10  -5    7.72    2.71
   7  10   5    5.70    2.55
   7  10   5    4.02    2.82
   0  11   5    3.78    2.61
  -1 -11  -5   -2.34    2.61
  -1 -11  -5   -0.60    1.90
   1  11   5   -2.97    2.11
   1  11   5   -0.26    1.95
   1  11   5   -1.32    1.66
  -2 -11  -5    0.77    2.55
  -2 -11  -5    2.59    2.56
   2  11   5   -1.05    1.72
   2  11   5    0.81    2.34
  -3 -11  -5    5.54    2.67
  -3 -11  -5    8.80    2.82
   3  11   5    4.60    2.27
   3  11   5    6.00    2.52
  -4 -11  -5    2.27    2.47
  -4 -11  -5   -3.11    2.40
   4  11   5    2.97    2.54
   4  11   5    1.69    2.21
  -5 -11  -5    0.07    2.28
  -5 -11  -5    5.38    2.50
   5  11   5    3.91    2.29
   5  11   5    3.98    2.63
  -3 -10   6    6.20    2.55
  -3 -10   6    7.09    3.08
   2  10  -6    1.35    2.68
   2  10  -6   -1.49    2.98
  -2 -10   6   -0.71    2.19
  -2 -10   6   -2.15    2.54
   1  10  -6   -2.03    2.57
   1  10  -6   -6.43    2.88
  -1 -10   6   -0.66    2.63
  -1 -10   6   -0.76    2.28
   0  10  -6    1.57    2.19
   0  10  -6   -2.20    2.63
   0  10  -6   -2.12    3.29
   0 -10   6    4.97    2.56
   5   9  -6   -1.06    2.84
  -5  -9   6   -0.49    2.32
  -5  -9   6    0.75    2.68
   4   9  -6   -0.55    2.77
   4   9  -6    2.21    2.57
  -4  -9   6   -2.72    2.18
  -4  -9   6    2.79    2.56
   3   9  -6    7.65    2.72
   3   9  -6    5.42    3.01
  -3  -9   6    9.40    2.58
  -3  -9   6    7.10    2.32
   2   9  -6   26.59    3.55
   2   9  -6   23.79    4.18
  -2  -9   6   22.67    2.77
  -2  -9   6   29.76    3.74
   1   9  -6    0.03    2.30
   1   9  -6    0.69    3.01
  -1  -9   6    1.49    1.84
  -1  -9   6   -1.35    1.40
   0   9  -6    7.59    2.89
   0   9  -6    8.93    2.91
   0  -9   6   10.13    2.61
   0  -9   6    9.75    2.35
  -1   9  -6   -2.70    2.86
  -1   9  -6    1.10    1.86
  -1   9  -6    1.34    2.49
   1  -9   6    3.66    2.39
   1  -9   6    1.12    2.31
  -2   9  -6    7.54    3.29
  -2   9  -6   12.75    2.42
  -2   9  -6   19.54    3.44
   2  -9   6   17.04    3.09
   2  -9   6    9.29    3.19
  -3   9  -6    3.71    2.98
  -3   9  -6    2.33    2.65
  -3   9  -6   -0.36    1.77
   3  -9   6   -0.23    2.38
   3  -9   6   -0.35    2.46
   6   8  -6    1.01    2.69
   6   8  -6    3.67    3.14
   6   8  -6    1.55    2.62
  -6  -8   6    1.09    2.46
   5   8  -6   12.18    2.92
   5   8  -6   23.20    4.19
   5   8  -6   14.56    3.38
  -5  -8   6   14.94    2.62
  -5  -8   6   14.59    2.48
   4   8  -6   -1.00    2.20
   4   8  -6   -2.75    2.07
   4   8  -6   -1.38    2.50
  -4  -8   6    0.53    1.93
  -4  -8   6    0.51    2.27
   3   8  -6    6.13    2.06
   3   8  -6    5.53    2.89
  -3  -8   6    8.01    2.24
  -3  -8   6    7.07    2.53
   2   8  -6    4.79    2.30
   2   8  -6    6.90    2.38
  -2  -8   6    4.64    2.03
  -2  -8   6    4.02    2.34
   1   8  -6    7.36    3.01
   1   8  -6   13.63    2.41
  -1  -8   6   11.52    2.35
  -1  -8   6   12.09    2.64
   0   8  -6   -0.65    2.48
   0   8  -6    1.43    2.16
   0  -8   6   -0.13    1.90
   0  -8   6    1.78    1.41
   0  -8   6   -1.67    2.02
  -1   8  -6    8.88    2.54
  -1   8  -6    5.37    2.99
   1  -8   6    4.76    2.27
   1  -8   6    5.81    1.83
   1  -8   6    3.73    1.69
  -2   8  -6    0.87    2.60
  -2   8  -6    0.17    2.21
  -2   8  -6    0.84    1.53
   2  -8   6   -0.37    2.16
   2  -8   6   -1.87    1.90
  -3   8  -6    3.77    2.60
  -3   8  -6    1.58    1.62
  -3   8  -6    1.73    2.51
   3  -8   6    2.78    2.32
   3  -8   6    3.19    2.50
  -4   8  -6   -0.08    1.73
  -4   8  -6    2.53    2.74
   4  -8   6   -0.79    2.35
   4  -8   6    0.15    2.32
   6   7  -6    3.08    2.75
   6   7  -6   -2.74    2.18
  -6  -7   6    0.05    2.13
  -6  -7   6    1.33    2.38
   5   7  -6    1.04    1.98
   5   7  -6   -2.66    2.04
  -5  -7   6   -1.47    2.01
  -5  -7   6   -1.62    1.43
  -5  -7   6    0.09    2.18
   4   7  -6    1.94    2.15
   4   7  -6    4.85    2.25
   4   7  -6    5.97    2.33
  -4  -7   6    3.76    1.91
  -4  -7   6    3.93    1.55
  -4  -7   6    2.88    2.19
   3   7  -6    1.44    2.07
   3   7  -6    0.93    1.97
   3   7  -6   -1.85    2.21
  -3  -7   6    0.86    1.62
  -3  -7   6    0.15    1.88
  -3  -7   6   -0.57    1.55
   2   7  -6   -1.81    1.65
   2   7  -6    0.54    1.74
   2   7  -6   -1.82    1.36
  -2  -7   6    0.15    1.85
  -2  -7   6   -0.76    1.36
  -2  -7   6    1.24    1.62
   1   7  -6   -2.42    1.62
   1   7  -6   -0.49    1.47
   1   7  -6   -4.03    1.99
  -1  -7   6   -2.42    1.41
  -1  -7   6    0.04    1.56
  -1  -7   6   -1.83    1.29
  -1  -7   6   -0.67    1.70
   0   7  -6    1.92    1.86
   0   7  -6   -0.89    2.29
   0  -7   6   -1.79    1.54
   0  -7   6    0.14    1.73
   0  -7   6    0.26    1.40
   0  -7   6   -0.02    1.57
  -1   7  -6    0.58    1.88
  -1   7  -6   -0.03    2.46
   1  -7   6    2.66    2.13
   1  -7   6    2.82    1.73
   1  -7   6    0.37    1.67
   1  -7   6    1.41    1.53
  -2   7  -6   -1.47    1.68
  -2   7  -6    1.53    2.07
   2  -7   6   -1.26    1.92
   2  -7   6   -1.32    1.84
   2  -7   6   -0.60    1.57
  -3   7  -6    3.31    1.57
  -3   7  -6    3.49    2.21
  -3   7  -6    2.51    2.42
   3  -7   6    2.69    2.21
   3  -7   6    0.89    1.50
  -4   7  -6    4.67    2.55
  -4   7  -6    2.09    2.34
   4  -7   6    2.14    2.02
   4  -7   6    2.91    2.38
  -5   7  -6   -0.92    2.39
  -5   7  -6    1.75    1.94
   5  -7   6    4.40    2.21
   5  -7   6   -3.26    2.34
   7   6  -6    0.88    1.96
   7   6  -6    0.75    2.59
  -7  -6   6    2.05    2.57
  -7  -6   6    0.62    2.22
   6   6  -6    0.47    2.28
   6   6  -6    6.45    2.97
  -6  -6   6    1.09    2.08
  -6  -6   6    1.32    2.31
   5   6  -6   10.09    3.00
   5   6  -6    8.02    2.58
  -5  -6   6    9.04    2.41
  -5  -6   6    3.25    2.13
   4   6  -6    1.86    1.92
   4   6  -6    0.67    2.00
  -4  -6   6    1.58    1.87
  -4  -6   6   -0.60    1.22
  -4  -6   6    0.12    1.47
  -4  -6   6    1.38    1.93
   3   6  -6    5.99    2.56
   3   6  -6   11.03    2.23
   3   6  -6   10.30    2.40
  -3  -6   6   10.49    1.94
  -3  -6   6   10.23    1.95
  -3  -6   6    9.47    1.68
   2   6  -6    4.95    1.92
   2   6  -6    5.36    2.16
   2   6  -6    4.97    2.42
  -2  -6   6    4.45    1.48
  -2  -6   6    4.34    1.65
  -2  -6   6    3.93    1.85
   1   6  -6   12.74    2.95
   1   6  -6   15.88    2.25
   1   6  -6   18.55    2.45
  -1  -6   6   17.67    1.95
  -1  -6   6   11.12    1.81
  -1  -6   6   17.82    2.19
  -1  -6   6   12.09    2.00
   0   6  -6   10.09    1.82
   0   6  -6   14.58    2.33
   0   6  -6   10.29    2.49
   0  -6   6   14.82    1.93
   0  -6   6   11.49    1.94
   0  -6   6   11.18    2.09
   0  -6   6   13.31    2.14
  -1   6  -6   30.92    3.95
  -1   6  -6   31.43    3.04
  -1   6  -6   26.30    2.05
   1  -6   6   30.01    2.80
   1  -6   6   26.28    2.37
   1  -6   6   22.66    2.46
   1  -6   6   29.41    2.74
  -2   6  -6    3.41    1.89
  -2   6  -6    6.01    2.17
  -2   6  -6    4.87    1.83
   2  -6   6    2.94    1.50
   2  -6   6    5.99    1.71
   2  -6   6    3.29    1.90
   2  -6   6    3.37    1.76
  -3   6  -6    7.12    1.59
  -3   6  -6    5.51    2.60
  -3   6  -6    6.76    2.16
   3  -6   6    6.75    2.28
   3  -6   6    2.05    1.42
   3  -6   6    4.43    1.51
  -4   6  -6   13.24    2.65
  -4   6  -6   14.53    3.16
  -4   6  -6   14.02    1.99
   4  -6   6   13.62    2.65
   4  -6   6   10.59    1.92
   4  -6   6   13.85    2.40
  -5   6  -6   14.65    2.83
  -5   6  -6   13.39    3.06
   5  -6   6   14.56    2.89
   5  -6   6   15.71    2.59
  -6   6  -6    1.31    2.40
  -6   6  -6    2.28    2.44
   6  -6   6   -1.83    2.35
   6  -6   6    1.43    1.84
   7   5  -6    2.18    2.59
   7   5  -6    0.05    2.54
  -7  -5   6   -2.44    2.21
  -7  -5   6    0.78    2.43
   6   5  -6    6.52    2.61
   6   5  -6    5.16    2.70
  -6  -5   6   10.74    2.59
  -6  -5   6    5.11    2.17
   5   5  -6   13.76    3.10
   5   5  -6    9.78    2.62
  -5  -5   6    8.02    2.39
  -5  -5   6    6.77    1.74
   4   5  -6    7.11    2.38
   4   5  -6    8.18    2.65
  -4  -5   6   13.45    2.36
  -4  -5   6    8.56    1.76
  -4  -5   6    7.76    1.75
  -4  -5   6    9.25    1.65
   3   5  -6    9.88    2.35
   3   5  -6    9.40    2.59
  -3  -5   6    9.88    2.03
  -3  -5   6   14.70    2.07
  -3  -5   6   12.45    2.16
  -3  -5   6   14.19    1.86
   2   5  -6   20.67    2.17
   2   5  -6   24.18    3.28
   2   5  -6   16.90    2.62
  -2  -5   6   17.30    2.28
  -2  -5   6   17.65    2.04
  -2  -5   6   19.08    1.93
  -2  -5   6   22.56    2.34
   1   5  -6    1.68    1.18
   1   5  -6    2.31    1.67
   1   5  -6    0.07    1.52
  -1  -5   6    1.42    1.22
  -1  -5   6   -0.13    1.20
  -1  -5   6    2.16    1.49
  -1  -5   6    0.37    1.09
   0   5  -6   14.80    2.05
   0   5  -6   15.24    2.82
   0   5  -6   19.22    2.27
   0  -5   6   15.03    1.95
   0  -5   6   16.28    2.04
   0  -5   6   15.28    1.90
   0  -5   6   17.91    1.91
  -1   5  -6   24.61    2.22
  -1   5  -6   26.68    3.53
  -1   5  -6   30.26    2.70
   1  -5   6   25.61    2.21
   1  -5   6   19.72    2.02
   1  -5   6   29.91    2.54
   1  -5   6   26.84    1.95
  -2   5  -6   46.07    2.58
  -2   5  -6   43.75    2.93
  -2   5  -6   45.32    3.56
   2  -5   6   46.52    2.73
   2  -5   6   43.41    2.90
   2  -5   6   45.04    3.07
   2  -5   6   38.56    2.57
  -3   5  -6    0.88    2.18
  -3   5  -6    0.83    1.03
  -3   5  -6    1.52    1.59
   3  -5   6   -1.84    1.61
   3  -5   6    0.49    1.13
   3  -5   6    1.12    1.34
   3  -5   6    2.34    1.65
  -4   5  -6    1.08    1.82
  -4   5  -6    0.14    1.96
  -4   5  -6    0.43    1.14
  -4   5  -6    0.50    1.19
   4  -5   6    0.64    1.70
   4  -5   6    2.08    1.32
   4  -5   6    1.24    1.89
  -5   5  -6    6.37    2.61
  -5   5  -6    7.08    2.29
   5  -5   6   11.41    2.21
   5  -5   6    8.56    2.37
   5  -5   6    7.20    1.59
  -6   5  -6   15.04    2.84
  -6   5  -6    9.66    3.03
   6  -5   6   17.91    2.49
   6  -5   6   12.98    1.81
   6  -5   6   16.72    3.03
  -7   5  -6   -0.33    2.30
  -7   5  -6    1.85    2.58
   7  -5   6    1.44    2.51
   8   4  -6    0.21    2.16
   8   4  -6    2.28    2.70
  -8  -4   6    1.65    2.72
  -8  -4   6    1.69    2.30
   7   4  -6    8.59    3.12
   7   4  -6    7.77    2.79
   7   4  -6    3.07    2.37
  -7  -4   6    6.74    2.25
  -7  -4   6    3.85    2.56
   6   4  -6    4.95    2.19
   6   4  -6    3.66    1.90
   6   4  -6    7.53    2.70
  -6  -4   6    1.01    1.83
  -6  -4   6    6.50    1.99
   5   4  -6    5.19    1.64
   5   4  -6    6.84    2.04
   5   4  -6    6.25    2.48
  -5  -4   6    4.22    1.96
  -5  -4   6    8.10    1.90
   4   4  -6    0.90    2.00
   4   4  -6    1.49    1.85
   4   4  -6    0.05    1.27
  -4  -4   6    0.93    1.08
  -4  -4   6    0.03    1.61
  -4  -4   6   -0.41    1.57
  -4  -4   6    1.28    1.11
   3   4  -6    4.82    1.22
   3   4  -6    7.67    2.13
   3   4  -6    3.62    2.03
  -3  -4   6    3.82    1.64
  -3  -4   6    6.74    1.42
  -3  -4   6    5.27    1.54
  -3  -4   6    6.00    1.73
   2   4  -6   20.11    1.24
   2   4  -6   23.11    3.04
   2   4  -6   16.17    2.36
  -2  -4   6   22.05    1.90
  -2  -4   6   18.89    2.21
  -2  -4   6   27.80    2.47
  -2  -4   6   19.01    1.95
   1   4  -6   41.20    3.08
   1   4  -6   44.43    3.26
   1   4  -6   45.13    2.65
  -1  -4   6   39.22    2.59
  -1  -4   6   41.77    2.12
  -1  -4   6   46.95    2.48
  -1  -4   6   43.51    2.57
   0   4  -6   -0.82    1.16
   0   4  -6    1.42    1.15
   0   4  -6   -0.22    1.14
   0  -4   6    0.19    1.11
   0  -4   6    0.81    1.08
   0  -4   6   -1.73    1.06
   0  -4   6    0.99    1.09
  -1   4  -6   -0.49    1.14
  -1   4  -6   -2.57    1.62
  -1   4  -6   -0.66    1.08
   1  -4   6    0.26    1.25
   1  -4   6   -0.22    1.05
   1  -4   6   -0.78    1.10
   1  -4   6   -1.40    0.97
  -2   4  -6   26.36    3.37
  -2   4  -6   27.80    2.21
  -2   4  -6   32.69    2.28
   2  -4   6   27.68    2.11
   2  -4   6   25.96    2.15
   2  -4   6   24.95    1.38
   2  -4   6   27.93    2.27
   2  -4   6   24.80    2.32
  -3   4  -6   23.37    1.98
  -3   4  -6   19.12    3.10
  -3   4  -6   26.90    2.53
   3  -4   6   18.42    2.25
   3  -4   6   19.70    1.71
   3  -4   6   15.99    1.85
   3  -4   6   25.87    2.12
   3  -4   6   19.97    1.49
  -4   4  -6    1.36    1.69
  -4   4  -6    3.42    1.14
  -4   4  -6    3.69    1.38
  -4   4  -6    5.84    1.83
   4  -4   6    4.02    1.61
   4  -4   6    2.85    1.18
   4  -4   6    3.93    1.45
   4  -4   6    3.76    1.34
  -5   4  -6   -0.56    1.66
  -5   4  -6    1.67    2.10
  -5   4  -6    0.49    1.32
   5  -4   6    0.57    1.62
   5  -4   6    0.20    1.38
   5  -4   6   -1.13    1.09
   5  -4   6   -0.09    1.19
  -6   4  -6    4.73    2.26
  -6   4  -6    6.93    1.78
  -6   4  -6    6.75    2.66
   6  -4   6    6.43    1.79
   6  -4   6    4.73    1.49
   6  -4   6    5.70    2.35
   6  -4   6    8.47    2.08
  -7   4  -6    3.72    2.71
  -7   4  -6    2.76    2.70
   7  -4   6    1.06    2.34
   7  -4   6    0.54    1.85
  -8   4  -6   -0.67    2.46
  -8   4  -6    1.45    2.18
   8  -4   6    0.01    2.59
   8  -4   6    2.34    3.24
   8   3  -6   -5.58    2.17
   8   3  -6    1.93    2.83
   8   3  -6   -0.54    2.83
  -8  -3   6    5.38    2.94
  -8  -3   6   -4.85    1.86
   7   3  -6   -2.86    2.45
   7   3  -6    3.80    2.72
   7   3  -6    0.32    2.22
  -7  -3   6   -1.56    1.81
  -7  -3   6   -5.19    2.12
   6   3  -6   -1.32    1.86
   6   3  -6   -2.71    1.94
   6   3  -6   -0.71    2.22
  -6  -3   6   -3.11    1.65
  -6  -3   6    0.58    2.07
   5   3  -6   -0.74    1.47
   5   3  -6   -0.82    1.99
   5   3  -6   -0.86    1.77
  -5  -3   6    1.70    1.61
  -5  -3   6    1.15    1.85
   4   3  -6    7.52    1.81
   4   3  -6    6.33    2.12
   4   3  -6    5.62    2.31
  -4  -3   6    5.94    1.74
  -4  -3   6    8.38    1.39
  -4  -3   6    9.35    1.76
  -4  -3   6    7.49    1.23
   3   3  -6    3.72    1.50
   3   3  -6    3.36    0.89
   3   3  -6    5.05    1.36
   3   3  -6    5.30    1.97
  -3  -3   6    4.40    1.26
  -3  -3   6    4.61    1.55
  -3  -3   6    3.96    1.04
  -3  -3   6    2.54    1.47
   2   3  -6   21.50    2.25
   2   3  -6   25.17    1.64
   2   3  -6   23.79    1.60
   2   3  -6   20.84    2.70
  -2  -3   6   24.90    1.94
  -2  -3   6   23.10    1.78
  -2  -3   6   23.54    2.26
  -2  -3   6   23.27    2.03
   1   3  -6    0.46    0.65
   1   3  -6    0.46    1.48
   1   3  -6   -1.77    1.30
   1   3  -6    0.71    0.51
  -1  -3   6    0.81    1.12
  -1  -3   6   -0.09    0.92
  -1  -3   6   -0.04    1.02
  -1  -3   6   -0.06    0.98
  -1  -3   6    0.64    0.67
   0   3  -6   12.55    0.65
   0   3  -6   17.80    1.74
   0   3  -6   13.69    2.35
   0   3  -6   11.72    2.01
   0  -3   6   14.42    1.54
   0  -3   6   14.82    1.69
   0  -3   6   13.60    1.29
   0  -3   6   13.62    1.60
  -1   3  -6   32.06    2.01
  -1   3  -6   34.76    3.07
  -1   3  -6   33.39    2.51
   1  -3   6   34.85    1.93
   1  -3   6   34.05    1.26
   1  -3   6   33.61    1.88
   1  -3   6   32.74    1.94
   1  -3   6   34.14    2.00
  -2   3  -6   16.37    2.65
  -2   3  -6   18.06    1.79
  -2   3  -6   20.17    1.87
   2  -3   6   18.05    1.72
   2  -3   6   17.22    1.09
   2  -3   6   17.66    1.68
   2  -3   6   15.14    1.70
   2  -3   6   19.34    1.71
  -3   3  -6   10.01    2.54
  -3   3  -6    8.24    1.61
  -3   3  -6    3.14    1.23
   3  -3   6    1.48    0.85
   3  -3   6    3.26    1.34
   3  -3   6    2.12    0.85
   3  -3   6    3.57    1.17
   3  -3   6    2.43    1.05
  -4   3  -6    0.58    2.02
  -4   3  -6    3.43    1.67
  -4   3  -6    2.42    1.42
   4  -3   6    0.50    1.08
   4  -3   6    1.16    0.89
   4  -3   6    1.25    1.15
   4  -3   6   -0.12    1.27
   4  -3   6    0.15    1.01
  -5   3  -6   11.28    2.68
  -5   3  -6    7.98    2.01
  -5   3  -6   14.00    2.06
   5  -3   6   14.67    1.91
   5  -3   6    9.45    1.65
   5  -3   6   12.82    2.18
   5  -3   6   13.76    2.05
  -6   3  -6   12.47    2.90
  -6   3  -6   15.98    2.29
  -6   3  -6   14.96    2.43
   6  -3   6   13.36    2.40
   6  -3   6   12.80    1.72
   6  -3   6   16.68    2.07
   6  -3   6   17.15    2.35
  -7   3  -6   -0.47    1.95
  -7   3  -6    0.53    1.61
  -7   3  -6    2.90    2.40
   7  -3   6    0.82    2.65
   7  -3   6    0.82    1.80
   7  -3   6   -0.67    2.07
  -8   3  -6    3.02    2.84
  -8   3  -6    0.64    1.95
  -8   3  -6   -3.21    2.47
   8  -3   6   -0.55    2.07
   8  -3   6   -3.29    2.33
   8   2  -6    1.42    2.76
   8   2  -6   -6.65    2.42
   8   2  -6    1.59    2.96
  -8  -2   6   -0.26    2.57
  -8  -2   6   -1.09    2.81
   7   2  -6   -0.06    2.40
   7   2  -6   -0.46    2.24
   7   2  -6   -0.42    2.53
  -7  -2   6   -1.06    1.98
  -7  -2   6   -4.28    2.19
   6   2  -6    6.21    2.31
   6   2  -6    7.35    2.68
   6   2  -6    9.82    2.69
  -6  -2   6    9.30    2.44
  -6  -2   6    5.61    1.98
   5   2  -6   15.27    2.77
   5   2  -6   15.59    2.39
   5   2  -6   16.80    2.91
  -5  -2   6   14.50    2.39
  -5  -2   6   10.45    2.07
   4   2  -6   -1.02    1.71
   4   2  -6   -0.13    1.59
   4   2  -6    0.58    0.78
   4   2  -6    0.32    1.45
  -4  -2   6   -0.06    0.83
  -4  -2   6   -0.87    1.42
  -4  -2   6   -1.76    1.45
  -4  -2   6   -1.22    0.88
   3   2  -6    1.12    0.82
   3   2  -6    2.58    1.69
   3   2  -6    1.87    1.41
   3   2  -6    1.01    1.64
  -3  -2   6    1.66    1.40
  -3  -2   6    1.92    0.96
  -3  -2   6   -0.17    1.04
  -3  -2   6    1.11    1.30
   2   2  -6   71.17    3.11
   2   2  -6   74.79    4.26
   2   2  -6   68.47    3.69
   2   2  -6   70.86    2.85
  -2  -2   6   75.21    3.24
  -2  -2   6   76.05    3.02
  -2  -2   6   74.61    3.45
  -2  -2   6   81.15    3.14
   1   2  -6   63.17    3.55
   1   2  -6   63.08    2.58
   1   2  -6   68.02    2.54
   1   2  -6   61.87    3.59
  -1  -2   6   69.00    2.74
  -1  -2   6   68.55    2.86
  -1  -2   6   66.03    2.81
  -1  -2   6   63.09    3.00
  -1  -2   6   57.73    2.08
   0   2  -6    1.40    1.33
   0   2  -6    2.73    0.59
   0   2  -6    1.29    0.84
   0   2  -6    1.13    1.39
   0  -2   6    1.37    0.95
   0  -2   6    1.49    1.03
   0  -2   6    2.25    0.70
   0  -2   6    1.73    0.92
   0  -2   6    2.30    0.92
  -1   2  -6    0.19    1.15
  -1   2  -6   -0.53    1.05
  -1   2  -6    0.10    0.74
  -1   2  -6    0.17    0.49
  -1   2  -6    0.14    0.74
   1  -2   6   -0.20    0.67
   1  -2   6   -0.46    0.62
   1  -2   6    1.49    0.91
   1  -2   6   -0.05    0.63
  -2   2  -6   67.75    2.94
  -2   2  -6   76.50    3.55
  -2   2  -6   75.02    2.97
  -2   2  -6   73.04    4.18
   2  -2   6   74.21    3.08
   2  -2   6   78.66    2.93
   2  -2   6   73.76    3.04
   2  -2   6   79.46    3.24
  -3   2  -6   78.26    3.65
  -3   2  -6   78.39    4.23
  -3   2  -6   76.74    3.22
   3  -2   6   80.13    3.02
   3  -2   6   80.63    3.26
   3  -2   6   79.50    3.38
   3  -2   6   81.24    3.42
   3  -2   6   81.63    2.96
  -4   2  -6    6.67    1.59
  -4   2  -6    0.58    1.90
  -4   2  -6    4.22    1.40
   4  -2   6    6.07    1.24
   4  -2   6    4.93    1.24
   4  -2   6    4.63    0.85
   4  -2   6    4.76    1.43
   4  -2   6    6.21    1.39
  -5   2  -6   -2.36    1.79
  -5   2  -6   -1.31    1.26
  -5   2  -6    0.51    1.30
   5  -2   6    1.29    1.10
   5  -2   6   -0.23    1.43
   5  -2   6    1.46    1.32
   5  -2   6    0.08    1.09
  -6   2  -6   37.42    3.73
  -6   2  -6   37.24    2.92
  -6   2  -6   36.52    3.05
   6  -2   6   39.07    3.08
   6  -2   6   41.76    2.82
   6  -2   6   39.57    2.84
  -7   2  -6   15.31    2.52
  -7   2  -6   10.05    2.52
  -7   2  -6    3.74    1.93
   7  -2   6   11.77    2.46
   7  -2   6   12.64    2.31
   7  -2   6   11.74    1.88
  -8   2  -6    2.50    2.13
  -8   2  -6   -0.43    2.31
  -8   2  -6    2.86    2.08
   8  -2   6    1.22    2.24
   8  -2   6    2.06    2.16
  -9   2  -6    1.28    2.41
  -9   2  -6    2.66    2.32
   9  -2   6    2.15    2.41
   9  -2   6   -0.94    2.57
   8   1  -6    8.11    3.43
   8   1  -6    1.85    3.08
  -8  -1   6    8.22    3.09
  -8  -1   6    1.27    2.72
   7   1  -6   -1.68    2.37
   7   1  -6    1.12    2.56
  -7  -1   6    2.53    2.03
  -7  -1   6    1.53    2.34
  -7  -1   6    0.40    2.17
   6   1  -6    0.70    1.74
   6   1  -6    0.04    2.23
   6   1  -6   -1.31    1.98
  -6  -1   6   -0.70    2.02
  -6  -1   6    1.06    1.57
  -6  -1   6   -1.07    1.74
   5   1  -6   47.28    4.04
   5   1  -6   42.27    3.27
   5   1  -6   52.84    3.65
  -5  -1   6   41.91    3.31
   4   1  -6   41.67    3.48
   4   1  -6   42.27    3.06
   4   1  -6   30.10    1.75
   4   1  -6   36.80    3.08
  -4  -1   6   36.91    2.02
  -4  -1   6   37.78    2.83
  -4  -1   6   35.64    2.73
  -4  -1   6   32.62    1.82
   3   1  -6    0.96    0.70
   3   1  -6    3.36    1.70
   3   1  -6    2.29    1.43
   3   1  -6    0.79    1.52
  -3  -1   6    2.19    1.08
  -3  -1   6    3.88    1.44
  -3  -1   6    1.33    0.85
  -3  -1   6    0.84    0.97
   2   1  -6    4.78    1.33
   2   1  -6    4.06    0.88
   2   1  -6    4.16    1.74
   2   1  -6    5.49    1.35
  -2  -1   6    4.48    1.00
  -2  -1   6    4.49    1.22
  -2  -1   6    2.99    1.25
  -2  -1   6    3.49    0.87
   1   1  -6  131.89    5.33
   1   1  -6  129.11    5.67
   1   1  -6  133.70    4.60
   1   1  -6  142.07    4.45
  -1  -1   6  133.98    4.57
  -1  -1   6  137.05    4.51
  -1  -1   6  135.96    4.57
  -1  -1   6  135.13    3.91
  -1  -1   6  133.89    4.79
   0   1  -6  100.42    4.39
   0   1  -6   93.38    3.41
   0   1  -6  101.88    4.68
   0   1  -6   95.28    3.33
   0  -1   6   93.40    3.36
   0  -1   6   96.64    3.68
   0  -1   6   94.52    3.08
   0  -1   6   95.89    3.48
   0  -1   6   93.38    3.59
  -1   1  -6    1.87    0.81
  -1   1  -6    2.97    0.83
  -1   1  -6    1.00    1.34
  -1   1  -6    2.66    0.73
  -1   1  -6    2.14    1.26
   1  -1   6    0.93    0.83
   1  -1   6    1.98    0.97
   1  -1   6    2.48    0.95
   1  -1   6    2.21    0.79
  -2   1  -6    3.63    1.37
  -2   1  -6    0.64    0.71
  -2   1  -6    1.36    1.14
  -2   1  -6    1.52    0.78
  -2   1  -6    0.69    0.64
   2  -1   6    1.24    0.74
   2  -1   6    1.82    0.94
   2  -1   6    1.39    0.88
   2  -1   6    0.70    0.91
  -3   1  -6   93.46    3.34
  -3   1  -6   89.02    3.98
  -3   1  -6   89.04    3.33
  -3   1  -6   85.47    3.31
  -3   1  -6   90.87    4.58
   3  -1   6   93.85    3.60
   3  -1   6   89.38    3.42
   3  -1   6   90.46    3.09
   3  -1   6   87.10    3.53
  -4   1  -6   51.93    2.49
  -4   1  -6   52.47    3.04
  -4   1  -6   45.98    3.49
   4  -1   6   49.79    1.90
   4  -1   6   48.54    2.42
   4  -1   6   47.40    2.57
   4  -1   6   49.66    2.70
   4  -1   6   52.60    2.48
  -5   1  -6    0.81    1.29
  -5   1  -6   -0.50    1.37
  -5   1  -6    0.22    1.33
   5  -1   6   -0.24    1.28
   5  -1   6   -1.23    0.93
   5  -1   6   -1.47    1.09
   5  -1   6   -1.75    1.11
  -6   1  -6    1.12    1.50
  -6   1  -6    1.92    2.13
  -6   1  -6    0.98    1.54
   6  -1   6    1.32    1.21
   6  -1   6    1.40    1.24
   6  -1   6    2.58    1.19
   6  -1   6    2.24    1.52
  -7   1  -6    5.67    2.18
  -7   1  -6    4.73    1.68
  -7   1  -6   13.41    2.48
   7  -1   6    7.23    1.23
   7  -1   6    7.11    2.06
   7  -1   6    6.30    1.97
   7  -1   6    9.42    1.55
  -8   1  -6    6.45    2.35
  -8   1  -6    7.32    2.18
  -8   1  -6    8.44    2.37
   8  -1   6    6.21    2.27
   8  -1   6    9.78    2.48
  -9   1  -6    2.63    2.30
  -9   1  -6    2.37    2.78
   9  -1   6    3.32    2.61
   9  -1   6   -0.19    2.35
   8   0  -6    4.60    3.27
   8   0  -6   -2.02    3.01
  -8   0   6    3.31    2.88
  -8   0   6    4.46    2.86
   7   0  -6    4.07    2.92
   7   0  -6    7.26    3.11
  -7   0   6    8.97    2.76
  -7   0   6    1.52    2.25
  -7   0   6    9.85    2.89
   6   0  -6   -2.08    2.19
   6   0  -6    0.30    2.37
  -6   0   6   -2.07    1.60
  -6   0   6   -1.76    1.90
  -6   0   6    0.45    2.10
   5   0  -6   -1.42    1.90
   5   0  -6    0.11    1.50
  -5   0   6   -1.38    1.62
  -5   0   6    2.01    1.70
  -5   0   6   -0.13    1.77
   4   0  -6   11.51    2.36
   4   0  -6   13.43    2.31
   4   0  -6   10.09    2.35
  -4   0   6   10.19    1.93
  -4   0   6   13.78    2.11
  -4   0   6    8.44    1.18
  -4   0   6    8.93    1.05
   3   0  -6   52.69    3.23
   3   0  -6   52.83    3.20
   3   0  -6   48.62    2.03
   3   0  -6   50.51    3.68
  -3   0   6   54.53    3.04
  -3   0   6   54.45    2.44
  -3   0   6   50.11    2.27
  -3   0   6   51.09    2.79
   2   0  -6    1.20    1.24
   2   0  -6    2.98    0.70
   2   0  -6    4.41    1.42
   2   0  -6    2.84    1.33
  -2   0   6    2.63    1.11
  -2   0   6    2.72    1.21
  -2   0   6    3.36    0.89
  -2   0   6    2.31    0.94
   1   0  -6    2.74    1.61
   1   0  -6    4.30    0.81
   1   0  -6    3.41    1.14
   1   0  -6    5.18    1.37
  -1   0   6    4.33    0.88
  -1   0   6    4.00    0.95
  -1   0   6    3.99    0.54
  -1   0   6    4.75    0.98
  -1   0   6    3.17    1.11
   0   0  -6   50.51    2.96
   0   0  -6   52.52    3.32
   0   0  -6   57.94    2.48
   0   0  -6   55.09    2.32
   0   0   6   54.49    2.22
   0   0   6   56.12    2.47
   0   0   6   55.90    2.38
   0   0   6   57.75    2.04
   0   0   6   55.95    2.59
  -1   0  -6   55.13    3.45
  -1   0  -6   45.63    2.15
  -1   0  -6   46.92    2.19
  -1   0  -6   56.53    3.27
   1   0   6   48.62    2.01
   1   0   6   50.48    2.27
   1   0   6   49.25    1.92
   1   0   6   49.12    2.32
   1   0   6   47.44    2.24
  -2   0  -6    6.84    1.07
  -2   0  -6    7.36    1.08
  -2   0  -6    7.34    1.85
  -2   0  -6    8.88    0.85
  -2   0  -6    5.92    1.50
   2   0   6    5.57    1.03
   2   0   6    6.46    1.04
   2   0   6    6.90    1.04
   2   0   6    5.53    0.96
  -3   0  -6    3.83    0.80
  -3   0  -6    4.69    1.67
  -3   0  -6    4.41    1.29
  -3   0  -6    3.99    0.93
  -3   0  -6    3.75    0.95
   3   0   6    4.90    0.82
   3   0   6    4.42    0.91
   3   0   6    4.39    0.85
   3   0   6    4.43    1.06
  -4   0  -6    4.40    0.99
  -4   0  -6    5.73    1.84
  -4   0  -6    6.65    1.26
  -4   0  -6    4.22    0.90
  -4   0  -6    8.77    1.65
   4   0   6    6.14    1.25
   4   0   6    8.23    1.30
   4   0   6    7.74    1.14
   4   0   6    7.67    0.70
  -5   0  -6    2.25    1.98
  -5   0  -6    6.57    1.72
  -5   0  -6    3.97    1.13
   5   0   6    5.98    1.33
   5   0   6    4.24    1.34
   5   0   6    5.59    1.23
   5   0   6    4.65    1.16
  -6   0  -6    1.23    1.22
  -6   0  -6   -1.68    1.19
  -6   0  -6   -0.90    1.96
   6   0   6    0.56    1.32
   6   0   6    0.86    1.50
   6   0   6   -0.51    1.39
   6   0   6    3.43    1.19
  -7   0  -6   -0.40    1.26
  -7   0  -6   -0.44    2.15
  -7   0  -6    0.42    1.25
   7   0   6    1.93    1.74
   7   0   6    0.97    1.04
   7   0   6   -1.24    1.60
   7   0   6    0.43    1.14
  -8   0  -6    1.51    1.99
  -8   0  -6    2.38    1.97
  -8   0  -6    1.31    2.45
   8   0   6   -0.72    1.98
   8   0   6   -0.93    1.91
  -9   0  -6    0.00    2.20
  -9   0  -6   -0.39    1.96
   9   0   6    0.30    2.31
   9   0   6    0.35    1.79
   7  -1  -6    1.04    2.17
   7  -1  -6   -3.16    2.53
  -7   1   6    0.45    2.44
  -7   1   6    1.96    2.28
  -7   1   6   -0.25    1.96
   6  -1  -6    2.77    2.03
   6  -1  -6    1.17    2.50
  -6   1   6    3.09    2.15
  -6   1   6    2.95    2.22
  -6   1   6    2.07    2.19
   5  -1  -6    5.55    2.08
   5  -1  -6    6.48    2.53
  -5   1   6    7.90    2.00
  -5   1   6    7.68    2.14
  -5   1   6    5.18    2.03
   4  -1  -6   19.16    2.95
   4  -1  -6   18.37    2.70
   4  -1  -6   20.84    1.47
  -4   1   6   21.30    2.65
  -4   1   6   19.07    1.55
  -4   1   6   14.54    1.90
  -4   1   6   14.05    2.11
  -4   1   6   12.35    1.20
   3  -1  -6    2.09    0.65
   3  -1  -6    4.13    1.61
   3  -1  -6    2.68    1.74
   3  -1  -6    3.48    0.81
   3  -1  -6    2.75    1.44
  -3   1   6    2.21    1.39
  -3   1   6    5.31    1.48
  -3   1   6    3.77    0.90
  -3   1   6    3.30    1.03
   2  -1  -6    9.02    1.87
   2  -1  -6   13.92    1.77
   2  -1  -6   11.39    0.99
   2  -1  -6   13.63    2.00
   2  -1  -6   10.80    1.03
  -2   1   6   14.22    1.24
  -2   1   6   14.50    1.35
  -2   1   6   16.14    1.64
  -2   1   6   11.38    1.49
   1  -1  -6   39.60    1.79
   1  -1  -6   38.77    2.36
   1  -1  -6   37.20    3.15
   1  -1  -6   34.62    2.39
   1  -1  -6   38.98    1.65
  -1   1   6   41.49    1.87
  -1   1   6   34.15    2.06
  -1   1   6   37.79    1.89
  -1   1   6   40.78    1.96
   0  -1  -6   37.70    3.22
   0  -1  -6   36.03    1.68
   0  -1  -6   33.14    1.73
   0  -1  -6   36.27    2.16
   0  -1  -6   37.57    2.29
   0   1   6   35.59    1.65
   0   1   6   32.03    2.04
   0   1   6   38.45    1.93
   0   1   6   33.84    1.80
  -1  -1  -6    0.93    0.90
  -1  -1  -6    4.22    1.75
  -1  -1  -6    4.99    1.66
  -1  -1  -6    1.45    0.78
   1   1   6    0.34    0.50
   1   1   6    0.75    0.67
   1   1   6    0.79    0.85
   1   1   6    1.14    0.66
   1   1   6    0.50    0.62
  -2  -1  -6    0.82    0.29
  -2  -1  -6    0.62    0.99
  -2  -1  -6    0.34    1.26
  -2  -1  -6    0.85    0.34
  -2  -1  -6    1.45    0.76
  -2  -1  -6    1.40    0.71
   2   1   6    0.71    0.78
   2   1   6    1.38    0.88
   2   1   6    1.26    0.78
   2   1   6    1.23    0.70
  -3  -1  -6   34.12    2.46
  -3  -1  -6   35.77    1.99
  -3  -1  -6   31.93    2.41
  -3  -1  -6   31.14    1.80
  -3  -1  -6   32.91    1.04
  -3  -1  -6   30.07    1.04
   3   1   6   36.09    1.63
   3   1   6   31.37    1.76
   3   1   6   35.06    1.93
   3   1   6   34.82    1.73
  -4  -1  -6    4.47    0.61
  -4  -1  -6    3.96    0.93
  -4  -1  -6    6.30    1.29
  -4  -1  -6    4.78    1.62
  -4  -1  -6    6.33    1.57
   4   1   6    6.36    1.24
   4   1   6    6.69    1.07
   4   1   6    4.59    0.96
   4   1   6    5.70    0.68
  -5  -1  -6    2.64    1.90
  -5  -1  -6    2.66    1.50
  -5  -1  -6    4.74    1.41
  -5  -1  -6    3.10    0.90
  -5  -1  -6    2.17    0.87
   5   1   6    2.87    1.30
   5   1   6    3.08    1.02
   5   1   6    5.04    1.23
  -6  -1  -6    2.35    1.60
  -6  -1  -6    2.17    2.02
  -6  -1  -6    0.71    0.97
   6   1   6   -0.13    1.10
   6   1   6    1.73    0.97
   6   1   6    1.20    1.37
   6   1   6    0.61    1.06
  -7  -1  -6    2.86    1.29
  -7  -1  -6    4.49    2.40
  -7  -1  -6    5.64    2.02
   7   1   6    3.77    1.76
   7   1   6    6.08    1.53
   7   1   6    2.37    1.36
   7   1   6    5.01    1.16
  -8  -1  -6    2.63    1.68
  -8  -1  -6    2.33    1.95
   8   1   6    1.65    2.01
   8   1   6    3.18    2.13
  -9  -1  -6    7.60    2.66
  -9  -1  -6    3.45    2.99
   9   1   6    5.92    2.04
   9   1   6    4.41    2.42
 -10  -1  -6    1.74    2.36
 -10  -1  -6    2.47    3.27
  10   1   6   -0.89    2.60
  10   1   6    3.75    2.63
   7  -2  -6    5.33    3.24
   7  -2  -6    3.63    3.32
  -7   2   6    2.76    2.19
  -7   2   6    2.44    2.58
  -7   2   6    4.32    2.40
   6  -2  -6   -0.74    2.45
   6  -2  -6   -4.07    2.46
  -6   2   6   -1.88    1.74
  -6   2   6    0.69    1.92
  -6   2   6   -0.87    2.16
   5  -2  -6   -0.97    2.09
   5  -2  -6   -2.70    1.48
  -5   2   6   -0.48    1.66
  -5   2   6   -0.11    1.58
  -5   2   6    2.23    2.00
   4  -2  -6   54.51    2.61
   4  -2  -6   52.04    4.25
   4  -2  -6   44.80    3.38
  -4   2   6   55.59    3.29
  -4   2   6   48.08    3.16
   3  -2  -6   25.94    2.93
   3  -2  -6   26.80    1.80
   3  -2  -6   30.87    3.37
   3  -2  -6   26.71    1.54
  -3   2   6   29.45    2.27
  -3   2   6   25.31    1.73
  -3   2   6   27.70    1.63
  -3   2   6   27.26    2.44
   2  -2  -6    5.31    1.29
   2  -2  -6    0.46    1.52
   2  -2  -6    2.97    0.88
   2  -2  -6    3.54    1.87
   2  -2  -6    3.33    0.80
  -2   2   6    4.01    1.18
  -2   2   6    1.67    0.94
  -2   2   6    5.06    0.96
  -2   2   6    3.48    1.31
   1  -2  -6    1.86    0.72
   1  -2  -6    4.33    1.49
   1  -2  -6    3.40    1.08
   1  -2  -6    2.42    0.76
   1  -2  -6    4.08    1.75
  -1   2   6    3.02    0.77
  -1   2   6    4.16    0.93
  -1   2   6    5.77    1.11
  -1   2   6    3.41    1.14
   0  -2  -6   69.82    3.08
   0  -2  -6   73.80    2.78
   0  -2  -6   67.31    4.15
   0  -2  -6   68.92    2.69
   0  -2  -6   76.91    3.40
   0   2   6   72.19    2.86
   0   2   6   67.15    2.93
   0   2   6   75.42    2.80
   0   2   6   71.49    2.59
  -1  -2  -6   49.12    2.43
  -1  -2  -6   50.38    2.21
  -1  -2  -6   48.16    3.28
  -1  -2  -6   49.77    2.61
  -1  -2  -6   49.02    2.07
   1   2   6   47.83    2.28
   1   2   6   51.09    2.36
   1   2   6   50.10    2.22
   1   2   6   49.03    1.75
  -2  -2  -6   29.45    1.98
  -2  -2  -6   26.22    1.91
  -2  -2  -6   28.56    1.66
  -2  -2  -6   27.62    2.39
   2   2   6   29.15    1.72
   2   2   6   26.46    1.59
   2   2   6   28.20    1.56
   2   2   6   31.34    1.66
  -3  -2  -6   16.01    1.65
  -3  -2  -6   16.18    1.22
  -3  -2  -6   16.97    1.69
  -3  -2  -6   20.55    2.09
   3   2   6   17.83    1.47
   3   2   6   18.08    1.36
   3   2   6   16.04    1.51
   3   2   6   17.76    1.17
  -4  -2  -6   35.02    1.93
  -4  -2  -6   36.73    2.50
  -4  -2  -6   38.81    2.33
  -4  -2  -6   38.64    2.54
   4   2   6   34.21    2.07
   4   2   6   34.18    1.95
   4   2   6   33.46    1.96
   4   2   6   35.00    1.55
  -5  -2  -6   30.81    2.79
  -5  -2  -6   29.70    2.70
  -5  -2  -6   30.74    1.39
  -5  -2  -6   34.12    2.41
   5   2   6   29.68    2.23
   5   2   6   33.88    2.06
   5   2   6   29.42    1.15
   5   2   6   31.37    2.05
  -6  -2  -6   36.58    2.95
  -6  -2  -6   53.23    3.67
   6   2   6   49.95    3.06
   6   2   6   47.50    2.66
   6   2   6   45.40    2.41
   6   2   6   47.46    2.93
  -7  -2  -6    3.35    2.26
  -7  -2  -6    7.10    2.10
   7   2   6    2.86    1.70
   7   2   6    3.10    1.26
   7   2   6    3.10    1.09
   7   2   6    5.86    1.62
  -8  -2  -6    4.33    2.23
  -8  -2  -6    4.99    2.68
   8   2   6    0.95    1.98
   8   2   6    3.62    2.07
  -9  -2  -6    1.87    2.40
  -9  -2  -6   -1.40    2.58
   9   2   6    4.39    2.35
   9   2   6   -1.17    2.22
 -10  -2  -6   -1.04    2.99
 -10  -2  -6    6.82    2.97
  10   2   6    4.62    2.63
  10   2   6    5.77    2.90
   7  -3  -6    3.16    3.25
   7  -3  -6   -0.83    2.91
  -7   3   6   11.45    3.17
  -7   3   6    7.50    2.46
   6  -3  -6    6.94    2.67
   6  -3  -6    1.92    2.86
  -6   3   6   10.10    2.65
  -6   3   6    8.96    2.27
  -6   3   6    7.90    2.21
   5  -3  -6   -2.59    2.66
   5  -3  -6   -4.10    2.21
   5  -3  -6   -0.49    1.42
  -5   3   6    1.13    1.93
  -5   3   6    1.25    1.75
  -5   3   6    0.43    1.52
   4  -3  -6    0.86    1.18
   4  -3  -6    0.55    2.20
   4  -3  -6    3.63    2.36
  -4   3   6   -0.59    1.49
  -4   3   6   -0.67    1.20
  -4   3   6    2.04    1.73
   3  -3  -6   42.47    3.43
   3  -3  -6   41.01    3.80
   3  -3  -6   37.63    2.29
  -3   3   6   39.25    2.10
  -3   3   6   36.21    2.80
  -3   3   6   38.24    2.62
  -3   3   6   38.50    2.53
  -3   3   6   35.30    1.90
   2  -3  -6   20.68    2.95
   2  -3  -6   10.05    1.14
   2  -3  -6   15.53    1.68
   2  -3  -6   13.56    1.49
   2  -3  -6   14.49    2.41
  -2   3   6   12.53    1.30
  -2   3   6   11.61    1.18
  -2   3   6   14.47    1.70
  -2   3   6   10.13    1.73
   1  -3  -6   10.61    1.13
   1  -3  -6   13.39    1.29
   1  -3  -6   11.87    1.34
   1  -3  -6   12.38    2.39
   1  -3  -6   13.02    2.18
  -1   3   6   13.25    1.22
  -1   3   6   12.00    1.31
  -1   3   6    8.51    1.48
  -1   3   6   13.24    1.37
   0  -3  -6    1.52    0.83
   0  -3  -6    2.03    1.31
   0  -3  -6    1.07    0.85
   0  -3  -6    1.87    1.78
   0  -3  -6    1.65    0.74
   0   3   6    1.33    0.98
   0   3   6    1.29    0.69
   0   3   6    2.16    0.79
   0   3   6    1.25    0.83
  -1  -3  -6   42.81    2.18
  -1  -3  -6   41.22    2.40
  -1  -3  -6   45.78    3.16
  -1  -3  -6   42.68    1.94
  -1  -3  -6   44.58    1.80
   1   3   6   45.81    2.31
   1   3   6   43.40    1.66
   1   3   6   42.02    2.18
   1   3   6   44.14    1.78
   1   3   6   44.57    2.10
  -2  -3  -6    5.10    0.85
  -2  -3  -6    3.71    0.85
  -2  -3  -6    5.67    1.29
  -2  -3  -6    5.34    1.46
  -2  -3  -6    4.83    1.10
   2   3   6    4.67    0.94
   2   3   6    3.82    0.98
   2   3   6    3.16    0.94
   2   3   6    4.22    0.36
  -3  -3  -6   18.01    1.54
  -3  -3  -6   19.52    1.58
  -3  -3  -6   16.63    1.46
  -3  -3  -6   17.00    2.07
   3   3   6   19.17    1.65
   3   3   6   18.97    1.34
   3   3   6   17.01    1.46
   3   3   6   19.10    1.57
  -4  -3  -6    7.77    1.53
  -4  -3  -6    8.21    1.33
  -4  -3  -6    8.55    1.49
   4   3   6    8.39    1.31
   4   3   6    7.34    0.98
   4   3   6    9.54    1.20
   4   3   6   11.00    1.49
  -5  -3  -6   13.77    1.92
  -5  -3  -6   11.73    0.74
  -5  -3  -6   11.04    2.04
  -5  -3  -6    9.78    1.92
   5   3   6   11.29    1.64
   5   3   6   12.10    1.02
   5   3   6   11.19    1.53
   5   3   6   12.37    1.37
  -6  -3  -6    5.33    1.00
  -6  -3  -6    5.39    1.40
  -6  -3  -6    4.75    2.01
  -6  -3  -6    5.12    1.84
   6   3   6    3.31    1.45
   6   3   6    5.56    1.34
   6   3   6    4.91    1.24
  -7  -3  -6    1.61    2.18
  -7  -3  -6    2.70    1.88
   7   3   6    2.64    1.35
   7   3   6    2.69    1.70
   7   3   6    4.15    1.30
   7   3   6    3.39    1.02
  -8  -3  -6    9.23    2.26
  -8  -3  -6    5.00    2.69
   8   3   6    8.43    2.38
   8   3   6   11.24    2.37
  -9  -3  -6   -0.87    2.19
  -9  -3  -6   -2.55    2.67
   9   3   6    2.36    2.28
   9   3   6   -0.26    2.20
 -10  -3  -6    3.02    2.74
 -10  -3  -6    0.88    3.09
  10   3   6    2.76    2.68
  10   3   6    1.43    2.52
   6  -4  -6    1.21    3.15
   6  -4  -6    0.06    2.85
  -6   4   6    1.58    2.34
  -6   4   6    3.43    2.05
   5  -4  -6    2.24    2.11
   5  -4  -6    5.42    1.79
   5  -4  -6    5.48    3.12
  -5   4   6    2.22    2.10
  -5   4   6    2.17    1.82
   4  -4  -6    1.48    2.31
   4  -4  -6    0.09    1.45
   4  -4  -6    0.36    1.72
  -4   4   6    0.43    1.67
  -4   4   6    1.09    1.75
  -4   4   6    2.23    1.59
   3  -4  -6   -0.24    1.46
   3  -4  -6    2.95    2.17
   3  -4  -6    1.33    2.20
  -3   4   6    2.27    1.13
  -3   4   6   -0.30    1.15
  -3   4   6   -0.15    1.41
  -3   4   6    0.70    0.83
  -3   4   6    0.13    1.44
   2  -4  -6   11.40    2.82
   2  -4  -6    6.34    2.20
   2  -4  -6    4.47    1.38
   2  -4  -6    5.93    1.14
  -2   4   6    8.33    1.28
  -2   4   6    5.71    1.42
  -2   4   6    4.92    1.04
  -2   4   6    5.77    1.00
  -2   4   6    6.11    1.66
   1  -4  -6    4.10    1.23
   1  -4  -6    3.06    0.77
   1  -4  -6    2.97    1.91
   1  -4  -6    3.36    0.94
   1  -4  -6    9.70    2.58
  -1   4   6    4.47    0.94
  -1   4   6    2.65    1.09
  -1   4   6    3.48    1.30
  -1   4   6    5.24    1.11
   0  -4  -6    4.37    1.17
   0  -4  -6    1.75    0.94
   0  -4  -6    4.16    2.17
   0  -4  -6    4.48    1.64
   0   4   6    2.21    0.86
   0   4   6    2.77    1.18
   0   4   6    3.16    1.02
   0   4   6    2.78    0.92
  -1  -4  -6   -0.01    0.99
  -1  -4  -6    0.25    0.95
  -1  -4  -6    0.04    1.69
   1   4   6    0.08    0.85
   1   4   6    0.60    0.80
   1   4   6    0.42    0.97
   1   4   6    1.25    0.66
  -2  -4  -6    0.10    0.45
  -2  -4  -6   -0.27    0.74
  -2  -4  -6   -1.68    1.10
  -2  -4  -6    1.11    1.16
   2   4   6    1.20    0.46
   2   4   6    1.35    0.88
   2   4   6   -0.41    0.76
   2   4   6    0.46    0.89
  -3  -4  -6    1.06    1.08
  -3  -4  -6    0.87    1.29
  -3  -4  -6    3.26    1.28
  -3  -4  -6    0.90    0.82
   3   4   6    0.45    0.81
   3   4   6    1.65    0.27
   3   4   6    1.10    0.87
   3   4   6    1.82    0.98
  -4  -4  -6    4.95    1.46
  -4  -4  -6    3.04    1.49
  -4  -4  -6    4.99    1.31
   4   4   6    5.80    1.12
   4   4   6    2.64    1.13
   4   4   6    5.43    1.03
   4   4   6    6.37    1.40
  -5  -4  -6    7.27    1.72
  -5  -4  -6    7.40    1.92
  -5  -4  -6    5.93    1.61
   5   4   6    6.33    1.17
   5   4   6    7.87    1.43
   5   4   6    7.27    1.03
   5   4   6    7.74    1.42
  -6  -4  -6    2.62    1.91
  -6  -4  -6    2.76    1.54
  -6  -4  -6    6.62    1.54
   6   4   6    2.77    1.49
   6   4   6    5.44    1.48
   6   4   6    5.23    1.16
  -7  -4  -6    2.94    2.03
  -7  -4  -6    3.01    2.17
   7   4   6    3.45    1.48
   7   4   6    2.57    1.20
   7   4   6    1.77    1.48
   7   4   6    4.15    1.87
  -8  -4  -6    5.34    2.66
  -8  -4  -6    6.57    2.55
   8   4   6    5.09    2.13
   8   4   6    5.34    2.13
  -9  -4  -6    0.58    2.42
  -9  -4  -6   -2.87    2.61
   9   4   6    2.45    2.25
   9   4   6    1.41    1.76
 -10  -4  -6    5.70    3.43
 -10  -4  -6    0.86    2.71
  10   4   6    3.03    2.13
  10   4   6    2.68    2.43
   6  -5  -6    0.64    3.23
  -6   5   6   -0.22    2.52
  -6   5   6    1.80    2.33
   5  -5  -6    2.41    2.13
   5  -5  -6    1.41    2.90
  -5   5   6   -1.15    2.06
  -5   5   6    0.82    1.86
   4  -5  -6   -0.55    2.43
   4  -5  -6    2.66    2.01
   4  -5  -6    4.27    2.41
  -4   5   6    1.37    1.76
  -4   5   6   -0.92    1.75
   3  -5  -6    4.49    1.69
   3  -5  -6    7.97    2.69
   3  -5  -6    6.01    2.54
  -3   5   6    3.07    1.04
  -3   5   6    2.56    1.69
  -3   5   6    3.63    1.26
  -3   5   6    1.88    1.61
   2  -5  -6   -1.86    1.93
   2  -5  -6    0.01    1.38
  -2   5   6    1.10    0.96
  -2   5   6    2.39    1.42
  -2   5   6    2.88    1.12
  -2   5   6    0.37    1.41
   1  -5  -6    9.07    2.45
   1  -5  -6   15.14    2.86
   1  -5  -6   10.04    1.75
  -1   5   6   13.05    1.66
  -1   5   6   11.56    1.34
  -1   5   6    9.84    1.60
  -1   5   6   11.99    1.56
   0  -5  -6    3.29    1.79
   0  -5  -6    2.56    1.34
   0  -5  -6    5.50    2.00
   0   5   6    4.75    1.18
   0   5   6    5.02    1.05
   0   5   6    4.22    1.04
   0   5   6    3.67    1.14
  -1  -5  -6    3.04    1.72
  -1  -5  -6    5.50    1.41
  -1  -5  -6    2.79    1.67
   1   5   6    5.03    0.99
   1   5   6    7.29    1.14
   1   5   6    5.67    1.09
   1   5   6    4.58    1.35
  -2  -5  -6    0.20    1.25
  -2  -5  -6    0.05    1.07
  -2  -5  -6    1.51    1.38
   2   5   6    0.82    0.66
   2   5   6   -0.07    1.01
   2   5   6   -0.10    0.95
   2   5   6   -0.68    0.81
  -3  -5  -6   58.86    3.29
  -3  -5  -6   57.63    2.29
  -3  -5  -6   52.04    2.95
  -3  -5  -6   57.87    3.41
   3   5   6   62.53    2.77
   3   5   6   55.44    2.07
   3   5   6   62.16    2.82
   3   5   6   61.81    2.89
  -4  -5  -6    7.25    1.81
  -4  -5  -6    6.23    1.40
  -4  -5  -6    6.34    1.31
  -4  -5  -6    7.54    1.62
   4   5   6    7.66    1.47
   4   5   6    6.13    1.21
   4   5   6    5.02    0.70
   4   5   6    7.71    1.22
  -5  -5  -6    1.46    1.16
  -5  -5  -6   -0.08    1.51
  -5  -5  -6   -0.67    1.20
   5   5   6    0.20    0.93
   5   5   6    1.17    1.25
   5   5   6   -0.08    1.06
   5   5   6    0.59    0.91
  -6  -5  -6   -0.68    1.57
  -6  -5  -6   -2.15    1.52
  -6  -5  -6    0.31    1.77
   6   5   6   -0.81    1.27
   6   5   6    0.02    0.93
   6   5   6    0.56    0.88
   6   5   6   -0.91    1.47
  -7  -5  -6   25.03    2.94
  -7  -5  -6   28.57    3.33
  -7  -5  -6   31.35    3.64
   7   5   6   25.51    2.49
   7   5   6   29.62    2.27
   7   5   6   29.12    2.93
  -8  -5  -6    7.31    2.33
  -8  -5  -6   10.05    2.87
   8   5   6    7.33    2.22
   8   5   6   10.94    2.45
   8   5   6    7.05    1.76
  -9  -5  -6   -0.20    2.65
  -9  -5  -6    0.09    2.60
   9   5   6   -0.86    2.17
   9   5   6   -4.31    2.06
 -10  -5  -6    0.94    3.18
 -10  -5  -6    1.38    2.72
  10   5   6    0.10    2.66
  10   5   6    1.98    2.54
   5  -6  -6    3.80    3.42
   5  -6  -6   -2.63    2.28
  -5   6   6   -0.62    1.87
  -5   6   6    0.37    2.26
   4  -6  -6    2.18    2.96
   4  -6  -6    4.91    2.18
  -4   6   6    1.72    1.82
  -4   6   6    1.49    2.05
   3  -6  -6    2.41    2.64
   3  -6  -6    3.58    1.96
  -3   6   6   -1.51    1.60
  -3   6   6    2.04    1.31
  -3   6   6   -0.23    1.66
   2  -6  -6   11.70    2.18
   2  -6  -6    6.70    2.56
   2  -6  -6    7.80    2.60
  -2   6   6    9.44    2.04
  -2   6   6    9.87    1.58
  -2   6   6    8.38    1.33
  -2   6   6    9.81    2.09
   1  -6  -6    1.99    1.75
   1  -6  -6    0.03    1.92
   1  -6  -6    0.04    1.57
  -1   6   6    1.06    0.95
  -1   6   6    5.00    1.49
  -1   6   6    1.83    1.17
  -1   6   6    0.65    1.49
   0  -6  -6   27.59    3.36
   0  -6  -6   29.71    2.83
   0  -6  -6   25.72    2.36
   0   6   6   27.90    1.92
   0   6   6   22.64    2.43
   0   6   6   25.50    1.74
   0   6   6   30.14    2.14
  -1  -6  -6   13.20    2.00
  -1  -6  -6   15.05    2.69
  -1  -6  -6   15.72    2.15
   1   6   6   17.57    1.63
   1   6   6   14.61    1.97
   1   6   6   15.86    1.59
   1   6   6   15.06    1.65
  -2  -6  -6   -0.02    1.61
  -2  -6  -6    1.16    1.81
  -2  -6  -6    8.22    1.72
   2   6   6    7.11    1.10
   2   6   6    5.06    1.19
   2   6   6    4.05    1.29
   2   6   6    6.30    1.29
  -3  -6  -6    3.33    1.76
  -3  -6  -6    3.98    1.50
  -3  -6  -6    0.12    1.43
   3   6   6    1.88    1.22
   3   6   6    4.38    1.33
   3   6   6    1.66    1.05
   3   6   6    2.20    0.86
  -4  -6  -6   42.08    2.21
  -4  -6  -6   44.86    3.09
  -4  -6  -6   43.00    3.18
  -4  -6  -6   42.02    2.83
   4   6   6   38.66    1.85
   4   6   6   38.61    2.41
   4   6   6   43.56    2.51
   4   6   6   42.89    2.69
  -5  -6  -6   18.00    2.65
  -5  -6  -6   17.49    2.26
  -5  -6  -6   20.42    2.16
   5   6   6   20.42    1.82
   5   6   6   19.07    1.85
   5   6   6   19.90    2.35
   5   6   6   20.21    2.16
  -6  -6  -6    3.29    1.93
  -6  -6  -6    3.74    1.74
  -6  -6  -6    2.69    2.08
   6   6   6    2.77    1.15
   6   6   6    3.35    1.88
   6   6   6    3.14    1.58
   6   6   6    4.66    1.37
  -7  -6  -6    0.25    2.26
  -7  -6  -6    2.63    2.29
  -7  -6  -6    1.10    2.03
   7   6   6    0.05    1.55
   7   6   6    1.88    1.22
   7   6   6    0.91    1.87
  -8  -6  -6   23.13    3.40
  -8  -6  -6   18.87    3.17
   8   6   6   22.27    3.13
   8   6   6   28.17    2.69
   8   6   6   23.34    3.02
  -9  -6  -6    1.75    2.78
  -9  -6  -6    1.76    2.88
   9   6   6    2.13    2.39
   9   6   6    0.18    2.41
   4  -7  -6   -1.68    2.18
   4  -7  -6    4.91    3.34
  -4   7   6    0.32    2.15
  -4   7   6   -2.19    1.72
   3  -7  -6   18.11    3.13
   3  -7  -6   17.29    2.82
  -3   7   6   12.39    2.51
  -3   7   6   16.02    2.76
  -3   7   6   16.98    1.95
   2  -7  -6    5.70    2.31
   2  -7  -6    8.09    2.28
  -2   7   6    3.42    1.97
  -2   7   6    6.40    1.54
  -2   7   6    4.40    1.22
  -2   7   6    3.12    1.74
   1  -7  -6    5.26    2.04
   1  -7  -6    1.51    2.42
  -1   7   6    4.93    1.25
  -1   7   6    3.91    1.37
  -1   7   6    2.26    1.78
  -1   7   6    4.81    1.63
   0  -7  -6   -0.41    1.64
   0  -7  -6   -2.60    2.20
   0   7   6    0.16    0.99
   0   7   6   -0.13    1.18
   0   7   6    2.04    1.26
   0   7   6    0.98    1.57
  -1  -7  -6   48.39    3.09
  -1  -7  -6   48.04    4.16
  -1  -7  -6   57.78    3.50
   1   7   6   50.58    2.66
   1   7   6   49.11    2.71
   1   7   6   46.02    2.85
   1   7   6   53.22    3.31
  -2  -7  -6    9.82    1.84
  -2  -7  -6   10.27    2.02
  -2  -7  -6    8.30    2.33
   2   7   6   11.91    1.49
   2   7   6   10.26    1.53
   2   7   6   11.95    1.84
   2   7   6   11.48    1.43
  -3  -7  -6    3.50    2.02
  -3  -7  -6    3.11    1.50
  -3  -7  -6    2.01    1.21
   3   7   6    1.11    1.31
   3   7   6    2.24    1.14
   3   7   6    2.92    1.49
   3   7   6    0.81    1.02
  -4  -7  -6    3.89    1.72
  -4  -7  -6    5.80    2.01
  -4  -7  -6    5.91    1.74
   4   7   6    7.55    1.66
   4   7   6    4.87    1.29
   4   7   6    7.60    1.26
   4   7   6    7.62    1.48
  -5  -7  -6   20.85    2.57
  -5  -7  -6   32.80    3.18
  -5  -7  -6   34.91    3.17
   5   7   6   29.90    2.32
   5   7   6   35.34    2.82
   5   7   6   37.13    2.65
  -6  -7  -6    9.57    2.44
  -6  -7  -6    9.10    2.57
  -6  -7  -6    6.17    2.53
   6   7   6    6.59    1.93
   6   7   6    2.55    1.36
   6   7   6    3.03    2.08
   6   7   6    3.91    1.35
  -7  -7  -6    0.76    2.26
  -7  -7  -6   -0.45    2.03
  -7  -7  -6   -2.66    1.92
   7   7   6    0.50    1.17
   7   7   6    1.75    1.77
   7   7   6   -2.49    1.89
  -8  -7  -6    5.40    2.87
  -8  -7  -6   -1.18    2.44
   8   7   6    1.57    1.75
   8   7   6    4.81    2.49
   8   7   6    4.09    2.44
  -9  -7  -6    3.54    2.88
  -9  -7  -6    1.98    3.06
   9   7   6    2.98    2.58
   9   7   6    4.19    2.64
   4  -8  -6    1.67    3.17
  -4   8   6   -1.56    1.92
   3  -8  -6   -1.67    2.21
   3  -8  -6   -2.38    2.65
  -3   8   6    1.88    2.13
  -3   8   6   -0.31    1.98
   2  -8  -6    6.37    2.40
   2  -8  -6    3.49    2.86
  -2   8   6    3.15    1.50
  -2   8   6    2.74    1.95
  -2   8   6    4.99    2.22
  -2   8   6    3.59    2.13
   1  -8  -6    4.99    2.80
   1  -8  -6    2.93    2.20
  -1   8   6    4.08    1.72
  -1   8   6    2.35    1.26
  -1   8   6    2.02    1.46
  -1   8   6    1.34    1.58
   0  -8  -6    1.88    2.82
   0  -8  -6    4.12    2.15
   0   8   6    4.18    1.32
   0   8   6    7.28    1.49
   0   8   6    5.68    1.63
   0   8   6    3.96    1.93
  -1  -8  -6   -1.51    2.53
  -1  -8  -6    2.41    1.94
   1   8   6    3.10    1.46
   1   8   6    5.77    1.65
   1   8   6    3.69    1.43
   1   8   6    3.22    1.29
  -2  -8  -6    3.96    1.52
  -2  -8  -6    1.93    2.37
   2   8   6    2.37    1.16
   2   8   6   -0.32    1.02
   2   8   6    2.80    1.25
   2   8   6   -1.03    1.52
  -3  -8  -6    8.99    2.51
  -3  -8  -6    5.65    1.75
  -3  -8  -6    8.06    2.01
   3   8   6    6.38    1.42
   3   8   6    5.44    1.44
   3   8   6    8.32    1.93
   3   8   6    7.19    1.77
  -4  -8  -6    8.74    2.16
  -4  -8  -6   12.37    2.24
  -4  -8  -6   14.71    2.39
   4   8   6   12.97    2.22
   4   8   6    9.56    1.99
   4   8   6   10.32    1.68
  -5  -8  -6    6.99    2.33
  -5  -8  -6    4.52    1.55
  -5  -8  -6    5.14    2.02
   5   8   6    3.96    1.63
   5   8   6    6.10    2.06
  -6  -8  -6   -1.13    1.92
  -6  -8  -6   -0.48    2.01
   6   8   6    1.09    2.24
   6   8   6   -0.03    1.32
   6   8   6    1.72    1.86
  -7  -8  -6    2.57    2.42
  -7  -8  -6    0.87    2.30
   7   8   6    4.27    2.06
   7   8   6    5.19    2.53
  -8  -8  -6    1.73    2.53
   8   8   6   -0.24    2.30
   8   8   6    4.73    2.12
   8   8   6    8.74    2.73
   2  -9  -6    4.19    2.12
   2  -9  -6    4.64    3.01
  -2   9   6    9.21    1.94
  -2   9   6    5.09    2.27
  -2   9   6    5.12    2.47
   1  -9  -6    0.66    2.44
   1  -9  -6   -0.52    2.77
  -1   9   6    5.36    2.13
  -1   9   6    3.38    2.31
  -1   9   6    1.45    1.56
   0  -9  -6    2.44    3.00
   0  -9  -6    2.52    2.37
   0   9   6    4.36    2.27
   0   9   6    1.59    1.51
   0   9   6    4.92    1.71
  -1  -9  -6   16.28    3.55
  -1  -9  -6   16.83    2.92
   1   9   6   17.21    2.82
   1   9   6   15.33    2.01
   1   9   6   19.91    2.39
  -2  -9  -6    2.04    2.60
  -2  -9  -6    4.59    1.87
   2   9   6    3.66    1.72
   2   9   6    2.35    1.95
   2   9   6    2.46    1.49
  -3  -9  -6   -1.87    1.84
  -3  -9  -6   -2.39    2.16
   3   9   6   -0.60    1.49
   3   9   6    0.86    1.35
  -4  -9  -6    1.57    1.93
  -4  -9  -6    0.57    2.19
   4   9   6    3.49    1.79
   4   9   6    2.53    1.48
  -5  -9  -6   20.52    2.80
  -5  -9  -6   25.34    3.37
   5   9   6   23.63    2.97
   5   9   6   19.47    2.54
  -6  -9  -6    0.75    2.30
  -6  -9  -6    1.52    2.34
   6   9   6    0.11    1.68
   6   9   6   -1.52    2.32
   6   9   6    0.17    2.01
  -7  -9  -6    0.62    2.54
  -7  -9  -6    0.33    2.32
   7   9   6   -0.47    2.05
   7   9   6    0.18    2.35
  -8  -9  -6   -0.86    2.44
   8   9   6    2.57    2.25
   8   9   6   -0.62    2.59
   8   9   6   -3.65    2.23
   1 -10  -6    2.61    2.73
   1 -10  -6   -0.17    2.88
  -1  10   6    2.21    1.72
  -1  10   6    7.49    2.38
  -1  10   6    0.94    2.33
   0 -10  -6    0.65    2.96
   0 -10  -6   -0.91    2.52
   0  10   6    2.86    1.80
   0  10   6   -2.00    2.26
   0  10   6   -1.24    1.48
  -1 -10  -6    1.93    2.99
  -1 -10  -6   -3.26    2.31
   1  10   6    1.31    1.70
   1  10   6   -0.14    1.61
   1  10   6    0.98    1.65
  -2 -10  -6   16.84    2.68
  -2 -10  -6   18.97    3.78
   2  10   6   17.48    2.50
   2  10   6   19.74    3.03
  -3 -10  -6    1.51    2.22
  -3 -10  -6    4.17    2.78
   3  10   6    2.35    2.11
   3  10   6    0.86    1.39
  -4 -10  -6    0.64    2.68
  -4 -10  -6    0.22    2.14
   4  10   6    5.77    2.33
   4  10   6    2.14    1.99
  -5 -10  -6    2.04    2.19
  -5 -10  -6   -1.50    2.28
   5  10   6    3.42    2.38
   5  10   6    1.89    1.95
  -6 -10  -6    5.19    2.32
  -6 -10  -6   11.40    3.02
   6  10   6   10.36    2.74
   6  10   6    7.14    2.09
  -7 -10  -6    2.75    2.92
   7  10   6   -0.54    2.62
   7  10   6    3.47    2.51
  -1 -11  -6   -5.20    3.15
   1  11   6   -1.66    2.27
   1  11   6   -0.19    1.77
  -2 -11  -6    0.72    3.30
  -2 -11  -6    0.39    2.68
   2  11   6   -3.49    2.18
   2  11   6    3.21    1.98
  -3 -11  -6    3.40    2.65
  -3 -11  -6    5.55    2.99
   3  11   6    3.41    1.79
   3  11   6    1.57    2.33
  -4 -11  -6   -0.37    2.89
  -4 -11  -6   -0.81    2.34
   4  11   6    1.05    2.45
   4  11   6    1.93    2.28
  -5 -11  -6   -2.17    2.12
  -5 -11  -6   -2.28    2.33
   5  11   6   -0.20    2.31
   5  11   6   -0.21    2.55
  -4  -9   7    3.64    2.94
  -4  -9   7   -2.04    2.09
   3   9  -7    2.67    2.59
   3   9  -7    0.30    3.09
  -3  -9   7    3.67    2.37
  -3  -9   7    8.55    2.87
   2   9  -7   -2.35    2.70
   2   9  -7    4.83    2.58
  -2  -9   7    2.20    1.79
  -2  -9   7   -0.59    2.43
   1   9  -7    6.45    3.48
   1   9  -7    8.04    2.83
  -1  -9   7    7.22    2.05
  -1  -9   7    3.25    2.60
   0   9  -7    5.72    2.86
   0   9  -7   12.95    3.09
   0  -9   7   15.55    2.98
   0  -9   7    8.14    2.57
  -1   9  -7    5.65    2.85
  -1   9  -7    2.33    3.44
   1  -9   7    2.77    2.40
   1  -9   7    4.79    2.56
  -2   9  -7    1.35    1.78
  -2   9  -7    1.48    2.69
  -2   9  -7    5.08    3.27
   2  -9   7    0.51    2.59
   2  -9   7    0.95    2.73
   5   8  -7    3.79    2.64
   5   8  -7    0.51    2.86
   5   8  -7    1.68    3.05
  -5  -8   7    4.21    2.78
   4   8  -7   10.70    3.60
   4   8  -7    5.49    2.78
   4   8  -7    6.51    2.71
  -4  -8   7    5.41    2.67
  -4  -8   7    8.02    2.38
   3   8  -7    6.15    2.46
   3   8  -7    5.89    3.18
  -3  -8   7    4.29    2.17
  -3  -8   7    4.57    2.58
   2   8  -7   -1.01    2.64
   2   8  -7    1.14    2.24
  -2  -8   7    1.69    2.40
  -2  -8   7    0.41    1.92
   1   8  -7   -1.12    2.61
   1   8  -7    1.49    2.21
  -1  -8   7    1.42    1.96
  -1  -8   7    0.23    2.11
   0   8  -7   11.85    3.64
   0   8  -7   15.30    2.93
   0  -8   7   10.88    2.63
   0  -8   7    8.32    2.00
  -1   8  -7   12.23    2.92
  -1   8  -7   11.63    3.16
   1  -8   7    9.77    2.44
   1  -8   7   12.61    2.63
   1  -8   7   11.71    2.62
  -2   8  -7    4.68    2.64
  -2   8  -7    1.62    3.05
   2  -8   7   -1.13    2.09
   2  -8   7    3.12    1.81
   2  -8   7    0.78    2.02
  -3   8  -7    0.26    1.52
  -3   8  -7    0.81    2.45
  -3   8  -7    1.86    2.76
   3  -8   7   -0.13    2.29
   3  -8   7    1.08    2.45
  -4   8  -7    7.19    3.02
  -4   8  -7    8.39    3.05
   4  -8   7    8.53    2.81
   4  -8   7    7.99    2.93
   6   7  -7    0.31    2.84
   6   7  -7    5.70    3.20
  -6  -7   7   -0.78    2.47
  -6  -7   7    0.21    2.57
   5   7  -7   -2.49    2.32
   5   7  -7    0.47    2.78
  -5  -7   7    1.32    2.41
  -5  -7   7    1.75    2.30
   4   7  -7   -0.77    2.50
   4   7  -7   -3.93    1.97
   4   7  -7   -1.67    2.11
  -4  -7   7   -1.48    1.70
  -4  -7   7    0.42    2.23
  -4  -7   7   -1.70    1.59
   3   7  -7    5.55    2.30
   3   7  -7    5.59    2.84
   3   7  -7    3.92    2.24
  -3  -7   7    4.19    1.91
  -3  -7   7    1.24    2.12
   2   7  -7   10.41    3.17
   2   7  -7    7.50    2.30
   2   7  -7    2.55    2.16
  -2  -7   7    6.17    2.35
  -2  -7   7    5.02    1.95
   1   7  -7   -1.01    1.72
   1   7  -7   -2.39    1.69
   1   7  -7    2.20    1.98
  -1  -7   7   -2.50    1.73
  -1  -7   7   -0.39    1.28
   0   7  -7   -0.26    2.52
   0   7  -7   -0.43    1.45
   0  -7   7    0.06    1.80
   0  -7   7    0.36    1.76
   0  -7   7    0.98    1.88
  -1   7  -7   11.15    2.55
  -1   7  -7   12.14    3.50
   1  -7   7   11.78    2.35
   1  -7   7    8.99    1.87
   1  -7   7    7.63    2.30
  -2   7  -7    9.68    2.68
  -2   7  -7    3.69    2.92
   2  -7   7    8.01    2.30
   2  -7   7    6.02    2.22
   2  -7   7    4.48    2.20
  -3   7  -7    0.36    1.52
  -3   7  -7    5.24    2.90
  -3   7  -7    1.92    2.25
   3  -7   7    3.19    2.30
   3  -7   7   -2.70    2.06
  -4   7  -7    1.73    2.60
  -4   7  -7    2.86    2.48
   4  -7   7   -1.48    2.30
   4  -7   7   -0.91    2.20
  -5   7  -7    1.24    2.70
  -5   7  -7    0.96    1.92
   5  -7   7    1.73    2.62
   5  -7   7    1.08    1.90
   6   6  -7    2.54    2.76
   6   6  -7    0.01    2.54
  -6  -6   7   -1.99    2.27
  -6  -6   7   -4.98    1.98
   5   6  -7    3.85    2.71
   5   6  -7    3.03    2.60
  -5  -6   7    0.75    2.20
  -5  -6   7    0.84    2.22
   4   6  -7    6.82    2.87
   4   6  -7    4.16    2.45
  -4  -6   7    5.61    2.35
  -4  -6   7    7.52    2.11
  -4  -6   7    5.82    1.77
  -4  -6   7    4.38    1.86
   3   6  -7    8.71    2.33
   3   6  -7    7.51    2.51
   3   6  -7   10.45    2.94
  -3  -6   7    7.56    2.24
  -3  -6   7    8.59    1.81
  -3  -6   7    6.54    1.95
   2   6  -7    2.55    1.84
   2   6  -7   -0.60    2.07
   2   6  -7   -1.55    1.95
  -2  -6   7   -0.10    1.35
  -2  -6   7   -0.03    1.76
  -2  -6   7   -0.21    1.62
   1   6  -7   -0.84    1.69
   1   6  -7   -0.84    2.12
   1   6  -7   -0.85    1.46
  -1  -6   7    0.39    1.45
  -1  -6   7    1.39    1.77
  -1  -6   7   -0.22    1.55
   0   6  -7   31.50    2.67
   0   6  -7   32.79    3.07
   0   6  -7   30.93    4.05
   0  -6   7   28.44    2.56
   0  -6   7   30.51    2.44
   0  -6   7   28.79    2.76
   0  -6   7   26.37    2.58
  -1   6  -7   18.31    2.06
  -1   6  -7   13.81    3.33
  -1   6  -7   19.25    2.63
   1  -6   7   16.64    2.06
   1  -6   7   19.55    2.46
   1  -6   7   11.13    1.89
   1  -6   7   14.00    2.26
  -2   6  -7    2.40    2.65
  -2   6  -7   -0.79    1.72
   2  -6   7    1.49    1.80
   2  -6   7    1.23    1.73
   2  -6   7    0.90    1.46
   2  -6   7   -1.39    1.98
  -3   6  -7    1.21    2.55
  -3   6  -7    2.65    1.95
   3  -6   7    2.25    1.97
   3  -6   7    1.55    2.03
   3  -6   7   -0.94    1.53
  -4   6  -7   22.94    3.72
  -4   6  -7   21.01    3.07
   4  -6   7   21.65    2.92
   4  -6   7   27.34    3.33
  -5   6  -7    1.14    2.71
  -5   6  -7   12.15    2.84
   5  -6   7    4.64    2.44
   5  -6   7    6.08    2.19
  -6   6  -7   -3.46    2.41
  -6   6  -7    0.50    2.39
   6  -6   7    1.34    2.42
   6  -6   7    1.22    2.14
   7   5  -7    8.85    2.93
   7   5  -7    4.00    3.05
  -7  -5   7    7.40    2.87
  -7  -5   7    5.23    2.53
   6   5  -7    1.52    2.62
   6   5  -7    7.88    2.60
  -6  -5   7    8.20    2.68
  -6  -5   7    0.38    2.21
   5   5  -7   -0.48    2.28
   5   5  -7    3.52    2.64
  -5  -5   7    0.07    2.06
  -5  -5   7    0.34    2.05
   4   5  -7   -1.54    1.99
   4   5  -7   -1.25    2.18
  -4  -5   7   -1.85    1.31
  -4  -5   7   -0.35    1.35
  -4  -5   7   -0.52    1.82
  -4  -5   7   -2.21    1.72
   3   5  -7   43.26    3.65
   3   5  -7   49.21    4.18
  -3  -5   7   48.04    3.31
  -3  -5   7   40.96    2.97
  -3  -5   7   46.25    3.07
  -3  -5   7   48.80    2.85
   2   5  -7   35.62    2.85
   2   5  -7   35.15    3.55
   2   5  -7   29.95    3.09
  -2  -5   7   36.57    2.99
  -2  -5   7   34.31    2.74
  -2  -5   7   32.42    2.48
   1   5  -7   12.59    2.41
   1   5  -7   11.76    2.90
   1   5  -7   14.02    2.12
  -1  -5   7    9.69    2.06
  -1  -5   7   12.35    1.77
  -1  -5   7   11.23    1.92
   0   5  -7    5.28    1.74
   0   5  -7    1.71    2.35
   0   5  -7    4.61    1.77
   0  -5   7    5.81    1.65
   0  -5   7    5.71    1.51
   0  -5   7    3.94    1.64
   0  -5   7    5.49    1.58
  -1   5  -7   35.38    2.82
  -1   5  -7   37.28    2.77
  -1   5  -7   38.49    4.09
   1  -5   7   30.44    2.36
   1  -5   7   39.18    2.98
   1  -5   7   42.81    2.68
   1  -5   7   37.97    2.70
  -2   5  -7   22.31    2.55
  -2   5  -7   25.05    3.78
  -2   5  -7   26.81    2.33
   2  -5   7   20.33    1.99
   2  -5   7   20.23    2.47
   2  -5   7   26.16    2.42
   2  -5   7   20.44    2.16
  -3   5  -7    6.44    2.26
  -3   5  -7    7.93    1.61
  -3   5  -7    5.13    1.87
   3  -5   7    5.98    1.64
   3  -5   7    9.33    2.07
   3  -5   7    8.56    1.76
   3  -5   7    6.26    2.01
  -4   5  -7   -1.68    2.09
  -4   5  -7    1.50    1.95
  -4   5  -7    0.59    1.27
  -4   5  -7    2.68    1.39
   4  -5   7    0.12    1.88
   4  -5   7    1.50    1.85
   4  -5   7    1.48    1.40
  -5   5  -7   12.05    3.04
  -5   5  -7    9.03    2.63
   5  -5   7    8.84    2.23
   5  -5   7    7.98    2.76
   5  -5   7   13.95    2.71
  -6   5  -7    7.06    2.45
  -6   5  -7    4.96    2.42
   6  -5   7    7.12    2.63
   6  -5   7   11.78    2.38
  -7   5  -7    0.55    2.66
  -7   5  -7    2.07    2.48
   7  -5   7    0.86    2.48
   7   4  -7    1.83    2.16
   7   4  -7    1.80    2.81
  -7  -4   7   -0.80    2.52
  -7  -4   7    0.87    2.27
   6   4  -7   26.33    4.01
   6   4  -7   20.69    3.70
  -6  -4   7   16.16    2.76
  -6  -4   7   24.44    3.26
   5   4  -7   16.70    3.21
   5   4  -7   15.96    3.31
  -5  -4   7   11.82    2.41
  -5  -4   7   21.35    2.88
   4   4  -7    1.36    2.05
   4   4  -7    2.99    2.36
  -4  -4   7   -0.70    1.21
  -4  -4   7    1.43    1.43
  -4  -4   7   -0.58    1.44
  -4  -4   7    3.02    1.98
   3   4  -7    0.57    1.58
   3   4  -7    1.35    1.58
  -3  -4   7   -0.98    1.58
  -3  -4   7    3.14    1.79
  -3  -4   7    0.64    1.28
  -3  -4   7    0.57    1.14
   2   4  -7   58.00    4.26
   2   4  -7   57.63    4.16
  -2  -4   7   61.00    3.32
  -2  -4   7   61.56    3.27
  -2  -4   7   64.34    3.08
  -2  -4   7   60.53    3.28
   1   4  -7   29.96    2.90
   1   4  -7   28.23    2.39
   1   4  -7   29.40    3.29
  -1  -4   7   30.94    1.77
  -1  -4   7   31.10    2.44
  -1  -4   7   32.81    2.60
  -1  -4   7   30.87    2.29
   0   4  -7    1.97    1.34
   0   4  -7    1.76    2.03
   0   4  -7    4.45    1.80
   0  -4   7    1.64    1.32
   0  -4   7    1.72    1.22
   0  -4   7    2.66    1.41
   0  -4   7    3.01    1.30
  -1   4  -7    2.51    2.27
  -1   4  -7    0.22    1.35
  -1   4  -7    2.10    1.52
   1  -4   7    0.50    1.23
   1  -4   7    2.12    1.33
   1  -4   7    2.04    1.26
   1  -4   7    2.71    1.26
  -2   4  -7   47.45    2.91
  -2   4  -7   46.67    2.99
  -2   4  -7   51.82    3.82
   2  -4   7   45.82    2.63
   2  -4   7   48.85    3.00
   2  -4   7   49.80    3.13
   2  -4   7   45.83    2.79
  -3   4  -7   27.36    2.66
  -3   4  -7   20.28    2.24
  -3   4  -7   27.74    3.76
   3  -4   7   18.72    2.03
   3  -4   7   23.80    2.10
   3  -4   7   20.54    2.42
   3  -4   7   19.48    2.06
  -4   4  -7    3.76    1.78
  -4   4  -7    2.14    1.33
  -4   4  -7    1.26    1.79
   4  -4   7   -0.87    1.24
   4  -4   7    1.21    1.27
   4  -4   7    3.48    1.87
   4  -4   7    1.68    1.14
  -5   4  -7    3.09    2.34
  -5   4  -7    2.07    1.56
  -5   4  -7   -0.17    1.74
   5  -4   7    3.83    1.47
   5  -4   7    2.25    1.39
   5  -4   7    2.98    2.03
   5  -4   7    2.58    1.83
  -6   4  -7   10.84    2.63
  -6   4  -7   17.34    2.54
  -6   4  -7   11.83    2.70
   6  -4   7   12.17    1.78
   6  -4   7   11.70    2.24
   6  -4   7   13.92    2.36
  -7   4  -7   -0.16    2.49
  -7   4  -7   -1.41    2.32
   7  -4   7    3.11    2.45
  -8   4  -7    1.74    3.00
   8  -4   7   -0.15    2.64
   7   3  -7   -5.05    2.50
   7   3  -7    1.41    2.70
   7   3  -7   -1.96    2.44
  -7  -3   7   -4.39    2.32
  -7  -3   7   -0.05    2.11
   6   3  -7   -0.48    2.51
   6   3  -7    1.61    2.48
   6   3  -7    1.14    2.08
  -6  -3   7    2.27    2.27
  -6  -3   7   -0.18    1.93
   5   3  -7    4.19    1.98
   5   3  -7    7.29    2.29
   5   3  -7   10.42    2.87
  -5  -3   7    8.92    2.35
  -5  -3   7    6.63    2.03
   4   3  -7   10.09    2.64
   4   3  -7   11.12    2.73
   4   3  -7    8.90    1.94
  -4  -3   7    6.07    1.36
  -4  -3   7    5.50    1.92
  -4  -3   7    9.24    1.61
  -4  -3   7    8.85    1.82
   3   3  -7   13.71    2.71
   3   3  -7   13.08    1.79
   3   3  -7   15.68    2.89
  -3  -3   7    9.12    1.38
  -3  -3   7   10.01    1.88
  -3  -3   7   12.21    2.06
  -3  -3   7   11.98    1.73
   2   3  -7   -0.91    1.81
   2   3  -7    0.67    0.94
   2   3  -7    0.49    1.92
  -2  -3   7    1.15    1.10
  -2  -3   7   -1.96    1.07
  -2  -3   7   -0.54    1.26
  -2  -3   7   -0.76    1.03
   1   3  -7   16.53    1.13
   1   3  -7   18.11    2.77
   1   3  -7   10.82    2.35
  -1  -3   7   14.66    1.15
  -1  -3   7   14.93    1.78
  -1  -3   7   22.45    2.16
  -1  -3   7   13.64    1.76
  -1  -3   7   17.81    1.78
   0   3  -7    9.92    1.56
   0   3  -7    7.91    0.70
   0   3  -7    7.98    2.24
   0   3  -7    5.13    1.85
   0  -3   7    5.46    1.45
   0  -3   7    9.07    1.51
   0  -3   7    8.31    1.41
   0  -3   7    7.49    1.17
  -1   3  -7   19.58    1.92
  -1   3  -7   16.85    2.87
  -1   3  -7   18.76    2.36
   1  -3   7   16.98    1.70
   1  -3   7   14.31    1.62
   1  -3   7   16.54    1.75
   1  -3   7   18.51    1.91
  -2   3  -7    1.65    1.42
  -2   3  -7    1.64    1.19
  -2   3  -7    6.43    2.46
   2  -3   7    0.44    1.18
   2  -3   7    1.82    1.35
   2  -3   7    2.02    1.18
   2  -3   7    2.04    1.10
   2  -3   7    1.60    0.68
  -3   3  -7    6.79    2.60
  -3   3  -7    2.03    1.36
  -3   3  -7   -0.20    1.16
   3  -3   7    0.47    1.36
   3  -3   7    1.30    1.20
   3  -3   7   -0.03    0.97
   3  -3   7   -1.89    0.79
   3  -3   7    0.21    0.88
  -4   3  -7    3.01    1.44
  -4   3  -7   -0.31    2.43
   4  -3   7    0.81    0.96
   4  -3   7    2.16    1.26
   4  -3   7    0.19    1.01
   4  -3   7    0.60    1.58
   4  -3   7    1.24    1.00
  -5   3  -7    5.22    1.65
  -5   3  -7    2.35    1.62
  -5   3  -7    2.79    2.36
   5  -3   7    2.37    1.39
   5  -3   7    1.45    1.33
   5  -3   7    3.34    1.77
   5  -3   7    4.30    1.61
  -6   3  -7   -2.00    1.69
  -6   3  -7    0.90    1.75
  -6   3  -7    0.82    2.43
   6  -3   7    0.71    1.93
   6  -3   7    0.29    1.25
   6  -3   7    3.90    1.78
   6  -3   7    0.38    1.64
  -7   3  -7    1.11    1.72
  -7   3  -7    1.25    1.98
  -7   3  -7   -3.19    2.27
   7  -3   7    2.77    1.85
   7  -3   7    3.51    2.30
   7  -3   7    0.91    1.80
  -8   3  -7   -0.31    2.13
  -8   3  -7   -0.73    2.56
   8  -3   7   -0.42    1.99
   8  -3   7    2.06    2.01
   7   2  -7    4.13    3.10
   7   2  -7    0.76    2.68
   7   2  -7   -1.25    2.55
  -7  -2   7    0.60    1.95
  -7  -2   7   -0.18    1.90
   6   2  -7    7.88    2.74
   6   2  -7    5.13    2.75
   6   2  -7    6.04    2.53
  -6  -2   7    8.90    2.17
  -6  -2   7    2.59    1.99
   5   2  -7    9.34    2.70
   5   2  -7    7.92    2.57
   5   2  -7    3.95    2.11
  -5  -2   7    3.35    1.91
  -5  -2   7    8.23    2.34
   4   2  -7   -2.21    1.74
   4   2  -7    0.45    1.44
   4   2  -7   -1.19    1.38
  -4  -2   7    0.72    1.27
  -4  -2   7   -0.19    1.68
  -4  -2   7   -0.99    1.02
  -4  -2   7   -2.39    1.52
   3   2  -7    8.34    2.33
   3   2  -7    9.75    1.85
   3   2  -7    9.43    1.22
   3   2  -7    5.47    1.86
  -3  -2   7    9.71    1.84
  -3  -2   7    9.57    1.39
  -3  -2   7    7.23    1.83
  -3  -2   7    8.69    1.55
   2   2  -7   13.66    2.35
   2   2  -7   13.63    1.38
   2   2  -7   21.07    2.67
   2   2  -7   17.41    1.82
  -2  -2   7   17.42    1.94
  -2  -2   7   14.95    1.66
  -2  -2   7   16.51    1.60
  -2  -2   7   12.33    1.88
   1   2  -7   33.05    2.33
   1   2  -7   36.94    1.87
   1   2  -7   31.58    2.80
   1   2  -7   34.44    2.92
  -1  -2   7   32.92    2.27
  -1  -2   7   31.18    2.34
  -1  -2   7   32.67    2.18
  -1  -2   7   30.21    1.34
  -1  -2   7   34.85    2.10
   0   2  -7    4.23    0.79
   0   2  -7    3.30    1.77
   0   2  -7    1.52    1.58
   0  -2   7    1.79    0.87
   0  -2   7    1.91    1.18
   0  -2   7    4.48    1.15
   0  -2   7    2.84    0.80
   0  -2   7    2.66    1.07
  -1   2  -7   -3.41    1.46
  -1   2  -7    0.18    0.95
  -1   2  -7   -0.11    0.56
  -1   2  -7   -0.29    1.35
   1  -2   7   -1.20    0.94
   1  -2   7   -0.35    0.97
   1  -2   7   -0.45    0.86
   1  -2   7   -0.27    1.02
  -2   2  -7   31.14    1.97
  -2   2  -7   32.56    2.56
  -2   2  -7   35.18    3.36
   2  -2   7   30.70    2.11
   2  -2   7   33.76    2.12
   2  -2   7   27.93    2.14
   2  -2   7   30.09    1.99
  -3   2  -7   17.81    2.15
  -3   2  -7   19.74    2.85
  -3   2  -7   24.55    2.06
   3  -2   7   16.82    1.52
   3  -2   7   17.91    1.56
   3  -2   7   17.74    1.78
   3  -2   7    9.98    1.61
   3  -2   7   12.91    1.71
  -4   2  -7   27.58    2.53
  -4   2  -7   22.23    3.06
  -4   2  -7   28.00    2.35
   4  -2   7   25.08    1.59
   4  -2   7   23.57    2.31
   4  -2   7   20.61    1.92
   4  -2   7   22.11    2.18
   4  -2   7   23.43    1.97
  -5   2  -7   -0.90    1.30
  -5   2  -7    0.47    1.40
  -5   2  -7   -4.13    1.97
   5  -2   7    0.27    1.14
   5  -2   7   -0.15    1.14
   5  -2   7    0.60    1.18
   5  -2   7    1.41    1.52
  -6   2  -7   12.68    2.31
  -6   2  -7    7.10    1.96
  -6   2  -7    8.87    2.40
   6  -2   7   10.45    1.88
   6  -2   7   12.64    1.68
   6  -2   7   11.51    2.24
   6  -2   7   14.43    2.04
  -7   2  -7    1.01    2.47
  -7   2  -7   -2.53    1.87
  -7   2  -7   -0.39    1.66
   7  -2   7   -2.54    1.77
   7  -2   7   -1.65    1.84
   7  -2   7    1.27    1.46
   7  -2   7    1.21    1.75
  -8   2  -7    3.29    2.82
  -8   2  -7    5.71    2.25
   8  -2   7    5.47    2.24
   8  -2   7    6.29    2.16
  -9   2  -7    1.90    2.56
  -9   2  -7   -1.04    2.91
   9  -2   7    0.59    2.71
   9  -2   7   -0.67    2.36
   7   1  -7   -3.30    2.30
   7   1  -7    0.93    2.98
   7   1  -7   -3.19    2.69
  -7  -1   7   -1.54    2.52
  -7  -1   7    0.39    2.03
   6   1  -7   -0.99    2.25
   6   1  -7   -3.34    2.32
   6   1  -7   -5.21    2.06
  -6  -1   7   -4.34    1.69
  -6  -1   7   -2.12    2.12
   5   1  -7   35.87    3.57
   5   1  -7   33.97    3.80
   5   1  -7   23.21    3.27
  -5  -1   7   32.04    3.19
   4   1  -7   18.21    2.62
   4   1  -7   23.67    3.06
   4   1  -7   21.10    3.21
  -4  -1   7   16.12    2.35
  -4  -1   7   18.55    1.72
  -4  -1   7   15.16    2.23
   3   1  -7   17.99    2.62
   3   1  -7   20.12    2.51
   3   1  -7   12.67    1.21
   3   1  -7   16.20    2.82
  -3  -1   7   12.05    1.47
  -3  -1   7   11.94    1.34
  -3  -1   7   11.22    1.93
  -3  -1   7   13.82    1.99
   2   1  -7   -0.79    1.28
   2   1  -7   -1.11    1.46
   2   1  -7   -0.06    1.26
   2   1  -7    1.25    0.89
  -2  -1   7   -0.78    0.89
  -2  -1   7    0.39    0.89
  -2  -1   7    0.07    0.97
  -2  -1   7   -1.20    1.06
   1   1  -7  116.30    4.20
   1   1  -7  107.04    3.92
   1   1  -7  115.05    5.01
   1   1  -7  111.99    5.52
  -1  -1   7  107.75    4.43
  -1  -1   7  117.75    4.24
  -1  -1   7  115.32    4.09
  -1  -1   7  109.02    3.37
  -1  -1   7  110.09    4.08
   0   1  -7   10.42    1.25
   0   1  -7   12.92    2.00
   0   1  -7   11.01    2.19
   0   1  -7   14.19    1.34
   0  -1   7   12.23    1.35
   0  -1   7   11.60    1.03
   0  -1   7   11.51    1.58
   0  -1   7   15.11    1.53
   0  -1   7   11.42    1.25
  -1   1  -7   62.49    2.48
  -1   1  -7   60.15    3.71
  -1   1  -7   61.72    2.52
  -1   1  -7   61.88    2.98
  -1   1  -7   61.00    3.79
   1  -1   7   64.10    2.85
   1  -1   7   63.69    2.55
   1  -1   7   62.89    2.91
   1  -1   7   64.92    2.81
  -2   1  -7    4.02    2.10
  -2   1  -7    4.72    1.57
  -2   1  -7    2.20    0.87
  -2   1  -7    2.97    0.90
   2  -1   7    1.84    1.05
   2  -1   7    2.20    0.90
   2  -1   7    2.35    1.05
   2  -1   7    2.24    0.98
  -3   1  -7   44.67    2.23
  -3   1  -7   46.10    2.22
  -3   1  -7   47.42    3.00
  -3   1  -7   46.82    3.34
   3  -1   7   47.95    2.51
   3  -1   7   44.71    2.15
   3  -1   7   41.96    2.53
   3  -1   7   50.47    2.52
  -4   1  -7   -0.60    1.41
  -4   1  -7    0.51    1.28
  -4   1  -7    0.27    1.08
   4  -1   7   -0.03    0.67
   4  -1   7    2.17    1.08
   4  -1   7    1.10    1.26
   4  -1   7   -1.43    0.96
   4  -1   7    1.13    0.98
  -5   1  -7   34.81    2.88
  -5   1  -7   25.56    2.15
  -5   1  -7   23.90    3.34
   5  -1   7   26.91    2.19
   5  -1   7   26.63    2.14
   5  -1   7   24.76    2.27
   5  -1   7   27.45    2.09
  -6   1  -7    5.65    1.65
  -6   1  -7    3.02    2.37
  -6   1  -7    5.07    1.87
   6  -1   7    4.01    1.41
   6  -1   7    3.05    1.43
   6  -1   7    4.67    1.68
   6  -1   7    5.97    1.85
  -7   1  -7    2.54    1.72
  -7   1  -7    1.46    2.56
  -7   1  -7    3.09    1.95
   7  -1   7    2.60    1.90
   7  -1   7    2.66    1.90
   7  -1   7    2.33    1.33
   7  -1   7    3.65    1.71
  -8   1  -7   -0.55    1.91
  -8   1  -7   -0.27    2.65
   8  -1   7    0.22    2.25
   8  -1   7   -0.50    1.60
  -9   1  -7    7.68    3.35
  -9   1  -7    7.33    2.70
   9  -1   7    4.50    2.48
   9  -1   7    8.53    2.87
   7   0  -7    0.49    2.97
   7   0  -7   -0.34    3.08
   7   0  -7    3.04    2.74
  -7   0   7    2.32    2.28
  -7   0   7   -0.55    1.97
   6   0  -7   -5.32    2.24
   6   0  -7   -2.08    2.13
   6   0  -7   -1.45    1.85
  -6   0   7    0.97    2.01
  -6   0   7   -1.23    2.23
   5   0  -7    2.27    2.39
   5   0  -7   -0.48    1.94
   5   0  -7   -4.19    1.94
  -5   0   7   -0.24    1.72
  -5   0   7    1.75    1.92
   4   0  -7   33.00    3.37
   4   0  -7   27.13    3.68
   4   0  -7   31.88    3.02
  -4   0   7   21.69    2.54
  -4   0   7   25.95    2.67
   3   0  -7    2.21    0.79
   3   0  -7    3.48    2.25
   3   0  -7    7.74    2.08
   3   0  -7    2.00    1.64
  -3   0   7    0.87    1.48
  -3   0   7    2.78    1.21
  -3   0   7    5.29    1.58
  -3   0   7    1.59    0.99
   2   0  -7    6.39    1.63
   2   0  -7    4.90    1.72
   2   0  -7    6.24    2.19
   2   0  -7    5.43    1.01
  -2   0   7    6.69    1.57
  -2   0   7    6.25    1.27
  -2   0   7    7.30    0.62
  -2   0   7    6.10    1.16
  -2   0   7    7.29    1.45
   1   0  -7    1.05    1.32
   1   0  -7    0.59    1.26
   1   0  -7    1.57    1.09
   1   0  -7   -0.16    0.70
  -1   0   7   -0.02    0.81
  -1   0   7   -0.61    0.86
  -1   0   7    0.44    0.50
  -1   0   7   -0.13    1.01
  -1   0   7   -1.40    1.06
   0   0  -7    3.76    0.94
   0   0  -7    5.36    1.10
   0   0  -7    5.75    1.63
   0   0  -7    4.03    1.49
   0   0   7    6.41    1.28
   0   0   7    5.97    1.03
   0   0   7    4.05    1.08
   0   0   7    5.15    1.06
   0   0   7    6.20    0.82
  -1   0  -7    3.23    1.72
  -1   0  -7    2.14    0.89
  -1   0  -7    2.14    1.65
  -1   0  -7    2.01    0.85
   1   0   7    2.32    0.83
   1   0   7    2.04    0.75
   1   0   7    2.86    0.84
   1   0   7    0.95    0.87
   1   0   7    3.25    1.04
  -2   0  -7    8.55    1.35
  -2   0  -7   12.58    2.30
  -2   0  -7   14.24    2.12
  -2   0  -7   14.22    1.02
  -2   0  -7   13.27    1.43
   2   0   7    9.14    1.31
   2   0   7   12.50    1.31
   2   0   7   10.13    1.22
   2   0   7   11.87    1.37
  -3   0  -7   13.88    2.02
  -3   0  -7   18.55    1.54
  -3   0  -7   14.72    1.21
  -3   0  -7   14.94    2.54
   3   0   7   14.30    1.32
   3   0   7   13.89    1.49
   3   0   7   14.05    1.56
   3   0   7   14.22    1.58
  -4   0  -7   -0.36    1.73
  -4   0  -7   -0.06    0.83
  -4   0  -7    1.73    1.25
  -4   0  -7    1.85    1.36
   4   0   7    0.30    0.84
   4   0   7    1.87    1.04
   4   0   7    1.25    0.71
   4   0   7    1.20    1.13
  -5   0  -7    0.45    1.46
  -5   0  -7   -2.24    0.84
  -5   0  -7   -3.50    1.76
   5   0   7   -0.40    1.00
   5   0   7   -3.25    1.21
   5   0   7   -0.46    1.22
   5   0   7    1.74    1.31
  -6   0  -7   10.04    1.50
  -6   0  -7   10.06    2.16
  -6   0  -7    8.42    2.23
   6   0   7   10.32    1.44
   6   0   7   11.66    1.74
   6   0   7   14.12    1.89
   6   0   7   12.73    2.04
  -7   0  -7    1.33    1.85
  -7   0  -7    3.08    1.90
   7   0   7    1.02    1.32
   7   0   7    1.99    1.39
   7   0   7    4.54    1.88
   7   0   7    0.18    1.05
  -8   0  -7    0.64    2.03
  -8   0  -7   -0.41    1.90
   8   0   7    2.28    2.06
   8   0   7   -0.16    1.48
  -9   0  -7    2.29    3.06
  -9   0  -7    2.90    2.39
   9   0   7    5.17    2.47
   9   0   7   -0.27    2.24
   7  -1  -7    0.19    2.42
   7  -1  -7   -0.78    3.05
   7  -1  -7   -1.17    3.05
  -7   1   7   -0.98    2.38
  -7   1   7   -0.75    2.58
   6  -1  -7    0.70    2.80
   6  -1  -7   -3.08    2.20
   6  -1  -7   -2.55    2.73
  -6   1   7   -0.03    1.99
  -6   1   7    1.71    2.25
   5  -1  -7    0.88    1.86
   5  -1  -7   -2.12    2.22
   5  -1  -7   -1.20    2.59
  -5   1   7   -1.50    1.83
  -5   1   7   -0.81    1.70
   4  -1  -7    0.90    2.36
   4  -1  -7    0.87    1.68
   4  -1  -7    0.70    1.71
  -4   1   7    2.33    1.70
  -4   1   7    0.48    1.31
   3  -1  -7    2.60    1.66
   3  -1  -7    0.38    0.67
   3  -1  -7    0.42    2.10
   3  -1  -7   -0.11    1.32
   3  -1  -7    1.40    0.75
  -3   1   7   -1.30    0.80
  -3   1   7   -0.56    0.98
  -3   1   7   -1.08    1.42
  -3   1   7   -0.22    1.33
   2  -1  -7    0.61    0.66
   2  -1  -7   -1.68    1.98
   2  -1  -7    2.18    1.28
   2  -1  -7   -1.75    1.39
   2  -1  -7    1.35    0.70
  -2   1   7   -0.28    0.90
  -2   1   7    0.28    0.98
  -2   1   7   -0.09    1.21
  -2   1   7    2.55    1.36
   1  -1  -7   -1.06    1.23
   1  -1  -7    0.52    0.66
   1  -1  -7    1.25    1.26
   1  -1  -7   -1.06    0.67
   1  -1  -7   -0.30    1.08
  -1   1   7   -1.13    1.06
  -1   1   7   -0.99    0.83
  -1   1   7   -0.69    0.93
  -1   1   7   -1.57    0.69
   0  -1  -7    3.22    0.88
   0  -1  -7    6.43    1.65
   0  -1  -7    3.77    1.16
   0  -1  -7    3.50    1.93
   0   1   7    3.19    0.93
   0   1   7    5.70    0.96
   0   1   7    4.76    1.08
   0   1   7    4.34    1.18
   0   1   7    5.58    0.90
  -1  -1  -7    1.06    1.61
  -1  -1  -7    0.40    0.62
  -1  -1  -7    1.16    1.42
  -1  -1  -7    1.84    0.78
   1   1   7    0.88    0.72
   1   1   7    0.95    0.91
   1   1   7    1.07    0.81
   1   1   7    1.04    0.58
   1   1   7    0.26    0.65
  -2  -1  -7    7.34    1.25
  -2  -1  -7    7.09    1.54
  -2  -1  -7    4.11    0.99
  -2  -1  -7    6.76    0.62
  -2  -1  -7    6.17    1.91
   2   1   7    6.28    1.07
   2   1   7    4.67    1.12
   2   1   7    5.91    1.12
   2   1   7    8.74    1.17
  -3  -1  -7    1.22    0.97
  -3  -1  -7    1.36    1.02
  -3  -1  -7    1.08    1.48
   3   1   7    0.99    1.02
   3   1   7    1.86    0.83
   3   1   7    1.50    0.78
   3   1   7    1.11    0.92
  -4  -1  -7    3.00    1.48
  -4  -1  -7    2.72    1.23
  -4  -1  -7    2.33    0.43
  -4  -1  -7    3.66    1.77
   4   1   7    2.45    1.15
   4   1   7    3.14    0.77
   4   1   7    4.15    1.11
   4   1   7    4.07    1.01
  -5  -1  -7   12.79    1.09
  -5  -1  -7   10.85    2.09
  -5  -1  -7   10.41    1.77
  -5  -1  -7    8.46    2.27
   5   1   7   11.82    1.66
   5   1   7   10.87    1.74
   5   1   7    9.59    1.38
  -6  -1  -7    7.04    2.13
  -6  -1  -7   12.34    2.35
   6   1   7   10.32    1.72
   6   1   7    9.99    1.44
   6   1   7    8.07    1.53
   6   1   7    7.69    1.85
  -7  -1  -7    0.02    1.65
  -7  -1  -7    0.39    1.75
   7   1   7    1.97    1.77
   7   1   7   -0.56    0.98
   7   1   7   -0.97    1.33
   7   1   7   -1.06    1.61
  -8  -1  -7    3.72    1.85
  -8  -1  -7    7.00    2.99
   8   1   7    1.59    1.62
   8   1   7    6.84    2.31
  -9  -1  -7    5.81    3.19
  -9  -1  -7    9.49    2.86
   9   1   7    6.31    2.53
   9   1   7    7.02    2.67
   7  -2  -7   -3.29    3.05
   7  -2  -7   -5.42    2.95
  -7   2   7    2.53    2.77
  -7   2   7   -1.58    2.14
   6  -2  -7   -0.39    2.90
   6  -2  -7    0.29    2.97
  -6   2   7   -0.36    2.00
  -6   2   7    0.80    1.99
  -6   2   7    2.88    2.53
   5  -2  -7    0.40    1.71
   5  -2  -7   -0.25    1.81
   5  -2  -7   -2.72    2.55
  -5   2   7    2.20    1.98
  -5   2   7   -0.86    1.98
   4  -2  -7    7.45    2.89
   4  -2  -7    6.78    2.52
   4  -2  -7    9.94    2.09
  -4   2   7    5.72    1.90
  -4   2   7    4.68    1.54
   3  -2  -7    0.97    2.37
   3  -2  -7    2.56    1.62
   3  -2  -7   -1.28    1.53
   3  -2  -7    1.65    0.95
  -3   2   7    3.82    1.12
  -3   2   7    3.84    1.60
  -3   2   7    0.00    1.43
  -3   2   7    1.00    0.86
   2  -2  -7   17.32    2.51
   2  -2  -7   18.41    2.14
   2  -2  -7   22.21    1.50
   2  -2  -7   18.87    1.54
   2  -2  -7   16.75    2.94
  -2   2   7   18.69    1.71
  -2   2   7   18.23    1.92
  -2   2   7   17.80    2.12
  -2   2   7   17.75    1.56
   1  -2  -7    0.87    0.76
   1  -2  -7    2.37    1.55
   1  -2  -7    4.05    2.00
   1  -2  -7    2.05    0.87
   1  -2  -7    1.78    1.17
  -1   2   7    1.83    1.23
  -1   2   7    3.17    1.03
  -1   2   7    1.53    0.90
  -1   2   7    2.33    0.94
   0  -2  -7    5.60    1.00
   0  -2  -7    7.57    1.06
   0  -2  -7    8.97    1.65
   0  -2  -7    5.28    1.89
   0  -2  -7    8.52    1.63
   0   2   7    6.76    0.99
   0   2   7    4.82    1.09
   0   2   7    6.47    1.34
   0   2   7    6.73    1.12
  -1  -2  -7    0.12    1.65
  -1  -2  -7    0.48    1.42
  -1  -2  -7   -0.34    0.79
  -1  -2  -7    0.87    1.07
  -1  -2  -7   -1.13    0.77
   1   2   7   -0.26    0.61
   1   2   7    1.32    0.73
   1   2   7    0.79    0.92
   1   2   7    0.21    0.54
  -2  -2  -7   97.83    4.02
  -2  -2  -7  107.72    4.84
  -2  -2  -7  113.40    4.41
   2   2   7  102.83    3.96
   2   2   7  104.57    3.87
   2   2   7  107.02    3.85
   2   2   7  106.91    3.89
  -3  -2  -7    9.67    1.66
  -3  -2  -7    7.43    1.81
  -3  -2  -7    8.22    1.44
   3   2   7    9.96    1.20
   3   2   7    8.65    1.26
   3   2   7    7.93    1.32
   3   2   7    9.50    1.37
  -4  -2  -7    3.33    1.28
  -4  -2  -7    1.81    1.62
  -4  -2  -7    3.93    1.58
   4   2   7    2.52    0.87
   4   2   7    4.02    0.82
   4   2   7    2.76    1.18
   4   2   7    3.20    0.98
  -5  -2  -7    0.16    1.64
  -5  -2  -7    2.73    1.43
  -5  -2  -7    3.55    1.68
   5   2   7    3.07    1.10
   5   2   7    2.93    1.34
   5   2   7    2.06    1.23
   5   2   7    3.42    0.66
  -6  -2  -7   66.43    3.61
  -6  -2  -7   57.91    4.02
   6   2   7   61.35    3.42
   6   2   7   65.69    3.19
  -7  -2  -7    6.77    2.20
  -7  -2  -7    8.58    2.77
   7   2   7    5.61    1.34
   7   2   7    7.99    2.05
   7   2   7    4.74    1.66
   7   2   7    6.52    1.94
  -8  -2  -7    0.30    2.61
  -8  -2  -7    1.40    2.02
   8   2   7    5.65    2.23
   8   2   7    2.43    1.62
  -9  -2  -7    0.95    2.27
  -9  -2  -7    0.86    1.78
   9   2   7    2.74    2.34
   9   2   7    1.71    2.40
 -10  -2  -7    4.08    3.25
  10   2   7   12.90    3.23
  10   2   7    7.84    2.81
   6  -3  -7   -4.72    2.88
   6  -3  -7   -2.90    2.87
  -6   3   7    0.21    2.31
  -6   3   7   -0.49    2.42
   5  -3  -7    6.07    3.06
   5  -3  -7    3.34    2.88
  -5   3   7    8.17    2.36
  -5   3   7   14.95    2.65
  -5   3   7    3.38    2.08
   4  -3  -7    0.80    1.69
   4  -3  -7   -0.74    2.22
   4  -3  -7   -0.33    1.18
   4  -3  -7   -1.74    2.52
  -4   3   7   -1.04    1.65
  -4   3   7    0.89    1.69
   3  -3  -7    8.84    1.46
   3  -3  -7    5.65    1.64
   3  -3  -7    5.35    2.27
   3  -3  -7    4.71    2.67
  -3   3   7    2.92    1.67
  -3   3   7    6.11    1.70
  -3   3   7    6.91    1.30
  -3   3   7    4.56    1.05
   2  -3  -7    2.94    2.26
   2  -3  -7    0.56    0.97
   2  -3  -7    0.61    0.78
   2  -3  -7   -0.17    1.09
   2  -3  -7   -0.09    1.82
  -2   3   7   -0.75    1.40
  -2   3   7    0.21    1.17
  -2   3   7    0.44    0.95
  -2   3   7    1.24    1.10
   1  -3  -7   81.71    4.09
   1  -3  -7   86.63    3.51
   1  -3  -7  102.46    5.37
   1  -3  -7   81.54    3.44
  -1   3   7   78.66    3.68
  -1   3   7   80.87    3.26
  -1   3   7   84.23    3.35
  -1   3   7   86.47    3.45
   0  -3  -7   11.21    1.39
   0  -3  -7   11.16    1.47
   0  -3  -7   12.43    1.99
   0  -3  -7   13.39    2.71
   0   3   7   10.45    1.27
   0   3   7    9.36    1.36
   0   3   7   13.40    1.32
   0   3   7   10.59    1.60
  -1  -3  -7   20.59    1.67
  -1  -3  -7   17.18    1.56
  -1  -3  -7   22.64    2.28
  -1  -3  -7   21.38    2.66
   1   3   7   22.48    1.74
   1   3   7   20.02    1.79
   1   3   7   21.42    1.17
   1   3   7   20.55    1.63
  -2  -3  -7   25.43    2.14
  -2  -3  -7   25.34    2.81
  -2  -3  -7   21.85    1.58
  -2  -3  -7   25.40    1.89
   2   3   7   25.62    0.84
   2   3   7   25.50    1.61
   2   3   7   24.47    1.65
   2   3   7   24.76    1.78
  -3  -3  -7   87.84    3.88
  -3  -3  -7   95.46    3.70
  -3  -3  -7   89.67    4.46
   3   3   7   91.88    3.45
   3   3   7   83.60    3.48
   3   3   7   86.17    3.37
   3   3   7   91.66    3.67
  -4  -3  -7    7.00    1.71
  -4  -3  -7   13.06    1.65
  -4  -3  -7   10.95    2.08
   4   3   7   12.50    1.67
   4   3   7    9.26    1.49
   4   3   7   10.26    1.37
   4   3   7   10.42    1.20
  -5  -3  -7    1.15    1.62
  -5  -3  -7    0.37    1.56
  -5  -3  -7    0.58    1.09
   5   3   7    0.78    1.23
   5   3   7    0.62    1.01
   5   3   7    2.46    1.30
   5   3   7    1.65    0.77
  -6  -3  -7   13.28    2.21
  -6  -3  -7   12.69    2.52
  -6  -3  -7   14.03    2.20
   6   3   7   12.99    1.81
   6   3   7   11.16    1.50
   6   3   7    9.80    1.66
  -7  -3  -7   21.36    3.18
  -7  -3  -7   22.69    3.14
   7   3   7   18.93    2.43
   7   3   7   24.52    2.25
   7   3   7   18.79    2.64
   7   3   7   17.45    1.73
  -8  -3  -7    3.73    1.92
  -8  -3  -7    4.54    2.71
   8   3   7    0.39    1.89
   8   3   7    4.70    1.72
   8   3   7    4.01    1.74
  -9  -3  -7   -0.12    1.79
  -9  -3  -7   -0.11    2.83
   9   3   7   -2.98    1.57
   9   3   7   -2.26    2.09
 -10  -3  -7    1.58    2.50
 -10  -3  -7    4.19    2.89
  10   3   7    2.12    2.80
  10   3   7    3.38    2.70
   6  -4  -7   -2.67    3.67
   6  -4  -7    0.35    3.20
  -6   4   7    3.35    2.46
  -6   4   7    3.66    2.59
   5  -4  -7    1.23    3.07
   5  -4  -7    1.74    2.93
  -5   4   7    0.16    1.94
  -5   4   7    2.39    2.22
   4  -4  -7   10.71    3.27
   4  -4  -7   15.93    2.16
   4  -4  -7   13.10    3.07
  -4   4   7    9.86    2.19
  -4   4   7   13.26    2.52
   3  -4  -7    3.08    1.39
   3  -4  -7    2.79    2.27
   3  -4  -7    2.20    2.44
  -3   4   7    1.88    1.57
  -3   4   7    0.21    0.88
  -3   4   7    0.63    1.09
  -3   4   7    1.31    1.29
   2  -4  -7    1.63    2.11
   2  -4  -7    1.28    1.27
   2  -4  -7   13.57    3.12
  -2   4   7    1.23    0.88
  -2   4   7    3.40    1.31
  -2   4   7    4.02    1.42
  -2   4   7    2.20    1.09
   1  -4  -7   20.68    1.99
   1  -4  -7   17.03    2.77
   1  -4  -7   26.77    3.57
  -1   4   7   19.79    1.75
  -1   4   7   18.67    1.80
  -1   4   7   19.08    2.07
  -1   4   7   19.87    1.67
   0  -4  -7   30.79    2.20
   0  -4  -7   31.99    2.93
   0  -4  -7   28.40    3.51
   0   4   7   28.85    1.88
   0   4   7   33.98    2.00
   0   4   7   32.80    1.88
   0   4   7   35.18    2.45
  -1  -4  -7   19.74    1.91
  -1  -4  -7   18.69    2.74
  -1  -4  -7   18.91    2.36
   1   4   7   19.64    1.25
   1   4   7   19.63    1.63
   1   4   7   17.02    1.88
   1   4   7   19.85    1.57
  -2  -4  -7    0.07    0.52
  -2  -4  -7    0.58    1.17
  -2  -4  -7   -0.21    1.24
  -2  -4  -7    1.92    1.62
   2   4   7    1.13    0.96
   2   4   7    0.98    0.46
   2   4   7    0.14    0.98
   2   4   7    0.38    0.99
  -3  -4  -7    9.07    1.52
  -3  -4  -7    9.89    1.60
  -3  -4  -7    8.91    2.07
  -3  -4  -7    8.86    1.27
   3   4   7    9.70    1.47
   3   4   7   12.08    1.46
   3   4   7   10.86    1.38
  -4  -4  -7   33.25    2.27
  -4  -4  -7   28.69    2.60
  -4  -4  -7   31.99    2.50
   4   4   7   34.11    2.28
   4   4   7   31.80    2.01
   4   4   7   31.30    2.08
   4   4   7   31.72    2.38
  -5  -4  -7   13.29    2.41
  -5  -4  -7   12.94    1.98
  -5  -4  -7   12.17    2.01
   5   4   7   14.77    2.01
   5   4   7   13.18    1.38
   5   4   7   14.04    1.84
   5   4   7   11.87    1.52
  -6  -4  -7   -1.06    1.53
  -6  -4  -7   -0.25    1.30
  -6  -4  -7    0.38    2.00
   6   4   7   -0.88    1.04
   6   4   7   -0.90    1.29
   6   4   7    1.35    1.08
  -7  -4  -7    2.11    2.10
  -7  -4  -7    5.17    2.00
  -7  -4  -7    3.11    2.12
   7   4   7    0.61    1.64
   7   4   7    0.85    1.70
   7   4   7    2.29    1.32
  -8  -4  -7   10.89    2.92
  -8  -4  -7    7.76    2.72
   8   4   7    9.57    2.52
   8   4   7    8.84    2.43
   8   4   7    9.99    1.79
  -9  -4  -7    6.37    3.18
  -9  -4  -7   -0.51    2.48
   9   4   7    4.95    2.47
   9   4   7    1.46    2.39
 -10  -4  -7   -2.81    2.87
  10   4   7   -0.63    2.55
  10   4   7   -0.38    2.46
   5  -5  -7    2.80    3.21
  -5   5   7   -0.13    2.21
  -5   5   7   -4.83    1.72
   4  -5  -7    3.49    2.07
   4  -5  -7    6.84    3.12
   4  -5  -7    1.90    2.88
  -4   5   7    2.30    1.94
  -4   5   7    2.09    1.91
   3  -5  -7    1.59    1.55
   3  -5  -7    4.22    2.63
   3  -5  -7    1.01    2.31
  -3   5   7    2.02    1.70
  -3   5   7    1.62    1.12
  -3   5   7    1.36    1.36
   2  -5  -7   11.60    2.12
   2  -5  -7    9.04    2.64
   2  -5  -7    7.42    2.13
  -2   5   7    6.96    1.42
  -2   5   7    8.54    1.88
  -2   5   7    9.21    2.01
  -2   5   7    7.73    1.24
   1  -5  -7   32.53    2.56
   1  -5  -7   48.03    4.70
   1  -5  -7   25.23    3.22
  -1   5   7   24.90    2.62
  -1   5   7   27.46    2.14
  -1   5   7   26.89    2.11
  -1   5   7   26.66    2.07
   0  -5  -7    1.27    1.40
   0  -5  -7    0.36    2.00
   0  -5  -7    0.19    1.89
   0   5   7    1.45    1.08
   0   5   7    2.65    1.07
   0   5   7    3.16    1.21
   0   5   7    2.53    1.15
  -1  -5  -7    2.51    1.87
  -1  -5  -7    9.71    1.74
  -1  -5  -7    2.47    1.94
   1   5   7    5.16    1.50
   1   5   7    7.45    1.22
   1   5   7    7.46    1.11
   1   5   7    6.42    1.26
  -2  -5  -7    7.41    1.63
  -2  -5  -7   10.51    2.05
  -2  -5  -7    7.66    1.98
   2   5   7   12.47    1.52
   2   5   7    7.39    1.55
   2   5   7    8.82    1.51
   2   5   7   11.40    1.00
  -3  -5  -7   33.90    3.09
  -3  -5  -7   33.45    2.25
  -3  -5  -7   30.36    2.73
  -3  -5  -7   29.92    1.58
   3   5   7   32.88    2.33
   3   5   7   35.25    2.26
   3   5   7   36.34    2.24
  -4  -5  -7    5.57    1.99
  -4  -5  -7    3.07    1.18
  -4  -5  -7    7.18    1.58
   4   5   7    6.67    1.53
   4   5   7    6.90    1.41
   4   5   7    4.60    1.27
   4   5   7    6.00    1.57
  -5  -5  -7   -1.77    1.71
  -5  -5  -7   -0.70    1.44
  -5  -5  -7   -0.23    1.41
   5   5   7    1.60    1.09
   5   5   7   -0.89    1.33
   5   5   7    0.88    1.52
   5   5   7    0.57    0.89
  -6  -5  -7    3.13    1.71
  -6  -5  -7    3.73    1.90
  -6  -5  -7    3.81    1.75
   6   5   7    6.58    1.73
   6   5   7    3.52    1.45
   6   5   7    3.23    1.22
  -7  -5  -7   18.87    2.85
  -7  -5  -7   20.89    3.28
  -7  -5  -7   24.54    2.96
   7   5   7   16.12    2.18
   7   5   7   12.28    1.64
   7   5   7   16.61    2.56
  -8  -5  -7    0.59    1.90
  -8  -5  -7    0.37    2.30
   8   5   7    1.98    1.76
   8   5   7    1.70    1.78
   8   5   7    0.64    1.56
  -9  -5  -7    1.38    2.81
  -9  -5  -7   -0.41    2.65
   9   5   7    0.77    2.38
   9   5   7    3.21    2.39
   5  -6  -7   -0.03    2.32
  -5   6   7    1.03    2.36
  -5   6   7    1.53    2.10
   4  -6  -7   15.23    2.52
   4  -6  -7   18.53    3.19
  -4   6   7   11.59    2.45
  -4   6   7    8.56    2.40
   3  -6  -7    0.40    1.82
   3  -6  -7    1.91    2.65
  -3   6   7    2.12    1.99
  -3   6   7    1.60    1.79
  -3   6   7    4.17    1.59
   2  -6  -7    0.45    2.30
   2  -6  -7   -0.42    1.72
   2  -6  -7   -0.59    2.63
  -2   6   7    0.31    0.92
  -2   6   7    1.81    1.22
  -2   6   7    2.00    1.73
  -2   6   7   -1.33    1.64
   1  -6  -7   12.15    2.16
   1  -6  -7    8.63    2.29
   1  -6  -7    7.45    2.59
  -1   6   7    9.63    1.75
  -1   6   7   10.15    1.57
  -1   6   7    8.38    1.79
  -1   6   7    9.38    2.08
   0  -6  -7   28.93    3.30
   0  -6  -7   33.78    2.86
   0  -6  -7   35.31    3.87
   0   6   7   33.19    2.42
   0   6   7   32.92    2.26
   0   6   7   33.88    2.23
   0   6   7   30.45    2.76
  -1  -6  -7    8.52    1.85
  -1  -6  -7    5.16    1.96
  -1  -6  -7    0.26    2.23
   1   6   7    9.12    1.40
   1   6   7    7.23    1.75
   1   6   7    9.77    1.35
   1   6   7    9.45    1.36
  -2  -6  -7    2.67    1.89
  -2  -6  -7    4.89    1.68
  -2  -6  -7    1.14    1.70
   2   6   7    3.62    1.45
   2   6   7    2.11    1.22
   2   6   7    4.12    1.23
   2   6   7    5.12    0.96
  -3  -6  -7    9.38    1.67
  -3  -6  -7   11.99    2.32
  -3  -6  -7    9.07    2.16
   3   6   7   14.26    1.66
   3   6   7   10.80    1.58
   3   6   7   11.43    1.77
  -4  -6  -7   38.18    2.89
  -4  -6  -7   35.45    3.32
  -4  -6  -7   39.00    3.14
   4   6   7   41.13    2.55
   4   6   7   42.17    2.77
   4   6   7   38.34    2.50
  -5  -6  -7    5.75    1.65
  -5  -6  -7    2.72    1.81
  -5  -6  -7    3.47    2.06
   5   6   7    5.81    1.84
   5   6   7    3.65    1.09
   5   6   7    3.97    1.19
   5   6   7    3.75    1.34
  -6  -6  -7    5.13    1.95
  -6  -6  -7    5.86    2.07
  -6  -6  -7    8.38    2.48
   6   6   7    4.38    1.22
   6   6   7    7.25    1.60
   6   6   7    3.65    1.98
   6   6   7    4.61    1.33
  -7  -6  -7    4.49    2.13
  -7  -6  -7    3.03    2.12
  -7  -6  -7    3.03    2.49
   7   6   7    4.66    2.18
   7   6   7    2.75    1.28
   7   6   7    6.04    1.89
  -8  -6  -7    7.07    2.47
  -8  -6  -7    7.64    3.01
   8   6   7   12.51    2.74
   8   6   7   11.79    2.80
   8   6   7    9.31    2.05
  -9  -6  -7    3.40    3.02
  -9  -6  -7    0.19    2.78
   9   6   7   -0.77    2.35
   9   6   7    0.49    2.28
   4  -7  -7   -1.69    2.91
   4  -7  -7   -0.68    2.17
  -4   7   7    2.64    2.25
  -4   7   7    2.42    2.30
   3  -7  -7   14.63    2.94
   3  -7  -7   16.65    2.79
  -3   7   7   14.51    2.60
  -3   7   7   10.95    2.51
   2  -7  -7    5.90    2.70
   2  -7  -7    2.34    2.12
  -2   7   7    0.26    1.47
  -2   7   7    7.08    1.96
  -2   7   7    4.31    1.37
  -2   7   7    4.86    1.50
   1  -7  -7    1.52    1.99
   1  -7  -7    1.63    2.60
  -1   7   7   -0.47    1.36
  -1   7   7    3.20    1.48
  -1   7   7    4.23    1.27
  -1   7   7    1.74    1.43
   0  -7  -7    6.03    2.09
   0  -7  -7    5.90    2.86
   0   7   7    4.63    1.29
   0   7   7    8.49    1.67
   0   7   7    4.57    1.58
   0   7   7    6.68    1.60
  -1  -7  -7   46.23    3.29
  -1  -7  -7   53.33    3.54
  -1  -7  -7   47.94    4.34
   1   7   7   47.92    3.34
   1   7   7   50.23    2.63
   1   7   7   45.11    2.94
   1   7   7   50.49    2.79
  -2  -7  -7    1.68    1.71
  -2  -7  -7    2.74    1.83
  -2  -7  -7    1.84    2.23
   2   7   7    2.24    1.17
   2   7   7    1.33    1.24
   2   7   7    2.92    1.03
   2   7   7    0.31    1.27
  -3  -7  -7    5.80    2.02
  -3  -7  -7    4.94    2.25
  -3  -7  -7    3.82    1.77
   3   7   7    8.37    1.77
   3   7   7    5.27    1.40
   3   7   7    4.49    1.52
  -4  -7  -7    9.59    2.31
  -4  -7  -7    7.49    1.97
  -4  -7  -7    6.50    2.03
   4   7   7    7.66    1.56
   4   7   7    6.82    1.58
   4   7   7    5.29    1.77
  -5  -7  -7   23.21    3.13
  -5  -7  -7   22.73    3.06
   5   7   7   24.20    2.87
   5   7   7   24.99    2.43
   5   7   7   18.18    1.89
   5   7   7   24.75    2.39
  -6  -7  -7    0.16    2.02
  -6  -7  -7   -1.73    1.91
   6   7   7   -1.38    1.91
   6   7   7    1.51    1.26
   6   7   7    0.20    1.25
   6   7   7    0.17    1.80
  -7  -7  -7    2.65    2.55
  -7  -7  -7    7.21    2.57
   7   7   7    4.83    2.03
   7   7   7    2.31    2.24
  -8  -7  -7    0.75    1.75
  -8  -7  -7   -0.02    2.68
   8   7   7   -1.00    2.03
   8   7   7    2.36    2.48
   8   7   7   -0.92    1.70
  -9  -7  -7    2.55    3.13
   9   7   7    0.57    2.52
   9   7   7    2.06    2.63
   3  -8  -7   -0.94    2.28
   3  -8  -7    1.94    2.87
  -3   8   7   -2.06    2.13
  -3   8   7   -0.36    1.95
   2  -8  -7    7.97    3.14
   2  -8  -7   11.99    2.79
  -2   8   7    8.35    2.19
  -2   8   7   12.41    2.78
  -2   8   7    9.00    2.02
   1  -8  -7    3.31    2.85
   1  -8  -7    0.10    2.19
  -1   8   7    2.19    1.63
  -1   8   7    0.21    1.94
  -1   8   7    0.85    1.45
   0  -8  -7    0.53    2.80
   0  -8  -7    2.92    2.25
   0   8   7    1.31    1.51
   0   8   7    1.59    1.45
   0   8   7    1.14    1.91
  -1  -8  -7    1.34    2.89
  -1  -8  -7    5.05    1.83
   1   8   7    6.46    1.45
   1   8   7    2.37    1.48
   1   8   7    5.95    2.09
  -2  -8  -7   -1.83    2.42
  -2  -8  -7    3.60    2.16
   2   8   7    3.52    1.55
   2   8   7    2.81    1.83
  -3  -8  -7   -0.33    1.59
  -3  -8  -7    0.56    1.81
  -3  -8  -7   -2.24    2.19
   3   8   7    2.12    1.57
   3   8   7    0.00    1.48
  -4  -8  -7    4.62    2.43
  -4  -8  -7    3.04    2.04
  -4  -8  -7    1.54    1.85
   4   8   7   -0.64    1.48
   4   8   7    2.83    1.74
  -5  -8  -7   -1.18    1.71
  -5  -8  -7    0.69    2.20
  -5  -8  -7    0.97    2.08
   5   8   7   -1.48    1.31
   5   8   7    2.07    1.97
  -6  -8  -7    2.23    2.19
  -6  -8  -7    0.85    2.22
   6   8   7   -3.58    2.11
   6   8   7    0.52    1.53
   6   8   7   -1.59    1.83
  -7  -8  -7   -1.15    2.40
  -7  -8  -7    0.46    2.33
   7   8   7    1.49    2.11
   7   8   7   -1.07    2.31
  -8  -8  -7    1.36    2.54
  -8  -8  -7   -2.68    2.48
   8   8   7   -0.16    2.44
   8   8   7    2.36    2.43
   2  -9  -7    4.36    3.22
   2  -9  -7   -0.07    2.63
  -2   9   7    4.04    2.24
  -2   9   7    0.51    1.59
  -2   9   7    1.77    2.48
   1  -9  -7   -1.54    2.35
   1  -9  -7   -1.30    2.88
  -1   9   7    1.95    1.96
  -1   9   7   -0.76    1.54
  -1   9   7   -0.69    2.16
   0  -9  -7    1.18    2.45
   0  -9  -7    0.50    2.96
   0   9   7    1.17    1.61
   0   9   7    2.77    1.56
   0   9   7    1.07    1.62
  -1  -9  -7    5.00    2.53
  -1  -9  -7   -1.38    2.99
   1   9   7    4.09    2.20
   1   9   7    4.65    1.49
  -2  -9  -7   -0.72    2.16
  -2  -9  -7   -3.58    2.63
   2   9   7    1.65    1.90
   2   9   7   -0.03    1.14
  -3  -9  -7    0.87    1.64
  -3  -9  -7   -1.56    2.43
   3   9   7   -0.88    1.66
   3   9   7    0.07    1.67
  -4  -9  -7   -3.60    2.22
  -4  -9  -7   -1.95    1.88
   4   9   7   -0.73    1.85
   4   9   7    0.15    1.71
  -5  -9  -7    1.45    2.47
  -5  -9  -7   -1.98    1.84
   5   9   7    1.20    1.69
   5   9   7    2.90    2.18
  -6  -9  -7    2.02    2.42
   6   9   7   -1.06    2.32
   6   9   7    0.57    2.02
   6   9   7   -0.92    1.42
  -7  -9  -7    5.57    2.65
  -7  -9  -7    4.33    2.74
   7   9   7    6.61    2.42
   7   9   7    3.27    2.74
   0 -10  -7   -2.89    2.87
   0 -10  -7    3.25    2.81
   0  10   7    2.79    1.87
   0  10   7   -0.42    2.41
  -1 -10  -7   -7.12    2.76
  -1 -10  -7    1.16    2.59
   1  10   7   -0.64    1.59
   1  10   7    0.37    2.11
  -2 -10  -7    7.81    2.82
  -2 -10  -7    5.68    3.45
   2  10   7    1.66    2.24
   2  10   7    2.66    1.83
  -3 -10  -7   -1.65    2.78
  -3 -10  -7   -0.21    2.32
   3  10   7   -0.53    1.73
   3  10   7    0.06    2.03
  -4 -10  -7   11.68    2.69
  -4 -10  -7    7.42    3.13
   4  10   7    9.87    2.55
   4  10   7    5.90    2.28
  -5 -10  -7   -0.95    2.57
  -5 -10  -7   -0.46    2.13
   5  10   7    3.34    2.07
   5  10   7   -0.78    2.28
  -6 -10  -7   -0.07    2.53
   6  10   7   -0.17    2.30
   6  10   7    3.55    2.11
   6  10   7    5.55    2.90
   3  11   7    0.49    2.34
   3  11   7    0.96    1.56
   4  11   7   -0.37    2.19
   2   9  -8    0.88    2.50
   2   9  -8   -2.81    2.93
  -2  -9   8   -1.15    2.74
  -2  -9   8    0.04    2.39
   1   9  -8    7.06    3.08
   1   9  -8    8.87    2.89
  -1  -9   8    5.65    2.55
  -1  -9   8    7.40    2.40
   0   9  -8    0.73    3.59
   0   9  -8    1.19    2.62
   0  -9   8    0.70    2.48
   0  -9   8    0.77    2.25
  -1   9  -8    0.75    2.53
  -1   9  -8   -4.45    3.29
   1  -9   8   -1.94    2.38
   1  -9   8    1.22    2.39
   4   8  -8   15.18    3.17
   4   8  -8    9.63    3.72
  -4  -8   8   13.07    2.64
  -4  -8   8   12.07    2.69
   3   8  -8    4.71    2.62
   3   8  -8    2.89    3.27
  -3  -8   8    6.18    2.44
  -3  -8   8    3.03    2.64
   2   8  -8   -1.17    2.85
   2   8  -8    0.99    2.24
  -2  -8   8    0.99    2.51
  -2  -8   8    4.90    2.28
   1   8  -8   -1.69    2.10
   1   8  -8   -1.13    2.83
  -1  -8   8   -2.22    1.85
  -1  -8   8   -1.37    2.20
   0   8  -8   32.07    3.71
   0   8  -8   22.02    4.51
   0  -8   8   25.78    3.12
   0  -8   8   26.51    3.43
  -1   8  -8    6.39    2.68
  -1   8  -8    4.54    2.88
   1  -8   8    6.91    2.09
   1  -8   8    4.61    2.40
  -2   8  -8   -0.08    2.72
  -2   8  -8    2.19    3.31
   2  -8   8    3.98    1.95
   2  -8   8    2.60    2.57
   2  -8   8    0.42    2.15
  -3   8  -8   -4.50    2.28
  -3   8  -8   -0.28    2.18
   3  -8   8    0.38    2.56
   3  -8   8   -2.82    2.22
   5   7  -8   -1.18    2.57
   5   7  -8   -0.13    2.78
  -5  -7   8   -3.09    1.78
  -5  -7   8   -1.03    2.47
   4   7  -8    2.05    2.51
   4   7  -8    1.65    2.85
   4   7  -8   -0.03    2.39
  -4  -7   8    1.45    2.34
  -4  -7   8    0.19    1.92
   3   7  -8   22.08    3.75
   3   7  -8   16.33    3.44
   3   7  -8   19.89    3.12
  -3  -7   8   17.00    3.04
  -3  -7   8   16.17    2.57
   2   7  -8    6.06    2.37
   2   7  -8   14.19    2.71
   2   7  -8    6.18    3.15
  -2  -7   8    9.35    2.36
  -2  -7   8   11.50    2.77
   1   7  -8   -3.27    1.94
   1   7  -8    2.37    2.09
   1   7  -8    2.24    2.81
  -1  -7   8   -0.44    2.04
  -1  -7   8    2.67    2.00
   0   7  -8    3.31    2.37
   0   7  -8    4.56    2.21
   0  -7   8    3.92    2.09
   0  -7   8    0.48    2.01
  -1   7  -8    7.14    2.44
  -1   7  -8    9.27    3.50
   1  -7   8   10.51    2.44
   1  -7   8    6.50    2.84
   1  -7   8    5.52    2.12
  -2   7  -8    3.14    2.32
  -2   7  -8    8.98    3.54
   2  -7   8    2.11    2.32
   2  -7   8    2.73    2.02
   2  -7   8    3.53    2.21
  -3   7  -8    4.02    2.41
  -3   7  -8    3.02    2.47
   3  -7   8   -0.63    2.29
   3  -7   8   -1.39    2.09
   3  -7   8   -0.57    1.62
  -4   7  -8    2.04    2.60
  -4   7  -8    2.41    2.83
   4  -7   8    2.01    2.42
   4  -7   8   -2.33    2.25
  -5   7  -8    1.39    2.67
  -5   7  -8    0.29    2.49
   5  -7   8    0.79    2.49
   5  -7   8    1.81    2.56
   6   6  -8    2.38    2.93
   6   6  -8   -0.08    2.93
  -6  -6   8   -1.14    2.42
  -6  -6   8    2.56    2.72
   5   6  -8    5.02    2.45
   5   6  -8    1.51    2.81
  -5  -6   8    2.35    2.48
  -5  -6   8    4.53    2.52
   4   6  -8    4.07    2.69
   4   6  -8   -0.27    2.56
  -4  -6   8    0.49    2.24
  -4  -6   8    4.07    2.11
  -4  -6   8    1.46    2.22
   3   6  -8   -4.36    1.87
   3   6  -8   -0.48    1.99
   3   6  -8    0.71    1.95
  -3  -6   8    0.50    1.77
  -3  -6   8    2.57    2.20
  -3  -6   8    0.44    1.52
   2   6  -8   -0.08    1.84
   2   6  -8    3.50    2.07
   2   6  -8   -0.29    1.96
  -2  -6   8   -1.83    1.91
  -2  -6   8    1.02    1.71
   1   6  -8    3.20    1.96
   1   6  -8    3.75    2.16
   1   6  -8   -0.01    2.07
  -1  -6   8    0.38    1.72
  -1  -6   8    2.20    1.58
  -1  -6   8   -0.11    1.42
   0   6  -8    7.59    2.19
   0   6  -8    4.10    2.85
   0   6  -8    4.96    2.03
   0  -6   8    5.82    1.94
   0  -6   8    9.67    2.21
   0  -6   8    4.56    1.85
  -1   6  -8   -0.53    1.78
  -1   6  -8    1.96    1.45
  -1   6  -8    0.93    2.79
   1  -6   8    0.95    1.68
   1  -6   8   -1.15    1.56
   1  -6   8   -0.13    1.68
  -2   6  -8    3.31    3.01
  -2   6  -8    0.79    1.87
   2  -6   8    0.56    1.60
   2  -6   8   -0.27    1.77
   2  -6   8    1.76    1.91
  -3   6  -8    4.14    2.17
  -3   6  -8   -0.53    2.60
   3  -6   8    1.27    2.06
   3  -6   8   -1.24    1.47
   3  -6   8   -0.85    1.90
  -4   6  -8    0.85    2.09
  -4   6  -8   10.88    2.89
   4  -6   8    1.84    2.25
   4  -6   8    5.29    2.41
  -5   6  -8   -0.03    2.18
  -5   6  -8   -1.67    2.49
   5  -6   8   -1.17    2.21
   5  -6   8    3.15    2.47
  -6   6  -8    0.13    2.30
  -6   6  -8    4.50    2.96
   6  -6   8    0.65    2.60
   6  -6   8    3.48    2.41
   6   5  -8    1.07    2.89
   6   5  -8    4.32    3.12
  -6  -5   8    2.00    2.55
  -6  -5   8    2.53    2.61
   5   5  -8   -1.70    2.54
   5   5  -8    5.39    2.91
  -5  -5   8    0.57    2.15
  -5  -5   8    0.32    2.29
   4   5  -8    1.36    2.38
   4   5  -8    1.09    1.92
  -4  -5   8    1.46    1.65
  -4  -5   8    2.95    2.20
  -4  -5   8   -0.16    1.54
   3   5  -8   30.76    3.98
   3   5  -8   28.56    4.06
  -3  -5   8   24.94    2.61
  -3  -5   8   29.45    2.63
  -3  -5   8   20.39    2.86
  -3  -5   8   31.97    3.20
   2   5  -8    4.82    1.94
   2   5  -8   -0.49    2.24
   2   5  -8   -2.59    1.84
  -2  -5   8    0.79    1.80
  -2  -5   8    3.95    1.55
  -2  -5   8    2.65    1.65
   1   5  -8   13.79    2.20
   1   5  -8   13.84    2.64
   1   5  -8   16.13    3.25
  -1  -5   8   15.55    2.42
  -1  -5   8   13.36    2.13
  -1  -5   8   15.35    2.01
   0   5  -8    1.48    1.91
   0   5  -8    1.57    1.53
   0   5  -8    1.26    2.31
   0  -5   8    0.02    1.64
   0  -5   8   -2.40    2.27
   0  -5   8   -1.44    1.44
   0  -5   8    0.43    1.40
  -1   5  -8   27.78    2.69
  -1   5  -8   34.11    2.69
  -1   5  -8   26.07    3.92
   1  -5   8   30.11    2.70
   1  -5   8   21.90    2.26
   1  -5   8   28.79    2.23
   1  -5   8   28.95    2.73
  -2   5  -8    3.02    1.34
  -2   5  -8    3.03    2.78
  -2   5  -8    1.16    1.61
   2  -5   8    1.14    1.29
   2  -5   8   -0.11    1.32
   2  -5   8    0.20    1.89
   2  -5   8   -0.27    1.33
  -3   5  -8   19.31    2.38
  -3   5  -8   16.58    3.57
  -3   5  -8   19.42    2.62
   3  -5   8   15.46    2.50
   3  -5   8   23.02    2.32
   3  -5   8   18.13    2.59
  -4   5  -8    1.33    2.56
  -4   5  -8    0.57    1.94
  -4   5  -8    2.09    1.66
   4  -5   8   -3.73    1.84
   4  -5   8    0.59    1.96
  -5   5  -8    4.56    2.89
  -5   5  -8    7.18    2.45
   5  -5   8   11.68    2.53
   5  -5   8    5.05    2.43
  -6   5  -8    0.70    2.05
  -6   5  -8   -1.06    2.08
   6  -5   8   -1.54    2.34
   6  -5   8   -1.36    2.04
  -7   5  -8    7.15    3.23
   7  -5   8    3.74    2.81
   6   4  -8   13.94    3.58
   6   4  -8   14.42    3.68
  -6  -4   8    9.73    2.79
  -6  -4   8    6.82    2.54
   5   4  -8    0.43    2.57
   5   4  -8   -0.20    2.50
  -5  -4   8    0.67    2.16
  -5  -4   8    0.76    2.11
   4   4  -8    8.04    2.89
   4   4  -8    7.56    2.84
  -4  -4   8    8.26    2.33
  -4  -4   8   11.14    2.49
  -4  -4   8    8.07    1.94
   3   4  -8   -1.84    2.06
   3   4  -8    0.46    2.24
  -3  -4   8   -0.20    1.74
  -3  -4   8    0.54    1.70
  -3  -4   8    2.13    1.47
  -3  -4   8   -0.46    1.41
   2   4  -8   25.46    3.61
   2   4  -8   19.12    3.21
  -2  -4   8   21.77    2.67
  -2  -4   8   16.64    2.19
  -2  -4   8   26.84    2.74
  -2  -4   8   22.23    2.13
   1   4  -8    2.14    2.25
   1   4  -8    2.91    1.75
   1   4  -8    1.33    1.94
  -1  -4   8    3.48    1.43
  -1  -4   8    4.37    1.77
  -1  -4   8    2.42    1.18
   0   4  -8   12.24    2.50
   0   4  -8   13.73    2.04
   0   4  -8   10.89    2.95
   0  -4   8   13.38    1.64
   0  -4   8   13.62    2.11
   0  -4   8   11.20    1.59
   0  -4   8   13.23    1.74
  -1   4  -8    3.34    1.57
  -1   4  -8    4.12    1.77
  -1   4  -8    7.21    3.12
   1  -4   8    3.25    1.50
   1  -4   8    2.59    1.49
   1  -4   8    3.85    1.56
   1  -4   8    4.79    1.46
  -2   4  -8   29.30    2.68
  -2   4  -8   24.42    3.44
  -2   4  -8   25.69    2.53
   2  -4   8   28.49    2.54
   2  -4   8   27.44    2.48
   2  -4   8   22.55    2.20
   2  -4   8   21.97    2.40
  -3   4  -8    0.23    2.45
  -3   4  -8    1.59    1.34
  -3   4  -8    1.15    1.70
   3  -4   8   -0.32    1.18
   3  -4   8   -0.73    1.08
   3  -4   8   -0.02    1.10
   3  -4   8   -0.95    1.62
  -4   4  -8   22.70    2.53
  -4   4  -8   14.22    3.24
  -4   4  -8   22.09    2.62
   4  -4   8   21.55    2.30
   4  -4   8   23.91    2.81
   4  -4   8   24.12    2.04
   4  -4   8   17.03    2.07
  -5   4  -8    3.27    2.72
  -5   4  -8    1.13    2.06
  -5   4  -8    2.46    1.77
   5  -4   8    0.05    2.01
   5  -4   8    2.19    1.94
   5  -4   8    0.59    1.42
  -6   4  -8   -0.36    1.46
  -6   4  -8    1.51    2.18
  -6   4  -8   -3.55    1.97
   6  -4   8    2.10    1.93
   6  -4   8   -0.05    2.25
  -7   4  -8   -2.10    2.51
   7  -4   8    1.82    1.97
   7  -4   8   -2.66    2.24
   7   3  -8    1.40    2.26
   7   3  -8    0.54    3.15
  -7  -3   8   -0.13    2.61
  -7  -3   8   -4.77    2.48
   6   3  -8   -1.51    2.63
   6   3  -8   -1.89    2.51
  -6  -3   8   -0.24    2.28
  -6  -3   8    0.32    2.28
   5   3  -8   12.57    3.31
   5   3  -8   11.01    2.45
   5   3  -8   10.64    2.74
  -5  -3   8   10.73    2.56
  -5  -3   8    5.97    1.86
   4   3  -8   -0.34    2.28
   4   3  -8   -2.04    1.57
   4   3  -8    0.33    2.21
  -4  -3   8    0.71    1.85
  -4  -3   8   -1.73    1.70
  -4  -3   8   -0.59    1.42
   3   3  -8    4.31    1.41
   3   3  -8    1.55    2.16
   3   3  -8    1.06    2.22
  -3  -3   8    0.66    1.37
  -3  -3   8    1.80    1.23
  -3  -3   8    2.59    1.71
  -3  -3   8    1.79    1.79
   2   3  -8    0.18    0.94
   2   3  -8    0.01    2.14
   2   3  -8    0.94    2.24
  -2  -3   8    1.22    1.54
  -2  -3   8   -0.26    1.44
  -2  -3   8   -0.38    1.54
  -2  -3   8    0.88    1.36
   1   3  -8    9.08    2.08
   1   3  -8    8.06    2.09
   1   3  -8   10.33    1.07
  -1  -3   8    6.37    1.75
  -1  -3   8   10.14    1.82
  -1  -3   8    6.52    1.56
  -1  -3   8    8.17    1.54
   0   3  -8   -0.35    0.53
   0   3  -8   -0.62    1.13
   0   3  -8   -0.20    1.94
   0   3  -8    1.46    2.13
   0  -3   8   -2.77    0.95
   0  -3   8    1.18    1.40
   0  -3   8    1.96    1.32
   0  -3   8    0.96    1.20
  -1   3  -8   11.14    2.34
  -1   3  -8   15.33    2.76
  -1   3  -8   12.11    1.74
   1  -3   8   11.83    1.68
   1  -3   8   12.41    1.61
   1  -3   8   11.70    1.83
   1  -3   8    8.58    1.65
  -2   3  -8    4.80    2.62
  -2   3  -8    3.38    1.59
  -2   3  -8    0.49    1.37
   2  -3   8   -0.77    1.23
   2  -3   8    2.76    1.43
   2  -3   8    2.14    1.39
   2  -3   8    0.72    1.46
  -3   3  -8    0.03    1.29
  -3   3  -8    7.82    3.07
  -3   3  -8    4.58    1.62
   3  -3   8    0.26    1.41
   3  -3   8   -0.74    1.22
   3  -3   8    1.67    1.51
   3  -3   8    0.28    1.03
   3  -3   8   -1.23    0.86
  -4   3  -8    4.10    1.85
  -4   3  -8    2.47    1.50
  -4   3  -8    2.80    2.61
   4  -3   8    3.20    1.78
   4  -3   8    1.06    0.99
   4  -3   8    2.89    1.76
   4  -3   8    1.14    1.07
   4  -3   8    0.46    1.28
  -5   3  -8    0.49    1.80
  -5   3  -8    3.69    1.70
  -5   3  -8    0.87    2.45
   5  -3   8    2.73    1.87
   5  -3   8    3.03    1.32
   5  -3   8    1.38    1.41
   5  -3   8    0.86    1.85
  -6   3  -8    2.09    2.60
  -6   3  -8    0.89    2.02
  -6   3  -8    3.54    1.99
   6  -3   8    1.33    2.10
   6  -3   8    5.66    2.02
   6  -3   8    0.94    1.37
   6  -3   8    3.21    1.68
  -7   3  -8   -0.99    2.53
  -7   3  -8    1.55    1.76
   7  -3   8    2.03    2.45
   7  -3   8    0.10    1.95
   7  -3   8    2.27    2.36
  -8   3  -8    0.13    2.07
  -8   3  -8    3.35    2.56
   8  -3   8    2.26    2.77
   7   2  -8   -0.62    3.12
   7   2  -8   -3.63    2.51
   7   2  -8   -2.54    2.65
  -7  -2   8    0.73    2.24
  -7  -2   8    1.07    2.81
   6   2  -8    0.23    2.56
   6   2  -8   -3.46    2.63
   6   2  -8   -1.56    2.24
  -6  -2   8    1.81    2.46
  -6  -2   8   -0.38    1.99
   5   2  -8   -1.44    1.91
   5   2  -8   -0.82    2.24
   5   2  -8   -1.05    2.26
  -5  -2   8    0.11    1.94
  -5  -2   8    2.90    2.18
   4   2  -8   -1.02    1.57
   4   2  -8    0.13    2.13
   4   2  -8   -0.86    2.14
  -4  -2   8   -2.02    1.96
  -4  -2   8    1.19    1.43
  -4  -2   8    1.23    1.83
   3   2  -8    1.39    2.31
   3   2  -8   -0.07    1.32
   3   2  -8    0.69    2.06
  -3  -2   8    0.10    1.70
  -3  -2   8    3.12    1.71
  -3  -2   8    1.09    1.26
  -3  -2   8   -2.39    1.08
   2   2  -8   -0.92    1.04
   2   2  -8   -0.05    1.36
   2   2  -8    0.51    1.54
  -2  -2   8    0.70    1.58
  -2  -2   8   -0.50    1.22
  -2  -2   8    1.72    1.35
  -2  -2   8   -1.13    1.34
   1   2  -8    1.37    1.48
   1   2  -8    0.80    0.92
   1   2  -8    0.59    1.94
  -1  -2   8    0.15    1.15
  -1  -2   8    1.22    1.42
  -1  -2   8   -0.65    1.08
  -1  -2   8    1.18    1.25
   0   2  -8   32.06    2.90
   0   2  -8   35.71    3.38
   0   2  -8   33.46    1.78
   0  -2   8   34.47    1.77
   0  -2   8   28.87    2.07
   0  -2   8   29.67    2.42
   0  -2   8   32.10    2.26
   0  -2   8   32.79    2.29
  -1   2  -8    2.06    2.33
  -1   2  -8   -0.55    1.19
  -1   2  -8    0.30    0.70
  -1   2  -8    1.33    1.08
   1  -2   8   -1.21    1.13
   1  -2   8    0.85    1.24
   1  -2   8   -1.18    1.09
   1  -2   8    1.34    1.02
  -2   2  -8   -1.33    0.84
  -2   2  -8    1.30    2.33
  -2   2  -8   -0.50    0.82
  -2   2  -8    1.04    1.49
   2  -2   8   -1.90    1.06
   2  -2   8   -0.33    1.06
   2  -2   8   -0.26    1.04
   2  -2   8   -1.00    1.09
  -3   2  -8    5.41    2.78
  -3   2  -8    9.40    1.57
  -3   2  -8    6.96    1.84
   3  -2   8    7.39    1.28
   3  -2   8    7.24    1.29
   3  -2   8    7.19    1.56
   3  -2   8    5.67    1.51
   3  -2   8    9.52    1.57
  -4   2  -8   23.30    2.68
  -4   2  -8   21.52    3.41
  -4   2  -8   31.55    2.58
   4  -2   8   18.20    2.15
   4  -2   8   23.07    2.07
   4  -2   8   20.10    1.61
   4  -2   8   18.35    1.77
   4  -2   8   20.68    2.32
  -5   2  -8    5.79    1.82
  -5   2  -8    2.49    1.61
  -5   2  -8    2.28    2.53
   5  -2   8    3.48    1.46
   5  -2   8    3.89    1.41
   5  -2   8    3.92    1.80
   5  -2   8    2.42    1.72
  -6   2  -8   -2.23    1.64
  -6   2  -8   -2.88    1.59
  -6   2  -8    0.16    1.61
   6  -2   8   -1.12    1.17
   6  -2   8    1.44    1.46
   6  -2   8    0.90    1.80
   6  -2   8   -1.63    1.62
  -7   2  -8   -1.35    2.59
  -7   2  -8    2.93    2.00
   7  -2   8    5.47    2.18
   7  -2   8   -0.49    1.41
   7  -2   8    0.68    1.95
   7  -2   8   -2.19    1.95
  -8   2  -8   10.02    2.67
  -8   2  -8    6.42    3.27
   8  -2   8    4.19    2.60
   8  -2   8    7.69    2.35
   7   1  -8   -5.57    2.65
   7   1  -8    0.85    3.60
   7   1  -8    7.11    3.20
  -7  -1   8   -1.64    2.53
  -7  -1   8   -1.36    2.22
   6   1  -8   -0.73    2.41
   6   1  -8   -6.22    2.62
   6   1  -8   -3.23    2.79
  -6  -1   8   -0.40    2.04
  -6  -1   8   -2.07    2.31
   5   1  -8    6.09    2.50
   5   1  -8    3.53    2.82
   5   1  -8    1.89    2.30
  -5  -1   8    3.17    2.13
  -5  -1   8    0.15    1.98
   4   1  -8   -0.94    2.25
   4   1  -8   -1.34    1.76
   4   1  -8   -0.22    1.47
  -4  -1   8   -0.73    1.76
  -4  -1   8    0.62    1.85
   3   1  -8   21.46    3.40
   3   1  -8   35.39    3.33
   3   1  -8   33.71    3.11
  -3  -1   8   34.05    2.66
  -3  -1   8   30.26    2.22
  -3  -1   8   28.30    2.50
  -3  -1   8   30.74    2.06
   2   1  -8    6.65    2.12
   2   1  -8    4.28    1.63
   2   1  -8    3.40    1.86
  -2  -1   8    7.89    1.76
  -2  -1   8    3.47    1.18
  -2  -1   8    3.94    1.68
  -2  -1   8    4.13    1.33
   1   1  -8   18.88    1.69
   1   1  -8   22.56    2.73
   1   1  -8   16.13    2.83
  -1  -1   8   18.39    1.79
  -1  -1   8   20.00    1.93
  -1  -1   8   18.19    1.07
  -1  -1   8   18.43    1.89
  -1  -1   8   19.32    2.01
   0   1  -8   17.28    1.61
   0   1  -8   17.42    2.79
   0   1  -8   20.71    2.92
   0  -1   8   16.15    1.30
   0  -1   8   19.70    1.84
   0  -1   8   13.99    1.73
   0  -1   8   15.11    1.90
   0  -1   8   15.45    1.71
  -1   1  -8   77.20    4.63
  -1   1  -8   78.87    3.11
  -1   1  -8   75.38    4.46
  -1   1  -8   76.76    3.04
   1  -1   8   72.52    3.30
   1  -1   8   78.88    3.46
   1  -1   8   76.46    3.21
   1  -1   8   81.19    3.07
  -2   1  -8    5.20    1.53
  -2   1  -8    4.21    1.07
  -2   1  -8    3.34    1.02
   2  -1   8    4.61    1.14
   2  -1   8    5.19    1.08
   2  -1   8    5.13    1.25
   2  -1   8    4.03    1.09
  -3   1  -8    9.03    1.40
  -3   1  -8    7.46    2.65
  -3   1  -8    9.20    1.40
  -3   1  -8    7.20    1.84
   3  -1   8    7.65    1.50
   3  -1   8    7.76    1.22
   3  -1   8    7.31    1.44
   3  -1   8    5.81    1.49
  -4   1  -8    8.65    2.35
  -4   1  -8    8.59    1.53
  -4   1  -8   10.41    1.89
   4  -1   8    7.46    1.69
   4  -1   8   10.81    1.20
   4  -1   8    7.74    1.49
   4  -1   8    8.30    1.49
  -5   1  -8   53.43    3.43
  -5   1  -8   50.77    4.45
  -5   1  -8   52.72    2.79
   5  -1   8   50.07    2.88
   5  -1   8   57.62    3.04
   5  -1   8   56.38    3.25
   5  -1   8   51.75    3.26
  -6   1  -8    3.40    1.90
  -6   1  -8    1.90    1.93
   6  -1   8    0.33    1.72
   6  -1   8   -0.09    1.61
   6  -1   8    1.12    1.71
   6  -1   8    1.34    1.30
  -7   1  -8    2.54    2.82
  -7   1  -8    3.03    2.01
   7  -1   8   -0.18    1.31
   7  -1   8    3.96    1.93
   7  -1   8   -1.98    1.34
   7  -1   8    0.60    1.71
  -8   1  -8   -2.17    2.66
  -8   1  -8    2.99    2.30
   8  -1   8    3.93    2.45
   8  -1   8    1.51    2.26
  -9   1  -8    9.23    3.09
  -9   1  -8    2.03    3.25
   9  -1   8    8.36    2.97
   9  -1   8    8.41    2.72
   7   0  -8   -0.93    3.06
   7   0  -8    0.90    2.77
   7   0  -8   -2.02    2.50
  -7   0   8    0.02    2.82
  -7   0   8    1.13    2.37
   6   0  -8   11.64    3.82
   6   0  -8    6.57    3.05
   6   0  -8   10.55    2.93
  -6   0   8    1.84    2.24
  -6   0   8   10.12    2.73
   5   0  -8   -3.10    2.18
   5   0  -8    0.08    1.94
   5   0  -8   -2.17    1.76
  -5   0   8   -1.32    1.90
  -5   0   8    0.81    2.02
   4   0  -8    7.17    2.35
   4   0  -8    6.26    2.28
   4   0  -8    2.93    2.08
  -4   0   8    4.78    1.94
  -4   0   8    7.91    2.07
   3   0  -8   20.29    2.85
   3   0  -8   18.17    2.71
   3   0  -8   11.84    2.60
  -3   0   8   14.08    1.80
  -3   0   8   12.80    2.02
  -3   0   8   10.45    2.11
  -3   0   8   13.31    1.57
   2   0  -8   40.92    2.90
   2   0  -8   30.72    3.79
   2   0  -8   38.47    3.07
  -2   0   8   40.86    2.36
  -2   0   8   37.03    2.47
  -2   0   8   39.26    2.37
  -2   0   8   32.93    2.75
   1   0  -8    7.67    1.67
   1   0  -8    4.16    2.17
   1   0  -8    2.54    1.72
  -1   0   8    3.59    1.46
  -1   0   8    5.69    1.40
  -1   0   8    5.95    1.34
  -1   0   8    3.96    1.16
  -1   0   8    4.49    0.75
   0   0  -8   10.70    1.60
   0   0  -8   10.33    2.11
   0   0  -8    8.18    2.26
   0   0   8    9.05    1.58
   0   0   8    8.42    1.32
   0   0   8    8.83    1.05
   0   0   8   10.10    1.34
   0   0   8    7.80    1.41
  -1   0  -8   26.43    1.92
  -1   0  -8   23.61    3.00
  -1   0  -8   25.82    3.11
   1   0   8   23.78    1.95
   1   0   8   22.95    1.47
   1   0   8   18.90    1.86
   1   0   8   22.68    1.88
   1   0   8   25.70    1.68
  -2   0  -8   65.93    4.28
  -2   0  -8   60.81    2.81
  -2   0  -8   61.10    3.70
  -2   0  -8   67.59    2.43
   2   0   8   67.51    3.02
   2   0   8   58.81    3.02
   2   0   8   63.25    2.97
   2   0   8   66.32    2.92
  -3   0  -8    8.54    1.48
  -3   0  -8    8.30    1.99
  -3   0  -8    9.30    2.83
   3   0   8    9.29    1.55
   3   0   8    9.30    1.26
   3   0   8    9.29    1.49
   3   0   8    8.30    1.42
  -4   0  -8   -1.76    2.03
  -4   0  -8    1.85    1.25
  -4   0  -8    0.00    1.50
  -4   0  -8   -0.16    0.84
   4   0   8    2.17    1.21
   4   0   8    1.32    0.93
   4   0   8    0.37    1.29
   4   0   8    0.12    1.18
  -5   0  -8   13.45    2.41
  -5   0  -8    9.80    2.53
   5   0   8   12.44    2.01
   5   0   8   14.09    1.91
   5   0   8    9.90    1.52
   5   0   8    9.54    1.85
  -6   0  -8   16.04    3.27
  -6   0  -8   23.75    2.83
   6   0   8   27.65    2.56
   6   0   8   22.11    2.56
   6   0   8   20.95    1.97
   6   0   8   31.78    2.66
  -7   0  -8    4.40    1.77
  -7   0  -8    3.05    2.16
   7   0   8    3.11    1.95
   7   0   8    4.12    1.44
   7   0   8    4.13    2.03
   7   0   8    1.65    1.58
  -8   0  -8   -2.01    2.79
  -8   0  -8    0.33    2.03
   8   0   8   -2.54    1.91
   8   0   8    1.21    1.97
  -9   0  -8   -1.46    2.15
  -9   0  -8    3.40    3.25
   9   0   8    1.23    2.48
   9   0   8    6.66    2.58
   6  -1  -8   -0.13    2.85
   6  -1  -8    2.34    2.39
   6  -1  -8   -2.60    3.01
  -6   1   8   -1.41    2.13
  -6   1   8    2.00    2.51
   5  -1  -8    6.80    2.87
   5  -1  -8    9.63    2.46
   5  -1  -8    7.14    3.32
  -5   1   8    6.20    2.23
  -5   1   8    8.12    2.42
   4  -1  -8    2.38    2.09
   4  -1  -8    0.19    2.53
   4  -1  -8    0.12    2.20
  -4   1   8    0.79    1.84
  -4   1   8    2.74    1.79
   3  -1  -8    1.06    1.68
   3  -1  -8   -0.25    2.35
   3  -1  -8    0.60    1.93
  -3   1   8    0.78    1.21
  -3   1   8    0.20    1.23
  -3   1   8    0.45    1.53
  -3   1   8    1.12    1.02
   2  -1  -8    0.97    0.72
   2  -1  -8    3.02    1.78
   2  -1  -8    3.04    1.80
   2  -1  -8    0.98    2.17
  -2   1   8    0.91    1.26
  -2   1   8    3.52    1.29
  -2   1   8    1.38    1.29
  -2   1   8    1.86    1.14
   1  -1  -8   39.61    3.85
   1  -1  -8   37.46    2.74
   1  -1  -8   36.48    2.90
  -1   1   8   35.84    2.62
  -1   1   8   40.24    2.36
  -1   1   8   39.34    2.31
  -1   1   8   38.97    2.31
  -1   1   8   39.29    1.83
   0  -1  -8   16.33    2.31
   0  -1  -8   11.90    2.67
   0  -1  -8   14.98    1.86
   0   1   8   10.77    1.41
   0   1   8   14.54    1.28
   0   1   8   11.79    1.68
   0   1   8   13.72    1.40
   0   1   8   16.27    1.47
  -1  -1  -8    4.31    1.97
  -1  -1  -8    5.74    1.29
  -1  -1  -8    3.45    2.05
   1   1   8    6.82    1.19
   1   1   8    3.37    1.11
   1   1   8    5.06    0.88
   1   1   8    4.86    1.27
   1   1   8    4.93    1.27
  -2  -1  -8   16.24    0.98
  -2  -1  -8   20.51    2.74
  -2  -1  -8   20.58    1.94
  -2  -1  -8   14.92    2.49
   2   1   8   19.78    1.68
   2   1   8   14.05    1.56
   2   1   8   19.77    1.77
   2   1   8   14.14    1.56
  -3  -1  -8   16.84    1.82
  -3  -1  -8   23.53    3.00
  -3  -1  -8   18.75    2.61
   3   1   8   21.92    1.68
   3   1   8   18.05    1.71
   3   1   8   20.34    1.87
   3   1   8   15.39    1.75
  -4  -1  -8    9.76    2.13
  -4  -1  -8   10.03    2.34
  -4  -1  -8   13.19    1.80
   4   1   8   11.58    1.21
   4   1   8    9.62    1.47
   4   1   8    8.75    1.61
   4   1   8   11.58    1.71
  -5  -1  -8    5.96    1.95
  -5  -1  -8    2.39    2.08
  -5  -1  -8    6.78    1.70
   5   1   8    8.76    1.71
   5   1   8    5.04    1.31
   5   1   8    9.21    1.74
  -6  -1  -8    3.38    1.92
  -6  -1  -8    1.01    2.33
   6   1   8    3.45    1.61
   6   1   8    1.06    1.25
   6   1   8    1.15    1.67
   6   1   8    3.71    1.25
  -7  -1  -8   -1.76    2.49
  -7  -1  -8    1.65    1.96
   7   1   8    0.88    1.59
   7   1   8    0.01    1.73
   7   1   8   -0.18    1.39
   7   1   8    1.20    1.16
  -8  -1  -8   -2.21    2.68
  -8  -1  -8   -0.49    2.01
   8   1   8    2.20    2.18
   8   1   8    0.47    2.03
   8   1   8    4.08    2.11
  -9  -1  -8   -0.19    2.34
  -9  -1  -8   -0.67    2.24
   9   1   8    2.10    2.54
   9   1   8    0.43    1.79
   6  -2  -8   -0.80    3.31
   6  -2  -8    2.08    3.15
  -6   2   8   -1.93    2.03
  -6   2   8   -0.44    2.48
   5  -2  -8   -2.58    2.85
   5  -2  -8   -1.36    2.59
   5  -2  -8    1.92    2.02
  -5   2   8    1.83    2.08
  -5   2   8   -1.08    2.08
   4  -2  -8    2.22    1.90
   4  -2  -8   -0.23    2.66
   4  -2  -8   -0.65    2.29
  -4   2   8   -1.57    1.86
  -4   2   8    0.43    1.79
   3  -2  -8    7.50    2.00
   3  -2  -8    7.43    2.37
   3  -2  -8    6.92    2.97
  -3   2   8    5.13    1.56
  -3   2   8    8.85    2.08
  -3   2   8    5.76    1.41
  -3   2   8    5.83    1.24
   2  -2  -8   40.92    4.21
   2  -2  -8   31.91    2.72
   2  -2  -8   40.22    3.29
   2  -2  -8   35.10    2.00
  -2   2   8   37.00    2.25
  -2   2   8   35.75    2.09
  -2   2   8   32.18    2.82
  -2   2   8   34.13    2.40
   1  -2  -8    3.77    1.02
   1  -2  -8    6.83    1.68
   1  -2  -8    8.58    1.96
   1  -2  -8    8.25    2.66
  -1   2   8    2.74    1.10
  -1   2   8    4.46    1.28
  -1   2   8    5.93    1.39
  -1   2   8    5.48    1.67
   0  -2  -8    8.41    2.11
   0  -2  -8    1.59    1.03
   0  -2  -8    1.53    1.44
   0  -2  -8    8.95    2.83
   0   2   8    0.31    1.20
   0   2   8   -0.17    1.07
   0   2   8    1.49    0.93
   0   2   8    0.35    0.98
  -1  -2  -8   19.78    3.07
  -1  -2  -8   19.99    2.54
  -1  -2  -8   23.91    1.88
   1   2   8   19.90    1.77
   1   2   8   22.96    1.80
   1   2   8   20.17    1.90
   1   2   8   21.48    1.29
   1   2   8   22.82    1.99
  -2  -2  -8   60.98    4.08
  -2  -2  -8   60.72    3.13
  -2  -2  -8   58.91    3.47
  -2  -2  -8   60.41    1.84
   2   2   8   63.03    2.89
   2   2   8   60.46    2.88
   2   2   8   63.93    2.82
   2   2   8   57.49    2.92
  -3  -2  -8    3.30    1.33
  -3  -2  -8   -1.12    1.46
  -3  -2  -8   -0.59    1.60
   3   2   8    2.10    0.96
   3   2   8    1.65    1.04
   3   2   8    3.78    1.20
   3   2   8    2.45    1.20
  -4  -2  -8   -0.12    1.23
  -4  -2  -8    0.17    1.48
  -4  -2  -8    0.83    1.57
   4   2   8   -0.09    0.89
   4   2   8    0.26    1.25
   4   2   8    0.17    0.89
   4   2   8    0.74    1.07
  -5  -2  -8   10.01    2.55
  -5  -2  -8    8.82    2.19
  -5  -2  -8   12.99    2.06
   5   2   8   11.58    1.58
   5   2   8   10.76    1.77
   5   2   8   12.97    1.86
   5   2   8   10.81    1.22
  -6  -2  -8   15.69    2.95
  -6  -2  -8   16.33    2.35
  -6  -2  -8   15.48    2.68
   6   2   8   19.95    2.22
   6   2   8   13.12    2.06
   6   2   8   17.90    1.83
  -7  -2  -8    1.58    2.47
  -7  -2  -8    0.92    1.95
   7   2   8    0.38    1.50
   7   2   8    0.82    1.90
   7   2   8    1.53    1.77
   7   2   8    0.29    1.28
  -8  -2  -8    3.02    2.84
  -8  -2  -8    2.86    2.27
   8   2   8    1.45    1.53
   8   2   8   -0.64    1.92
   8   2   8    0.54    1.53
  -9  -2  -8   -1.70    2.30
  -9  -2  -8   -0.57    3.08
   9   2   8   -1.09    2.29
   9   2   8    2.62    2.57
   6  -3  -8   -1.56    2.95
   6  -3  -8    1.75    3.66
  -6   3   8    0.99    2.17
  -6   3   8    3.02    2.74
   5  -3  -8   20.60    4.36
   5  -3  -8   12.30    3.45
  -5   3   8   12.73    2.83
  -5   3   8    8.46    2.03
   4  -3  -8   -0.33    2.38
   4  -3  -8    2.62    2.97
  -4   3   8    1.19    1.98
  -4   3   8   -0.67    1.30
   3  -3  -8    2.46    1.28
   3  -3  -8    1.11    1.58
   3  -3  -8    0.83    2.55
   3  -3  -8    1.92    1.73
  -3   3   8    1.93    1.87
  -3   3   8    2.12    1.05
  -3   3   8    1.46    1.19
  -3   3   8    0.91    1.72
   2  -3  -8   25.29    2.20
   2  -3  -8   26.86    2.11
   2  -3  -8   26.15    3.69
   2  -3  -8   23.11    2.99
  -2   3   8   22.01    2.28
  -2   3   8   18.10    2.39
  -2   3   8   26.83    2.22
  -2   3   8   26.31    2.03
   1  -3  -8   60.52    3.13
   1  -3  -8   62.27    2.86
   1  -3  -8   73.22    5.02
   1  -3  -8   69.43    3.99
  -1   3   8   60.19    2.85
  -1   3   8   63.20    2.97
  -1   3   8   61.15    3.00
  -1   3   8   57.15    3.42
   0  -3  -8    3.04    1.17
   0  -3  -8    3.05    2.50
   0  -3  -8    4.90    1.50
   0  -3  -8    2.86    1.70
   0   3   8    3.76    1.45
   0   3   8    3.42    1.02
   0   3   8    4.60    1.27
   0   3   8    2.53    1.06
  -1  -3  -8    7.92    1.37
  -1  -3  -8    6.65    2.76
  -1  -3  -8    7.23    1.78
  -1  -3  -8    6.01    1.55
   1   3   8    6.27    1.49
   1   3   8    8.42    0.96
   1   3   8   10.43    1.48
   1   3   8    7.98    1.34
  -2  -3  -8   19.10    3.06
  -2  -3  -8   20.07    2.27
  -2  -3  -8   17.19    1.96
   2   3   8   23.76    1.92
   2   3   8   21.18    0.78
   2   3   8   24.72    1.99
   2   3   8   24.62    1.93
   2   3   8   26.20    1.95
  -3  -3  -8   72.30    4.36
  -3  -3  -8   73.22    3.58
   3   3   8   63.97    3.19
   3   3   8   67.95    3.01
   3   3   8   73.72    3.30
   3   3   8   65.25    3.10
  -4  -3  -8   -2.40    1.42
  -4  -3  -8   -0.63    0.94
  -4  -3  -8   -0.33    1.27
   4   3   8   -1.03    0.86
   4   3   8   -0.27    0.92
   4   3   8    0.73    1.13
   4   3   8   -2.25    1.15
  -5  -3  -8    8.93    2.28
  -5  -3  -8    9.29    2.13
  -5  -3  -8   10.89    1.78
   5   3   8   11.63    1.87
   5   3   8   12.88    1.85
   5   3   8   11.51    1.59
   5   3   8   10.43    1.20
  -6  -3  -8    7.54    2.23
  -6  -3  -8    8.16    2.39
  -6  -3  -8    4.44    1.90
   6   3   8    5.32    1.65
   6   3   8    6.44    1.77
   6   3   8    7.76    1.45
  -7  -3  -8   23.39    3.12
  -7  -3  -8   29.10    3.58
   7   3   8   25.18    2.79
   7   3   8   24.12    2.18
   7   3   8   25.53    2.64
   7   3   8   30.97    3.29
  -8  -3  -8    2.38    2.77
  -8  -3  -8    1.97    2.29
   8   3   8    5.20    1.92
   8   3   8    4.87    1.80
   8   3   8    5.22    1.75
  -9  -3  -8    3.35    3.17
  -9  -3  -8   -1.51    2.41
   9   3   8    0.22    2.51
   9   3   8    0.56    2.38
   5  -4  -8    5.30    3.26
   5  -4  -8    9.12    3.66
  -5   4   8    0.76    1.97
  -5   4   8    3.01    2.50
   4  -4  -8   18.42    3.44
   4  -4  -8   25.49    4.10
  -4   4   8   18.02    2.64
  -4   4   8   13.59    2.62
   3  -4  -8    2.74    1.60
   3  -4  -8    5.74    2.89
   3  -4  -8    0.00    1.75
  -3   4   8    2.14    1.67
  -3   4   8    1.88    1.88
  -3   4   8    3.64    1.35
   2  -4  -8    0.47    1.46
   2  -4  -8    4.62    2.28
   2  -4  -8    7.79    3.21
  -2   4   8    1.28    1.28
  -2   4   8   -0.19    0.93
  -2   4   8    3.98    1.50
  -2   4   8    1.88    1.19
   1  -4  -8   18.92    2.02
   1  -4  -8   26.44    3.88
   1  -4  -8   18.72    2.58
  -1   4   8   18.05    1.80
  -1   4   8   16.39    1.95
  -1   4   8   14.28    2.18
  -1   4   8   20.54    1.96
   0  -4  -8   23.95    2.91
   0  -4  -8   29.29    2.28
   0  -4  -8   25.41    3.68
   0   4   8   28.98    1.84
   0   4   8   27.70    2.03
   0   4   8   28.16    2.19
   0   4   8   27.10    2.15
  -1  -4  -8    1.80    1.36
  -1  -4  -8    2.49    1.29
  -1  -4  -8    1.88    2.58
   1   4   8    0.60    1.06
   1   4   8    1.72    0.80
   1   4   8    1.81    1.15
   1   4   8    1.14    0.97
  -2  -4  -8   -1.22    1.87
  -2  -4  -8    1.12    1.49
  -2  -4  -8   -0.71    0.67
  -2  -4  -8    0.22    1.31
   2   4   8    1.10    1.22
   2   4   8    0.82    0.82
   2   4   8    1.52    0.93
  -3  -4  -8    8.02    1.93
  -3  -4  -8    7.96    2.34
  -3  -4  -8    5.94    1.24
   3   4   8    8.35    1.41
   3   4   8    9.66    1.66
   3   4   8    6.87    1.45
   3   4   8    7.86    1.41
  -4  -4  -8   13.28    1.75
  -4  -4  -8   12.61    2.05
  -4  -4  -8   15.95    2.65
   4   4   8   10.98    1.41
   4   4   8   14.83    1.64
   4   4   8   13.58    1.64
   4   4   8   13.83    1.92
  -5  -4  -8    0.61    1.55
  -5  -4  -8   -0.80    1.78
  -5  -4  -8   -1.29    1.36
   5   4   8   -0.44    0.96
   5   4   8    0.33    1.09
   5   4   8    1.25    1.13
   5   4   8    0.25    1.40
  -6  -4  -8    2.40    1.71
  -6  -4  -8    3.97    1.91
  -6  -4  -8   -1.37    1.68
   6   4   8    3.02    1.70
   6   4   8    2.36    1.22
   6   4   8    1.68    1.58
  -7  -4  -8    0.18    1.93
  -7  -4  -8    1.14    2.45
  -7  -4  -8   -0.05    2.14
   7   4   8    2.34    1.73
   7   4   8    1.11    1.82
   7   4   8    2.55    1.27
  -8  -4  -8    1.78    2.50
  -8  -4  -8   -1.12    2.45
   8   4   8    0.05    1.58
   8   4   8   -0.45    2.05
   8   4   8   -0.21    2.05
  -9  -4  -8    0.27    2.85
  -9  -4  -8   -1.44    2.53
   9   4   8    4.36    2.49
   9   4   8   -0.73    2.35
   5  -5  -8    0.10    2.38
  -5   5   8    2.28    2.75
  -5   5   8   -0.84    2.03
   4  -5  -8   18.51    4.97
   4  -5  -8    5.70    2.98
  -4   5   8   -0.32    1.89
  -4   5   8   -0.84    1.93
   3  -5  -8    5.64    2.70
   3  -5  -8    5.61    1.78
   3  -5  -8   12.05    3.55
  -3   5   8    2.12    1.71
  -3   5   8    3.50    1.66
   2  -5  -8    0.24    1.74
   2  -5  -8    2.68    2.69
   2  -5  -8    5.72    2.39
  -2   5   8    1.71    1.25
  -2   5   8   -0.21    0.92
  -2   5   8    1.23    1.61
  -2   5   8    0.61    1.32
   1  -5  -8    1.33    2.52
   1  -5  -8    2.76    1.58
   1  -5  -8    3.60    1.74
  -1   5   8    2.49    1.40
  -1   5   8    2.80    1.71
  -1   5   8    2.10    1.27
  -1   5   8    1.28    1.04
   0  -5  -8    1.90    2.47
   0  -5  -8    2.00    1.99
   0  -5  -8    1.67    1.54
   0   5   8    1.50    1.11
   0   5   8    1.38    1.50
   0   5   8    2.59    1.11
   0   5   8    2.36    1.32
  -1  -5  -8    1.60    1.50
  -1  -5  -8    0.08    2.27
  -1  -5  -8    5.26    1.65
   1   5   8    5.84    1.28
   1   5   8    4.97    1.01
   1   5   8    3.68    1.16
   1   5   8    4.14    1.55
  -2  -5  -8    0.55    1.09
  -2  -5  -8   -1.14    1.88
  -2  -5  -8    0.22    1.66
   2   5   8   -0.51    1.03
   2   5   8    0.69    1.15
   2   5   8    1.53    1.35
  -3  -5  -8    2.15    1.54
  -3  -5  -8    1.81    1.33
  -3  -5  -8   -0.84    1.87
   3   5   8    1.63    0.94
   3   5   8    2.46    1.41
   3   5   8    1.04    0.96
  -4  -5  -8   -1.84    1.87
  -4  -5  -8   -3.39    1.84
  -4  -5  -8    0.19    1.57
   4   5   8   -0.02    1.02
   4   5   8    0.26    1.00
   4   5   8    1.05    1.11
   4   5   8    0.76    1.22
  -5  -5  -8    1.27    2.06
  -5  -5  -8    1.02    1.49
  -5  -5  -8   -0.35    1.22
   5   5   8    0.33    1.06
   5   5   8   -0.78    1.12
   5   5   8    3.55    1.68
   5   5   8   -0.22    1.47
  -6  -5  -8    0.08    1.77
  -6  -5  -8   -1.14    1.77
  -6  -5  -8   -0.52    1.52
   6   5   8   -1.57    1.59
   6   5   8    0.91    1.21
   6   5   8   -1.20    1.63
  -7  -5  -8   -0.07    2.28
  -7  -5  -8   -1.31    1.80
  -7  -5  -8    1.48    2.26
   7   5   8   -1.60    1.53
   7   5   8    0.83    1.89
   7   5   8    0.03    1.34
  -8  -5  -8    0.73    2.61
  -8  -5  -8    0.03    2.77
   8   5   8   -0.77    1.59
   8   5   8   -3.49    1.92
   8   5   8    0.69    1.66
   8   5   8    1.36    2.00
  -9  -5  -8    2.08    2.83
  -9  -5  -8    3.76    3.03
   9   5   8    0.72    1.90
   9   5   8    3.82    2.64
   4  -6  -8    2.16    3.01
  -4   6   8    1.06    2.33
  -4   6   8    5.89    2.47
   3  -6  -8   -0.92    2.53
   3  -6  -8    0.13    2.15
  -3   6   8   -1.93    1.97
  -3   6   8   -0.69    1.73
   2  -6  -8   -3.38    1.64
   2  -6  -8   -0.79    2.24
   2  -6  -8   -0.67    2.44
  -2   6   8   -0.46    1.23
  -2   6   8   -1.94    1.65
  -2   6   8   -0.47    1.04
  -2   6   8   -0.59    1.94
   1  -6  -8    1.92    2.74
   1  -6  -8    7.43    2.02
   1  -6  -8    5.25    2.08
  -1   6   8    5.14    1.51
  -1   6   8    3.99    1.94
  -1   6   8    4.40    1.49
  -1   6   8    3.50    1.34
   0  -6  -8   10.61    2.33
   0  -6  -8   16.68    2.38
   0  -6  -8    6.51    2.39
   0   6   8   13.04    1.68
   0   6   8   10.80    1.87
   0   6   8   11.71    1.59
   0   6   8   13.51    1.91
  -1  -6  -8   -1.65    1.87
  -1  -6  -8    0.33    1.60
  -1  -6  -8    0.64    2.17
   1   6   8    0.54    0.94
   1   6   8    1.32    1.03
   1   6   8   -1.43    1.45
   1   6   8    1.71    1.20
  -2  -6  -8    5.70    1.83
  -2  -6  -8   -1.13    2.23
  -2  -6  -8    1.65    1.99
   2   6   8    6.40    1.40
   2   6   8    5.53    1.32
   2   6   8    3.65    1.64
  -3  -6  -8    3.27    2.08
  -3  -6  -8   -2.46    2.17
  -3  -6  -8    3.90    1.76
   3   6   8    3.56    1.30
   3   6   8    2.08    1.42
   3   6   8    3.61    1.49
  -4  -6  -8    7.71    2.42
  -4  -6  -8    4.94    2.01
  -4  -6  -8    5.13    1.85
   4   6   8    3.97    1.41
   4   6   8    4.58    1.40
   4   6   8    6.66    1.76
  -5  -6  -8   13.92    2.80
  -5  -6  -8   10.63    2.27
   5   6   8    8.16    1.54
   5   6   8    8.28    1.97
   5   6   8    7.17    1.46
   5   6   8    8.28    1.77
  -6  -6  -8    7.89    2.38
  -6  -6  -8    9.03    2.79
   6   6   8    5.01    1.43
   6   6   8    5.92    1.62
   6   6   8    7.06    2.20
  -7  -6  -8    0.69    2.49
  -7  -6  -8   -0.45    2.05
   7   6   8   -0.94    2.06
   7   6   8    0.39    1.84
   7   6   8   -0.87    2.16
  -8  -6  -8    2.89    2.92
  -8  -6  -8   -2.45    2.08
   8   6   8    3.95    2.41
   8   6   8    4.23    2.20
  -9  -6  -8    5.61    2.66
  -9  -6  -8    2.91    4.31
   9   6   8    6.54    2.28
   9   6   8    5.01    2.71
   3  -7  -8    1.67    2.57
   3  -7  -8    7.12    3.12
  -3   7   8    5.52    2.28
  -3   7   8    7.07    2.52
   2  -7  -8   -1.44    1.99
   2  -7  -8   -4.56    2.22
  -2   7   8    1.08    1.66
  -2   7   8    1.22    2.07
  -2   7   8   -0.41    1.53
   1  -7  -8    4.46    2.28
   1  -7  -8    3.89    2.68
  -1   7   8    2.79    2.12
  -1   7   8    6.03    1.80
  -1   7   8    5.79    1.66
  -1   7   8    4.56    1.40
   0  -7  -8    6.25    2.17
   0  -7  -8    5.55    2.80
   0   7   8    2.86    1.50
   0   7   8    2.70    1.94
   0   7   8    4.41    1.38
   0   7   8    3.39    1.42
  -1  -7  -8    4.77    2.23
  -1  -7  -8    3.35    2.08
  -1  -7  -8    4.50    2.02
   1   7   8    3.65    1.49
   1   7   8    2.64    1.81
   1   7   8    1.68    1.23
  -2  -7  -8    0.33    2.06
  -2  -7  -8    2.92    2.43
  -2  -7  -8    4.58    1.64
   2   7   8    2.25    1.36
   2   7   8    5.67    1.62
   2   7   8    2.12    1.28
  -3  -7  -8   16.74    3.02
  -3  -7  -8   17.86    2.52
  -3  -7  -8   15.38    2.57
   3   7   8   12.79    1.78
   3   7   8   12.51    2.07
   3   7   8   11.04    1.57
  -4  -7  -8    0.84    1.34
  -4  -7  -8   -0.98    2.14
  -4  -7  -8    2.88    2.12
   4   7   8    0.90    1.21
   4   7   8    0.47    1.26
   4   7   8   -0.01    1.37
  -5  -7  -8    0.99    2.18
  -5  -7  -8    1.60    2.11
   5   7   8    2.53    1.36
   5   7   8    1.89    1.92
   5   7   8    4.62    1.98
  -6  -7  -8    7.94    2.56
  -6  -7  -8    7.61    2.71
   6   7   8    6.33    2.14
   6   7   8    7.82    2.42
  -7  -7  -8   12.59    3.24
  -7  -7  -8   13.03    3.10
   7   7   8   15.62    2.77
   7   7   8   11.27    2.78
  -8  -7  -8   -2.44    2.74
  -8  -7  -8    0.64    2.42
   8   7   8   -1.63    1.89
   8   7   8    1.83    2.48
   2  -8  -8    0.93    2.85
   2  -8  -8    3.51    2.51
  -2   8   8    5.95    2.08
  -2   8   8    3.13    2.44
  -2   8   8    2.40    1.79
   1  -8  -8    3.85    3.00
   1  -8  -8    1.93    2.38
  -1   8   8    3.67    2.36
  -1   8   8    4.15    1.75
  -1   8   8    3.86    1.64
   0  -8  -8    2.19    2.39
   0  -8  -8    1.09    2.29
   0   8   8    1.05    1.54
   0   8   8    1.73    2.24
  -1  -8  -8    0.88    2.19
  -1  -8  -8    1.73    2.23
   1   8   8    1.49    1.56
   1   8   8    4.25    2.10
  -2  -8  -8   -1.58    1.90
  -2  -8  -8    1.27    2.80
   2   8   8    0.60    1.49
   2   8   8    0.14    1.30
  -3  -8  -8    9.41    2.89
  -3  -8  -8   10.94    2.50
  -3  -8  -8    9.84    2.45
   3   8   8    8.15    1.99
   3   8   8   12.16    2.03
  -4  -8  -8    4.98    2.62
  -4  -8  -8    5.11    2.16
  -4  -8  -8    3.01    2.26
   4   8   8    5.01    1.84
   4   8   8    5.84    1.98
  -5  -8  -8   -0.64    1.91
  -5  -8  -8    1.99    2.11
  -5  -8  -8    0.79    2.33
   5   8   8   -0.49    1.94
   5   8   8    0.41    1.64
  -6  -8  -8   -4.14    2.06
  -6  -8  -8    2.04    2.50
   6   8   8    1.87    1.44
   6   8   8    1.19    2.07
   6   8   8   -0.32    1.72
  -7  -8  -8    3.47    2.52
  -7  -8  -8    2.44    2.72
   7   8   8    6.10    2.36
   7   8   8    3.43    2.53
  -8  -8  -8    2.38    3.37
  -8  -8  -8    0.95    2.66
   8   8   8   -0.62    2.56
   8   8   8   -1.25    2.08
   1  -9  -8   -2.06    2.32
   1  -9  -8   -1.80    2.81
  -1   9   8    1.57    1.69
  -1   9   8   -0.69    1.76
   0  -9  -8   -5.59    2.28
   0  -9  -8   -2.72    2.97
   0   9   8    1.37    1.60
   0   9   8    0.02    2.30
  -1  -9  -8   -1.85    2.46
  -1  -9  -8   -1.12    3.05
   1   9   8   -5.00    1.84
   1   9   8    0.71    1.62
  -2  -9  -8    1.24    2.48
  -2  -9  -8    1.16    3.19
   2   9   8    5.09    1.90
   2   9   8    6.76    2.38
  -3  -9  -8   -2.06    2.81
  -3  -9  -8    4.95    2.44
   3   9   8    3.65    2.09
   3   9   8    2.87    1.84
  -4  -9  -8   -0.37    1.97
  -4  -9  -8    3.20    2.26
   4   9   8    1.04    1.78
   4   9   8    3.12    2.12
  -5  -9  -8   -0.37    2.07
  -5  -9  -8   -0.09    2.61
   5   9   8    1.21    1.68
   5   9   8    1.95    2.25
  -6  -9  -8    3.60    2.80
   6   9   8    5.13    2.01
   6   9   8    2.27    2.65
   6   9   8    5.21    1.87
  -7  -9  -8    6.70    2.99
  -7  -9  -8    5.61    2.87
   7   9   8    2.42    2.79
   7   9   8    5.27    2.65
  -1 -10  -8   -3.35    3.19
  -1 -10  -8   -4.77    2.61
   1  10   8   -1.65    1.62
   1  10   8   -4.63    2.12
  -2 -10  -8   -2.06    3.17
  -2 -10  -8    3.66    2.80
   2  10   8   -0.45    1.68
   2  10   8    2.51    2.42
  -3 -10  -8    8.99    2.87
  -3 -10  -8    6.35    3.40
   3  10   8    9.79    2.35
   3  10   8    4.50    2.36
  -4 -10  -8    5.08    3.11
  -4 -10  -8    9.18    2.81
   4  10   8    7.02    2.07
   4  10   8    7.86    2.46
  -5 -10  -8    1.68    2.78
  -5 -10  -8   -0.07    1.75
   5  10   8   -2.31    1.95
   5  10   8    1.19    2.42
  -6 -10  -8    5.85    3.21
   6  10   8   -4.02    1.91
   6  10   8   -2.70    2.33
  -3  -8   9   -2.45    2.71
  -3  -8   9    1.78    2.34
   2   8  -9    6.30    2.73
   2   8  -9    2.83    3.37
  -2  -8   9    2.96    2.70
  -2  -8   9    2.61    2.32
   1   8  -9    4.10    2.49
   1   8  -9   -0.60    2.39
  -1  -8   9   -0.83    2.47
  -1  -8   9    1.72    2.25
   0   8  -9    5.49    2.95
   0   8  -9   11.95    2.97
   0  -8   9    5.88    2.40
   0  -8   9    7.54    2.81
  -1   8  -9    0.90    2.49
  -1   8  -9   -3.05    3.22
   1  -8   9   -2.78    2.20
   1  -8   9    0.12    2.37
  -2   8  -9   12.76    4.19
  -2   8  -9   14.52    3.15
   2  -8   9   13.39    3.12
   2  -8   9   13.45    2.71
   4   7  -9   -4.58    2.34
   4   7  -9    1.48    2.39
   4   7  -9   -1.93    2.28
  -4  -7   9   -3.81    2.28
  -4  -7   9   -1.27    2.64
   3   7  -9    9.55    2.69
   3   7  -9    5.55    3.04
   3   7  -9    6.63    2.86
  -3  -7   9    6.54    2.76
  -3  -7   9    9.23    2.54
   2   7  -9   -0.97    2.77
   2   7  -9   -2.36    2.32
   2   7  -9    2.85    2.28
  -2  -7   9   -1.58    2.25
  -2  -7   9    3.15    2.26
   1   7  -9    8.20    3.57
   1   7  -9    9.61    2.65
  -1  -7   9   10.25    2.76
  -1  -7   9    8.41    2.40
   0   7  -9    1.69    2.10
   0   7  -9    1.54    3.26
   0  -7   9   -2.33    2.00
   0  -7   9   -0.76    1.91
  -1   7  -9    5.04    2.49
  -1   7  -9    3.10    3.53
   1  -7   9    2.66    2.17
   1  -7   9    3.00    2.16
  -2   7  -9   -2.36    1.94
  -2   7  -9    0.50    3.30
   2  -7   9   -1.19    2.27
   2  -7   9   -1.91    1.82
  -3   7  -9    9.13    2.71
  -3   7  -9    2.44    3.34
   3  -7   9    2.31    2.30
   3  -7   9    6.65    2.21
   3  -7   9   11.19    3.26
  -4   7  -9    5.69    2.82
  -4   7  -9    1.73    3.01
   4  -7   9    1.75    2.70
   4  -7   9   -0.14    2.36
   5   6  -9   -0.44    2.93
   5   6  -9   -0.78    3.02
  -5  -6   9    0.35    2.70
  -5  -6   9   -2.26    2.41
   4   6  -9   -0.32    2.76
   4   6  -9   -0.56    2.64
  -4  -6   9   -0.38    1.83
  -4  -6   9    2.10    2.32
  -4  -6   9   -0.76    2.38
   3   6  -9   -2.24    2.68
   3   6  -9    0.56    2.16
   3   6  -9    2.50    2.58
  -3  -6   9   -2.57    2.16
  -3  -6   9    0.63    2.31
   2   6  -9    0.03    1.97
   2   6  -9   -1.22    1.96
   2   6  -9   -3.25    1.98
  -2  -6   9   -0.76    1.79
  -2  -6   9   -0.09    2.22
   1   6  -9   -1.28    1.84
   1   6  -9   -3.15    2.09
   1   6  -9   -1.32    2.04
  -1  -6   9   -1.82    1.76
  -1  -6   9    0.24    2.10
   0   6  -9    0.64    2.71
   0   6  -9    0.89    1.89
   0   6  -9    1.43    1.86
   0  -6   9   -2.34    1.78
   0  -6   9    1.06    1.38
  -1   6  -9    2.64    1.56
  -1   6  -9    1.98    3.12
  -1   6  -9    2.35    2.01
   1  -6   9    0.48    1.91
   1  -6   9    2.14    2.00
  -2   6  -9   -1.85    2.92
  -2   6  -9   -0.67    2.02
   2  -6   9   -2.14    2.04
   2  -6   9   -2.03    1.65
   2  -6   9    1.38    2.12
  -3   6  -9    4.67    2.22
  -3   6  -9    5.61    2.69
   3  -6   9    1.74    2.34
   3  -6   9    3.01    1.95
   3  -6   9    0.69    1.67
  -4   6  -9    1.02    2.26
  -4   6  -9   -0.57    2.76
   4  -6   9    1.86    2.46
   4  -6   9   -0.74    2.15
  -5   6  -9   -0.42    2.55
  -5   6  -9    1.44    2.65
   5  -6   9   -2.75    2.28
   5  -6   9    0.20    2.46
   5   5  -9    3.78    2.46
   5   5  -9    0.68    3.01
  -5  -5   9    2.34    2.49
  -5  -5   9   -0.58    1.71
   4   5  -9   -0.19    2.69
   4   5  -9   -2.26    2.44
  -4  -5   9   -1.16    2.20
  -4  -5   9   -1.07    1.61
   3   5  -9   -2.78    1.72
   3   5  -9   -1.72    2.38
  -3  -5   9    0.92    2.03
  -3  -5   9   -1.91    1.70
  -3  -5   9   -1.63    1.38
  -3  -5   9    0.80    2.04
   2   5  -9    3.30    1.83
   2   5  -9   -0.01    2.48
   2   5  -9    1.31    2.25
  -2  -5   9    1.25    1.76
  -2  -5   9   -0.58    1.99
  -2  -5   9   -1.48    1.45
   1   5  -9   16.98    3.62
   1   5  -9   12.47    2.79
   1   5  -9   18.29    2.53
  -1  -5   9   16.26    2.11
  -1  -5   9   17.54    2.45
  -1  -5   9   10.21    2.15
   0   5  -9    0.74    1.63
   0   5  -9   -0.04    1.84
   0   5  -9   -0.37    1.95
   0  -5   9   -0.96    1.16
   0  -5   9   -1.54    1.03
   0  -5   9    0.39    1.82
  -1   5  -9    2.83    1.72
  -1   5  -9    6.76    3.10
  -1   5  -9    6.27    1.96
   1  -5   9    2.89    1.77
   1  -5   9    3.18    1.88
   1  -5   9    4.35    1.83
  -2   5  -9   14.66    2.31
  -2   5  -9   11.84    2.27
  -2   5  -9   14.14    3.68
   2  -5   9   13.62    2.31
   2  -5   9   12.74    2.44
   2  -5   9   10.52    2.29
  -3   5  -9   17.75    2.58
  -3   5  -9   24.77    2.56
  -3   5  -9   19.91    3.91
   3  -5   9   20.51    2.49
   3  -5   9   23.08    2.85
   3  -5   9   19.68    2.42
  -4   5  -9    0.10    2.63
  -4   5  -9    4.18    2.12
   4  -5   9    0.06    2.16
   4  -5   9    0.16    2.03
  -5   5  -9   -0.20    2.66
  -5   5  -9    3.17    2.54
   5  -5   9   -0.06    2.23
   5  -5   9    1.18    2.28
  -6   5  -9    6.33    3.16
   6  -5   9    8.37    2.55
   6  -5   9    5.04    2.63
   6   4  -9    5.12    3.22
   6   4  -9    3.12    3.12
  -6  -4   9    6.61    2.76
  -6  -4   9    2.16    2.62
   5   4  -9    6.06    3.09
   5   4  -9    0.86    2.85
  -5  -4   9    2.12    2.41
  -5  -4   9    2.34    2.36
   4   4  -9    9.29    3.29
   4   4  -9   16.17    3.56
  -4  -4   9   15.08    2.75
  -4  -4   9   11.69    2.64
   3   4  -9   -0.27    2.55
   3   4  -9   -0.44    2.50
  -3  -4   9   -1.04    1.47
  -3  -4   9   -0.06    1.31
  -3  -4   9   -1.78    1.84
  -3  -4   9   -0.27    1.57
   2   4  -9    3.15    1.99
   2   4  -9    9.07    2.92
  -2  -4   9    7.41    2.02
  -2  -4   9    3.64    1.74
  -2  -4   9    4.32    1.56
  -2  -4   9    3.45    2.08
   1   4  -9   12.27    2.11
   1   4  -9    5.91    2.46
   1   4  -9    9.79    2.96
  -1  -4   9    9.41    1.98
  -1  -4   9   12.55    1.89
  -1  -4   9    8.89    2.18
   0   4  -9   51.98    3.10
   0   4  -9   46.64    3.90
   0   4  -9   46.19    3.89
   0  -4   9   46.49    3.04
   0  -4   9   49.50    3.04
  -1   4  -9   -2.30    1.49
  -1   4  -9    0.87    2.02
  -1   4  -9    0.09    1.40
   1  -4   9    2.19    1.55
   1  -4   9   -3.78    1.34
   1  -4   9   -0.77    1.38
   1  -4   9   -0.94    1.29
  -2   4  -9    0.18    1.63
  -2   4  -9    0.08    2.05
  -2   4  -9    0.50    1.43
   2  -4   9   -2.36    1.27
   2  -4   9   -0.98    1.63
   2  -4   9   -1.22    1.12
   2  -4   9    1.71    1.45
  -3   4  -9    2.54    2.25
  -3   4  -9    4.93    1.74
  -3   4  -9    3.75    1.71
   3  -4   9    8.49    2.06
   3  -4   9    2.84    1.57
   3  -4   9    1.63    1.89
   3  -4   9    6.89    1.67
  -4   4  -9   28.91    3.97
  -4   4  -9   32.34    3.17
  -4   4  -9   38.22    3.30
   4  -4   9   30.51    3.14
   4  -4   9   24.46    2.88
  -5   4  -9   -2.04    2.34
  -5   4  -9    1.06    1.69
  -5   4  -9    1.20    2.09
   5  -4   9    2.87    2.21
   5  -4   9   -1.73    2.04
  -6   4  -9    2.63    2.82
  -6   4  -9    0.50    2.83
   6  -4   9   -0.14    1.98
   6  -4   9    0.44    2.34
  -7   4  -9    3.66    3.13
   7  -4   9    1.15    2.06
   7  -4   9    1.60    2.58
   6   3  -9   -0.16    2.72
   6   3  -9   -3.09    2.93
  -6  -3   9   -0.29    1.79
  -6  -3   9    0.01    2.58
   5   3  -9   -1.56    2.78
   5   3  -9    2.00    2.72
  -5  -3   9    3.53    2.35
  -5  -3   9    0.40    2.12
   4   3  -9   11.72    3.20
   4   3  -9    6.37    2.94
  -4  -3   9    7.80    2.44
  -4  -3   9    7.57    2.26
   3   3  -9   27.47    3.56
   3   3  -9   15.26    3.29
  -3  -3   9   28.77    2.91
  -3  -3   9   15.44    2.55
  -3  -3   9   16.24    2.05
   2   3  -9    0.20    1.73
   2   3  -9    0.45    2.24
  -2  -3   9   -0.10    1.76
  -2  -3   9   -1.19    1.41
  -2  -3   9    0.83    1.61
  -2  -3   9   -0.39    1.25
   1   3  -9   -1.11    2.08
   1   3  -9   -1.31    2.26
  -1  -3   9    0.11    1.30
  -1  -3   9    0.46    1.43
  -1  -3   9    1.13    1.72
  -1  -3   9    0.82    1.49
   0   3  -9   18.21    3.25
   0   3  -9   20.74    2.26
   0   3  -9   19.60    2.96
   0  -3   9   15.83    1.86
   0  -3   9   18.48    1.98
   0  -3   9   16.85    2.02
  -1   3  -9   43.35    4.29
  -1   3  -9   33.87    3.34
  -1   3  -9   35.58    2.42
   1  -3   9   26.13    2.40
   1  -3   9   34.37    2.69
   1  -3   9   36.91    2.79
   1  -3   9   36.85    2.41
  -2   3  -9    4.65    2.99
  -2   3  -9    1.23    1.55
  -2   3  -9    0.37    1.29
   2  -3   9    2.19    1.56
   2  -3   9    0.26    1.35
   2  -3   9    2.40    1.59
   2  -3   9   -0.14    1.43
  -3   3  -9    1.40    1.52
  -3   3  -9    0.14    2.03
  -3   3  -9   -0.02    1.48
   3  -3   9    1.78    1.13
   3  -3   9   -0.40    1.29
   3  -3   9    0.90    1.52
   3  -3   9    1.50    1.29
  -4   3  -9   11.59    2.19
  -4   3  -9    9.83    2.12
  -4   3  -9    7.30    2.56
   4  -3   9   11.04    2.19
   4  -3   9   11.29    2.24
   4  -3   9   10.08    1.65
   4  -3   9    8.49    1.73
  -5   3  -9   12.68    2.35
  -5   3  -9    6.42    2.17
  -5   3  -9    9.04    2.77
   5  -3   9    5.51    1.99
   5  -3   9   15.66    2.60
   5  -3   9   11.49    2.04
  -6   3  -9   -4.24    2.50
  -6   3  -9    2.31    1.77
   6  -3   9    1.39    2.11
   6  -3   9    0.09    2.05
  -7   3  -9    0.78    2.19
  -7   3  -9   -0.64    1.75
   7  -3   9    1.59    2.28
   7  -3   9    0.72    2.01
   6   2  -9    0.61    3.40
   6   2  -9   -0.87    2.31
   6   2  -9    5.89    3.14
  -6  -2   9   -0.10    2.22
  -6  -2   9    7.34    2.82
   5   2  -9   -2.15    2.73
   5   2  -9   -1.80    2.47
   5   2  -9   -3.98    1.83
  -5  -2   9    2.88    2.37
  -5  -2   9   -4.39    1.87
   4   2  -9    3.65    2.48
   4   2  -9    2.40    1.82
   4   2  -9    1.00    2.62
  -4  -2   9   -0.65    1.98
  -4  -2   9    2.88    2.05
   3   2  -9    0.98    1.58
   3   2  -9    2.04    2.52
   3   2  -9    2.06    2.35
  -3  -2   9    0.99    1.33
  -3  -2   9    3.00    1.46
  -3  -2   9    1.66    1.73
  -3  -2   9    2.75    1.92
   2   2  -9    6.02    2.22
   2   2  -9   10.29    2.78
   2   2  -9    8.13    1.55
  -2  -2   9    5.59    1.54
  -2  -2   9    4.38    1.90
  -2  -2   9    5.70    1.59
  -2  -2   9    5.51    1.75
   1   2  -9   13.93    2.79
   1   2  -9   23.26    3.41
   1   2  -9   25.95    1.94
  -1  -2   9   23.03    2.12
  -1  -2   9   25.96    2.50
  -1  -2   9   21.85    2.55
   0   2  -9    1.09    1.59
   0   2  -9    0.96    2.18
   0   2  -9    2.00    0.99
   0  -2   9   -0.82    1.24
   0  -2   9    2.81    1.63
   0  -2   9    1.83    1.36
   0  -2   9    2.44    1.01
   0  -2   9    4.21    1.38
  -1   2  -9    8.49    2.33
  -1   2  -9    8.74    1.59
  -1   2  -9    6.53    1.05
  -1   2  -9    8.22    2.29
   1  -2   9    5.61    1.60
   1  -2   9    5.30    1.52
   1  -2   9    3.00    1.45
   1  -2   9    7.90    1.35
  -2   2  -9    1.89    1.01
  -2   2  -9    2.12    1.23
  -2   2  -9    2.65    1.79
  -2   2  -9    7.26    2.96
   2  -2   9    1.55    1.39
   2  -2   9    1.19    1.18
   2  -2   9    2.03    1.38
   2  -2   9    2.42    1.37
  -3   2  -9   18.62    2.63
  -3   2  -9   24.31    2.20
  -3   2  -9   20.69    3.78
   3  -2   9   15.70    1.96
   3  -2   9   19.13    1.93
   3  -2   9   19.78    2.15
   3  -2   9   17.26    1.95
  -4   2  -9    7.39    1.84
  -4   2  -9    5.42    1.94
  -4   2  -9    2.75    2.88
   4  -2   9    6.32    1.55
   4  -2   9    3.93    1.23
   4  -2   9    6.99    1.32
   4  -2   9    8.75    1.87
   4  -2   9    4.63    1.37
  -5   2  -9    1.00    1.71
  -5   2  -9   -4.11    2.26
   5  -2   9   -0.21    1.73
   5  -2   9    1.77    1.48
   5  -2   9   -0.31    1.73
   5  -2   9    1.05    1.40
  -6   2  -9    0.27    1.76
  -6   2  -9    2.12    2.86
   6  -2   9   -1.21    1.78
   6  -2   9    0.52    1.64
   6  -2   9    0.55    1.56
   6  -2   9    1.71    1.79
  -7   2  -9    4.65    2.20
  -7   2  -9    0.87    3.04
   7  -2   9    1.11    2.04
   7  -2   9    3.19    1.85
   7  -2   9   -0.78    1.75
  -8   2  -9    3.63    2.57
  -8   2  -9    4.36    3.28
   8  -2   9    3.51    2.16
   8  -2   9    1.57    2.47
   6   1  -9   -1.60    2.58
   6   1  -9   -4.37    3.14
   6   1  -9   -1.44    2.48
  -6  -1   9   -0.46    2.29
  -6  -1   9   -2.61    2.26
   5   1  -9   -0.42    2.45
   5   1  -9   -2.43    2.94
   5   1  -9   -0.24    2.28
  -5  -1   9    2.18    2.32
  -5  -1   9   -2.61    2.10
   4   1  -9    7.16    3.10
   4   1  -9    8.53    2.75
   4   1  -9    4.93    2.15
  -4  -1   9    9.14    2.29
  -4  -1   9    3.62    2.14
   3   1  -9   29.06    3.70
   3   1  -9   22.97    3.76
   3   1  -9   29.34    2.96
  -3  -1   9   20.59    2.24
  -3  -1   9   16.05    2.54
  -3  -1   9   23.38    2.66
  -3  -1   9   22.95    2.12
   2   1  -9    2.09    1.36
   2   1  -9   -0.07    1.70
   2   1  -9   -0.06    1.96
  -2  -1   9    2.36    1.54
  -2  -1   9    0.24    1.44
  -2  -1   9    0.62    1.29
  -2  -1   9   -1.44    1.59
   1   1  -9    2.75    1.16
   1   1  -9   -2.54    1.74
   1   1  -9    2.24    1.75
  -1  -1   9   -1.15    1.11
  -1  -1   9   -0.96    1.15
  -1  -1   9    0.61    1.40
  -1  -1   9   -1.79    1.45
   0   1  -9   14.47    1.65
   0   1  -9   13.09    2.75
   0   1  -9   11.36    2.65
   0  -1   9   10.55    1.19
   0  -1   9   10.59    1.62
   0  -1   9    6.69    1.74
   0  -1   9    4.97    1.43
   0  -1   9   16.12    1.85
  -1   1  -9   66.47    2.94
  -1   1  -9   71.26    4.81
  -1   1  -9   72.93    4.72
  -1   1  -9   68.21    3.03
   1  -1   9   75.14    3.52
   1  -1   9   68.02    3.34
   1  -1   9   68.69    2.93
   1  -1   9   63.70    3.41
  -2   1  -9   -0.23    1.32
  -2   1  -9    2.76    2.75
  -2   1  -9    0.20    0.83
  -2   1  -9    0.47    0.99
   2  -1   9    0.30    1.30
   2  -1   9    0.78    1.26
   2  -1   9   -0.84    1.11
   2  -1   9    1.48    1.25
  -3   1  -9    1.17    1.30
  -3   1  -9    3.18    1.24
  -3   1  -9    4.06    2.24
  -3   1  -9    1.79    1.24
   3  -1   9    3.91    1.17
   3  -1   9    4.11    1.28
   3  -1   9    4.39    1.35
   3  -1   9    0.87    1.30
  -4   1  -9    4.35    3.00
  -4   1  -9   13.53    1.88
  -4   1  -9   13.54    2.40
  -4   1  -9   13.06    2.39
   4  -1   9   13.18    1.48
   4  -1   9    9.08    1.66
   4  -1   9   10.09    1.53
   4  -1   9   15.42    2.10
  -5   1  -9   29.55    3.29
  -5   1  -9   28.00    4.17
   5  -1   9   33.07    2.54
   5  -1   9   31.13    2.84
   5  -1   9   28.52    2.37
   5  -1   9   26.04    2.72
  -6   1  -9    2.92    1.60
  -6   1  -9   -1.88    2.62
   6  -1   9   -2.72    1.62
   6  -1   9    1.75    1.94
   6  -1   9    2.60    1.39
   6  -1   9    0.84    1.82
  -7   1  -9    0.39    1.99
  -7   1  -9    5.08    3.11
   7  -1   9    3.95    1.92
   7  -1   9    2.98    2.13
   7  -1   9   -0.50    1.73
   7  -1   9   -0.37    1.30
  -8   1  -9    0.47    3.18
  -8   1  -9    2.00    2.29
   8  -1   9    4.44    2.48
   8  -1   9    2.58    2.19
   6   0  -9   11.44    3.39
   6   0  -9    3.54    2.96
   6   0  -9    3.31    3.85
  -6   0   9   11.56    2.99
  -6   0   9    2.68    2.37
   5   0  -9   -2.89    2.37
   5   0  -9   -2.87    2.17
   5   0  -9   -6.11    2.11
  -5   0   9   -1.47    2.11
  -5   0   9   -0.08    2.26
   4   0  -9   -1.28    2.08
   4   0  -9    3.30    2.23
   4   0  -9    3.41    3.08
  -4   0   9    2.76    1.95
  -4   0   9    1.66    2.09
   3   0  -9   30.64    3.66
   3   0  -9   25.93    2.96
   3   0  -9   24.15    3.62
  -3   0   9   25.53    2.77
  -3   0   9   23.10    2.07
  -3   0   9   22.63    2.22
  -3   0   9   16.17    2.55
   2   0  -9   44.61    4.49
   2   0  -9   54.82    3.37
   2   0  -9   55.70    3.83
  -2   0   9   50.40    2.87
  -2   0   9   51.06    3.46
  -2   0   9   53.17    3.11
  -2   0   9   52.06    3.19
   1   0  -9   -0.27    1.78
   1   0  -9    2.11    2.25
   1   0  -9    1.10    1.46
  -1   0   9    0.06    1.13
  -1   0   9    0.86    1.26
  -1   0   9   -0.43    1.51
  -1   0   9   -0.05    1.28
   0   0  -9    2.46    1.31
   0   0  -9    6.31    2.18
   0   0  -9    6.33    2.32
   0   0   9    2.44    1.22
   0   0   9    2.06    1.12
   0   0   9    2.62    0.94
   0   0   9    4.97    1.37
   0   0   9    4.12    1.24
  -1   0  -9   58.01    4.25
  -1   0  -9   49.42    2.65
  -1   0  -9   52.72    4.20
   1   0   9   43.78    2.77
   1   0   9   48.56    2.75
   1   0   9   49.61    2.89
   1   0   9   49.94    2.34
   1   0   9   46.06    2.25
  -2   0  -9   42.09    1.98
  -2   0  -9   40.43    4.13
  -2   0  -9   40.10    2.50
  -2   0  -9   38.40    3.28
   2   0   9   40.34    2.57
   2   0   9   42.31    2.49
   2   0   9   44.05    2.70
   2   0   9   40.73    2.52
  -3   0  -9    4.46    1.19
  -3   0  -9    4.06    1.27
  -3   0  -9    4.38    1.98
  -3   0  -9    0.44    2.54
   3   0   9    2.21    1.11
   3   0   9    3.02    1.32
   3   0   9    3.68    1.32
   3   0   9    2.39    1.04
  -4   0  -9    5.17    2.00
  -4   0  -9   -1.56    2.60
  -4   0  -9    6.22    1.52
   4   0   9    7.76    1.70
   4   0   9    4.81    1.35
   4   0   9    7.57    1.30
   4   0   9    5.23    1.49
  -5   0  -9    7.24    2.44
  -5   0  -9    9.24    1.80
  -5   0  -9   10.23    2.35
   5   0   9    6.57    1.56
   5   0   9    9.29    1.96
   5   0   9   10.59    1.73
  -6   0  -9    6.62    2.23
  -6   0  -9   -0.03    2.59
   6   0   9    6.97    1.93
   6   0   9    7.05    1.89
   6   0   9    6.74    2.05
   6   0   9    6.93    1.52
  -7   0  -9    1.21    2.05
  -7   0  -9    1.32    2.80
   7   0   9   -0.93    2.01
   7   0   9    1.35    1.97
   7   0   9    3.70    1.47
   7   0   9   -0.81    1.74
  -8   0  -9    5.41    2.51
  -8   0  -9   -1.01    2.99
   8   0   9    0.05    1.70
   8   0   9    6.67    2.41
   8   0   9    5.55    2.47
  -9   0  -9    2.47    2.64
  -9   0  -9   -3.26    3.19
   9   0   9   -1.83    2.43
   9   0   9    3.37    2.73
   6  -1  -9    1.78    3.18
   6  -1  -9    1.77    3.77
  -6   1   9    1.52    2.65
  -6   1   9   -0.38    2.23
   5  -1  -9    9.65    2.74
   5  -1  -9    5.40    3.78
   5  -1  -9    6.69    3.01
  -5   1   9    6.24    1.96
  -5   1   9    7.46    2.46
   4  -1  -9    4.25    2.53
   4  -1  -9   -0.46    2.20
   4  -1  -9    3.38    2.29
  -4   1   9    2.76    2.17
  -4   1   9    0.93    1.89
   3  -1  -9   -1.43    2.57
   3  -1  -9   -0.50    1.64
   3  -1  -9    0.95    2.00
  -3   1   9   -0.01    1.76
  -3   1   9    2.01    1.66
  -3   1   9    2.16    1.16
  -3   1   9   -0.03    1.13
   2  -1  -9   14.04    2.82
   2  -1  -9   18.35    2.56
   2  -1  -9   22.29    2.95
  -2   1   9   12.67    2.05
  -2   1   9   13.43    1.76
  -2   1   9   10.72    2.13
  -2   1   9   11.56    1.55
   1  -1  -9   18.98    2.98
   1  -1  -9   19.13    2.61
   1  -1  -9   26.75    2.65
  -1   1   9   15.10    1.70
  -1   1   9   21.73    1.96
  -1   1   9   16.44    1.88
  -1   1   9   13.85    2.10
  -1   1   9   19.92    1.43
   0  -1  -9    6.82    2.47
   0  -1  -9    2.82    1.51
   0  -1  -9    7.77    2.91
   0   1   9    1.21    1.19
   0   1   9    2.59    1.11
   0   1   9    3.05    1.24
   0   1   9    1.55    1.41
   0   1   9    1.90    0.98
  -1  -1  -9   -0.29    2.08
  -1  -1  -9    1.74    1.24
  -1  -1  -9    8.98    2.76
   1   1   9   -0.31    1.07
   1   1   9   -0.12    0.80
   1   1   9    0.19    1.00
   1   1   9   -0.55    1.20
   1   1   9   -1.15    1.06
  -2  -1  -9    0.77    0.67
  -2  -1  -9    0.49    1.15
  -2  -1  -9    0.50    1.88
  -2  -1  -9    5.24    2.68
   2   1   9    0.36    1.10
   2   1   9    1.31    1.22
   2   1   9   -0.32    1.00
   2   1   9    0.86    1.21
  -3  -1  -9   12.62    1.77
  -3  -1  -9    8.51    2.02
  -3  -1  -9    4.50    2.50
   3   1   9    8.57    1.67
   3   1   9    9.17    1.44
   3   1   9   11.02    1.63
   3   1   9    7.71    1.53
  -4  -1  -9   -2.97    1.80
  -4  -1  -9    0.14    1.32
  -4  -1  -9   -0.27    1.66
   4   1   9    1.06    1.34
   4   1   9    1.97    1.36
   4   1   9   -1.68    1.00
   4   1   9    0.03    1.21
  -5  -1  -9   -0.32    1.75
  -5  -1  -9    4.13    1.68
  -5  -1  -9    2.78    1.61
   5   1   9    1.71    1.24
   5   1   9    1.42    1.58
   5   1   9    0.72    1.26
  -6  -1  -9   -0.61    1.77
  -6  -1  -9    0.25    2.40
   6   1   9    1.24    1.72
   6   1   9   -1.08    1.18
   6   1   9    1.42    1.63
   6   1   9   -0.48    1.64
  -7  -1  -9   -2.56    2.52
  -7  -1  -9   -0.79    1.84
   7   1   9    0.92    1.28
   7   1   9    0.81    1.75
   7   1   9   -0.17    1.73
   7   1   9   -1.53    1.78
  -8  -1  -9    2.14    2.32
  -8  -1  -9   -3.62    2.98
   8   1   9    0.12    2.17
   8   1   9   -0.94    2.13
   8   1   9    0.85    1.70
  -9  -1  -9    4.37    3.38
  -9  -1  -9    1.59    2.48
   9   1   9    4.24    2.67
   9   1   9   -1.45    2.36
   6  -2  -9    3.76    3.92
   6  -2  -9   -1.62    3.09
  -6   2   9    6.25    2.87
  -6   2   9   -1.44    2.34
   5  -2  -9   -0.93    2.68
   5  -2  -9   -1.22    3.17
  -5   2   9    3.57    2.37
  -5   2   9    1.30    2.25
   4  -2  -9    5.45    3.42
   4  -2  -9    0.89    2.52
   4  -2  -9    0.01    3.00
  -4   2   9    1.49    2.05
  -4   2   9    2.78    2.05
   3  -2  -9    1.54    2.19
   3  -2  -9    2.17    1.87
   3  -2  -9    3.39    3.03
  -3   2   9   -0.34    1.89
  -3   2   9    2.77    1.41
  -3   2   9    1.42    1.71
   2  -2  -9    6.74    2.26
   2  -2  -9    8.22    2.59
   2  -2  -9    8.48    2.06
  -2   2   9    6.24    1.32
  -2   2   9    5.81    1.56
  -2   2   9    7.89    1.54
  -2   2   9    3.02    1.75
   1  -2  -9    1.11    1.04
   1  -2  -9    0.96    1.94
   1  -2  -9    0.07    1.69
   1  -2  -9    3.85    2.44
  -1   2   9    1.18    1.24
  -1   2   9    0.05    1.26
  -1   2   9    1.72    1.15
  -1   2   9   -0.40    1.51
   0  -2  -9    0.98    1.17
   0  -2  -9    2.55    1.83
   0  -2  -9   -1.60    2.46
   0   2   9    0.54    1.43
   0   2   9    1.35    1.20
   0   2   9    1.18    1.03
   0   2   9    1.01    1.06
   0   2   9   -0.41    1.06
  -1  -2  -9    5.48    1.65
  -1  -2  -9    9.84    2.55
  -1  -2  -9    8.24    2.95
   1   2   9    4.45    1.38
   1   2   9    3.98    0.92
   1   2   9    5.08    1.19
   1   2   9    2.49    1.21
   1   2   9    2.87    1.43
  -2  -2  -9    1.50    1.41
  -2  -2  -9    3.00    2.24
  -2  -2  -9    0.24    1.71
   2   2   9    0.04    1.20
   2   2   9   -0.11    1.18
   2   2   9    3.08    1.22
   2   2   9    1.33    1.17
  -3  -2  -9    0.79    1.39
  -3  -2  -9   -1.77    1.62
  -3  -2  -9   -1.14    1.87
   3   2   9   -0.06    0.88
   3   2   9    1.15    1.09
   3   2   9   -0.51    1.04
   3   2   9    0.17    0.91
  -4  -2  -9    2.37    2.19
  -4  -2  -9    5.00    1.79
  -4  -2  -9    5.22    1.66
   4   2   9    8.29    1.70
   4   2   9    6.03    1.25
   4   2   9    6.51    1.40
   4   2   9    6.36    1.24
  -5  -2  -9    0.14    1.59
  -5  -2  -9   -3.27    1.95
  -5  -2  -9    0.45    1.80
   5   2   9    0.01    1.19
   5   2   9    0.73    1.50
   5   2   9    0.04    1.42
  -6  -2  -9   -0.96    1.70
  -6  -2  -9    0.26    2.22
  -6  -2  -9    2.59    2.02
   6   2   9    1.04    1.61
   6   2   9   -0.15    1.58
   6   2   9    2.61    1.31
  -7  -2  -9   -0.85    2.50
  -7  -2  -9    2.48    1.78
   7   2   9    0.02    1.76
   7   2   9    4.09    1.85
   7   2   9    0.22    1.24
   7   2   9    0.32    1.98
  -8  -2  -9    3.75    2.53
  -8  -2  -9    1.22    3.12
   8   2   9    6.20    2.42
   8   2   9    4.99    2.44
   8   2   9    5.53    1.91
  -9  -2  -9   -0.19    3.18
  -9  -2  -9   -1.84    2.27
   9   2   9    3.85    2.57
   9   2   9   -0.24    2.43
   5  -3  -9    4.25    3.03
   5  -3  -9    7.35    3.96
  -5   3   9   -0.39    2.21
  -5   3   9    0.61    2.35
   4  -3  -9   -2.36    2.52
   4  -3  -9    8.33    3.83
  -4   3   9   -0.05    2.14
  -4   3   9   -1.05    2.17
   3  -3  -9    0.87    2.21
   3  -3  -9    6.56    3.27
  -3   3   9    0.75    2.25
  -3   3   9   -0.93    1.64
  -3   3   9    0.33    1.41
   2  -3  -9   12.05    1.61
   2  -3  -9   11.65    3.32
   2  -3  -9   13.84    2.60
  -2   3   9    5.41    2.04
  -2   3   9    8.76    1.48
  -2   3   9   10.54    1.66
  -2   3   9   10.64    1.95
   1  -3  -9    2.91    1.30
   1  -3  -9    4.11    1.66
   1  -3  -9    8.76    3.20
  -1   3   9    6.24    1.48
  -1   3   9    2.49    1.32
  -1   3   9    1.97    1.70
  -1   3   9    4.29    1.51
   0  -3  -9    9.36    3.17
   0  -3  -9    1.06    1.14
   0  -3  -9    5.65    1.98
   0   3   9    3.78    1.40
   0   3   9    2.03    1.06
   0   3   9    2.15    1.02
   0   3   9    3.84    1.70
  -1  -3  -9   10.20    3.08
  -1  -3  -9    8.06    1.68
  -1  -3  -9    8.62    1.93
  -1  -3  -9   11.02    1.63
   1   3   9    8.59    1.06
   1   3   9    9.08    1.65
   1   3   9    7.84    1.46
   1   3   9    7.44    1.46
  -2  -3  -9    5.70    1.78
  -2  -3  -9    2.79    1.37
  -2  -3  -9    3.92    2.03
   2   3   9    5.56    1.49
   2   3   9    5.73    1.42
   2   3   9    3.61    1.29
   2   3   9    1.67    1.27
  -3  -3  -9   12.01    2.67
  -3  -3  -9   11.28    2.01
  -3  -3  -9   10.33    1.85
   3   3   9   11.19    1.77
   3   3   9   11.74    1.63
   3   3   9   10.33    1.56
   3   3   9   12.22    1.60
  -4  -3  -9   14.65    2.53
  -4  -3  -9   25.11    2.64
  -4  -3  -9   23.68    3.31
   4   3   9   24.09    2.15
   4   3   9   22.65    2.34
   4   3   9   23.93    2.02
   4   3   9   26.97    2.00
  -5  -3  -9   14.66    2.46
  -5  -3  -9   10.98    2.32
  -5  -3  -9   13.46    2.31
   5   3   9   16.26    2.13
   5   3   9   15.15    2.11
   5   3   9   12.15    1.70
   5   3   9   14.06    1.48
  -6  -3  -9   -0.94    2.16
  -6  -3  -9    0.11    1.96
  -6  -3  -9    1.27    1.87
   6   3   9   -1.85    1.60
   6   3   9   -0.01    1.66
   6   3   9    1.06    1.29
  -7  -3  -9   -2.62    2.20
  -7  -3  -9    1.70    2.26
  -7  -3  -9    1.96    2.05
   7   3   9   -1.01    1.39
   7   3   9    1.21    1.86
   7   3   9    2.44    1.97
  -8  -3  -9   11.54    3.48
  -8  -3  -9   11.73    3.11
   8   3   9    9.80    2.21
   8   3   9   11.76    2.19
   8   3   9   13.39    2.48
  -9  -3  -9    3.85    2.72
  -9  -3  -9    6.13    3.43
   9   3   9    7.90    2.81
   9   3   9    2.77    2.50
   5  -4  -9    9.09    3.54
   5  -4  -9   11.07    4.06
  -5   4   9    2.93    2.55
  -5   4   9   -1.36    2.14
   4  -4  -9   11.85    3.84
   4  -4  -9    5.08    2.94
  -4   4   9    3.33    2.15
  -4   4   9    3.05    2.20
   3  -4  -9    5.72    3.57
   3  -4  -9    2.57    2.45
  -3   4   9    0.78    2.16
  -3   4   9    2.90    2.02
   2  -4  -9    6.07    1.55
   2  -4  -9    7.09    3.11
   2  -4  -9    6.05    2.39
  -2   4   9    4.03    1.25
  -2   4   9    4.84    1.45
  -2   4   9    3.42    1.58
  -2   4   9    1.99    1.51
   1  -4  -9    4.75    2.95
   1  -4  -9    3.92    1.62
   1  -4  -9    4.42    2.16
  -1   4   9    4.35    1.45
  -1   4   9    3.44    1.84
  -1   4   9    3.76    1.24
  -1   4   9    4.20    1.48
   0  -4  -9   19.05    3.70
   0  -4  -9   15.14    1.90
   0  -4  -9   13.88    2.61
   0   4   9   13.24    1.53
   0   4   9   13.22    1.85
   0   4   9   12.09    2.15
   0   4   9   14.59    1.73
  -1  -4  -9   24.60    2.21
  -1  -4  -9   12.82    3.75
  -1  -4  -9   19.80    2.72
   1   4   9   20.83    2.12
   1   4   9   19.46    2.25
   1   4   9   16.92    1.83
   1   4   9   22.25    1.53
  -2  -4  -9   17.28    2.24
  -2  -4  -9    5.39    2.81
  -2  -4  -9   14.97    1.97
   2   4   9   14.95    1.82
   2   4   9   11.73    1.78
   2   4   9   11.81    1.84
  -3  -4  -9    4.70    1.89
  -3  -4  -9   -0.61    2.31
   3   4   9    3.05    1.32
   3   4   9    3.10    1.08
   3   4   9    3.52    1.16
   3   4   9    1.80    1.42
  -4  -4  -9   -1.42    1.23
  -4  -4  -9   -1.60    1.45
  -4  -4  -9   -0.41    1.12
   4   4   9    1.81    1.51
   4   4   9   -1.13    0.93
   4   4   9    0.26    1.18
   4   4   9    0.20    0.91
  -5  -4  -9   12.75    2.34
  -5  -4  -9   15.31    2.97
  -5  -4  -9   12.82    2.22
   5   4   9   12.69    1.56
   5   4   9   15.52    2.22
   5   4   9   10.99    2.06
   5   4   9   13.46    1.80
  -6  -4  -9   12.62    2.47
  -6  -4  -9   10.27    2.47
  -6  -4  -9    7.21    2.66
   6   4   9   10.70    2.24
   6   4   9   10.80    2.15
   6   4   9    9.97    1.72
  -7  -4  -9   -0.17    2.13
  -7  -4  -9   -0.08    2.02
  -7  -4  -9   -0.21    1.75
   7   4   9   -1.06    1.88
   7   4   9    1.01    1.33
   7   4   9    2.70    1.85
  -8  -4  -9   -0.58    2.51
  -8  -4  -9   -2.11    2.47
   8   4   9    0.75    2.37
   8   4   9    1.04    1.83
   8   4   9   -0.26    2.15
  -9  -4  -9    3.84    3.13
  -9  -4  -9    4.30    3.15
   9   4   9    0.41    2.42
   9   4   9    6.04    2.77
   4  -5  -9    3.54    2.97
  -4   5   9   -0.52    2.31
  -4   5   9    2.20    2.30
   3  -5  -9    2.77    2.67
  -3   5   9    2.44    2.07
  -3   5   9   -0.02    2.04
   2  -5  -9    3.79    3.13
   2  -5  -9    3.16    2.01
   2  -5  -9    3.03    2.36
  -2   5   9    2.54    1.40
  -2   5   9    3.80    1.77
  -2   5   9    3.13    1.32
  -2   5   9    1.95    1.94
   1  -5  -9   -0.06    1.79
   1  -5  -9    1.84    2.15
   1  -5  -9    0.24    2.71
  -1   5   9    2.46    1.40
  -1   5   9    1.84    1.32
  -1   5   9    0.12    1.09
  -1   5   9    0.87    1.84
   0  -5  -9   -0.70    2.55
   0  -5  -9    0.54    1.53
   0  -5  -9    1.00    1.68
   0   5   9    1.65    1.19
   0   5   9   -0.54    1.59
   0   5   9    1.58    1.36
   0   5   9    1.06    1.09
  -1  -5  -9    3.06    2.16
  -1  -5  -9    1.48    2.71
  -1  -5  -9    4.10    1.90
   1   5   9    7.47    1.52
   1   5   9    4.40    1.49
   1   5   9    4.15    1.69
  -2  -5  -9   -0.54    2.40
  -2  -5  -9    2.49    1.97
  -2  -5  -9    5.37    1.80
   2   5   9    5.71    1.45
   2   5   9    4.54    1.60
   2   5   9    4.09    1.45
  -3  -5  -9   13.54    1.93
  -3  -5  -9    7.17    2.70
  -3  -5  -9    5.09    2.09
   3   5   9    7.99    1.67
   3   5   9    9.85    1.70
   3   5   9    6.58    1.49
   3   5   9    8.46    1.66
  -4  -5  -9    0.56    1.37
  -4  -5  -9    1.83    2.33
   4   5   9    2.52    1.55
   4   5   9    0.38    1.20
   4   5   9    3.01    1.35
   4   5   9    2.45    1.29
  -5  -5  -9    5.52    2.14
  -5  -5  -9    3.38    1.98
   5   5   9    2.62    1.37
   5   5   9    4.93    1.89
   5   5   9    2.77    1.17
   5   5   9    2.05    1.73
  -6  -5  -9    3.92    2.05
  -6  -5  -9    7.99    2.85
  -6  -5  -9    9.68    2.41
   6   5   9    8.09    2.11
   6   5   9    5.72    1.53
   6   5   9    4.34    2.00
  -7  -5  -9    4.87    2.79
  -7  -5  -9    5.26    2.19
  -7  -5  -9    3.84    2.28
   7   5   9    1.76    1.91
   7   5   9    6.59    2.36
  -8  -5  -9    2.24    2.91
  -8  -5  -9    1.10    2.82
  -8  -5  -9    0.02    1.79
   8   5   9    1.38    2.26
   8   5   9    0.21    1.75
   8   5   9    3.05    1.90
  -9  -5  -9    1.34    2.80
  -9  -5  -9   -1.07    3.02
   9   5   9    2.35    2.75
   9   5   9    2.69    2.08
   4  -6  -9    2.47    2.95
  -4   6   9    3.46    2.48
   3  -6  -9    1.86    2.13
   3  -6  -9    2.87    2.54
  -3   6   9    1.03    2.23
  -3   6   9    1.24    2.07
   2  -6  -9    0.05    2.40
   2  -6  -9    1.37    2.16
  -2   6   9    1.30    1.38
  -2   6   9    2.11    2.24
  -2   6   9   -0.38    1.72
   1  -6  -9   -2.78    1.75
   1  -6  -9    0.44    1.74
   1  -6  -9   -5.12    2.60
  -1   6   9    1.74    1.51
  -1   6   9    0.84    1.27
  -1   6   9   -0.53    1.40
  -1   6   9   -1.40    1.23
   0  -6  -9   -1.35    1.76
   0  -6  -9    2.69    2.39
   0  -6  -9   -0.69    2.48
   0   6   9   -0.98    1.10
   0   6   9    1.44    1.82
   0   6   9    1.30    1.41
  -1  -6  -9   17.27    2.48
  -1  -6  -9   17.05    2.77
  -1  -6  -9   16.31    3.33
   1   6   9   15.55    2.09
   1   6   9   13.75    2.32
   1   6   9   13.59    1.81
  -2  -6  -9    2.85    2.25
  -2  -6  -9    4.28    1.56
  -2  -6  -9    0.75    2.18
   2   6   9    4.04    1.39
   2   6   9    1.80    1.46
   2   6   9    2.02    1.62
  -3  -6  -9   -1.41    1.73
  -3  -6  -9    1.22    2.24
  -3  -6  -9    1.73    2.09
   3   6   9    1.54    1.48
   3   6   9    3.09    1.40
   3   6   9    1.31    1.13
  -4  -6  -9   -1.77    2.05
  -4  -6  -9   -0.93    1.89
   4   6   9    1.20    1.33
   4   6   9    0.56    1.36
   4   6   9   -0.07    0.95
   4   6   9   -0.96    1.08
  -5  -6  -9   17.53    3.25
  -5  -6  -9   17.41    2.79
   5   6   9   12.71    2.29
   5   6   9   21.20    2.47
   5   6   9   17.57    2.09
  -6  -6  -9    9.40    3.05
  -6  -6  -9    7.49    2.47
   6   6   9    6.64    1.90
   6   6   9    7.68    2.18
  -7  -6  -9    0.53    2.29
  -7  -6  -9   -2.40    2.63
   7   6   9    0.17    1.67
   7   6   9   -0.39    1.99
  -8  -6  -9    0.99    3.03
  -8  -6  -9   -1.12    2.25
   8   6   9   -0.68    1.75
   8   6   9   -0.74    1.97
   9   6   9    7.74    3.28
   9   6   9    5.76    2.73
   3  -7  -9    4.97    3.07
   3  -7  -9   -2.90    2.11
  -3   7   9   -1.60    2.34
  -3   7   9   -0.29    2.08
   2  -7  -9    7.59    2.65
   2  -7  -9    6.84    2.43
  -2   7   9    8.57    2.06
  -2   7   9    9.42    2.67
  -2   7   9    6.37    1.91
   1  -7  -9    8.29    2.36
   1  -7  -9    8.22    2.60
  -1   7   9    6.21    2.47
  -1   7   9    6.38    1.80
  -1   7   9    7.92    3.30
   0  -7  -9   -1.47    2.49
   0  -7  -9    0.05    1.99
   0   7   9   -0.63    1.47
   0   7   9    1.23    1.58
  -1  -7  -9    0.35    1.92
  -1  -7  -9   -4.28    2.29
  -1  -7  -9   -1.49    2.19
   1   7   9   -0.61    1.75
   1   7   9   -1.31    1.02
  -2  -7  -9   13.13    2.70
  -2  -7  -9   15.49    2.64
  -2  -7  -9   13.41    2.76
   2   7   9    9.89    1.72
   2   7   9   13.68    2.35
  -3  -7  -9   19.55    3.37
  -3  -7  -9   15.22    2.59
  -3  -7  -9   14.97    3.28
   3   7   9   15.94    2.35
   3   7   9   17.66    2.33
  -4  -7  -9   -2.31    1.76
  -4  -7  -9   -2.03    2.02
  -4  -7  -9    1.47    2.28
   4   7   9   -1.07    1.38
   4   7   9   -1.31    1.56
  -5  -7  -9   -1.63    2.25
  -5  -7  -9    0.23    2.10
   5   7   9   -0.69    1.48
   5   7   9    0.74    1.86
   5   7   9   -0.16    1.92
  -6  -7  -9   11.19    2.85
  -6  -7  -9   10.98    3.21
   6   7   9   14.46    2.74
   6   7   9   13.42    2.55
  -7  -7  -9    9.97    3.32
  -7  -7  -9   11.62    3.00
   7   7   9   10.09    2.57
   7   7   9   13.02    2.93
  -8  -7  -9    0.02    2.84
  -8  -7  -9    0.20    1.98
   8   7   9    0.31    2.55
   8   7   9    0.20    2.41
   2  -8  -9    0.28    2.89
   2  -8  -9   -1.46    2.44
  -2   8   9   -0.81    2.37
   1  -8  -9   12.28    2.89
   1  -8  -9    6.74    3.20
  -1   8   9    5.14    1.84
  -1   8   9    6.94    2.67
   0  -8  -9    9.73    2.82
   0  -8  -9   11.03    3.47
   0   8   9   12.25    2.78
   0   8   9    8.42    2.01
  -1  -8  -9   -1.24    2.22
  -1  -8  -9   -3.14    2.89
   1   8   9   -0.41    1.98
   1   8   9   -0.61    1.52
  -2  -8  -9   -2.29    2.17
  -2  -8  -9   -2.20    2.97
   2   8   9    1.28    1.63
   2   8   9   -1.43    1.85
  -3  -8  -9   16.27    3.53
  -3  -8  -9   20.69    4.43
  -3  -8  -9   20.92    3.00
   3   8   9   18.81    2.27
   3   8   9   18.59    2.69
  -4  -8  -9    2.87    2.61
  -4  -8  -9    6.24    2.99
  -4  -8  -9    7.76    2.08
   4   8   9    5.73    1.95
   4   8   9    7.72    2.20
  -5  -8  -9   -1.01    2.24
  -5  -8  -9    0.85    1.92
   5   8   9   -0.55    1.43
   5   8   9    1.82    2.26
   5   8   9    0.18    2.11
  -6  -8  -9    0.96    2.56
  -6  -8  -9    2.04    2.58
   6   8   9    1.51    2.42
   6   8   9    2.18    2.25
  -7  -8  -9    4.32    3.37
  -7  -8  -9    4.31    2.76
   7   8   9    8.11    2.93
   7   8   9    2.90    2.40
   0  -9  -9    4.60    2.84
   0  -9  -9    2.13    3.21
   0   9   9    1.18    1.77
   0   9   9    5.40    2.70
  -1  -9  -9    0.13    2.51
  -1  -9  -9    0.31    3.19
   1   9   9   -2.14    2.08
   1   9   9   -0.09    1.61
  -2  -9  -9   -4.02    3.13
  -2  -9  -9    4.91    2.72
   2   9   9    2.45    1.73
   2   9   9    0.03    1.30
  -3  -9  -9   -0.49    3.11
  -3  -9  -9    3.67    2.64
   3   9   9    3.95    2.12
   3   9   9    0.64    1.81
  -4  -9  -9    2.87    2.97
  -4  -9  -9    0.22    1.78
   4   9   9    2.13    1.96
   4   9   9    0.30    2.02
  -5  -9  -9    4.36    2.56
  -5  -9  -9   -1.77    2.67
   5   9   9   -1.36    2.26
   5   9   9    2.67    1.78
  -6  -9  -9    3.72    2.93
   6   9   9    2.43    1.93
   6   9   9    1.98    2.76
  -2 -10  -9   -0.56    2.63
  -2 -10  -9   -5.68    3.38
   2  10   9   -0.45    1.83
   2  10   9    1.62    2.47
  -3 -10  -9    9.00    3.04
  -3 -10  -9    0.16    3.42
   3  10   9    4.93    2.19
   3  10   9    4.06    2.38
  -4 -10  -9   -1.68    2.59
  -4 -10  -9   -0.76    3.24
   4  10   9    4.61    2.46
   4  10   9    2.40    1.83
   5  10   9   -0.39    1.83
   3   7 -10   -1.84    2.58
   3   7 -10   -2.22    3.21
  -3  -7  10   -0.49    2.47
  -3  -7  10   -1.14    2.00
   2   7 -10    5.38    2.48
   2   7 -10   -2.71    2.34
   2   7 -10    0.54    3.13
  -2  -7  10    1.98    2.30
  -2  -7  10    1.69    2.68
   1   7 -10   16.10    4.10
   1   7 -10   12.95    2.79
  -1  -7  10   10.90    2.85
  -1  -7  10   10.89    2.61
   0   7 -10    0.94    2.39
   0   7 -10    6.84    3.79
   0  -7  10   -1.47    2.07
   0  -7  10   -0.45    2.32
  -1   7 -10    0.61    3.59
  -1   7 -10   -0.92    2.21
   1  -7  10    3.26    2.29
   1  -7  10    2.49    1.83
  -2   7 -10    5.82    3.81
  -2   7 -10    9.76    2.68
   2  -7  10    7.33    2.46
   2  -7  10    4.66    2.08
  -3   7 -10    9.12    4.02
  -3   7 -10    6.86    2.64
   3  -7  10    7.91    2.95
   4   6 -10   -0.17    3.35
   4   6 -10    0.36    3.28
  -4  -6  10   -1.07    2.76
  -4  -6  10    4.32    2.68
   3   6 -10   -0.12    2.16
   3   6 -10   -2.26    2.60
   3   6 -10   -3.09    2.84
  -3  -6  10   -1.10    2.06
  -3  -6  10    1.99    2.54
   2   6 -10   -2.14    2.34
   2   6 -10   -3.16    2.65
   2   6 -10   -2.00    1.92
  -2  -6  10    0.76    2.02
  -2  -6  10   -2.20    2.27
   1   6 -10    6.23    2.65
   1   6 -10    7.30    2.44
   1   6 -10   10.35    3.28
  -1  -6  10    5.79    2.29
  -1  -6  10    9.59    2.24
   0   6 -10   14.49    2.61
   0   6 -10    8.80    2.43
   0   6 -10   11.45    3.28
   0  -6  10    7.49    2.49
   0  -6  10    7.96    2.28
  -1   6 -10    2.44    1.88
  -1   6 -10    2.18    3.42
  -1   6 -10    1.40    2.10
   1  -6  10   -1.85    1.89
   1  -6  10    1.30    2.03
  -2   6 -10    7.15    3.87
  -2   6 -10   -0.06    2.29
   2  -6  10   -1.42    1.99
   2  -6  10   -1.45    1.75
  -3   6 -10    1.28    2.52
  -3   6 -10    1.46    2.34
   3  -6  10    1.31    2.50
   3  -6  10    0.74    2.98
   3  -6  10    2.31    2.14
  -4   6 -10    4.45    2.50
  -4   6 -10    3.62    3.17
   4  -6  10    5.52    2.49
   4  -6  10    3.74    2.56
   4   5 -10    1.28    2.30
   4   5 -10    0.03    2.89
  -4  -5  10    0.36    2.32
  -4  -5  10   -0.22    1.86
   3   5 -10   -3.54    2.38
   3   5 -10   -4.24    2.46
  -3  -5  10    0.85    2.16
  -3  -5  10    1.64    2.29
  -3  -5  10    1.52    2.22
   2   5 -10    6.05    3.29
   2   5 -10    1.62    2.66
   2   5 -10    5.81    2.21
  -2  -5  10    2.87    1.97
  -2  -5  10    6.49    2.60
   1   5 -10    5.23    3.10
   1   5 -10    6.01    2.01
   1   5 -10    2.38    2.45
  -1  -5  10    4.23    2.31
  -1  -5  10    3.72    2.04
   0   5 -10    0.25    1.67
   0   5 -10    1.14    2.09
   0   5 -10    0.97    2.87
   0  -5  10   -1.19    1.71
   0  -5  10   -1.14    1.89
  -1   5 -10    5.76    3.32
  -1   5 -10    0.56    1.68
  -1   5 -10    0.99    1.97
   1  -5  10   -3.78    1.69
   1  -5  10   -2.99    1.65
  -2   5 -10   13.12    2.36
  -2   5 -10   12.86    2.40
  -2   5 -10    8.31    3.58
   2  -5  10    5.49    2.16
   2  -5  10   12.20    2.25
  -3   5 -10    7.46    3.77
  -3   5 -10    7.10    2.14
  -3   5 -10   11.68    2.58
   3  -5  10    4.52    1.76
   3  -5  10    4.12    2.08
   3  -5  10    4.14    2.37
  -4   5 -10    6.17    2.50
  -4   5 -10   -0.42    2.27
   4  -5  10    3.35    2.36
   4  -5  10    1.13    2.15
  -5   5 -10   -1.48    2.81
   5  -5  10    2.56    2.45
   5  -5  10    2.87    2.43
   5   4 -10    6.40    3.47
   5   4 -10    8.63    3.58
  -5  -4  10    9.31    2.95
  -5  -4  10    2.25    2.55
   4   4 -10   17.48    3.51
   4   4 -10   10.11    3.63
  -4  -4  10   14.98    2.93
  -4  -4  10   13.96    2.55
   3   4 -10    0.08    2.13
   3   4 -10   -1.42    2.53
  -3  -4  10    0.47    2.91
  -3  -4  10   -0.44    1.68
  -3  -4  10   -0.74    2.01
  -3  -4  10    0.24    1.66
   2   4 -10   -3.83    2.15
   2   4 -10   -3.90    2.43
  -2  -4  10    0.90    1.70
  -2  -4  10   -2.79    1.56
  -2  -4  10    0.25    1.86
  -2  -4  10   -0.76    2.06
   1   4 -10   27.14    3.76
   1   4 -10   26.76    2.74
   1   4 -10   22.75    4.02
  -1  -4  10   17.00    2.46
  -1  -4  10   21.70    2.91
  -1  -4  10   18.91    2.32
   0   4 -10   17.03    3.14
   0   4 -10   21.38    2.61
   0   4 -10   18.85    3.36
   0  -4  10   16.32    2.50
   0  -4  10   10.28    2.13
  -1   4 -10    2.92    2.06
  -1   4 -10    5.21    1.87
  -1   4 -10    6.03    3.24
   1  -4  10    2.83    1.38
   1  -4  10    4.13    1.93
  -2   4 -10    3.59    3.26
  -2   4 -10    2.00    1.85
  -2   4 -10    1.81    1.70
   2  -4  10    0.65    1.75
   2  -4  10    3.21    1.77
   2  -4  10    1.96    1.40
  -3   4 -10   11.33    2.23
  -3   4 -10    9.71    2.99
  -3   4 -10    8.51    1.99
   3  -4  10   10.26    2.35
   3  -4  10   10.91    2.02
   3  -4  10   11.62    2.44
  -4   4 -10    8.10    2.24
  -4   4 -10    9.73    3.52
  -4   4 -10    9.71    2.45
   4  -4  10    9.03    2.33
   4  -4  10    9.70    2.07
  -5   4 -10   -5.05    2.77
  -5   4 -10    2.36    2.06
   5  -4  10    3.88    1.80
   5  -4  10    2.31    2.26
  -6   4 -10   -0.28    2.86
   6  -4  10   -1.30    2.25
   6  -4  10   -0.60    2.38
   5   3 -10   -3.41    2.87
   5   3 -10    0.82    2.74
  -5  -3  10    4.48    2.72
  -5  -3  10   -1.29    2.29
   4   3 -10    9.56    3.44
   4   3 -10   10.13    3.43
  -4  -3  10    4.02    1.88
  -4  -3  10   13.88    2.80
   3   3 -10   19.79    3.68
   3   3 -10   13.87    3.45
  -3  -3  10   21.61    2.84
  -3  -3  10   13.97    2.66
  -3  -3  10   11.84    2.32
  -3  -3  10   11.39    3.15
   2   3 -10    0.11    2.60
   2   3 -10    1.86    2.04
  -2  -3  10    0.08    1.97
  -2  -3  10    2.04    1.64
  -2  -3  10   -0.10    1.43
  -2  -3  10   -0.10    1.55
   1   3 -10    1.07    1.73
   1   3 -10   -0.78    2.48
  -1  -3  10   -1.76    1.47
  -1  -3  10   -0.89    1.51
  -1  -3  10    0.65    1.86
  -1  -3  10    2.41    1.51
   0   3 -10   13.05    2.84
   0   3 -10   10.48    1.86
   0   3 -10   14.52    3.32
   0  -3  10    5.52    1.75
   0  -3  10   10.72    1.89
   0  -3  10    7.69    1.76
  -1   3 -10   20.84    3.08
  -1   3 -10   22.80    2.34
  -1   3 -10   25.77    3.68
   1  -3  10   12.45    1.99
   1  -3  10   21.95    2.51
   1  -3  10   11.72    2.02
  -2   3 -10    0.37    1.63
  -2   3 -10    1.90    1.36
  -2   3 -10    2.48    2.39
   2  -3  10    0.63    1.36
   2  -3  10   -1.02    1.42
   2  -3  10    0.27    1.59
   2  -3  10    0.81    1.48
  -3   3 -10    6.83    2.76
  -3   3 -10    8.91    1.88
  -3   3 -10    7.75    2.09
   3  -3  10    5.24    1.99
   3  -3  10    2.71    1.74
   3  -3  10   10.32    2.07
   3  -3  10    8.22    1.83
  -4   3 -10    8.60    2.27
  -4   3 -10    6.29    3.40
   4  -3  10    5.46    2.04
   4  -3  10    5.06    2.14
  -5   3 -10    5.47    3.19
  -5   3 -10    7.24    2.23
   5  -3  10    0.45    2.07
   5  -3  10    4.43    2.21
  -6   3 -10    2.74    2.53
  -6   3 -10    2.03    1.94
   6  -3  10    1.25    2.13
   6  -3  10    0.18    2.20
  -7   3 -10    2.34    3.16
  -7   3 -10    3.70    2.47
   7  -3  10    2.74    2.49
   7  -3  10   -0.68    2.03
   5   2 -10    0.56    3.36
   5   2 -10    0.26    2.46
  -5  -2  10   -1.25    2.24
  -5  -2  10    0.86    2.42
   4   2 -10    1.21    2.65
   4   2 -10   -2.31    2.75
  -4  -2  10    2.02    1.74
  -4  -2  10   -3.17    1.89
   3   2 -10    7.44    3.14
   3   2 -10    6.56    2.83
  -3  -2  10    8.27    2.23
  -3  -2  10    5.20    1.92
  -3  -2  10    4.31    2.26
   2   2 -10   10.31    2.37
   2   2 -10    3.38    2.56
   2   2 -10    4.79    2.69
  -2  -2  10    6.12    2.23
  -2  -2  10    3.54    1.48
  -2  -2  10    7.07    2.01
  -2  -2  10    4.16    1.66
   1   2 -10    0.26    2.31
   1   2 -10    3.16    1.98
  -1  -2  10   -1.54    1.29
  -1  -2  10    1.61    1.53
  -1  -2  10    0.26    1.38
  -1  -2  10    0.30    1.67
   0   2 -10    0.50    1.22
   0   2 -10   -0.31    1.60
   0   2 -10    1.27    1.75
   0   2 -10   -1.33    2.39
   0  -2  10   -1.48    1.37
   0  -2  10   -0.83    1.37
   0  -2  10    0.23    1.27
  -1   2 -10    4.65    1.45
  -1   2 -10    4.63    1.96
  -1   2 -10    2.53    1.55
  -1   2 -10    6.04    3.09
   1  -2  10    1.84    1.61
   1  -2  10    3.56    1.29
   1  -2  10    2.96    1.28
   1  -2  10    1.77    1.17
  -2   2 -10    1.12    1.02
  -2   2 -10    1.15    1.28
  -2   2 -10    1.82    1.99
  -2   2 -10    3.32    2.44
   2  -2  10   -2.87    0.93
   2  -2  10    0.15    1.36
   2  -2  10    1.16    1.18
   2  -2  10    0.84    1.65
  -3   2 -10    0.94    1.43
  -3   2 -10    2.28    3.07
  -3   2 -10   -0.62    1.21
  -3   2 -10   -0.11    1.25
   3  -2  10    0.55    1.30
   3  -2  10   -0.04    1.58
   3  -2  10   -0.87    1.40
   3  -2  10    0.08    1.67
  -4   2 -10   -1.35    2.82
  -4   2 -10    1.37    1.76
   4  -2  10    0.30    1.37
   4  -2  10    0.01    1.56
   4  -2  10    0.79    1.68
   4  -2  10   -1.08    1.06
  -5   2 -10    1.89    1.89
  -5   2 -10    0.80    2.26
   5  -2  10    2.44    1.95
   5  -2  10    2.59    1.89
  -6   2 -10    0.11    1.88
  -6   2 -10   -3.24    2.99
   6  -2  10    3.58    2.08
   6  -2  10    0.30    2.07
  -7   2 -10   -2.56    2.03
  -7   2 -10   -1.48    1.89
   7  -2  10   -2.73    2.01
   7  -2  10    3.11    1.89
  -8   2 -10   -0.48    2.34
   5   1 -10   -2.81    2.23
   5   1 -10   -0.29    2.57
   5   1 -10   -1.93    3.30
  -5  -1  10    0.52    2.28
  -5  -1  10    0.18    2.62
   4   1 -10    3.15    3.28
   4   1 -10    5.03    2.46
   4   1 -10    4.69    2.80
  -4  -1  10    1.52    2.14
  -4  -1  10    0.64    2.17
   3   1 -10    4.50    1.81
   3   1 -10    3.94    2.51
   3   1 -10    1.64    2.79
  -3  -1  10    0.82    2.13
  -3  -1  10    2.34    1.85
  -3  -1  10    3.37    1.57
   2   1 -10   -0.99    2.13
   2   1 -10    3.90    1.65
   2   1 -10    0.53    2.39
  -2  -1  10   -0.58    1.38
  -2  -1  10   -1.95    1.45
  -2  -1  10   -1.25    1.85
  -2  -1  10    2.05    1.50
   1   1 -10   -2.15    2.11
   1   1 -10    0.63    2.36
   1   1 -10    1.34    1.33
  -1  -1  10    1.67    1.82
  -1  -1  10   -0.84    1.44
  -1  -1  10    0.10    1.33
  -1  -1  10   -0.11    1.36
   0   1 -10    2.91    1.17
   0   1 -10    1.51    1.83
   0   1 -10    2.34    2.60
   0  -1  10    3.79    1.43
   0  -1  10    2.47    1.49
   0  -1  10    0.12    1.29
   0  -1  10    3.12    1.48
  -1   1 -10    9.65    1.56
  -1   1 -10   12.84    3.24
  -1   1 -10   10.59    1.56
  -1   1 -10    7.86    2.55
   1  -1  10    8.73    1.42
   1  -1  10    5.59    1.62
   1  -1  10   10.02    1.73
   1  -1  10    7.53    1.89
  -2   1 -10   18.78    1.79
  -2   1 -10   12.90    2.42
  -2   1 -10   15.10    1.72
  -2   1 -10   23.91    4.13
   2  -1  10   15.23    1.92
   2  -1  10   10.71    1.89
   2  -1  10   14.67    2.02
   2  -1  10   15.68    1.88
  -3   1 -10    3.35    2.03
  -3   1 -10    7.29    3.32
  -3   1 -10    2.29    1.33
   3  -1  10    2.24    1.49
   3  -1  10    4.65    1.43
   3  -1  10    3.03    1.68
   3  -1  10    2.71    1.47
  -4   1 -10   -0.93    1.33
  -4   1 -10    0.98    1.33
  -4   1 -10   -0.16    2.10
   4  -1  10   -0.43    1.40
   4  -1  10    0.64    1.71
   4  -1  10    1.47    1.23
   4  -1  10    2.60    1.59
  -5   1 -10   -2.88    1.91
  -5   1 -10   -0.71    1.80
   5  -1  10   -0.42    1.45
   5  -1  10   -1.76    1.78
   5  -1  10   -0.36    1.35
   5  -1  10   -0.45    1.69
  -6   1 -10    8.08    2.46
  -6   1 -10    3.60    3.32
   6  -1  10    6.05    2.11
   6  -1  10   11.16    2.05
   6  -1  10    7.45    2.30
  -7   1 -10    8.28    2.64
  -7   1 -10    0.45    3.37
   7  -1  10    6.21    2.13
   7  -1  10    3.24    2.26
   7  -1  10    5.44    2.11
  -8   1 -10   -0.99    2.39
  -8   1 -10   -1.15    2.17
   8  -1  10   -1.38    2.29
   8  -1  10    2.10    2.07
   8  -1  10    1.56    2.09
   5   0 -10    1.07    2.61
   5   0 -10    1.60    3.60
   5   0 -10   -1.09    2.31
  -5   0  10   -4.77    2.14
  -5   0  10    0.01    2.33
   4   0 -10    0.69    2.22
   4   0 -10   -0.08    3.35
   4   0 -10   -0.57    2.20
  -4   0  10   -3.14    2.05
  -4   0  10   -0.49    2.32
   3   0 -10   10.24    2.60
   3   0 -10    6.73    3.27
   3   0 -10   12.03    2.90
  -3   0  10    6.92    2.34
  -3   0  10    8.03    1.87
  -3   0  10   10.06    2.35
   2   0 -10   11.37    2.67
   2   0 -10    6.00    2.35
   2   0 -10   13.29    2.38
  -2   0  10    3.91    1.66
  -2   0  10    5.25    1.83
  -2   0  10    9.35    1.72
  -2   0  10    7.46    2.00
   1   0 -10   19.72    2.39
   1   0 -10   16.22    2.94
   1   0 -10   10.25    3.10
  -1   0  10   11.14    2.19
  -1   0  10   12.96    1.71
  -1   0  10   15.74    2.00
  -1   0  10   10.10    1.80
   0   0 -10   12.89    2.65
   0   0 -10   16.57    2.09
   0   0 -10   19.63    3.21
   0   0  10    9.95    1.56
   0   0  10   11.18    1.69
   0   0  10   10.59    1.27
   0   0  10   17.06    1.84
   0   0  10   10.61    1.78
  -1   0 -10   26.63    3.97
  -1   0 -10   14.15    1.83
  -1   0 -10   14.98    3.10
   1   0  10   11.57    1.76
   1   0  10    6.91    1.72
   1   0  10   11.72    1.92
   1   0  10   14.97    1.60
  -2   0 -10    0.11    1.67
  -2   0 -10   -0.73    1.37
  -2   0 -10    1.39    1.20
   2   0  10    0.55    1.33
   2   0  10    0.12    1.36
   2   0  10    0.54    1.33
   2   0  10   -0.85    1.22
  -3   0 -10   25.74    3.95
  -3   0 -10   28.03    2.41
  -3   0 -10   19.51    3.04
   3   0  10   25.54    2.28
   3   0  10   21.16    2.12
   3   0  10   21.74    2.12
   3   0  10   15.68    2.13
  -4   0 -10   17.50    2.24
  -4   0 -10   12.19    2.58
  -4   0 -10    3.35    2.96
   4   0  10    8.86    1.49
   4   0  10    8.69    1.98
   4   0  10    8.72    1.72
   4   0  10   10.66    1.96
  -5   0 -10   -1.50    2.64
  -5   0 -10    1.88    1.57
  -5   0 -10    0.34    1.51
   5   0  10    1.35    1.76
   5   0  10    2.14    1.77
   5   0  10    1.87    1.45
  -6   0 -10    0.34    1.95
  -6   0 -10    0.98    2.80
   6   0  10   -0.58    1.39
   6   0  10   -0.91    1.86
   6   0  10    0.74    1.61
   6   0  10    0.24    1.42
  -7   0 -10   11.54    2.85
  -7   0 -10    5.30    3.52
   7   0  10   11.29    2.56
   7   0  10   10.32    2.35
   7   0  10   12.23    2.43
  -8   0 -10    1.48    2.38
  -8   0 -10   -0.79    3.08
   8   0  10    7.34    2.65
   8   0  10    1.41    2.18
   8   0  10    6.25    2.43
   5  -1 -10    3.34    3.91
   5  -1 -10    1.30    2.75
  -5   1  10   -0.98    2.26
  -5   1  10   -0.59    2.53
   4  -1 -10    1.82    2.87
   4  -1 -10    2.28    2.52
   4  -1 -10    5.70    2.93
  -4   1  10    0.20    2.19
  -4   1  10    4.34    2.14
   3  -1 -10    2.19    3.11
   3  -1 -10    2.80    2.12
   3  -1 -10    4.00    2.34
  -3   1  10    0.40    2.24
  -3   1  10    1.60    2.10
  -3   1  10    0.09    1.98
   2  -1 -10    4.82    2.94
   2  -1 -10    4.29    2.06
   2  -1 -10    7.79    2.12
  -2   1  10    5.35    1.68
  -2   1  10    4.91    1.52
  -2   1  10    3.46    1.45
  -2   1  10    2.15    1.95
   1  -1 -10    2.09    2.66
   1  -1 -10    1.54    1.89
   1  -1 -10    1.21    1.78
  -1   1  10    1.84    1.39
  -1   1  10    2.22    1.82
  -1   1  10    0.81    1.22
  -1   1  10    1.08    1.42
   0  -1 -10   14.06    2.75
   0  -1 -10    8.37    1.83
   0  -1 -10    6.97    2.92
   0   1  10    7.52    1.90
   0   1  10   10.40    1.52
   0   1  10   10.40    1.65
   0   1  10   10.82    1.36
   0   1  10    5.90    1.55
  -1  -1 -10   13.62    3.30
  -1  -1 -10   11.72    1.93
   1   1  10   14.55    1.41
   1   1  10   14.40    1.67
   1   1  10   14.14    1.80
   1   1  10    9.26    1.84
   1   1  10   10.88    1.79
  -2  -1 -10   20.14    4.10
  -2  -1 -10    1.06    1.43
  -2  -1 -10   -3.65    2.18
   2   1  10   -0.67    1.28
   2   1  10    1.44    1.31
   2   1  10    1.88    1.23
   2   1  10   -0.32    1.25
  -3  -1 -10   -0.42    1.96
  -3  -1 -10   -1.93    2.70
  -3  -1 -10    0.71    1.31
   3   1  10    0.46    1.32
   3   1  10    0.74    1.04
   3   1  10    0.35    1.35
   3   1  10   -0.48    0.97
  -4  -1 -10   13.78    2.07
  -4  -1 -10    8.07    2.96
  -4  -1 -10   14.25    2.78
   4   1  10   16.76    2.16
   4   1  10   12.17    1.64
   4   1  10   10.93    1.71
   4   1  10   13.51    1.87
  -5  -1 -10   10.40    2.29
  -5  -1 -10   11.64    2.15
  -5  -1 -10   12.64    3.15
   5   1  10    8.80    2.04
   5   1  10   12.52    2.14
   5   1  10    8.23    1.67
  -6  -1 -10   -2.07    2.68
  -6  -1 -10    0.06    1.54
  -6  -1 -10   -1.50    1.73
   6   1  10    0.60    1.38
   6   1  10    2.38    1.93
   6   1  10    2.55    1.90
  -7  -1 -10   -0.12    2.95
  -7  -1 -10    1.00    2.15
   7   1  10    1.69    2.05
   7   1  10    2.01    2.13
   7   1  10   -0.07    1.91
  -8  -1 -10    1.70    2.45
  -8  -1 -10    1.54    3.18
   8   1  10    4.48    2.42
   8   1  10    3.21    2.04
   8   1  10    5.39    2.44
  -9  -1 -10    3.81    3.71
   5  -2 -10   -1.21    2.73
   5  -2 -10   -0.88    3.64
  -5   2  10   -0.50    2.33
  -5   2  10   -0.22    2.44
   4  -2 -10   -2.49    2.36
   4  -2 -10    2.34    3.69
  -4   2  10    1.35    2.10
  -4   2  10   -0.43    2.18
   3  -2 -10    2.11    3.26
   3  -2 -10    2.39    2.27
  -3   2  10    3.00    2.10
  -3   2  10    1.41    1.61
   2  -2 -10    1.80    2.15
   2  -2 -10    1.55    2.10
   2  -2 -10    2.42    2.99
  -2   2  10    1.90    1.97
  -2   2  10    0.79    1.66
  -2   2  10    0.94    1.14
  -2   2  10    2.94    1.44
   1  -2 -10    1.92    1.79
   1  -2 -10    3.16    1.88
   1  -2 -10    2.81    2.90
  -1   2  10   -0.79    1.28
  -1   2  10    0.62    1.20
  -1   2  10   -0.84    1.31
  -1   2  10    1.17    1.39
  -1   2  10    3.78    1.92
   0  -2 -10    5.04    3.04
   0  -2 -10    9.75    2.50
   0  -2 -10   -0.95    1.60
   0   2  10    0.51    1.16
   0   2  10    1.09    1.60
   0   2  10    0.87    1.10
   0   2  10   -0.77    1.30
   0   2  10   -1.56    1.14
  -1  -2 -10   13.58    2.92
  -1  -2 -10    6.91    1.88
  -1  -2 -10    8.22    2.60
   1   2  10    7.12    1.78
   1   2  10   11.09    1.48
   1   2  10    7.57    1.48
   1   2  10    8.55    1.48
  -2  -2 -10    1.56    2.10
  -2  -2 -10    5.07    1.77
  -2  -2 -10    0.95    2.45
   2   2  10    2.80    1.09
   2   2  10    2.30    1.13
   2   2  10    3.81    1.54
   2   2  10    3.68    1.46
  -3  -2 -10    6.16    1.77
  -3  -2 -10    4.83    2.00
  -3  -2 -10   -1.27    1.82
   3   2  10    4.61    1.39
   3   2  10    2.65    1.43
   3   2  10    4.33    1.62
   3   2  10    4.84    1.43
  -4  -2 -10    9.85    2.04
  -4  -2 -10    2.93    2.45
  -4  -2 -10    6.71    2.46
   4   2  10    8.95    1.53
   4   2  10    6.99    1.88
   4   2  10    7.72    1.79
   4   2  10    9.27    1.66
  -5  -2 -10    1.90    2.13
  -5  -2 -10    2.97    2.26
  -5  -2 -10    2.82    1.83
   5   2  10    4.91    1.88
   5   2  10    4.24    1.55
   5   2  10    4.38    1.42
  -6  -2 -10   -0.23    2.80
  -6  -2 -10    0.57    1.42
  -6  -2 -10    2.88    1.84
   6   2  10    1.12    1.34
   6   2  10    1.35    1.81
   6   2  10    2.01    1.81
  -7  -2 -10    5.73    2.59
  -7  -2 -10    5.98    2.99
   7   2  10    7.67    2.37
   7   2  10    4.53    2.16
   7   2  10    2.08    1.96
  -8  -2 -10    2.61    3.22
  -8  -2 -10    1.99    2.53
   8   2  10    5.71    2.43
   8   2  10    0.18    2.19
   8   2  10    1.60    1.94
  -9  -2 -10   -4.03    3.13
  -9  -2 -10    1.96    2.77
   9   2  10    1.48    2.60
   9   2  10    0.61    2.54
   5  -3 -10    0.56    2.86
   5  -3 -10    9.31    4.29
  -5   3  10    0.23    2.43
   4  -3 -10    2.24    2.71
   4  -3 -10    9.71    3.94
  -4   3  10    0.42    1.76
  -4   3  10    1.42    2.06
   3  -3 -10    6.69    3.57
   3  -3 -10    0.76    2.25
  -3   3  10    0.44    2.17
  -3   3  10    0.68    1.74
   2  -3 -10    9.90    3.57
   2  -3 -10   -0.32    2.01
  -2   3  10    2.05    1.55
  -2   3  10    1.12    1.33
  -2   3  10    0.12    1.85
  -2   3  10    0.31    1.47
   1  -3 -10    0.18    3.05
   1  -3 -10    2.20    2.10
   1  -3 -10    0.39    1.27
  -1   3  10    1.47    1.39
  -1   3  10   -0.99    1.10
  -1   3  10   -0.61    1.23
  -1   3  10    0.44    1.77
   0  -3 -10   24.57    2.93
   0  -3 -10   22.58    3.98
   0  -3 -10   26.03    2.13
   0   3  10   28.99    2.04
   0   3  10   22.65    2.14
   0   3  10   15.39    2.08
   0   3  10   19.43    2.55
  -1  -3 -10    8.85    2.10
  -1  -3 -10    4.48    3.10
   1   3  10    7.42    1.56
   1   3  10    9.97    1.75
   1   3  10    9.76    1.80
   1   3  10    5.97    1.82
  -2  -3 -10   -3.35    1.44
  -2  -3 -10    2.58    1.76
  -2  -3 -10   -2.75    1.74
   2   3  10   -0.14    1.25
   2   3  10    1.93    1.41
   2   3  10    0.47    1.29
   2   3  10   -0.95    1.34
  -3  -3 -10    1.72    1.69
  -3  -3 -10   -0.98    1.60
  -3  -3 -10    1.27    1.88
   3   3  10    3.25    1.22
   3   3  10    1.35    1.25
   3   3  10    2.00    1.51
   3   3  10    3.48    1.57
  -4  -3 -10   33.47    2.93
  -4  -3 -10   33.04    3.10
  -4  -3 -10   33.94    3.47
   4   3  10   30.09    2.37
   4   3  10   27.72    2.14
   4   3  10   32.28    2.38
   4   3  10   34.13    2.74
  -5  -3 -10    9.94    2.77
  -5  -3 -10    7.28    2.40
  -5  -3 -10   11.07    2.28
   5   3  10    8.93    1.71
   5   3  10   10.36    2.09
   5   3  10   11.38    2.12
  -6  -3 -10   -3.12    2.39
  -6  -3 -10   -1.11    2.24
  -6  -3 -10   -2.99    1.69
   6   3  10   -0.03    1.28
   6   3  10    1.50    1.83
   6   3  10    2.20    1.86
  -7  -3 -10    0.15    1.74
  -7  -3 -10    1.96    2.13
  -7  -3 -10   -1.48    2.38
   7   3  10    4.94    2.02
   7   3  10    1.47    2.07
  -8  -3 -10   15.18    3.66
  -8  -3 -10    9.88    3.15
   8   3  10    7.93    2.69
   8   3  10    9.81    2.69
   8   3  10    8.28    2.29
  -9  -3 -10    0.06    2.75
  -9  -3 -10    6.55    3.57
   9   3  10    6.64    2.78
   9   3  10    4.78    2.82
   4  -4 -10    1.81    2.18
   4  -4 -10    6.81    4.23
  -4   4  10   -0.47    2.03
  -4   4  10    0.34    2.31
   3  -4 -10   21.55    4.48
   3  -4 -10   15.84    3.28
  -3   4  10    6.87    2.09
  -3   4  10    6.73    2.44
   2  -4 -10   15.27    2.98
   2  -4 -10    9.91    3.67
  -2   4  10    6.82    1.98
  -2   4  10    8.05    1.86
  -2   4  10    7.36    1.92
  -2   4  10   11.74    2.11
   1  -4 -10    1.98    1.60
   1  -4 -10    7.48    3.52
   1  -4 -10    0.44    2.14
  -1   4  10    0.72    1.25
  -1   4  10    1.49    1.45
  -1   4  10    1.51    2.00
  -1   4  10    0.90    1.37
   0  -4 -10    1.58    3.03
   0  -4 -10    5.39    1.57
   0  -4 -10    3.66    2.11
   0   4  10    2.58    1.88
   0   4  10    2.20    1.31
   0   4  10    1.74    1.46
  -1  -4 -10   41.34    2.87
  -1  -4 -10   30.29    4.44
  -1  -4 -10   40.10    3.47
   1   4  10   38.02    2.81
   1   4  10   44.28    2.77
   1   4  10   46.46    3.21
  -2  -4 -10   15.74    2.54
  -2  -4 -10   11.94    3.42
   2   4  10   12.58    1.93
   2   4  10   14.99    1.88
   2   4  10   13.28    1.96
   2   4  10   15.22    2.05
  -3  -4 -10    1.21    2.50
  -3  -4 -10    1.27    1.85
   3   4  10    2.23    1.55
   3   4  10    1.75    1.15
   3   4  10    2.05    1.30
   3   4  10    1.14    1.31
  -4  -4 -10    2.03    1.47
  -4  -4 -10    2.19    2.03
   4   4  10    2.06    1.44
   4   4  10    2.58    1.17
   4   4  10    2.79    1.29
   4   4  10    0.30    1.28
  -5  -4 -10   26.94    3.08
  -5  -4 -10   27.87    3.86
   5   4  10   29.64    2.90
   5   4  10   27.30    2.83
   5   4  10   30.22    3.40
   5   4  10   23.92    2.39
  -6  -4 -10    3.61    2.19
  -6  -4 -10    2.65    2.16
  -6  -4 -10    6.65    2.85
   6   4  10    6.30    2.09
   6   4  10    6.45    2.16
  -7  -4 -10    0.07    2.24
  -7  -4 -10    3.08    1.88
  -7  -4 -10    1.02    2.67
   7   4  10   -1.28    1.92
   7   4  10   -2.15    1.84
  -8  -4 -10    0.67    2.71
  -8  -4 -10    3.23    2.91
   8   4  10   -3.64    2.22
   8   4  10    0.25    2.23
   8   4  10    0.84    1.90
  -9  -4 -10    8.84    3.38
  -9  -4 -10    7.70    3.49
   9   4  10    6.21    2.87
   9   4  10    8.78    2.61
  -4   5  10   -0.83    2.37
   3  -5 -10   10.30    4.10
   3  -5 -10    2.86    2.80
  -3   5  10    2.21    1.98
  -3   5  10    1.01    2.38
   2  -5 -10   23.82    4.49
   2  -5 -10   13.33    2.77
  -2   5  10   11.71    2.22
  -2   5  10   12.20    2.66
  -2   5  10   13.53    2.02
   1  -5 -10   10.24    2.22
   1  -5 -10    9.40    2.72
   1  -5 -10    7.99    3.36
  -1   5  10    6.97    1.65
  -1   5  10    4.46    1.62
  -1   5  10    7.04    2.30
  -1   5  10    8.71    2.83
   0  -5 -10    1.59    2.26
   0  -5 -10   -1.00    1.81
   0  -5 -10   -0.11    2.94
   0   5  10   -2.48    1.07
   0   5  10    1.62    1.44
   0   5  10    0.98    1.87
  -1  -5 -10    6.60    1.91
  -1  -5 -10   -0.71    2.75
  -1  -5 -10    4.40    2.34
   1   5  10    4.52    1.58
   1   5  10    4.29    1.85
   1   5  10    4.91    1.45
  -2  -5 -10   13.33    2.29
  -2  -5 -10    8.30    2.09
  -2  -5 -10    8.39    3.02
   2   5  10   10.90    2.04
   2   5  10    9.66    1.68
   2   5  10    6.87    1.74
  -3  -5 -10    6.73    2.89
  -3  -5 -10   10.84    2.19
   3   5  10    8.81    1.99
   3   5  10    6.90    1.83
   3   5  10    7.13    1.74
   3   5  10    7.17    1.64
  -4  -5 -10    0.50    1.48
  -4  -5 -10    0.97    2.51
   4   5  10    0.77    1.28
   4   5  10    1.02    1.58
   4   5  10   -1.16    1.38
   4   5  10   -0.49    1.66
  -5  -5 -10    4.17    1.80
  -5  -5 -10    0.50    2.64
   5   5  10    1.17    1.81
   5   5  10    1.21    1.31
   5   5  10    1.38    1.80
  -6  -5 -10    1.87    2.77
  -6  -5 -10    3.92    1.83
   6   5  10    4.19    1.75
   6   5  10    4.80    1.76
  -7  -5 -10    2.75    3.00
  -7  -5 -10    3.89    2.50
   7   5  10    1.51    2.18
   7   5  10    4.73    2.17
  -8  -5 -10    1.23    3.01
  -8  -5 -10    1.47    2.45
   8   5  10    3.22    2.53
   8   5  10    6.32    2.22
   3  -6 -10    7.71    3.19
  -3   6  10   -0.41    2.33
  -3   6  10    2.69    2.45
   2  -6 -10    5.36    2.41
   2  -6 -10   -0.81    2.24
  -2   6  10   -0.62    1.36
  -2   6  10   -0.97    2.22
   1  -6 -10    3.23    2.05
   1  -6 -10   -1.71    3.14
   1  -6 -10   -0.30    2.41
  -1   6  10    3.10    1.77
  -1   6  10    4.25    1.70
   0  -6 -10   -1.27    2.56
   0  -6 -10    2.74    1.95
   0  -6 -10    4.98    2.66
   0   6  10   -0.51    1.42
   0   6  10    2.90    2.10
  -1  -6 -10    6.93    2.68
  -1  -6 -10    6.24    2.15
  -1  -6 -10    4.48    2.77
   1   6  10    9.89    1.95
   1   6  10    8.13    2.17
  -2  -6 -10    1.71    2.69
  -2  -6 -10    0.07    1.66
  -2  -6 -10    3.58    2.03
   2   6  10   -0.24    1.18
   2   6  10    3.90    1.67
  -3  -6 -10    1.53    2.29
  -3  -6 -10   -4.14    2.40
  -3  -6 -10    1.64    2.00
   3   6  10    2.11    1.67
   3   6  10    2.81    1.64
  -4  -6 -10    0.55    2.12
  -4  -6 -10   -0.07    2.57
   4   6  10    0.14    1.86
   4   6  10   -0.46    1.36
   4   6  10    2.04    1.70
  -5  -6 -10    6.73    2.91
  -5  -6 -10    3.48    2.33
   5   6  10    3.85    1.43
   5   6  10    2.75    2.00
   5   6  10    5.06    1.74
  -6  -6 -10    2.25    3.05
  -6  -6 -10    0.98    1.74
   6   6  10    0.09    2.04
   6   6  10    1.15    2.08
  -7  -6 -10    1.01    3.05
  -7  -6 -10    0.37    2.41
   7   6  10    1.30    2.30
   7   6  10   -2.65    2.00
  -8  -6 -10    4.62    3.50
  -8  -6 -10   -1.77    2.57
   8   6  10    2.57    2.25
   8   6  10    0.82    2.55
   2  -7 -10   10.46    3.28
   2  -7 -10   12.21    2.65
  -2   7  10    6.50    2.79
   1  -7 -10    1.93    2.23
   1  -7 -10    1.83    2.32
  -1   7  10    2.30    1.65
  -1   7  10    4.13    2.52
   0  -7 -10    1.46    2.87
   0  -7 -10    0.13    2.09
   0   7  10   -0.85    2.07
   0   7  10   -0.34    1.49
  -1  -7 -10   -2.49    2.36
  -1  -7 -10   -2.17    2.04
  -1  -7 -10   -1.71    2.64
   1   7  10    2.31    2.03
   1   7  10   -1.15    1.52
  -2  -7 -10   10.07    2.86
  -2  -7 -10   15.73    2.72
  -2  -7 -10   14.28    3.33
   2   7  10    8.57    2.28
   2   7  10    8.17    1.99
  -3  -7 -10    3.11    2.67
  -3  -7 -10    2.53    2.26
  -3  -7 -10   -0.08    2.77
   3   7  10    3.82    1.84
   3   7  10   -0.98    1.59
  -4  -7 -10   -0.17    2.34
  -4  -7 -10   -0.02    2.86
   4   7  10    1.11    2.03
   4   7  10    2.87    1.72
   4   7  10    2.66    1.88
  -5  -7 -10   -0.72    2.31
  -5  -7 -10   -3.21    2.61
   5   7  10   -2.64    1.97
   5   7  10    0.38    2.00
   5   7  10   -1.14    1.53
  -6  -7 -10    2.96    2.61
  -6  -7 -10    2.68    2.94
   6   7  10    9.26    2.22
   6   7  10    5.52    2.38
  -7  -7 -10    1.32    2.06
  -7  -7 -10   -3.92    2.62
   7   7  10    0.37    2.31
   7   7  10    1.41    2.43
  -8  -7 -10    2.43    2.90
  -8  -7 -10    3.12    3.42
   8   7  10    1.30    2.32
   8   7  10    2.32    2.82
   1  -8 -10    6.22    2.59
   1  -8 -10    7.33    3.24
  -1   8  10    4.79    2.06
  -1   8  10    3.12    2.60
   0  -8 -10    1.87    3.01
   0  -8 -10    2.31    2.59
   0   8  10    1.91    1.73
   0   8  10    1.20    2.33
  -1  -8 -10   -1.37    2.40
  -1  -8 -10    2.43    3.01
   1   8  10    1.72    1.79
   1   8  10    1.52    2.18
  -2  -8 -10    0.49    2.41
  -2  -8 -10    1.77    3.08
   2   8  10   -0.25    1.96
   2   8  10   -0.18    1.67
  -3  -8 -10    9.92    2.79
  -3  -8 -10    6.38    3.16
   3   8  10    3.69    1.97
   3   8  10    5.15    2.20
  -4  -8 -10    2.38    2.40
  -4  -8 -10   -1.84    2.29
  -4  -8 -10    3.56    2.77
   4   8  10    1.97    1.82
   4   8  10    0.00    1.44
  -5  -8 -10    4.13    2.86
  -5  -8 -10    5.41    2.83
   5   8  10    6.34    1.88
   5   8  10    4.95    2.40
   5   8  10    5.39    2.48
  -6  -8 -10   -1.86    2.55
  -6  -8 -10    0.56    3.21
   6   8  10   -1.37    2.11
   6   8  10    3.77    2.57
  -7  -8 -10    0.99    3.00
  -7  -8 -10   -0.25    2.84
   7   8  10    3.46    2.70
   7   8  10    5.27    2.63
  -1  -9 -10    3.97    3.45
  -1  -9 -10   -0.72    2.57
   1   9  10   -0.56    2.41
   1   9  10    1.20    1.94
  -2  -9 -10   -2.10    2.58
  -2  -9 -10   -7.20    3.16
   2   9  10    1.46    2.33
   2   9  10    1.09    1.90
  -3  -9 -10   -0.52    1.97
  -3  -9 -10    3.22    3.58
   3   9  10   -2.73    1.97
   3   9  10    0.73    1.98
  -4  -9 -10   -3.73    2.96
  -4  -9 -10   -1.25    2.48
   4   9  10   -0.72    2.02
   4   9  10   -0.96    1.89
  -5  -9 -10    2.73    3.19
   5   9  10    2.48    2.49
   5   9  10    1.44    2.08
   5   9  10    1.57    2.59
   6   9  10    5.14    2.73
   0   7 -11   -0.47    3.70
   0  -7  11   -0.73    2.25
   0  -7  11    1.26    2.52
   2   6 -11   -1.48    1.89
   2   6 -11   -3.09    3.13
   2   6 -11   -4.38    2.57
  -2  -6  11    0.53    2.25
  -2  -6  11   -3.00    2.57
   1   6 -11    2.24    3.44
   1   6 -11    7.50    2.69
   1   6 -11    5.08    2.78
  -1  -6  11    7.55    2.44
  -1  -6  11    5.47    2.61
   0   6 -11    2.57    3.61
   0   6 -11    4.54    2.60
   0   6 -11    4.47    2.20
   0  -6  11    1.37    2.22
   0  -6  11    0.79    2.41
  -1   6 -11   -0.81    3.57
  -1   6 -11    2.67    2.46
   1  -6  11    0.15    2.17
   1  -6  11    0.23    1.64
  -2   6 -11    3.77    2.54
  -2   6 -11   -1.20    3.44
   2  -6  11    0.18    1.93
   2  -6  11    0.25    1.74
  -3   6 -11    5.62    3.70
   3  -6  11    1.87    2.59
   3   5 -11    0.90    2.13
   3   5 -11   -2.65    3.03
   3   5 -11   -5.05    2.66
  -3  -5  11   -0.61    2.44
  -3  -5  11   -2.09    2.26
   2   5 -11    2.81    3.25
   2   5 -11   -0.12    2.79
   2   5 -11    0.31    1.97
  -2  -5  11   -0.59    1.89
  -2  -5  11   -2.23    2.38
   1   5 -11    0.99    1.89
   1   5 -11   -0.55    2.47
   1   5 -11   -2.70    3.11
  -1  -5  11    1.68    2.38
  -1  -5  11    1.03    2.03
   0   5 -11    1.51    2.37
   0   5 -11    2.39    3.56
   0   5 -11    0.64    2.03
   0  -5  11   -4.10    1.71
   0  -5  11   -2.26    1.98
  -1   5 -11    5.17    3.80
  -1   5 -11   -4.44    1.78
  -1   5 -11    0.20    1.93
   1  -5  11   -1.07    2.31
   1  -5  11   -0.92    1.37
  -2   5 -11   -1.09    1.81
  -2   5 -11   10.16    4.07
  -2   5 -11    1.27    1.89
   2  -5  11   -0.76    1.54
   2  -5  11   -0.54    1.83
  -3   5 -11    3.35    3.63
  -3   5 -11    0.49    1.59
   3  -5  11   -1.04    2.25
  -4   5 -11    0.91    2.44
   4  -5  11    1.13    2.53
   4  -5  11    0.84    2.19
  -5   5 -11   -2.25    2.90
   5  -5  11    1.03    2.66
   5  -5  11   -2.32    2.27
   4   4 -11   -2.65    3.03
   4   4 -11    1.61    3.20
  -4  -4  11   -0.13    2.55
  -4  -4  11    1.57    2.50
   3   4 -11   -1.31    3.01
   3   4 -11    2.36    2.42
  -3  -4  11    3.85    2.28
  -3  -4  11    0.03    1.86
  -3  -4  11    2.17    2.55
   2   4 -11   -1.16    2.85
   2   4 -11   -2.64    2.62
  -2  -4  11   -1.74    1.76
  -2  -4  11   -1.31    2.33
   1   4 -11    0.13    3.03
   1   4 -11   -0.05    2.56
   1   4 -11    3.92    2.09
  -1  -4  11    2.68    2.30
  -1  -4  11    4.15    1.99
   0   4 -11    2.18    2.48
   0   4 -11    2.32    1.86
   0   4 -11   -0.18    2.26
   0  -4  11   -0.23    1.74
   0  -4  11    0.24    2.08
  -1   4 -11   13.57    3.89
  -1   4 -11   12.95    2.32
  -1   4 -11    9.90    2.61
   1  -4  11   10.52    2.40
   1  -4  11    6.25    1.68
  -2   4 -11    2.60    1.93
  -2   4 -11    6.15    2.17
  -2   4 -11    5.33    3.71
   2  -4  11   -0.58    1.36
   2  -4  11    2.48    2.10
  -3   4 -11    7.16    2.13
  -3   4 -11   14.66    4.24
   3  -4  11    6.12    1.84
   3  -4  11    6.20    2.10
   3  -4  11    0.92    2.04
  -4   4 -11    2.10    1.90
  -4   4 -11   -0.90    3.30
   4  -4  11    0.70    1.99
   4  -4  11    1.40    2.37
  -5   4 -11    6.93    3.52
  -5   4 -11   12.60    2.77
   5  -4  11   10.86    2.79
   5  -4  11    8.61    2.62
  -6   4 -11   -0.69    3.12
   6  -4  11   -0.86    2.38
   6  -4  11   -1.17    2.25
   4   3 -11    3.50    3.40
   4   3 -11    0.93    3.10
  -4  -3  11    3.59    2.61
  -4  -3  11    6.14    2.82
   3   3 -11   -4.22    2.72
   3   3 -11   -0.25    2.95
  -3  -3  11    0.54    2.12
  -3  -3  11   -0.16    2.23
  -3  -3  11   -2.03    1.69
   2   3 -11    4.92    3.17
   2   3 -11    7.10    3.15
  -2  -3  11    3.48    2.39
  -2  -3  11    5.36    1.88
  -2  -3  11   11.84    2.54
  -2  -3  11    1.39    2.01
   1   3 -11    0.29    2.55
   1   3 -11    1.18    2.23
   1   3 -11    3.76    1.69
  -1  -3  11    2.07    1.70
  -1  -3  11    3.28    1.83
   0   3 -11    4.30    3.16
   0   3 -11    6.88    2.75
   0   3 -11    8.04    1.79
   0  -3  11    2.14    1.75
   0  -3  11    6.21    2.20
  -1   3 -11    1.42    2.26
  -1   3 -11    1.05    1.56
  -1   3 -11    3.90    3.42
   1  -3  11    0.56    1.60
   1  -3  11   -0.33    1.77
  -2   3 -11   21.87    2.43
  -2   3 -11   20.84    4.44
  -2   3 -11   18.69    3.02
   2  -3  11   20.57    2.42
   2  -3  11   14.93    2.38
  -3   3 -11    3.30    3.38
  -3   3 -11    5.24    2.10
   3  -3  11    5.09    1.67
   3  -3  11    5.21    2.07
   3  -3  11    3.09    1.62
  -4   3 -11    3.04    3.42
  -4   3 -11   -0.02    1.81
   4  -3  11    0.52    1.87
   4  -3  11   -1.49    2.09
  -5   3 -11   -8.47    2.90
  -5   3 -11    2.98    2.08
   5  -3  11    2.57    2.16
   5  -3  11   -2.35    2.20
  -6   3 -11    7.20    2.45
  -6   3 -11    7.59    3.64
   6  -3  11    9.24    2.75
   6  -3  11    5.74    2.54
   4   2 -11    1.88    3.31
   4   2 -11   -1.20    2.78
  -4  -2  11   -0.19    2.46
  -4  -2  11    0.56    2.17
   3   2 -11    0.48    3.01
   3   2 -11   -2.19    2.70
  -3  -2  11    1.92    1.98
  -3  -2  11    2.69    2.38
  -3  -2  11    0.95    1.94
   2   2 -11   -0.51    2.66
   2   2 -11    1.98    2.85
  -2  -2  11    0.32    1.92
  -2  -2  11    0.39    1.88
  -2  -2  11    0.10    1.66
  -2  -2  11    0.78    2.16
   1   2 -11    8.98    2.63
   1   2 -11    7.93    3.18
  -1  -2  11    4.13    2.15
  -1  -2  11    2.58    1.56
  -1  -2  11    4.19    1.73
  -1  -2  11    9.97    1.97
   0   2 -11    6.11    3.05
   0   2 -11    4.83    2.60
   0   2 -11    4.89    1.53
   0  -2  11    0.97    1.90
   0  -2  11    1.56    1.50
   0  -2  11    0.73    1.54
  -1   2 -11    2.20    2.22
  -1   2 -11    2.14    3.15
  -1   2 -11    1.28    1.40
   1  -2  11   -1.02    1.49
   1  -2  11    1.45    1.62
   1  -2  11   -0.40    1.61
  -2   2 -11    4.45    2.28
  -2   2 -11    8.16    3.67
   2  -2  11    3.60    1.68
   2  -2  11    1.62    1.52
   2  -2  11    4.14    1.95
  -3   2 -11   12.61    4.10
  -3   2 -11   11.41    2.59
   3  -2  11    9.58    1.97
   3  -2  11    4.89    1.92
   3  -2  11    7.77    1.83
  -4   2 -11    1.78    3.25
  -4   2 -11    2.41    2.01
   4  -2  11    2.85    1.81
   4  -2  11    2.85    2.08
  -5   2 -11   -2.29    3.13
  -5   2 -11    1.50    2.05
   5  -2  11   -0.09    2.07
   5  -2  11   -0.87    1.78
  -6   2 -11    6.78    2.51
  -6   2 -11   -0.50    3.20
   6  -2  11    2.60    2.31
   6  -2  11    1.58    2.12
  -7   2 -11   -1.57    3.36
  -7   2 -11    1.46    2.29
   7  -2  11    3.85    2.43
   7  -2  11    3.12    2.34
   5   1 -11    1.66    3.98
  -5  -1  11   -1.00    2.54
   4   1 -11    0.00    3.32
   4   1 -11   -1.27    2.67
  -4  -1  11   -1.10    1.65
  -4  -1  11    4.01    2.33
   3   1 -11    5.22    2.02
   3   1 -11    0.21    2.66
   3   1 -11   -2.20    2.96
  -3  -1  11    1.10    2.25
  -3  -1  11    0.58    2.18
   2   1 -11    6.76    1.66
   2   1 -11    5.06    3.06
   2   1 -11    2.53    2.96
  -2  -1  11    4.17    1.55
  -2  -1  11    6.29    2.08
  -2  -1  11    2.00    1.61
  -2  -1  11    4.71    2.25
   1   1 -11    4.88    2.77
   1   1 -11    2.60    2.22
   1   1 -11    3.11    1.51
  -1  -1  11    0.71    1.68
  -1  -1  11   -1.37    1.31
  -1  -1  11   -1.65    1.38
  -1  -1  11   -1.65    1.84
   0   1 -11    0.83    1.83
   0   1 -11    3.92    2.80
   0   1 -11    0.54    1.30
   0  -1  11   -2.31    1.73
   0  -1  11    1.33    1.47
   0  -1  11   -0.68    1.47
   0  -1  11    0.94    1.26
  -1   1 -11   19.26    3.90
  -1   1 -11    6.95    2.68
  -1   1 -11   10.96    1.66
  -1   1 -11   13.64    2.30
   1  -1  11    8.68    2.00
   1  -1  11    5.34    1.47
   1  -1  11   10.50    1.85
  -2   1 -11    3.30    2.27
  -2   1 -11    9.11    3.79
  -2   1 -11    4.04    1.35
   2  -1  11    3.51    1.52
   2  -1  11    5.40    1.75
   2  -1  11    3.61    1.65
   2  -1  11    2.05    1.30
  -3   1 -11    5.61    1.54
  -3   1 -11    7.59    2.38
  -3   1 -11    5.83    2.86
   3  -1  11    4.88    1.86
   3  -1  11    3.44    1.41
   3  -1  11   11.91    2.11
   3  -1  11    6.67    1.67
  -4   1 -11   -2.39    3.09
  -4   1 -11   -1.12    1.39
  -4   1 -11   -0.75    1.87
   4  -1  11   -0.14    1.66
   4  -1  11   -3.29    1.70
  -5   1 -11   -0.08    3.20
  -5   1 -11    9.39    2.54
   5  -1  11    5.55    1.86
   5  -1  11    2.35    1.90
   5  -1  11    6.71    2.24
  -6   1 -11    4.96    2.39
  -6   1 -11   -1.55    2.51
   6  -1  11    4.41    2.27
   6  -1  11    6.27    2.28
   6  -1  11    6.28    2.44
  -7   1 -11    3.39    2.45
  -7   1 -11   -0.65    3.37
   7  -1  11    0.87    2.06
   7  -1  11    0.26    2.17
  -5   0  11    3.35    2.78
   4   0 -11    3.91    2.21
   4   0 -11   -2.01    3.44
   4   0 -11    1.23    2.60
  -4   0  11    1.31    2.49
  -4   0  11    3.86    2.60
   3   0 -11   -6.26    2.51
   3   0 -11    2.77    1.94
   3   0 -11   -0.02    3.44
  -3   0  11    0.50    2.16
  -3   0  11    0.64    2.32
   2   0 -11    2.82    3.07
   2   0 -11   -2.96    2.07
   2   0 -11    3.59    1.76
  -2   0  11    0.60    1.48
  -2   0  11    0.29    1.55
  -2   0  11    1.27    1.85
  -2   0  11   -0.15    1.32
   1   0 -11   25.69    3.80
   1   0 -11   28.59    3.76
   1   0 -11   34.78    2.96
  -1   0  11   32.64    2.62
  -1   0  11   18.61    2.32
  -1   0  11   20.29    2.47
   0   0 -11    7.81    2.56
   0   0 -11   10.53    2.92
   0   0 -11    7.27    1.67
   0   0  11    5.56    1.73
   0   0  11    9.68    1.67
   0   0  11    4.67    1.51
   0   0  11    7.03    2.07
  -1   0 -11   -0.49    1.25
  -1   0 -11    1.25    2.42
  -1   0 -11    6.25    3.14
   1   0  11   -0.80    1.11
   1   0  11   -1.09    1.36
   1   0  11   -0.21    1.47
   1   0  11    0.55    1.29
  -2   0 -11    7.73    3.50
  -2   0 -11    2.65    2.32
  -2   0 -11   -1.13    1.17
   2   0  11   -0.72    1.11
   2   0  11   -0.18    1.47
   2   0  11    2.08    1.61
   2   0  11    0.68    1.43
  -3   0 -11   32.11    4.69
  -3   0 -11   46.71    4.23
  -3   0 -11   50.11    3.12
   3   0  11   46.60    3.07
   3   0  11   49.82    2.99
   3   0  11   50.81    3.15
  -4   0 -11    2.09    3.05
  -4   0 -11    7.87    2.52
  -4   0 -11    5.53    1.91
   4   0  11    7.69    1.56
   4   0  11    4.95    1.86
   4   0  11    4.61    1.98
   4   0  11    5.82    2.84
  -5   0 -11    1.99    1.63
  -5   0 -11   -0.15    2.02
  -5   0 -11   -0.90    3.05
   5   0  11    0.94    2.00
   5   0  11    1.77    1.77
  -6   0 -11   -4.88    2.90
  -6   0 -11    0.40    2.17
   6   0  11   -1.11    1.94
   6   0  11    0.93    2.06
   6   0  11   -0.57    1.96
  -7   0 -11   16.46    3.22
  -7   0 -11   11.12    3.89
   7   0  11   17.50    2.66
   7   0  11   11.65    2.33
   7   0  11   14.39    2.65
  -8   0 -11   -5.52    3.25
  -8   0 -11   -0.87    2.32
   8   0  11    0.48    2.39
   8   0  11    0.14    2.32
   8   0  11    3.77    2.59
   4  -1 -11   11.03    4.33
   4  -1 -11   14.95    3.09
  -4   1  11    4.53    2.66
  -4   1  11    6.69    2.41
   3  -1 -11    7.55    2.36
   3  -1 -11   10.96    4.10
  -3   1  11    1.64    2.35
  -3   1  11    5.23    2.27
   2  -1 -11    0.17    2.42
   2  -1 -11    2.50    2.99
   2  -1 -11    2.60    2.00
  -2   1  11    1.23    1.49
  -2   1  11    1.28    2.07
  -2   1  11    0.24    1.35
  -2   1  11    1.18    1.61
   1  -1 -11    4.06    1.91
   1  -1 -11    7.69    3.39
   1  -1 -11    6.43    2.51
  -1   1  11    0.83    1.45
  -1   1  11    3.13    1.59
  -1   1  11    5.15    1.66
  -1   1  11    3.53    2.12
   0  -1 -11   48.86    4.29
   0  -1 -11   30.32    4.29
   0   1  11   44.35    2.77
   0   1  11   37.00    2.74
   0   1  11   38.06    2.92
  -1  -1 -11    0.97    2.58
  -1  -1 -11    6.67    2.90
  -1  -1 -11    4.87    1.71
   1   1  11    1.33    1.65
   1   1  11    2.98    1.53
   1   1  11   -0.55    1.28
   1   1  11    3.42    1.35
  -2  -1 -11   -0.52    2.68
  -2  -1 -11    0.65    2.38
  -2  -1 -11    1.66    1.76
   2   1  11    0.25    1.07
   2   1  11    1.01    1.10
   2   1  11   -0.59    1.44
   2   1  11    2.66    1.32
  -3  -1 -11    4.07    2.94
  -3  -1 -11    7.13    2.00
  -3  -1 -11    5.07    2.48
   3   1  11    7.76    1.73
   3   1  11    6.27    1.75
   3   1  11    6.11    1.60
   3   1  11    5.92    1.73
  -4  -1 -11   19.91    3.20
  -4  -1 -11   21.76    2.50
  -4  -1 -11   17.57    3.55
   4   1  11   14.71    1.89
   4   1  11   16.48    2.07
   4   1  11   20.33    2.41
   4   1  11   14.57    1.84
  -5  -1 -11    4.01    2.43
  -5  -1 -11    6.19    2.19
  -5  -1 -11   -5.34    2.50
   5   1  11    2.05    1.46
   5   1  11    1.45    1.81
  -6  -1 -11    0.05    1.80
  -6  -1 -11    0.73    3.21
  -6  -1 -11    1.79    1.81
   6   1  11    1.75    2.04
   6   1  11   -0.90    1.80
  -7  -1 -11   -1.89    2.18
  -7  -1 -11   -0.45    3.24
   7   1  11   -0.90    2.05
   7   1  11    1.87    1.74
   7   1  11   -1.02    2.01
  -8  -1 -11    0.91    3.38
  -8  -1 -11    4.05    2.77
   8   1  11    5.64    2.33
   8   1  11   -0.06    2.23
   8   1  11    2.91    2.34
   4  -2 -11    3.42    2.70
   4  -2 -11    1.69    3.78
  -4   2  11   -3.99    2.25
  -4   2  11    4.71    2.61
   3  -2 -11    9.84    2.70
   3  -2 -11   22.99    4.67
  -3   2  11    5.35    2.52
  -3   2  11    5.92    2.08
   2  -2 -11   13.91    3.72
   2  -2 -11    9.39    2.51
  -2   2  11    3.14    2.23
  -2   2  11    7.28    1.80
  -2   2  11   10.51    1.98
  -2   2  11    7.08    1.77
   1  -2 -11    3.05    2.04
   1  -2 -11    5.47    3.58
  -1   2  11   -0.84    1.37
  -1   2  11    0.25    1.40
  -1   2  11    0.98    1.98
  -1   2  11   -0.16    1.25
   0  -2 -11    6.41    2.01
   0  -2 -11    7.42    4.07
   0  -2 -11    6.96    3.25
   0   2  11    6.12    2.09
   0   2  11    3.75    1.60
   0   2  11    2.97    1.48
  -1  -2 -11   11.89    3.52
  -1  -2 -11   14.42    3.09
  -1  -2 -11   14.38    2.28
   1   2  11   17.30    1.93
   1   2  11    9.99    2.09
   1   2  11   11.36    1.92
   1   2  11    9.91    1.76
  -2  -2 -11    3.95    2.61
  -2  -2 -11    7.87    2.59
  -2  -2 -11    8.34    2.08
   2   2  11    9.32    1.85
   2   2  11    5.63    1.72
   2   2  11    4.60    1.55
   2   2  11   12.16    1.75
  -3  -2 -11   -1.39    1.82
  -3  -2 -11    0.69    1.71
  -3  -2 -11   -1.38    2.30
   3   2  11    0.95    1.17
   3   2  11   -0.01    1.01
   3   2  11    1.78    1.50
   3   2  11    1.43    1.43
  -4  -2 -11    1.61    1.77
  -4  -2 -11   -1.16    2.08
  -4  -2 -11   -4.27    1.74
   4   2  11    1.17    1.69
   4   2  11   -0.74    1.40
   4   2  11    0.94    1.62
   4   2  11   -1.83    1.31
  -5  -2 -11   -1.31    2.59
  -5  -2 -11    2.74    1.98
  -5  -2 -11    1.41    2.35
   5   2  11    3.67    1.96
   5   2  11    3.05    1.83
  -6  -2 -11    0.41    1.97
  -6  -2 -11    1.64    2.34
  -6  -2 -11   -1.62    2.41
   6   2  11   -0.45    1.89
   6   2  11   -0.38    1.80
  -7  -2 -11   -6.99    2.53
  -7  -2 -11    1.41    2.58
   7   2  11   -2.38    1.83
   7   2  11   -0.02    2.27
   7   2  11    0.61    1.63
  -8  -2 -11    2.24    2.66
  -8  -2 -11   -1.09    3.16
   8   2  11   -2.37    2.10
   8   2  11    2.95    2.21
   8   2  11   -1.57    2.19
   4  -3 -11   10.20    3.08
   4  -3 -11   16.56    5.15
  -4   3  11    6.03    2.85
  -4   3  11    5.05    2.40
   3  -3 -11    9.83    3.99
   3  -3 -11    9.35    2.87
  -3   3  11    3.07    2.14
  -3   3  11   -0.70    2.23
   2  -3 -11   11.44    4.12
   2  -3 -11    1.58    2.29
  -2   3  11   -0.65    1.36
  -2   3  11    0.07    1.57
  -2   3  11   -1.23    1.54
   1  -3 -11    1.86    2.12
   1  -3 -11    7.62    3.63
  -1   3  11    3.08    1.71
  -1   3  11   -0.26    1.29
  -1   3  11    1.88    1.57
   0  -3 -11   18.03    2.79
   0  -3 -11   11.94    3.84
   0   3  11   14.23    1.73
   0   3  11   11.36    2.41
   0   3  11    9.54    1.73
   0   3  11   14.26    2.09
  -1  -3 -11    1.25    3.20
  -1  -3 -11    4.81    2.04
   1   3  11    6.95    1.50
   1   3  11    2.50    1.44
   1   3  11    4.91    1.94
   1   3  11    1.41    1.52
  -2  -3 -11    1.81    2.27
  -2  -3 -11    0.83    1.83
   2   3  11    0.59    1.35
   2   3  11    0.28    1.34
   2   3  11   -0.80    1.44
   2   3  11   -1.06    1.51
  -3  -3 -11   -3.24    2.35
  -3  -3 -11    2.37    1.84
   3   3  11    3.15    1.50
   3   3  11    0.28    1.41
   3   3  11    2.84    1.75
   3   3  11   -0.39    1.09
  -4  -3 -11    5.36    2.16
  -4  -3 -11    6.30    2.13
  -4  -3 -11    7.14    2.98
   4   3  11    5.38    1.87
   4   3  11    6.96    1.98
   4   3  11    4.14    1.62
  -5  -3 -11    2.41    2.05
  -5  -3 -11    1.12    1.98
  -5  -3 -11   -2.76    1.77
   5   3  11    3.13    1.90
   5   3  11    2.05    1.91
  -6  -3 -11    2.37    2.17
  -6  -3 -11    0.25    2.56
  -6  -3 -11    1.41    2.22
   6   3  11    3.25    1.64
   6   3  11    0.56    1.89
  -7  -3 -11   -0.34    1.94
  -7  -3 -11   -4.27    2.58
  -7  -3 -11   -0.86    2.13
   7   3  11    1.11    2.06
   7   3  11   -0.88    2.05
  -8  -3 -11    2.17    2.99
  -8  -3 -11    3.43    2.97
   8   3  11    3.26    2.49
   8   3  11    7.39    2.32
   8   3  11    1.00    2.49
   3  -4 -11   12.31    4.86
   3  -4 -11    7.34    2.84
  -3   4  11    6.20    2.19
  -3   4  11    5.25    2.57
   2  -4 -11   15.78    4.47
   2  -4 -11    3.15    2.45
  -2   4  11   -0.22    1.43
  -2   4  11    0.77    2.29
   1  -4 -11   -3.49    3.09
   1  -4 -11    1.61    2.33
  -1   4  11    0.46    1.28
  -1   4  11   -1.22    2.07
  -1   4  11   -1.47    1.36
   0  -4 -11    7.59    3.52
   0  -4 -11    3.68    1.86
   0  -4 -11    1.76    1.76
   0   4  11    2.55    1.59
   0   4  11    2.11    1.62
  -1  -4 -11   15.64    2.75
  -1  -4 -11   10.52    3.79
   1   4  11    9.39    1.73
   1   4  11    7.79    2.21
   1   4  11    7.74    1.58
   1   4  11   15.23    2.19
  -2  -4 -11   -1.75    2.91
  -2  -4 -11    3.12    1.68
   2   4  11    1.85    1.62
   2   4  11    2.81    1.61
   2   4  11    2.85    1.51
   2   4  11    1.87    1.74
  -3  -4 -11    6.83    1.93
  -3  -4 -11    2.34    2.96
   3   4  11    4.50    1.46
   3   4  11    7.93    1.89
   3   4  11    7.11    1.83
  -4  -4 -11   -3.60    2.64
  -4  -4 -11    0.23    1.42
   4   4  11    1.00    1.72
   4   4  11    0.53    1.53
   4   4  11   -0.97    1.70
  -5  -4 -11   13.01    3.40
  -5  -4 -11   10.11    2.11
   5   4  11   10.56    2.34
   5   4  11   11.39    2.37
  -6  -4 -11    0.45    2.11
  -6  -4 -11    0.47    2.76
   6   4  11    1.28    2.01
   6   4  11    3.26    2.06
  -7  -4 -11    0.93    2.88
  -7  -4 -11    5.18    2.56
   7   4  11    4.69    2.41
   7   4  11    3.77    1.72
  -8  -4 -11    1.72    3.13
   8   4  11    1.77    2.37
   8   4  11   -1.43    1.95
   8   4  11    2.78    2.69
   3  -5 -11    3.96    2.76
   3  -5 -11   11.32    4.92
  -3   5  11    4.39    2.80
   2  -5 -11    9.61    3.09
   2  -5 -11   10.55    4.08
  -2   5  11    6.22    2.16
   1  -5 -11    4.30    4.28
   1  -5 -11    0.53    2.50
  -1   5  11    0.01    1.48
  -1   5  11    0.00    2.18
   0  -5 -11    1.19    3.23
   0  -5 -11    2.55    1.72
   0  -5 -11    3.94    2.61
   0   5  11    2.32    1.63
   0   5  11    1.49    2.14
  -1  -5 -11    0.31    1.82
  -1  -5 -11    4.04    2.42
  -1  -5 -11   -4.51    2.79
   1   5  11    1.86    1.84
   1   5  11   -0.92    1.47
  -2  -5 -11   10.75    3.66
  -2  -5 -11   14.36    2.88
   2   5  11   15.82    2.25
   2   5  11   13.52    2.19
   2   5  11   10.44    2.20
  -3  -5 -11   -0.98    2.78
  -3  -5 -11    3.40    2.28
   3   5  11    1.86    1.75
   3   5  11   -0.43    1.58
   3   5  11    1.92    1.63
  -4  -5 -11   -0.12    2.88
  -4  -5 -11    4.97    1.87
   4   5  11    4.04    1.58
   4   5  11    6.55    2.08
   4   5  11    1.15    1.79
  -5  -5 -11   -1.34    2.74
  -5  -5 -11    1.37    2.23
   5   5  11    1.67    2.00
   5   5  11   -0.44    1.90
  -6  -5 -11   -1.50    2.18
  -6  -5 -11    0.85    3.00
   6   5  11    0.79    2.10
   6   5  11   -0.94    2.01
  -7  -5 -11   -1.43    2.93
  -7  -5 -11   -1.37    2.38
   7   5  11    5.10    2.35
   7   5  11   -0.39    2.22
  -8  -5 -11    0.00    2.49
  -8  -5 -11    3.21    3.46
   8   5  11    2.54    2.37
   8   5  11    3.71    2.12
   2  -6 -11    1.30    2.79
  -2   6  11    0.69    2.58
   1  -6 -11   -0.05    2.58
   1  -6 -11   -0.61    3.11
   1  -6 -11   -1.64    2.21
  -1   6  11   -1.27    2.11
  -1   6  11    0.47    1.56
   0  -6 -11   -7.50    2.89
   0  -6 -11   -0.10    1.96
   0  -6 -11   -2.77    2.50
   0   6  11    0.00    1.64
   0   6  11   -1.05    1.55
  -1  -6 -11   -0.06    2.50
  -1  -6 -11   -5.82    2.75
  -1  -6 -11   -0.02    2.02
   1   6  11    0.67    1.59
   1   6  11   -1.59    1.87
  -2  -6 -11   -3.81    1.93
  -2  -6 -11    0.87    2.49
  -2  -6 -11   -3.63    2.61
   2   6  11   -2.67    1.38
   2   6  11   -0.65    1.78
  -3  -6 -11   -0.80    2.76
  -3  -6 -11    1.17    1.85
   3   6  11   -0.89    1.79
   3   6  11    1.79    1.79
   3   6  11    0.39    1.65
  -4  -6 -11    3.04    2.45
  -4  -6 -11   -4.74    2.53
   4   6  11   -0.66    1.74
   4   6  11    1.63    2.01
   4   6  11    0.72    1.54
  -5  -6 -11   -3.06    2.97
  -5  -6 -11   -1.67    2.24
   5   6  11    0.49    2.04
   5   6  11    4.48    2.12
  -6  -6 -11    0.89    3.21
  -6  -6 -11   -2.08    2.30
   6   6  11   -2.00    2.09
   6   6  11   -0.66    2.13
  -7  -6 -11   -0.42    3.13
  -7  -6 -11   -0.55    2.48
   7   6  11    1.03    2.51
   7   6  11    2.88    2.28
   8   6  11   -0.46    2.15
   1  -7 -11    2.47    2.93
   1  -7 -11   -4.19    2.36
  -1   7  11   -0.57    1.63
  -1   7  11   -0.38    2.52
   0  -7 -11   -2.95    2.08
   0  -7 -11    1.59    2.80
   0   7  11    0.81    1.70
   0   7  11    2.14    2.39
  -1  -7 -11   -0.67    2.15
  -1  -7 -11   -5.16    2.71
  -1  -7 -11   -0.35    2.65
   1   7  11   -0.31    1.61
   1   7  11   -1.01    2.06
  -2  -7 -11    0.04    2.71
  -2  -7 -11    0.10    2.23
  -2  -7 -11   -7.17    2.90
   2   7  11   -0.56    1.84
   2   7  11    1.82    1.72
  -3  -7 -11    1.00    2.67
  -3  -7 -11    4.98    2.56
  -3  -7 -11   -5.42    3.08
   3   7  11    0.61    1.29
   3   7  11    1.58    1.88
  -4  -7 -11    1.54    3.45
  -4  -7 -11   -0.70    2.44
   4   7  11    2.53    2.19
   4   7  11    2.96    1.76
   4   7  11    3.62    2.08
  -5  -7 -11    1.12    3.42
  -5  -7 -11    3.07    2.63
   5   7  11    2.52    2.23
   5   7  11    0.12    2.21
  -6  -7 -11    1.48    3.17
  -6  -7 -11   -2.64    2.45
   6   7  11   -1.17    2.24
   6   7  11   -2.46    1.63
  -7  -7 -11    1.40    3.40
  -7  -7 -11    2.10    2.89
   7   7  11    0.32    2.51
   7   7  11    1.29    2.36
   0   8  11    0.52    2.55
  -1  -8 -11    7.03    2.72
  -1  -8 -11    4.50    3.41
   1   8  11    9.25    2.85
   1   8  11    5.65    2.02
  -2  -8 -11    1.10    2.47
  -2  -8 -11   -1.85    3.05
   2   8  11    2.67    2.25
   2   8  11    1.57    1.83
  -3  -8 -11   -4.92    2.30
  -3  -8 -11   -5.61    2.67
   3   8  11   -2.34    1.74
   3   8  11   -1.96    1.72
  -4  -8 -11   -0.18    2.88
  -4  -8 -11    1.80    2.81
   4   8  11    3.60    2.41
   4   8  11    0.14    1.48
   4   8  11    1.57    1.82
  -5  -8 -11   13.18    3.97
  -5  -8 -11    9.11    3.38
   5   8  11    7.71    2.58
   5   8  11    8.44    2.32
   5   8  11   11.19    2.88
  -6  -8 -11    0.97    2.94
  -6  -8 -11    2.57    3.20
   6   8  11    0.46    1.85
   6   8  11   -0.87    2.41
   2   5 -12    0.34    3.64
   2   5 -12   -5.40    2.74
   2   5 -12    2.75    2.20
  -2  -5  12   -1.97    1.97
  -2  -5  12   -2.92    1.74
   1   5 -12    1.18    2.76
   1   5 -12    2.08    2.89
   1   5 -12    1.44    1.99
  -1  -5  12    1.07    2.50
  -1  -5  12    0.90    2.21
   0   5 -12   -1.63    2.40
   0   5 -12    3.79    3.83
   0   5 -12    1.88    2.13
   0  -5  12   -1.40    2.25
   0  -5  12   -1.11    2.07
  -1   5 -12    2.78    2.32
  -1   5 -12    5.05    2.31
  -1   5 -12    8.49    4.30
   1  -5  12   -2.11    2.06
   1  -5  12   -0.03    2.05
  -2   5 -12    4.14    4.14
  -2   5 -12    8.14    2.41
   2  -5  12    0.86    1.68
   2  -5  12    1.26    2.08
  -3   5 -12    3.06    3.17
  -3   5 -12    0.78    3.68
   3  -5  12   -0.53    2.40
   3   4 -12    4.07    3.51
   3   4 -12   -1.07    3.31
  -3  -4  12   -1.60    2.67
   2   4 -12    0.84    3.36
   2   4 -12    2.73    2.25
   2   4 -12    0.14    2.99
  -2  -4  12    1.97    2.03
  -2  -4  12   -4.06    1.82
   1   4 -12    3.18    3.45
   1   4 -12    1.98    2.96
   1   4 -12    1.89    2.05
  -1  -4  12   -2.36    2.32
  -1  -4  12   -1.30    1.89
   0   4 -12    2.65    2.72
   0   4 -12    4.55    1.87
   0   4 -12    5.40    2.96
   0  -4  12    0.80    2.30
   0  -4  12    0.91    1.92
  -1   4 -12    7.48    2.66
  -1   4 -12   15.52    3.76
   1  -4  12    7.46    2.47
   1  -4  12    3.19    1.96
  -2   4 -12    1.73    3.84
  -2   4 -12    4.47    2.17
   2  -4  12   -0.04    1.81
   2  -4  12   -1.63    1.35
  -3   4 -12   -0.21    3.66
  -3   4 -12    3.39    2.10
   3  -4  12    2.61    2.22
  -4   4 -12    6.36    2.46
  -4   4 -12    3.31    3.56
   4  -4  12    3.74    2.63
  -5   4 -12    1.25    3.22
  -5   4 -12    8.08    2.48
   5  -4  12    3.86    2.76
   5  -4  12    7.29    2.52
   3   3 -12   -0.45    3.27
   3   3 -12    2.69    3.48
  -3  -3  12    0.86    2.50
  -3  -3  12    0.93    2.67
   2   3 -12   26.08    4.55
   2   3 -12   19.13    4.16
  -2  -3  12   12.62    2.49
  -2  -3  12   25.93    3.06
  -2  -3  12   18.02    2.62
   1   3 -12    4.38    3.67
   1   3 -12   -1.27    2.83
   1   3 -12    1.56    1.74
  -1  -3  12    1.94    2.35
  -1  -3  12    0.35    1.77
   0   3 -12   11.57    4.11
   0   3 -12    0.02    1.73
   0   3 -12    5.24    2.85
   0  -3  12    0.74    1.80
   0  -3  12    1.53    2.14
  -1   3 -12    8.72    2.85
  -1   3 -12   15.22    4.59
   1  -3  12    8.85    2.58
   1  -3  12    3.46    1.92
  -2   3 -12   18.32    3.21
  -2   3 -12   26.83    4.53
   2  -3  12   12.63    2.29
  -3   3 -12    9.39    4.31
  -3   3 -12    1.53    2.05
   3  -3  12    1.26    1.81
   3  -3  12    3.02    2.16
  -4   3 -12    0.50    3.49
  -4   3 -12    0.05    1.89
   4  -3  12    0.64    2.34
   4  -3  12   -0.58    1.87
  -5   3 -12   -2.54    3.10
  -5   3 -12    1.94    2.16
   5  -3  12   -0.77    2.37
   5  -3  12    0.31    2.16
  -6   3 -12    3.38    3.58
   6  -3  12    6.98    2.68
   6  -3  12    4.59    2.77
   3   2 -12   -0.39    2.37
   3   2 -12   -4.36    2.79
  -3  -2  12    2.20    2.24
  -3  -2  12    0.75    1.99
   2   2 -12    2.60    2.51
   2   2 -12   -0.66    3.00
  -2  -2  12    2.05    1.86
  -2  -2  12    1.47    1.78
  -2  -2  12    1.74    1.90
   1   2 -12   17.53    3.99
   1   2 -12   18.63    4.09
  -1  -2  12   18.66    3.00
  -1  -2  12   19.14    2.61
   0   2 -12   -0.49    2.56
   0   2 -12    6.98    3.41
   0  -2  12    2.73    2.14
   0  -2  12    1.82    1.74
  -1   2 -12   -3.25    2.11
  -1   2 -12   10.32    3.95
   1  -2  12   -1.02    1.20
   1  -2  12    0.15    1.94
  -2   2 -12    2.04    1.78
  -2   2 -12    5.68    3.74
   2  -2  12   -1.48    1.69
   2  -2  12   -4.55    1.44
  -3   2 -12   19.22    3.09
  -3   2 -12   16.90    4.54
   3  -2  12   16.39    2.20
   3  -2  12   13.90    2.30
  -4   2 -12    1.21    3.84
  -4   2 -12    2.32    2.17
   4  -2  12    1.42    1.85
   4  -2  12   -1.10    2.11
  -5   2 -12    1.19    2.20
  -5   2 -12   -2.54    3.28
   5  -2  12    0.63    1.95
   5  -2  12    3.35    2.44
  -6   2 -12    1.00    2.75
  -6   2 -12    2.13    2.27
   6  -2  12   -0.26    2.16
   6  -2  12    3.41    2.52
   4   1 -12   -1.99    2.92
   4   1 -12   -1.46    3.75
  -4  -1  12   -0.16    2.67
   3   1 -12    3.34    2.87
   3   1 -12    6.25    3.27
  -3  -1  12   -1.42    2.37
  -3  -1  12    5.33    2.23
   2   1 -12   -2.28    2.84
   2   1 -12    2.67    2.56
  -2  -1  12   -0.68    1.66
  -2  -1  12   -0.08    1.80
  -2  -1  12   -1.85    1.89
   1   1 -12    3.50    3.08
   1   1 -12    0.92    2.94
  -1  -1  12    1.30    2.16
  -1  -1  12    4.21    1.89
  -1  -1  12    2.49    1.76
   0   1 -12    9.89    3.40
   0   1 -12    2.87    2.18
   0  -1  12    2.67    1.78
   0  -1  12    3.86    2.24
  -1   1 -12   11.15    3.85
  -1   1 -12    5.34    2.67
   1  -1  12    2.68    1.75
   1  -1  12    1.87    1.94
  -2   1 -12    3.66    2.48
  -2   1 -12    3.41    3.76
   2  -1  12    1.14    1.77
   2  -1  12   -0.55    1.70
  -3   1 -12   -2.21    3.46
  -3   1 -12    4.26    2.35
   3  -1  12    0.72    1.77
   3  -1  12   -0.42    1.74
   3  -1  12    1.48    1.80
  -4   1 -12    2.22    2.23
  -4   1 -12   -0.62    3.34
   4  -1  12   -1.95    1.96
   4  -1  12   -0.97    1.67
  -5   1 -12   -1.27    2.09
  -5   1 -12   -9.69    3.18
   5  -1  12   -1.92    2.05
   5  -1  12    1.04    1.98
  -6   1 -12   -5.67    3.26
  -6   1 -12    1.17    2.33
   6  -1  12    1.96    2.41
   6  -1  12    4.11    2.20
  -7   1 -12   -1.35    3.59
  -7   1 -12    0.18    2.33
   7  -1  12   -2.26    2.15
   7  -1  12   -0.86    2.24
   4   0 -12    4.16    3.31
   4   0 -12   -1.34    2.93
  -4   0  12    2.20    2.76
   3   0 -12    6.56    4.04
   3   0 -12    3.20    2.00
  -3   0  12   -0.19    2.17
  -3   0  12   -4.21    2.25
   2   0 -12    4.30    3.31
   2   0 -12    6.15    1.99
   2   0 -12   10.57    3.84
  -2   0  12    3.09    2.00
  -2   0  12    1.41    2.26
  -2   0  12    3.26    1.78
   1   0 -12   13.78    2.33
   1   0 -12   12.64    3.77
   1   0 -12   12.72    3.60
  -1   0  12    7.04    1.97
  -1   0  12    8.16    2.04
  -1   0  12   10.03    2.30
   0   0 -12    4.19    1.82
   0   0 -12    4.98    2.93
   0   0 -12    4.93    2.94
   0   0  12   -0.47    1.93
   0   0  12    0.16    1.58
  -1   0 -12   -0.48    1.39
  -1   0 -12    0.05    2.56
  -1   0 -12    9.09    3.63
   1   0  12   -0.22    1.60
   1   0  12    0.83    1.78
  -2   0 -12    1.89    3.54
  -2   0 -12    1.96    1.46
  -2   0 -12    0.72    2.42
   2   0  12   -0.11    1.50
   2   0  12   -1.60    1.59
   2   0  12    0.31    1.66
  -3   0 -12   14.45    3.18
  -3   0 -12   15.04    4.26
  -3   0 -12   20.53    2.38
   3   0  12   12.98    2.08
   3   0  12   18.01    2.20
   3   0  12   13.88    2.37
  -4   0 -12   -0.95    3.05
  -4   0 -12    1.09    1.73
  -4   0 -12    2.19    1.78
   4   0  12   -1.04    1.77
   4   0  12    3.62    1.83
  -5   0 -12    3.66    2.06
  -5   0 -12    1.06    2.36
  -5   0 -12   -8.65    3.09
   5   0  12    2.96    1.94
   5   0  12    1.98    1.65
  -6   0 -12   -0.87    2.26
  -6   0 -12   -1.10    2.58
   6   0  12    0.76    2.03
   6   0  12    0.17    2.22
   6   0  12    0.54    2.01
  -7   0 -12   -1.35    3.37
  -7   0 -12   -0.84    2.29
   7   0  12    2.80    2.06
   7   0  12    2.22    2.19
   7   0  12    2.97    2.41
   3  -1 -12   -0.90    2.77
   3  -1 -12    2.55    2.14
  -3   1  12    1.24    2.41
  -3   1  12   -2.08    1.79
   2  -1 -12   12.44    4.33
   2  -1 -12    3.84    2.19
  -2   1  12    4.45    3.26
  -2   1  12    3.03    1.74
  -2   1  12    2.00    2.39
   1  -1 -12    4.39    2.05
   1  -1 -12    4.82    2.84
  -1   1  12    2.40    1.69
  -1   1  12    2.26    1.58
  -1   1  12    1.68    2.08
   0  -1 -12   22.00    2.59
   0  -1 -12   21.61    3.47
   0  -1 -12   19.10    4.03
   0   1  12   11.31    2.44
   0   1  12   14.95    2.23
  -1  -1 -12    4.35    3.14
  -1  -1 -12   -0.42    1.59
  -1  -1 -12    1.30    2.95
   1   1  12    0.70    1.87
   1   1  12   -0.71    1.55
  -2  -1 -12    5.26    1.83
  -2  -1 -12    8.40    3.18
  -2  -1 -12    5.21    3.65
   2   1  12    3.00    1.80
   2   1  12    8.13    1.79
   2   1  12    5.80    1.82
  -3  -1 -12    3.32    1.74
  -3  -1 -12   -3.38    3.25
  -3  -1 -12    4.05    2.71
   3   1  12    3.16    1.56
   3   1  12    1.09    1.55
   3   1  12    3.72    1.87
  -4  -1 -12    0.88    2.81
  -4  -1 -12    4.51    1.87
  -4  -1 -12    2.42    1.94
   4   1  12    3.07    1.80
   4   1  12    3.41    1.59
  -5  -1 -12   -0.84    2.86
  -5  -1 -12   -0.30    2.08
  -5  -1 -12   -2.20    2.19
   5   1  12    3.07    1.88
   5   1  12    1.56    1.63
  -6  -1 -12    4.29    2.78
  -6  -1 -12    5.73    2.16
  -6  -1 -12   -4.17    3.27
   6   1  12    7.38    2.35
   6   1  12    4.92    2.40
  -7  -1 -12   -3.28    3.15
  -7  -1 -12   -2.93    1.53
   7   1  12   -3.07    1.93
   7   1  12    1.69    2.33
   7   1  12    1.14    2.31
   3  -2 -12    4.44    2.43
   3  -2 -12    6.42    4.06
  -3   2  12    6.88    2.84
   2  -2 -12   -0.18    2.04
   2  -2 -12    7.46    4.14
  -2   2  12   -2.54    1.50
  -2   2  12   -0.07    1.55
   1  -2 -12    1.75    2.10
   1  -2 -12    4.86    3.82
  -1   2  12   -0.24    1.53
  -1   2  12    1.27    1.72
  -1   2  12    0.73    2.14
   0  -2 -12    1.30    3.21
   0  -2 -12    2.43    2.00
   0   2  12    0.76    1.53
   0   2  12    4.06    2.09
  -1  -2 -12    2.37    1.94
  -1  -2 -12    2.59    3.24
   1   2  12    0.42    1.83
   1   2  12    0.79    1.62
  -2  -2 -12   -0.11    3.03
  -2  -2 -12    0.39    1.83
   2   2  12    0.16    1.54
   2   2  12   -0.46    1.33
   2   2  12   -0.56    1.63
  -3  -2 -12    1.12    2.85
  -3  -2 -12    0.78    2.17
  -3  -2 -12    4.79    1.97
   3   2  12    4.49    1.85
   3   2  12    1.88    1.56
   3   2  12    8.05    1.88
  -4  -2 -12   -0.47    2.43
  -4  -2 -12    0.27    2.52
  -4  -2 -12   -1.78    1.75
   4   2  12   -2.31    1.77
   4   2  12    1.29    1.44
   4   2  12   -0.24    1.32
  -5  -2 -12    1.27    2.01
  -5  -2 -12   -0.23    1.86
  -5  -2 -12   -1.40    2.30
   5   2  12   -0.74    1.52
   5   2  12   -0.27    1.79
  -6  -2 -12   -4.37    2.67
  -6  -2 -12    1.96    2.19
  -6  -2 -12    0.19    2.64
   6   2  12    1.11    2.02
   6   2  12   -1.49    2.07
  -7  -2 -12    2.21    3.09
  -7  -2 -12    1.28    2.02
   7   2  12    2.73    2.39
   7   2  12    6.94    2.56
  -8  -2 -12    0.22    3.23
   8   2  12    2.49    2.45
   3  -3 -12   16.38    4.88
   3  -3 -12    5.84    2.73
  -3   3  12   -2.39    2.54
   2  -3 -12    3.46    2.51
   2  -3 -12    8.91    4.27
  -2   3  12   -0.90    2.38
   1  -3 -12    8.44    4.05
   1  -3 -12   -0.74    2.12
  -1   3  12   -2.35    2.16
  -1   3  12    2.57    1.65
   0  -3 -12   -1.04    3.31
   0  -3 -12    1.11    2.19
   0   3  12   -0.10    2.06
   0   3  12    0.61    1.58
  -1  -3 -12    1.47    1.90
  -1  -3 -12   -0.87    3.11
   1   3  12    0.08    1.53
   1   3  12    0.50    1.58
   1   3  12   -0.27    1.92
  -2  -3 -12    1.58    2.07
  -2  -3 -12   -0.49    3.04
   2   3  12    0.91    1.69
   2   3  12    1.61    1.49
   2   3  12    2.39    1.90
  -3  -3 -12   -1.19    2.90
  -3  -3 -12    1.74    2.02
   3   3  12   -1.11    1.60
   3   3  12    2.55    1.70
   3   3  12    0.93    1.64
  -4  -3 -12   -0.23    1.97
  -4  -3 -12    0.12    2.12
   4   3  12    0.17    1.74
   4   3  12    1.97    1.65
   4   3  12    0.12    1.78
  -5  -3 -12    4.58    2.32
  -5  -3 -12    1.49    2.91
   5   3  12    2.12    1.96
   5   3  12   -0.67    1.44
  -6  -3 -12    0.76    2.98
  -6  -3 -12    3.10    2.32
   6   3  12    4.84    2.19
   6   3  12    4.48    2.33
  -7  -3 -12    0.67    2.32
  -7  -3 -12    0.98    2.88
   7   3  12   -0.09    2.26
   7   3  12    4.02    2.28
  -8  -3 -12   -2.09    3.93
   8   3  12    1.82    2.46
   8   3  12   -0.97    2.46
   8   3  12   -1.07    2.55
   2  -4 -12    4.14    3.87
   2  -4 -12    3.85    2.71
  -2   4  12   -0.01    2.50
   1  -4 -12    5.48    2.64
   1  -4 -12    4.97    3.79
  -1   4  12    0.64    1.81
  -1   4  12    2.16    2.47
   0  -4 -12   -4.62    3.58
   0  -4 -12   -0.47    2.26
   0   4  12    0.63    1.66
   0   4  12   -0.05    1.53
  -1  -4 -12    4.66    2.33
  -1  -4 -12   -0.86    3.23
   1   4  12   -0.22    1.52
   1   4  12    1.90    2.10
   1   4  12    1.48    1.51
  -2  -4 -12    3.67    2.23
  -2  -4 -12    0.95    3.31
   2   4  12    4.11    1.76
   2   4  12    7.88    1.88
   2   4  12    2.11    1.95
  -3  -4 -12    7.97    3.52
  -3  -4 -12   10.85    2.61
   3   4  12    5.97    1.64
   3   4  12   11.37    2.35
   3   4  12    9.37    2.09
  -4  -4 -12    3.50    2.18
  -4  -4 -12    0.28    3.10
   4   4  12    0.93    1.63
   4   4  12    0.53    1.78
   4   4  12   -0.57    1.85
  -5  -4 -12   -0.13    1.63
  -5  -4 -12   -4.84    2.92
   5   4  12    1.48    1.95
   5   4  12    2.46    2.18
  -6  -4 -12    6.67    3.60
  -6  -4 -12    5.76    2.65
   6   4  12    7.83    2.52
   6   4  12    8.11    2.41
  -7  -4 -12    6.46    3.56
  -7  -4 -12    5.00    2.72
   7   4  12    5.02    2.48
   7   4  12    6.56    2.54
   2  -5 -12    3.67    2.73
   2  -5 -12    3.82    3.94
  -2   5  12   -0.72    2.50
   1  -5 -12    5.79    2.26
   1  -5 -12    3.53    3.79
  -1   5  12    5.22    2.70
  -1   5  12    5.13    1.84
   0  -5 -12    4.58    3.74
   0  -5 -12    8.20    2.95
   0   5  12    8.15    2.63
   0   5  12    7.19    2.01
  -1  -5 -12    0.64    2.46
  -1  -5 -12   -8.59    3.13
   1   5  12   -1.71    2.06
   1   5  12    0.49    1.63
   1   5  12    0.69    1.89
  -2  -5 -12   -4.56    3.05
  -2  -5 -12    3.42    2.52
   2   5  12    2.36    1.82
   2   5  12   -0.90    1.67
   2   5  12    0.96    1.89
  -3  -5 -12    8.90    2.79
  -3  -5 -12    5.83    3.69
   3   5  12    7.22    2.11
   3   5  12   10.27    2.22
   3   5  12   11.46    2.26
  -4  -5 -12    0.93    3.57
  -4  -5 -12   12.03    2.89
   4   5  12   14.03    2.48
   4   5  12   12.30    2.46
   4   5  12   10.81    2.19
  -5  -5 -12   -2.58    3.21
  -5  -5 -12   -0.85    2.19
   5   5  12    0.47    2.12
   5   5  12    1.87    1.73
  -6  -5 -12    0.28    2.41
  -6  -5 -12   -3.33    3.08
   6   5  12   -2.23    2.16
   6   5  12    2.79    2.23
  -7  -5 -12    5.19    3.72
  -7  -5 -12    5.25    2.29
   7   5  12    8.48    2.68
   7   5  12    4.91    2.53
   1  -6 -12    3.06    2.90
  -1   6  12    0.10    1.87
  -1   6  12   -1.13    2.41
   0  -6 -12    8.32    2.78
   0  -6 -12   -0.13    3.07
   0  -6 -12    3.20    2.86
   0   6  12    1.11    1.81
   0   6  12    0.91    2.35
  -1  -6 -12    8.22    3.09
  -1  -6 -12    4.06    2.24
  -1  -6 -12    1.97    3.11
   1   6  12    3.02    1.52
   1   6  12    3.80    2.36
  -2  -6 -12    1.04    2.59
  -2  -6 -12   -2.70    3.07
   2   6  12    2.38    1.99
   2   6  12    0.09    1.68
   2   6  12   -0.06    1.86
  -3  -6 -12   -4.48    3.11
  -3  -6 -12    1.04    2.61
   3   6  12    0.14    1.72
   3   6  12    2.52    1.84
   3   6  12    0.83    1.95
  -4  -6 -12   -0.13    3.34
  -4  -6 -12    2.94    2.57
   4   6  12    0.23    1.85
   4   6  12    1.78    2.07
   4   6  12    3.12    1.74
  -5  -6 -12    3.06    3.53
  -5  -6 -12    4.34    2.67
   5   6  12    6.05    2.04
   5   6  12    3.76    2.31
  -6  -6 -12   -0.72    3.31
  -6  -6 -12   -0.07    2.53
   6   6  12   -1.57    2.20
   6   6  12    1.74    2.25
  -7  -6 -12    3.76    3.75
  -7  -6 -12    0.94    2.16
   7   6  12    0.21    2.48
   7   6  12    5.58    2.69
   0   7  12    2.34    2.68
   0   7  12    4.29    2.01
  -1  -7 -12    2.85    2.40
  -1  -7 -12    1.05    2.94
   1   7  12    2.93    1.88
   1   7  12   -1.57    2.15
  -2  -7 -12   -2.27    2.21
  -2  -7 -12   -3.34    2.73
  -2  -7 -12    2.27    3.05
   2   7  12   -1.75    2.08
   2   7  12    0.24    1.37
  -3  -7 -12    3.76    3.13
  -3  -7 -12   -3.22    2.98
   3   7  12    2.95    2.25
   3   7  12    1.74    1.47
   3   7  12    1.31    2.13
  -4  -7 -12    4.43    3.01
  -4  -7 -12    0.36    3.22
   4   7  12    2.42    2.16
   4   7  12    1.94    2.08
   4   7  12    4.33    2.41
  -5  -7 -12    3.50    2.88
  -5  -7 -12    0.22    3.38
   5   7  12    2.68    2.33
   5   7  12    1.21    2.25
  -6  -7 -12   -0.94    2.08
  -6  -7 -12   -5.23    3.01
   6   7  12   -2.09    2.36
   6   7  12    0.69    1.89
  -3  -8 -12   -4.93    2.46
  -3  -8 -12    0.55    3.29
   3   8  12   -1.04    1.96
   3   8  12    1.81    2.05
  -4  -8 -12    4.03    3.39
  -4  -8 -12    8.59    5.37
   4   8  12    6.11    2.32
   4   8  12    5.66    2.18
   4   8  12    3.38    2.50
   1   4 -13   -2.07    2.91
   1   4 -13   -0.02    3.76
  -1  -4  13   -1.70    2.33
  -1  -4  13   -1.85    2.01
   0   4 -13   12.64    4.60
   0   4 -13    1.34    2.70
   0  -4  13    0.51    2.43
   0  -4  13   -1.38    1.92
  -1   4 -13   -0.60    4.13
  -1   4 -13    1.79    2.47
   1  -4  13   -0.17    2.00
   1  -4  13   -0.50    2.18
  -2   4 -13    1.60    4.13
  -2   4 -13    3.50    2.19
   2  -4  13   -0.08    1.99
   2  -4  13    1.33    2.18
  -3   4 -13    0.42    3.10
  -3   4 -13    5.12    2.53
   3  -4  13    0.42    2.50
   2   3 -13    5.48    3.66
   2   3 -13    8.76    3.98
  -2  -3  13    6.10    2.95
  -2  -3  13    3.44    2.33
   1   3 -13    2.55    3.15
   1   3 -13    6.52    3.87
  -1  -3  13   -0.26    1.93
  -1  -3  13    0.94    2.35
   0   3 -13    6.75    4.14
   0   3 -13   -1.00    2.74
   0  -3  13   -0.35    1.88
   0  -3  13    1.77    2.33
  -1   3 -13    2.85    4.27
  -1   3 -13    5.27    2.81
   1  -3  13   -0.36    1.82
   1  -3  13    0.25    2.12
  -2   3 -13   10.95    2.92
  -2   3 -13    5.85    4.47
   2  -3  13    3.58    2.15
   2  -3  13    2.23    2.07
  -3   3 -13    5.62    2.40
  -3   3 -13   -1.98    3.73
   3  -3  13    4.44    2.37
  -4   3 -13    4.45    2.38
  -4   3 -13    2.78    3.91
   4  -3  13    5.95    2.15
   2   2 -13    5.22    3.71
   2   2 -13    5.59    4.03
  -2  -2  13    2.73    1.97
  -2  -2  13    0.64    2.65
   1   2 -13    7.86    3.86
   1   2 -13    7.72    3.69
  -1  -2  13    6.10    2.15
  -1  -2  13    7.80    2.66
   0   2 -13    1.08    2.93
   0   2 -13    8.39    3.99
   0  -2  13    2.30    1.92
   0  -2  13   -2.29    2.15
  -1   2 -13    3.86    2.84
  -1   2 -13   18.04    4.77
   1  -2  13    7.15    2.65
   1  -2  13    0.16    1.74
  -2   2 -13    9.86    4.56
  -2   2 -13    1.95    2.51
   2  -2  13    2.18    2.00
   2  -2  13    1.86    1.97
  -3   2 -13    5.64    2.47
  -3   2 -13    4.67    4.13
   3  -2  13    0.69    2.12
  -4   2 -13   -1.54    3.77
  -4   2 -13    0.60    2.14
   4  -2  13    2.60    1.86
  -5   2 -13    0.05    3.67
  -5   2 -13    4.37    2.56
   5  -2  13    5.91    2.31
   5  -2  13    1.36    2.59
   2   1 -13    3.78    3.19
   2   1 -13    1.28    3.48
  -2  -1  13   -2.20    1.78
  -2  -1  13    0.01    1.74
   1   1 -13    7.39    3.53
   1   1 -13   -1.18    3.13
  -1  -1  13   -0.45    1.68
  -1  -1  13   -1.72    2.25
   0   1 -13    1.81    3.03
   0   1 -13   13.58    4.22
   0  -1  13    1.27    1.86
   0  -1  13   -1.37    2.21
  -1   1 -13    0.96    2.05
   1  -1  13    1.48    2.14
   1  -1  13    0.48    1.73
  -2   1 -13    4.12    4.23
  -2   1 -13    1.38    2.49
   2  -1  13   -2.05    1.69
   2  -1  13    2.88    2.02
  -3   1 -13    4.87    4.52
  -3   1 -13   -0.39    2.30
   3  -1  13   -0.91    1.96
   3  -1  13    0.52    1.67
  -4   1 -13    0.95    2.39
  -4   1 -13   -3.81    3.34
   4  -1  13   -0.08    1.78
   4  -1  13    0.10    1.64
  -5   1 -13   -7.92    3.24
  -5   1 -13    4.33    2.64
   5  -1  13    1.37    2.28
   5  -1  13   -0.80    2.34
  -6   1 -13    0.01    2.52
  -6   1 -13   -5.77    3.70
   6  -1  13   -0.32    2.16
   6  -1  13    1.00    1.93
   2   0 -13   -3.36    3.52
  -2   0  13   -0.94    2.51
  -2   0  13    1.47    1.97
   1   0 -13    1.83    3.39
  -1   0  13   -0.46    2.34
  -1   0  13    0.64    1.77
   0   0 -13    9.65    3.72
   0   0  13    2.80    1.88
   0   0  13    1.72    2.27
  -1   0 -13    2.40    2.39
  -1   0 -13   24.40    4.85
   1   0  13    4.43    2.24
   1   0  13    2.96    1.89
  -2   0 -13   16.16    4.57
  -2   0 -13   -4.30    2.30
   2   0  13    1.76    1.96
   2   0  13   -1.57    1.68
  -3   0 -13   -3.21    2.27
  -3   0 -13    1.54    4.26
   3   0  13   -0.19    1.93
   3   0  13   -2.45    1.51
  -4   0 -13    0.50    1.83
  -4   0 -13   -6.71    3.36
   4   0  13   -0.91    1.74
   4   0  13   -1.13    1.56
  -5   0 -13    6.51    2.94
  -5   0 -13    3.27    3.79
   5   0  13   10.76    2.75
   5   0  13    5.18    2.22
  -6   0 -13   -0.09    2.41
  -6   0 -13   -3.60    3.40
   6   0  13   -2.31    1.69
   6   0  13    1.40    2.22
   2  -1 -13    8.17    4.31
   2  -1 -13    6.00    2.27
  -2   1  13    5.17    2.76
   1  -1 -13    3.84    3.73
   1  -1 -13   -0.33    1.81
  -1   1  13   -1.40    2.30
  -1   1  13    3.02    2.04
   0  -1 -13    7.84    3.83
   0  -1 -13    5.64    2.00
   0   1  13    3.19    2.44
   0   1  13    0.56    1.72
  -1  -1 -13   10.73    3.81
  -1  -1 -13   11.12    2.27
   1   1  13    3.78    1.47
   1   1  13   10.42    2.39
  -2  -1 -13   12.48    3.84
  -2  -1 -13   11.14    3.52
  -2  -1 -13   10.19    2.21
   2   1  13    6.31    1.98
   2   1  13    6.15    2.06
  -3  -1 -13   -0.98    1.90
  -3  -1 -13   -3.98    2.43
  -3  -1 -13   -7.20    3.11
   3   1  13    1.55    1.61
   3   1  13   -1.00    1.72
   3   1  13    1.75    1.69
  -4  -1 -13    1.04    2.00
  -4  -1 -13   -3.48    1.89
  -4  -1 -13  -11.05    3.09
   4   1  13   -0.99    1.85
   4   1  13   -0.07    1.67
  -5  -1 -13   15.20    3.64
  -5  -1 -13    7.62    3.45
  -5  -1 -13   11.83    2.70
   5   1  13   14.10    2.40
   5   1  13   12.53    2.44
  -6  -1 -13    2.18    2.09
  -6  -1 -13    3.40    2.81
  -6  -1 -13    1.06    3.39
   6   1  13    7.68    2.57
   6   1  13    3.76    2.30
  -7  -1 -13    0.29    3.44
   7   1  13   -3.74    2.29
   7   1  13   -0.87    2.17
   2  -2 -13   12.62    3.83
   2  -2 -13   11.29    2.92
  -2   2  13    2.26    2.65
   1  -2 -13   11.54    4.32
   1  -2 -13    3.75    2.34
  -1   2  13    2.42    2.46
  -1   2  13    3.48    1.73
   0  -2 -13    0.22    2.06
   0  -2 -13    1.04    3.58
   0   2  13   -0.56    1.60
   0   2  13   -0.20    2.21
  -1  -2 -13   -1.49    2.55
  -1  -2 -13    2.18    2.31
   1   2  13   -1.09    1.62
   1   2  13    3.76    2.18
  -2  -2 -13    6.42    3.61
  -2  -2 -13    5.43    2.13
   2   2  13    8.00    2.26
   2   2  13    5.80    2.01
  -3  -2 -13    4.88    2.10
  -3  -2 -13    4.85    2.81
   3   2  13    3.33    1.77
   3   2  13    0.72    1.75
   3   2  13    5.12    1.99
  -4  -2 -13    0.61    1.96
  -4  -2 -13   -5.30    2.49
   4   2  13   -0.89    1.88
   4   2  13   -0.23    1.74
  -5  -2 -13    1.84    2.98
  -5  -2 -13    3.40    2.19
   5   2  13    1.44    1.90
   5   2  13    3.06    1.84
  -6  -2 -13    1.98    2.28
  -6  -2 -13    3.29    2.51
  -6  -2 -13    0.62    3.18
   6   2  13    4.30    2.49
   6   2  13    4.79    2.29
  -7  -2 -13    4.16    3.16
  -7  -2 -13    0.81    2.30
  -7  -2 -13   -0.17    3.16
   7   2  13    3.38    2.44
   7   2  13    3.73    2.55
   2  -3 -13    3.93    2.55
   2  -3 -13    6.72    3.46
  -2   3  13    2.18    2.66
   1  -3 -13    7.82    4.20
   1  -3 -13    3.27    2.50
  -1   3  13    2.04    2.54
  -1   3  13    2.31    1.82
   0  -3 -13    5.29    3.89
   0  -3 -13    6.28    2.44
   0   3  13    5.15    2.42
   0   3  13    1.48    1.73
  -1  -3 -13   -3.86    3.51
  -1  -3 -13    6.72    2.60
   1   3  13    2.65    1.85
   1   3  13   -0.96    1.95
  -2  -3 -13   -7.23    3.21
  -2  -3 -13    2.49    2.21
   2   3  13    1.86    1.90
   2   3  13    1.37    1.77
   2   3  13    4.66    2.14
  -3  -3 -13    3.12    2.16
  -3  -3 -13   -2.92    3.28
   3   3  13    4.53    1.88
   3   3  13    3.54    1.87
   3   3  13    3.58    1.91
  -4  -3 -13    2.65    2.19
  -4  -3 -13   -0.08    3.29
   4   3  13    4.27    2.21
   4   3  13    4.03    2.23
  -5  -3 -13    0.03    2.17
  -5  -3 -13   -0.97    2.35
   5   3  13    0.52    1.99
   5   3  13    1.76    2.24
  -6  -3 -13   -1.28    3.00
  -6  -3 -13    6.52    2.69
   6   3  13    0.85    2.12
   6   3  13   -1.52    2.30
  -7  -3 -13   -1.83    3.04
  -7  -3 -13    0.36    2.51
   7   3  13    4.31    2.51
   7   3  13    1.36    1.84
   1  -4 -13   10.48    4.41
   1  -4 -13    3.71    2.58
  -1   4  13    1.14    1.70
  -1   4  13    1.42    2.65
   0  -4 -13   -0.08    3.75
   0  -4 -13   -0.50    2.41
   0   4  13   -0.88    2.28
   0   4  13    3.01    1.79
  -1  -4 -13   -1.01    2.26
  -1  -4 -13   -4.33    3.25
   1   4  13    1.01    1.73
   1   4  13    1.07    2.25
  -2  -4 -13    2.33    3.91
  -2  -4 -13   10.17    2.77
   2   4  13    8.36    2.12
   2   4  13    6.38    2.27
   2   4  13   12.13    2.12
  -3  -4 -13   -2.90    3.61
  -3  -4 -13    9.57    2.63
   3   4  13    4.34    2.02
   3   4  13    3.93    1.99
   3   4  13    6.86    2.12
  -4  -4 -13   -5.05    3.28
  -4  -4 -13    3.41    2.42
   4   4  13    0.76    1.93
   4   4  13    1.66    1.93
  -5  -4 -13   -4.59    3.18
  -5  -4 -13    1.00    2.29
   5   4  13    0.45    2.02
   5   4  13   -0.18    1.62
  -6  -4 -13    2.75    2.84
  -6  -4 -13   -0.28    2.33
   6   4  13    4.49    2.45
   6   4  13    1.02    1.81
   7   4  13    5.85    2.71
   0  -5 -13    6.63    2.97
   0  -5 -13   -0.03    3.54
   0   5  13    6.15    2.01
   0   5  13    6.74    2.70
  -1  -5 -13   -2.97    3.31
  -1  -5 -13    2.13    2.60
   1   5  13    0.27    2.27
   1   5  13   -0.17    1.28
  -2  -5 -13   -0.54    3.27
  -2  -5 -13    0.03    2.47
   2   5  13    0.90    1.78
   2   5  13   -2.77    1.94
   2   5  13   -0.38    1.97
  -3  -5 -13    6.08    2.69
  -3  -5 -13    1.27    3.77
   3   5  13    3.96    2.14
   3   5  13    6.69    2.23
   3   5  13    2.68    2.00
  -4  -5 -13    4.10    4.00
  -4  -5 -13    8.73    2.76
   4   5  13    7.51    2.09
   4   5  13    5.86    1.83
   4   5  13    3.37    2.11
  -5  -5 -13   -1.53    2.24
  -5  -5 -13   -3.82    3.39
   5   5  13   -2.59    2.01
   5   5  13    0.20    2.33
  -6  -5 -13    0.43    2.61
  -6  -5 -13   -2.72    3.51
   6   5  13   -3.20    2.27
   6   5  13    2.77    2.36
  -1  -6 -13    5.87    3.09
  -1  -6 -13   -1.83    3.14
   1   6  13    0.28    1.80
   1   6  13   -0.31    2.37
  -2  -6 -13   -0.60    1.92
  -2  -6 -13   -0.80    3.14
   2   6  13   -1.27    1.69
   2   6  13   -0.71    1.90
   2   6  13   -0.03    2.29
  -3  -6 -13    3.71    2.70
  -3  -6 -13   -1.45    3.34
   3   6  13   -0.83    1.92
   3   6  13    1.04    2.15
   3   6  13   -3.41    1.90
  -4  -6 -13    6.38    3.94
  -4  -6 -13    6.67    2.88
   4   6  13    3.74    2.26
   4   6  13    4.15    1.98
   4   6  13    2.62    1.71
  -5  -6 -13   -0.64    2.60
  -5  -6 -13   -4.84    3.27
   5   6  13    0.44    2.22
   5   6  13   -4.10    2.21
   3   7  13   -2.70    1.72
   3   7  13    1.47    2.06
   0   2 -14   13.70    4.92
   0   2 -14    9.19    3.55
   0  -2  14    4.75    2.69
   0  -2  14    3.02    2.08
  -1   2 -14   10.25    5.00
  -1   2 -14    2.48    2.87
   1  -2  14    1.04    2.34
   1  -2  14    3.34    2.17
  -2   2 -14    5.81    4.69
  -2   2 -14    2.14    2.52
   2  -2  14    1.85    2.10
   2  -2  14    2.97    2.19
  -3   2 -14    3.02    2.63
  -3   2 -14    0.09    4.51
   3  -2  14   -2.69    2.04
   1   1 -14    2.20    2.80
  -1  -1  14   -0.85    1.89
  -1  -1  14    1.40    2.46
   0   1 -14   14.81    5.14
   0   1 -14    3.16    3.33
   0  -1  14   -1.23    1.85
   0  -1  14    0.73    2.45
  -1   1 -14   10.53    5.01
  -1   1 -14    8.53    2.82
   1  -1  14    2.60    2.08
   1  -1  14    3.29    2.37
  -2   1 -14    4.26    2.86
  -2   1 -14    3.17    4.26
   2  -1  14   -1.84    1.88
   2  -1  14   -2.42    2.16
  -3   1 -14    2.94    4.24
  -3   1 -14    1.40    1.87
   3  -1  14   -0.08    2.04
  -4   1 -14    0.43    2.47
  -4   1 -14   -1.74    3.98
   4  -1  14    1.57    2.43
   1   0 -14    1.91    3.70
  -1   0  14   -0.80    2.02
  -1   0  14   -4.99    2.32
   0   0 -14    1.79    3.42
   0   0  14   -0.35    1.83
   0   0  14    0.40    2.39
  -1   0 -14    1.14    2.41
   1   0  14    3.26    1.60
   1   0  14    3.05    2.32
  -2   0 -14   -1.06    4.33
  -2   0 -14   -1.07    2.51
   2   0  14    2.66    2.18
   2   0  14    1.45    2.04
  -3   0 -14   -1.66    3.57
  -3   0 -14    1.14    2.68
   3   0  14    1.75    2.06
   3   0  14    1.28    2.29
  -4   0 -14    2.25    2.65
  -4   0 -14    3.97    3.71
   4   0  14    2.01    1.81
  -5   0 -14   -4.12    3.64
  -5   0 -14    4.79    3.04
   5   0  14    3.33    2.14
   5   0  14    1.94    2.63
   1  -1 -14    2.44    4.15
  -1   1  14    1.08    2.68
  -1   1  14   -0.56    1.83
   0  -1 -14    5.04    3.83
   0   1  14   -1.25    2.31
   0   1  14   -0.06    1.81
  -1  -1 -14    8.21    3.76
   1   1  14    5.30    2.46
   1   1  14    1.94    1.98
  -2  -1 -14    3.40    2.42
  -2  -1 -14    4.59    2.69
   2   1  14    1.15    1.46
   2   1  14    1.50    2.04
  -3  -1 -14    1.52    2.34
  -3  -1 -14   -1.87    2.45
   3   1  14    0.46    1.47
   3   1  14    1.12    2.12
  -4  -1 -14    1.61    2.75
   4   1  14    1.70    2.73
   4   1  14   -2.31    2.07
  -5  -1 -14    6.38    3.26
   5   1  14   12.05    2.54
   5   1  14    6.15    2.20
   1  -2 -14    2.59    4.17
  -1   2  14    2.06    2.74
  -1   2  14    3.63    2.21
   0  -2 -14    3.03    2.43
   0  -2 -14    3.68    3.92
   0   2  14   -3.32    2.23
   0   2  14    0.56    1.89
  -1  -2 -14   -1.55    1.94
  -1  -2 -14   -4.55    3.37
   1   2  14    0.46    2.33
   1   2  14    2.30    1.96
  -2  -2 -14    6.60    2.27
  -2  -2 -14   11.53    4.06
   2   2  14    4.42    2.02
   2   2  14    5.64    2.29
  -3  -2 -14    0.55    3.37
  -3  -2 -14    1.08    2.05
   3   2  14    2.30    1.90
   3   2  14    0.32    1.90
  -4  -2 -14   -1.61    2.97
  -4  -2 -14    0.70    1.98
   4   2  14   -2.48    1.90
   4   2  14    0.44    1.81
  -5  -2 -14   -1.25    2.29
  -5  -2 -14   -1.74    2.97
   5   2  14   -0.70    2.19
   5   2  14    1.88    2.37
   0  -3 -14    2.94    4.07
   0  -3 -14    3.91    2.48
   0   3  14    0.16    1.80
   0   3  14    1.64    2.50
  -1  -3 -14   -2.67    3.52
  -1  -3 -14    4.03    2.44
   1   3  14    1.77    2.28
   1   3  14   -2.03    1.68
  -2  -3 -14   -3.96    3.18
  -2  -3 -14    2.44    2.37
   2   3  14   -3.12    1.59
   2   3  14   -1.80    2.03
  -3  -3 -14   -1.07    2.58
  -3  -3 -14    1.44    2.28
   3   3  14    1.21    1.89
   3   3  14    1.26    2.10
  -4  -3 -14    1.40    2.27
  -4  -3 -14   -1.35    3.23
   4   3  14    0.81    2.10
   4   3  14   -0.70    1.85
  -5  -3 -14   -2.32    2.53
  -5  -3 -14    1.53    2.63
   5   3  14   -1.20    1.94
   5   3  14    0.05    2.43
  -1  -4 -14   -0.01    2.42
  -1  -4 -14   -0.80    3.69
   1   4  14   -1.01    2.47
   1   4  14   -2.16    1.67
  -2  -4 -14    2.81    3.63
  -2  -4 -14    1.20    2.45
   2   4  14    2.73    2.35
   2   4  14   -0.05    1.85
  -3  -4 -14    0.64    2.39
  -3  -4 -14   -2.57    3.54
   3   4  14   -0.72    1.91
   3   4  14    1.33    2.09
   3   4  14   -1.51    1.80
  -4  -4 -14   -6.79    3.43
  -4  -4 -14    0.06    2.31
   4   4  14    0.88    1.96
   4   4  14   -0.37    2.02
  -5  -4 -14    3.25    2.61
  -5  -4 -14   -5.56    3.70
   5   4  14   -0.40    2.42
   5   4  14    1.64    2.24
  -2  -5 -14    3.39    2.77
  -2  -5 -14   -1.70    3.48
   2   5  14    0.71    2.31
   2   5  14    0.10    1.91
  -3  -5 -14    2.73    2.64
  -3  -5 -14   -4.70    3.37
   3   5  14    3.91    2.15
   3   5  14    3.47    2.09
   3   5  14   -0.24    1.96
  -4  -5 -14    1.35    2.57
  -4  -5 -14   -5.88    3.67
   4   5  14    0.87    2.10
   4   5  14    2.14    2.27
   0   0   0    0.00    0.00
;
_shelx_hkl_checksum              82329
loop_
_space_group_symop_operation_xyz
'x, y, z'
'-x, -y, -z'
loop_
_atom_site_label
_atom_site_type_symbol
_atom_site_fract_x
_atom_site_fract_y
_atom_site_fract_z
_atom_site_U_iso_or_equiv
_atom_site_adp_type
_atom_site_occupancy
_atom_site_site_symmetry_order
_atom_site_calc_flag
_atom_site_refinement_flags_posn
_atom_site_refinement_flags_adp
_atom_site_refinement_flags_occupancy
_atom_site_disorder_assembly
_atom_site_disorder_group
C1 C 0.2636(7) 0.7423(6) 0.0803(5) 0.0270(11) Uani 1 1 d . . . . .
H9 H 0.355023 0.689062 0.009758 0.032 Uiso 1 1 calc R U . . .
C2 C 0.2501(8) 0.4884(6) 0.2254(5) 0.0372(13) Uani 1 1 d . . . . .
H12A H 0.176442 0.464042 0.311997 0.056 Uiso 1 1 calc R U . . .
H12B H 0.223986 0.425395 0.162358 0.056 Uiso 1 1 calc R U . . .
H12C H 0.387386 0.458082 0.224847 0.056 Uiso 1 1 calc R U . . .
C3 C 0.0689(7) 0.7812(6) 0.2691(5) 0.0262(11) Uani 1 1 d . . . . .
C4 C -0.0321(7) 0.7433(6) 0.3955(5) 0.0323(12) Uani 1 1 d . . . . .
C5 C 0.0677(6) 0.9286(5) 0.1997(5) 0.0223(10) Uani 1 1 d . . . . .
C6 C -0.0257(7) 1.0988(6) 0.2249(5) 0.0245(11) Uani 1 1 d . . . . .
C7 C -0.2688(7) 1.2773(6) 0.3709(5) 0.0328(12) Uani 1 1 d . . . . .
H4A H -0.338822 1.323773 0.301863 0.039 Uiso 1 1 calc R U . . .
H4B H -0.191242 1.353729 0.381276 0.039 Uiso 1 1 calc R U . . .
C8 C -0.4059(8) 1.2506(7) 0.4954(6) 0.0472(16) Uani 1 1 d . . . . .
H5A H -0.492556 1.355694 0.521992 0.071 Uiso 1 1 calc R U . . .
H5B H -0.480873 1.174376 0.483479 0.071 Uiso 1 1 calc R U . . .
H5C H -0.334113 1.204166 0.562451 0.071 Uiso 1 1 calc R U . . .
O1 O -0.1473(4) 1.1172(4) 0.3392(3) 0.0284(8) Uani 1 1 d . . . . .
Cu1 Cu 0.24149(8) 1.10824(7) -0.01316(6) 0.02405(16) Uani 1 1 d . . . . .
N1 N 0.1904(5) 0.9009(4) 0.0815(4) 0.0233(9) Uani 1 1 d . . . . .
N2 N 0.0222(5) 1.2027(5) 0.1344(4) 0.0257(9) Uani 1 1 d . . . . .
H1N2 H -0.038598 1.311362 0.150393 0.031 Uiso 1 1 d R U . . .
N3 N 0.1935(5) 0.6653(5) 0.1907(4) 0.0256(9) Uani 1 1 d . . . . .
N4 N -0.1089(7) 0.7095(6) 0.4983(5) 0.0531(14) Uani 1 1 d . . . . .
Br2 Br 0.25755(7) 1.37179(6) -0.11817(5) 0.03119(15) Uani 1 1 d . . . . .
Br1 Br 0.47993(7) 0.95406(6) -0.17741(5) 0.02821(14) Uani 1 1 d . . . . .
loop_
_atom_site_aniso_label
_atom_site_aniso_U_11
_atom_site_aniso_U_22
_atom_site_aniso_U_33
_atom_site_aniso_U_23
_atom_site_aniso_U_13
_atom_site_aniso_U_12
C1 0.024(3) 0.023(3) 0.035(3) 0.002(2) -0.009(2) -0.005(2)
C2 0.040(3) 0.024(3) 0.046(4) 0.005(2) -0.009(3) -0.008(2)
C3 0.029(3) 0.023(3) 0.027(3) 0.003(2) -0.006(2) -0.008(2)
C4 0.032(3) 0.026(3) 0.034(3) 0.006(2) -0.006(3) -0.004(2)
C5 0.020(2) 0.020(2) 0.029(3) 0.003(2) -0.010(2) -0.0055(19)
C6 0.021(3) 0.025(3) 0.030(3) -0.001(2) -0.011(2) -0.005(2)
C7 0.036(3) 0.022(3) 0.038(3) -0.002(2) -0.011(3) 0.000(2)
C8 0.040(3) 0.040(3) 0.050(4) -0.009(3) 0.007(3) -0.002(3)
O1 0.0254(19) 0.0295(19) 0.028(2) -0.0018(15) -0.0030(16) -0.0040(15)
Cu1 0.0251(3) 0.0178(3) 0.0287(4) 0.0025(2) -0.0043(3) -0.0072(2)
N1 0.024(2) 0.017(2) 0.031(2) -0.0018(17) -0.0065(19) -0.0067(16)
N2 0.025(2) 0.022(2) 0.030(2) 0.0017(18) -0.0050(19) -0.0077(17)
N3 0.024(2) 0.020(2) 0.034(3) 0.0043(18) -0.0088(19) -0.0061(17)
N4 0.051(3) 0.053(3) 0.046(4) 0.016(3) -0.005(3) -0.010(3)
Br2 0.0326(3) 0.0203(3) 0.0375(3) 0.0076(2) -0.0065(2) -0.0056(2)
Br1 0.0292(3) 0.0271(3) 0.0287(3) -0.0032(2) -0.0037(2) -0.0088(2)
loop_
_atom_type_symbol
_atom_type_description
_atom_type_scat_dispersion_real
_atom_type_scat_dispersion_imag
_atom_type_scat_source
C C 0.0033 0.0016 'International Tables Vol C Tables 4.2.6.8 and 6.1.1.4'
H H 0.0000 0.0000 'International Tables Vol C Tables 4.2.6.8 and 6.1.1.4'
O O 0.0106 0.0060 'International Tables Vol C Tables 4.2.6.8 and 6.1.1.4'
Cu Cu 0.3201 1.2651 'International Tables Vol C Tables 4.2.6.8 and 6.1.1.4'
N N 0.0061 0.0033 'International Tables Vol C Tables 4.2.6.8 and 6.1.1.4'
Br Br -0.2901 2.4595 'International Tables Vol C Tables 4.2.6.8 and 6.1.1.4'
loop_
_geom_angle_atom_site_label_1
_geom_angle_atom_site_label_2
_geom_angle_atom_site_label_3
_geom_angle
_geom_angle_site_symmetry_1
_geom_angle_site_symmetry_3
N1 C1 N3 111.4(4) . .
N1 C1 H9 124.3 . .
N3 C1 H9 124.3 . .
N3 C2 H12A 109.5 . .
N3 C2 H12B 109.5 . .
H12A C2 H12B 109.5 . .
N3 C2 H12C 109.5 . .
H12A C2 H12C 109.5 . .
H12B C2 H12C 109.5 . .
N3 C3 C5 105.9(4) . .
N3 C3 C4 123.2(4) . .
C5 C3 C4 130.9(5) . .
N4 C4 C3 178.0(6) . .
N1 C5 C3 108.6(4) . .
N1 C5 C6 116.2(4) . .
C3 C5 C6 135.1(5) . .
N2 C6 O1 131.7(4) . .
N2 C6 C5 115.0(5) . .
O1 C6 C5 113.3(4) . .
O1 C7 C8 105.7(4) . .
O1 C7 H4A 110.6 . .
C8 C7 H4A 110.6 . .
O1 C7 H4B 110.6 . .
C8 C7 H4B 110.6 . .
H4A C7 H4B 108.7 . .
C7 C8 H5A 109.5 . .
C7 C8 H5B 109.5 . .
H5A C8 H5B 109.5 . .
C7 C8 H5C 109.5 . .
H5A C8 H5C 109.5 . .
H5B C8 H5C 109.5 . .
C6 O1 C7 119.4(4) . .
N1 Cu1 N2 80.33(16) . .
N1 Cu1 Br2 172.30(11) . .
N2 Cu1 Br2 93.31(11) . .
N1 Cu1 Br1 90.26(12) . .
N2 Cu1 Br1 170.04(11) . .
Br2 Cu1 Br1 95.82(3) . .
C1 N1 C5 106.4(4) . .
C1 N1 Cu1 139.8(3) . .
C5 N1 Cu1 112.0(3) . .
C6 N2 Cu1 115.0(3) . .
C6 N2 H1N2 114.8 . .
Cu1 N2 H1N2 129.7 . .
C1 N3 C3 107.7(4) . .
C1 N3 C2 126.2(4) . .
C3 N3 C2 126.1(4) . .
loop_
_geom_bond_atom_site_label_1
_geom_bond_atom_site_label_2
_geom_bond_distance
_geom_bond_site_symmetry_2
C1 N1 1.310(6) .
C1 N3 1.331(6) .
C1 H9 0.9500 .
C2 N3 1.474(6) .
C2 H12A 0.9800 .
C2 H12B 0.9800 .
C2 H12C 0.9800 .
C3 N3 1.365(6) .
C3 C5 1.371(6) .
C3 C4 1.418(7) .
C4 N4 1.146(6) .
C5 N1 1.368(6) .
C5 C6 1.452(6) .
C6 N2 1.273(6) .
C6 O1 1.327(6) .
C7 O1 1.446(6) .
C7 C8 1.495(7) .
C7 H4A 0.9900 .
C7 H4B 0.9900 .
C8 H5A 0.9800 .
C8 H5B 0.9800 .
C8 H5C 0.9800 .
Cu1 N1 1.989(4) .
Cu1 N2 2.034(4) .
Cu1 Br2 2.3871(8) .
Cu1 Br1 2.3949(8) .
N2 H1N2 0.9282 .
loop_
_geom_torsion_atom_site_label_1
_geom_torsion_atom_site_label_2
_geom_torsion_atom_site_label_3
_geom_torsion_atom_site_label_4
_geom_torsion
_geom_torsion_site_symmetry_1
_geom_torsion_site_symmetry_2
_geom_torsion_site_symmetry_3
_geom_torsion_site_symmetry_4
N3 C3 C5 N1 -0.1(5) . . . .
C4 C3 C5 N1 -180.0(5) . . . .
N3 C3 C5 C6 -177.8(5) . . . .
C4 C3 C5 C6 2.4(10) . . . .
N1 C5 C6 N2 -1.7(6) . . . .
C3 C5 C6 N2 175.8(5) . . . .
N1 C5 C6 O1 177.9(4) . . . .
C3 C5 C6 O1 -4.6(8) . . . .
N2 C6 O1 C7 7.3(7) . . . .
C5 C6 O1 C7 -172.2(4) . . . .
C8 C7 O1 C6 171.8(4) . . . .
N3 C1 N1 C5 0.8(5) . . . .
N3 C1 N1 Cu1 163.2(4) . . . .
C3 C5 N1 C1 -0.4(5) . . . .
C6 C5 N1 C1 177.8(4) . . . .
C3 C5 N1 Cu1 -168.2(3) . . . .
C6 C5 N1 Cu1 9.9(5) . . . .
O1 C6 N2 Cu1 173.1(4) . . . .
C5 C6 N2 Cu1 -7.4(5) . . . .
N1 C1 N3 C3 -0.9(5) . . . .
N1 C1 N3 C2 -177.0(4) . . . .
C5 C3 N3 C1 0.6(5) . . . .
C4 C3 N3 C1 -179.6(5) . . . .
C5 C3 N3 C2 176.8(4) . . . .
C4 C3 N3 C2 -3.4(8) . . . .
