#------------------------------------------------------------------------------
#$Date: 2020-04-17 23:44:39 +0300 (Fri, 17 Apr 2020) $
#$Revision: 250898 $
#$URL: file:///home/coder/svn-repositories/cod/cif/1/55/78/1557814.cif $
#------------------------------------------------------------------------------
#
# This file is available in the Crystallography Open Database (COD),
# http://www.crystallography.net/
#
# All data on this site have been placed in the public domain by the
# contributors.
#
data_1557814
loop_
_publ_author_name
'Rudd, Nathan D.'
'Reibarkh, Mikhail'
'Fang, Rui'
'Mittal, Sachin'
'Walsh, Paul L.'
'Brunskill, Andrew P. J.'
'Forrest, William P.'
_publ_section_title
;
 Interpreting <i>in vitro</i> Release Performance from Long-Acting
 Parenteral Nanosuspensions using USP-4 Dissolution and Spectroscopic
 Techniques.
;
_journal_name_full               'Molecular pharmaceutics'
_journal_paper_doi               10.1021/acs.molpharmaceut.0c00208
_journal_year                    2020
_chemical_formula_moiety         'C17 H11 Cl F3 N5 O3'
_chemical_formula_sum            'C17 H11 Cl F3 N5 O3'
_chemical_formula_weight         425.76
_chemical_name_common            doravirine
_chemical_name_systematic
;
3-Chloro-5-({1-[(4-methyl-5-oxo-4,5-dihydro-1H
-1,2,4-triazol-3-yl)methyl]-2-oxo-4-(trifluoromethyl)
-1,2-dihydropyridin-3-yl}oxy)benzonitrile
;
_space_group_crystal_system      triclinic
_space_group_IT_number           2
_space_group_name_Hall           '-P 1'
_space_group_name_H-M_alt        'P -1'
_atom_sites_solution_hydrogens   geom
_atom_sites_solution_primary     direct
_atom_sites_solution_secondary   difmap
_audit_creation_method           SHELXL-2014/7
_cell_angle_alpha                101.878(2)
_cell_angle_beta                 104.712(2)
_cell_angle_gamma                97.380(2)
_cell_formula_units_Z            2
_cell_length_a                   7.9899(5)
_cell_length_b                   10.1223(6)
_cell_length_c                   11.6441(7)
_cell_measurement_reflns_used    9935
_cell_measurement_temperature    100(2)
_cell_measurement_theta_max      66.66
_cell_measurement_theta_min      4.05
_cell_volume                     874.95(9)
_computing_cell_refinement       'Bruker SAINT'
_computing_data_collection       'Bruker APEX2'
_computing_data_reduction        'Bruker SAINT'
_computing_molecular_graphics    'Bruker SHELXTL'
_computing_publication_material  'Bruker SHELXTL'
_computing_structure_refinement  'SHELXL-2014/7 (Sheldrick, 2014)'
_computing_structure_solution    'SHELXS-97 (Sheldrick 2008)'
_diffrn_ambient_temperature      100(2)
_diffrn_measured_fraction_theta_full 0.994
_diffrn_measured_fraction_theta_max 0.992
_diffrn_measurement_device_type  'Bruker APEX-II CCD'
_diffrn_measurement_method       '\f and \w scans'
_diffrn_radiation_type           CuK\a
_diffrn_radiation_wavelength     1.54178
_diffrn_reflns_av_R_equivalents  0.0222
_diffrn_reflns_av_unetI/netI     0.0165
_diffrn_reflns_Laue_measured_fraction_full 0.994
_diffrn_reflns_Laue_measured_fraction_max 0.992
_diffrn_reflns_limit_h_max       9
_diffrn_reflns_limit_h_min       -9
_diffrn_reflns_limit_k_max       12
_diffrn_reflns_limit_k_min       -11
_diffrn_reflns_limit_l_max       13
_diffrn_reflns_limit_l_min       -13
_diffrn_reflns_number            14023
_diffrn_reflns_point_group_measured_fraction_full 0.994
_diffrn_reflns_point_group_measured_fraction_max 0.992
_diffrn_reflns_theta_full        66.500
_diffrn_reflns_theta_max         66.659
_diffrn_reflns_theta_min         4.052
_diffrn_source                   'sealed-tube microsource X-ray generator'
_exptl_absorpt_coefficient_mu    2.525
_exptl_absorpt_correction_T_max  0.777
_exptl_absorpt_correction_T_min  0.726
_exptl_absorpt_correction_type   multi-scan
_exptl_absorpt_process_details
; 
(SADABS; Sheldrick, 2003) 
;
_exptl_crystal_colour            colourless
_exptl_crystal_density_diffrn    1.616
_exptl_crystal_description       block
_exptl_crystal_F_000             432
_exptl_crystal_size_max          0.120
_exptl_crystal_size_mid          0.100
_exptl_crystal_size_min          0.100
_refine_diff_density_max         0.533
_refine_diff_density_min         -0.467
_refine_diff_density_rms         0.061
_refine_ls_extinction_method     none
_refine_ls_goodness_of_fit_ref   1.093
_refine_ls_hydrogen_treatment    constr
_refine_ls_matrix_type           full
_refine_ls_number_parameters     263
_refine_ls_number_reflns         3075
_refine_ls_number_restraints     0
_refine_ls_restrained_S_all      1.093
_refine_ls_R_factor_all          0.0426
_refine_ls_R_factor_gt           0.0424
_refine_ls_shift/su_max          0.013
_refine_ls_shift/su_mean         0.000
_refine_ls_structure_factor_coef Fsqd
_refine_ls_weighting_details
'w=1/[\s^2^(Fo^2^)+(0.0472P)^2^+1.2321P] where P=(Fo^2^+2Fc^2^)/3'
_refine_ls_weighting_scheme      calc
_refine_ls_wR_factor_gt          0.1111
_refine_ls_wR_factor_ref         0.1112
_reflns_Friedel_coverage         0.000
_reflns_number_gt                3045
_reflns_number_total             3075
_reflns_threshold_expression     'I > 2\s(I)'
_cod_data_source_file            mp0c00208_si_002.cif
_cod_data_source_block           mdk011_abs
_cod_depositor_comments
;
The following automatic conversions were performed:

data item '_atom_sites_solution_secondary' value 'diffmap' was
changed to 'difmap'.

Automatic conversion script
Id: cif_fix_values 7556 2019-12-06 15:28:31Z antanas 
;
_cod_database_code               1557814
_shelx_shelxl_version_number     2014/7
_shelx_space_group_comment
; 
The symmetry employed for this shelxl refinement is uniquely defined 
by the following loop, which should always be used as a source of 
symmetry information in preference to the above space-group names. 
They are only intended as comments. 
;
_shelx_estimated_absorpt_t_min   0.751
_shelx_estimated_absorpt_t_max   0.786
_shelx_res_file
; 
  
    mdk011_abs.res created by SHELXL-2014/7 
  
  
TITL mdk011_abs in P-1 
CELL 1.54178 7.9899 10.1223 11.6441 101.878 104.712 97.380 
ZERR 2.00 0.0005 0.0006 0.0007 0.002 0.002 0.002 
LATT 1 
SFAC C H N O F CL 
UNIT 34 22 10 6 6 2 
TEMP -173 
SIZE 0.100 0.100 0.120 
ACTA 133 
L.S. 4 
FMAP 2 
PLAN 5 
EQIV $1 -x+1, -y, -z+1 
HTAB N10 O11_$1 
  
BOND $H 
CONF 
WGHT    0.047200    1.232100 
FVAR       0.21449 
N1    3    0.369458    0.543652    0.743469    11.00000    0.01495    0.01303 = 
         0.01400    0.00112    0.00359    0.00339 
C2    1    0.264660    0.562737    0.821748    11.00000    0.01608    0.01133 = 
         0.01657   -0.00008    0.00545    0.00030 
O2    4    0.298708    0.532497    0.921053    11.00000    0.02103    0.02124 = 
         0.01484    0.00470    0.00685    0.00502 
C3    1    0.111039    0.620483    0.774866    11.00000    0.01573    0.01269 = 
         0.01837   -0.00147    0.00692    0.00166 
O3    4   -0.002689    0.633287    0.846730    11.00000    0.01631    0.01876 = 
         0.01784   -0.00182    0.00797    0.00197 
C4    1    0.075613    0.653599    0.665449    11.00000    0.01660    0.01346 = 
         0.01909    0.00169    0.00320    0.00188 
C4A   1   -0.082622    0.716964    0.624397    11.00000    0.02117    0.02563 = 
         0.02564    0.00397    0.00564    0.00897 
F4A   5   -0.232312    0.641651    0.624563    11.00000    0.01756    0.05282 = 
         0.02807    0.01493    0.00712    0.00916 
F4B   5   -0.065505    0.840695    0.697494    11.00000    0.04530    0.03248 = 
         0.05372   -0.00854   -0.00445    0.02643 
F4C   5   -0.107352    0.732439    0.510287    11.00000    0.02914    0.04851 = 
         0.03366    0.02566    0.01175    0.01864 
C5    1    0.192036    0.633154    0.592321    11.00000    0.02021    0.01816 = 
         0.01653    0.00476    0.00462    0.00395 
AFIX  43 
H5A   2    0.169890    0.656717    0.515698    11.00000   -1.20000 
AFIX   0 
C6    1    0.335161    0.579406    0.634093    11.00000    0.01840    0.01531 = 
         0.01502    0.00183    0.00648    0.00242 
AFIX  43 
H6A   2    0.414268    0.566094    0.585959    11.00000   -1.20000 
AFIX   0 
C7    1    0.531770    0.488270    0.783413    11.00000    0.01399    0.01696 = 
         0.01571    0.00204    0.00312    0.00493 
AFIX  23 
H7A   2    0.552835    0.485306    0.870299    11.00000   -1.20000 
H7B   2    0.633955    0.549885    0.777038    11.00000   -1.20000 
AFIX   0 
C8    1    0.515632    0.346722    0.706164    11.00000    0.01330    0.01648 = 
         0.01606    0.00320    0.00250    0.00471 
N9    3    0.559644    0.322599    0.604874    11.00000    0.01849    0.01545 = 
         0.01990    0.00161    0.00674    0.00500 
N10   3    0.516172    0.181244    0.561834    11.00000    0.02284    0.01502 = 
         0.01759   -0.00029    0.00837    0.00450 
AFIX  43 
H10A  2    0.530071    0.136405    0.492695    11.00000   -1.20000 
AFIX   0 
C11   1    0.449828    0.119129    0.637588    11.00000    0.01791    0.01846 = 
         0.01734    0.00246    0.00454    0.00573 
O11   4    0.404861   -0.005128    0.628826    11.00000    0.03000    0.01592 = 
         0.02532    0.00176    0.01299    0.00353 
N12   3    0.446514    0.227717    0.730670    11.00000    0.01855    0.01632 = 
         0.01609    0.00306    0.00587    0.00527 
C12A  1    0.399153    0.211054    0.840399    11.00000    0.03026    0.02090 = 
         0.01902    0.00632    0.01221    0.00736 
AFIX 137 
H12A  2    0.330319    0.118451    0.824677    11.00000   -1.50000 
H12B  2    0.328711    0.279419    0.862199    11.00000   -1.50000 
H12C  2    0.506567    0.224081    0.908141    11.00000   -1.50000 
AFIX   0 
C1'   1    0.065136    0.728051    0.960119    11.00000    0.01464    0.01731 = 
         0.01782   -0.00062    0.00491    0.00684 
C2'   1    0.013996    0.694149    1.056852    11.00000    0.01479    0.01776 = 
         0.02220    0.00357    0.00594    0.00483 
AFIX  43 
H2'A  2   -0.062175    0.609518    1.045968    11.00000   -1.20000 
AFIX   0 
C3'   1    0.077723    0.787979    1.170492    11.00000    0.01721    0.02368 = 
         0.01938    0.00691    0.00717    0.00938 
CL3'  6    0.018928    0.747688    1.295851    11.00000    0.02728    0.03602 = 
         0.02314    0.00772    0.00682    0.00424 
C4'   1    0.186850    0.912609    1.189073    11.00000    0.01954    0.01960 = 
         0.01827   -0.00010    0.00495    0.00869 
AFIX  43 
H4'A  2    0.229499    0.974906    1.267814    11.00000   -1.20000 
AFIX   0 
C5'   1    0.232201    0.943901    1.088964    11.00000    0.02140    0.01494 = 
         0.02485    0.00134    0.00813    0.00349 
C5A'  1    0.349568    1.079464    1.104388    11.00000    0.03007    0.02641 = 
         0.01227   -0.00629    0.00582    0.00478 
N5A'  3    0.429805    1.170480    1.114009    11.00000    0.07502    0.04343 = 
         0.02695    0.00388    0.02160    0.00442 
C6'   1    0.172509    0.852181    0.973132    11.00000    0.02137    0.01917 = 
         0.01968    0.00297    0.00914    0.00465 
AFIX  43 
H6'A  2    0.204687    0.874372    0.905264    11.00000   -1.20000 
  
AFIX   0 
HKLF 4 1 1 0 0 0 1 0 0 0 1 
  
REM  mdk011_abs in P-1 
REM R1 =  0.0424 for    3045 Fo > 4sig(Fo)  and  0.0426 for all    3075 data 
REM    263 parameters refined using      0 restraints 
  
END 
  
WGHT      0.0467      1.2417 
  
REM Highest difference peak  0.533,  deepest hole -0.467,  1-sigma level  0.061 
Q1    1  -0.0115  0.7036  1.3601  11.00000  0.05    0.53 
Q2    1   0.2971  1.0300  1.0915  11.00000  0.05    0.51 
Q3    1  -0.0832  0.7990  0.5773  11.00000  0.05    0.45 
Q4    1   0.3760  1.0923  1.1462  11.00000  0.05    0.40 
Q5    1   0.0588  0.7722  1.2227  11.00000  0.05    0.38 
;
_shelx_res_checksum              33650
_shelx_hkl_file
; 
  -1   0   0   10.00    0.31 
  -1   0   0    9.84    0.31 
  -1   0   0   10.29    0.31 
  -1   0   0   10.09    0.31 
  -1   0   0   10.07    0.31 
   1   0   0    9.84    0.31 
   1   0   0    9.75    0.31 
   1   0   0    9.97    0.31 
   1   0   0   10.24    0.31 
  -2   0   0  315.40    9.97 
  -2   0   0  325.71    9.97 
  -2   0   0  335.43    9.97 
  -2   0   0  327.17    9.98 
   2   0   0  342.10    9.97 
   2   0   0  322.78    9.97 
   2   0   0  320.05    9.97 
  -3   0   0    6.07    0.20 
  -3   0   0    5.94    0.19 
   3   0   0    5.74    0.19 
  -4   0   0   25.41    0.78 
  -4   0   0   24.67    0.77 
  -4   0   0   26.01    0.77 
   4   0   0   24.22    0.78 
   4   0   0   25.26    0.77 
  -5   0   0    5.41    0.17 
  -5   0   0    5.09    0.18 
  -5   0   0    5.06    0.17 
   5   0   0    5.32    0.17 
  -6   0   0    1.10    0.07 
  -6   0   0    0.91    0.07 
  -6   0   0    0.92    0.06 
   6   0   0    1.11    0.09 
   6   0   0    0.92    0.05 
  -7   0   0    0.64    0.07 
   7   0   0    0.60    0.09 
   7   0   0    0.66    0.04 
   7   0   0    0.59    0.06 
  -8   0   0    0.07    0.04 
   8   0   0    0.06    0.03 
   8   0   0    0.08    0.06 
   8   0   0    0.04    0.02 
  -9   0   0    3.87    0.13 
  -9   0   0    3.93    0.13 
   9   0   0    3.96    0.13 
   9   0   0    3.91    0.12 
   9   0   0    3.96    0.13 
   9  -1   0    4.33    0.14 
   9  -1   0    4.41    0.14 
  -9   1   0    4.38    0.14 
  -9   1   0    4.22    0.14 
   8  -1   0   11.60    0.36 
   8  -1   0   11.89    0.37 
  -8   1   0   11.04    0.37 
  -8   1   0   12.03    0.37 
   7  -1   0   24.06    0.78 
   7  -1   0   24.32    0.77 
   7  -1   0   25.96    0.77 
  -7   1   0   24.81    0.77 
  -7   1   0   25.73    0.78 
  -7   1   0   23.88    0.78 
   6  -1   0   14.51    0.43 
   6  -1   0   13.75    0.45 
   6  -1   0   14.29    0.45 
  -6   1   0   13.61    0.44 
  -6   1   0   13.89    0.44 
  -6   1   0   13.73    0.45 
   5  -1   0    7.03    0.23 
   5  -1   0    7.48    0.24 
  -5   1   0    7.29    0.24 
  -5   1   0    7.19    0.23 
  -5   1   0    7.06    0.23 
   4  -1   0   23.47    0.75 
   4  -1   0   24.08    0.74 
  -4   1   0   24.76    0.75 
  -4   1   0   24.40    0.74 
  -4   1   0   24.21    0.74 
  -4   1   0   24.52    0.75 
   3  -1   0    9.69    0.30 
   3  -1   0    9.47    0.31 
  -3   1   0    9.78    0.30 
  -3   1   0    9.89    0.32 
   2  -1   0   22.25    0.69 
   2  -1   0   22.72    0.69 
   2  -1   0   22.69    0.69 
  -2   1   0   22.07    0.70 
  -2   1   0   23.20    0.69 
   1  -1   0   33.55    1.01 
   1  -1   0   33.41    1.01 
   1  -1   0   33.63    1.01 
   1  -1   0   32.86    1.01 
   1  -1   0   33.35    1.02 
  -1   1   0   33.63    1.02 
  -1   1   0   32.22    1.01 
  -1   1   0   33.05    1.01 
  -1   1   0   33.01    1.01 
  -1   1   0   32.94    1.01 
   0  -1   0   66.25    1.98 
   0  -1   0   63.56    1.98 
   0  -1   0   64.71    1.98 
   0  -1   0   65.20    1.99 
   0   1   0   63.21    1.99 
   0   1   0   65.54    1.98 
   0   1   0   67.30    1.98 
  -1  -1   0    0.57    0.02 
  -1  -1   0    0.49    0.02 
  -1  -1   0    0.51    0.03 
  -1  -1   0    0.53    0.02 
  -1  -1   0    0.51    0.02 
   1   1   0    0.47    0.02 
   1   1   0    0.51    0.02 
   1   1   0    0.50    0.03 
  -2  -1   0   42.37    1.28 
  -2  -1   0   41.72    1.29 
  -2  -1   0   41.86    1.28 
   2   1   0   41.76    1.29 
   2   1   0   41.67    1.28 
  -3  -1   0   32.96    1.00 
  -3  -1   0   32.21    1.01 
  -3  -1   0   34.18    1.00 
   3   1   0   32.19    0.99 
   3   1   0   31.20    1.00 
  -4  -1   0    2.00    0.08 
  -4  -1   0    1.94    0.07 
  -4  -1   0    1.91    0.07 
   4   1   0    2.01    0.07 
  -5  -1   0   15.12    0.46 
  -5  -1   0   15.11    0.47 
  -5  -1   0   14.82    0.47 
   5   1   0   14.93    0.46 
   5   1   0   14.53    0.47 
  -6  -1   0    0.91    0.06 
  -6  -1   0    1.09    0.08 
  -6  -1   0    0.94    0.07 
   6   1   0    0.90    0.05 
   6   1   0    0.87    0.08 
  -7  -1   0   14.73    0.46 
  -7  -1   0   14.59    0.46 
   7   1   0   14.34    0.47 
   7   1   0   14.64    0.47 
   7   1   0   15.04    0.46 
   7   1   0   14.96    0.46 
  -8  -1   0    0.05    0.03 
   8   1   0    0.05    0.06 
   8   1   0    0.07    0.03 
   8   1   0    0.10    0.03 
   9  -2   0    1.86    0.06 
   9  -2   0    1.85    0.07 
  -9   2   0    1.73    0.07 
  -9   2   0    1.77    0.08 
  -9   2   0    1.79    0.07 
   8  -2   0    0.00    0.02 
  -8   2   0    0.01    0.04 
  -8   2   0    0.05    0.03 
   7  -2   0    1.31    0.06 
   7  -2   0    1.24    0.10 
  -7   2   0    1.28    0.07 
  -7   2   0    1.18    0.09 
  -7   2   0    1.38    0.10 
   6  -2   0    1.27    0.08 
   6  -2   0    1.36    0.06 
  -6   2   0    1.34    0.06 
  -6   2   0    1.21    0.08 
  -6   2   0    1.52    0.08 
   5  -2   0    2.70    0.09 
   5  -2   0    2.61    0.10 
  -5   2   0    2.94    0.09 
  -5   2   0    2.54    0.10 
  -5   2   0    2.57    0.10 
  -5   2   0    2.71    0.10 
   4  -2   0    0.28    0.02 
   4  -2   0    0.30    0.04 
  -4   2   0    0.33    0.02 
  -4   2   0    0.32    0.03 
  -4   2   0    0.39    0.03 
   3  -2   0  148.70    4.81 
   3  -2   0  157.60    4.81 
   3  -2   0  158.63    4.81 
   3  -2   0  158.16    4.82 
  -3   2   0  163.94    4.81 
  -3   2   0  158.94    4.83 
   2  -2   0  851.35   25.21 
   2  -2   0  807.51   25.20 
  -2   2   0  804.93   25.20 
  -2   2   0  843.67   25.23 
   1  -2   0  136.89    4.14 
   1  -2   0  136.93    4.13 
   1  -2   0  130.65    4.14 
   1  -2   0  135.91    4.13 
   1  -2   0  135.50    4.14 
  -1   2   0  139.04    4.14 
  -1   2   0  134.58    4.13 
   0  -2   0  186.10    5.60 
   0  -2   0  176.37    5.60 
   0  -2   0  183.03    5.60 
   0   2   0  192.26    5.60 
   0   2   0  183.33    5.60 
   0   2   0  181.08    5.60 
  -1  -2   0  450.46   14.72 
  -1  -2   0  470.25   14.72 
  -1  -2   0  475.07   14.72 
  -1  -2   0  495.53   14.73 
  -1  -2   0  491.64   14.73 
   1   2   0  495.94   14.73 
   1   2   0  476.01   14.73 
   1   2   0  509.20   14.72 
  -2  -2   0  110.21    3.45 
  -2  -2   0  113.93    3.45 
  -2  -2   0  108.94    3.45 
  -2  -2   0  118.87    3.46 
   2   2   0  113.73    3.45 
  -3  -2   0   75.28    2.29 
  -3  -2   0   71.65    2.29 
  -3  -2   0   77.83    2.33 
  -3  -2   0   78.05    2.29 
  -3  -2   0   72.23    2.30 
   3   2   0   73.28    2.29 
   3   2   0   76.36    2.29 
   3   2   0   75.64    2.29 
  -4  -2   0   30.23    0.96 
  -4  -2   0   31.47    0.97 
   4   2   0   32.25    0.96 
  -5  -2   0    2.20    0.08 
  -5  -2   0    2.28    0.09 
   5   2   0    2.21    0.10 
   5   2   0    2.20    0.08 
  -6  -2   0    5.82    0.19 
  -6  -2   0    5.74    0.20 
   6   2   0    5.80    0.21 
  -7  -2   0    3.27    0.11 
   7   2   0    3.28    0.12 
   7   2   0    3.37    0.11 
   7   2   0    3.37    0.12 
   7   2   0    2.98    0.13 
   7   2   0    3.40    0.14 
  -8  -2   0    0.58    0.04 
   8   2   0    0.45    0.06 
   8   2   0    0.53    0.03 
   8   2   0    0.57    0.04 
   8   2   0    0.58    0.04 
   9  -3   0   20.51    0.63 
  -9   3   0   20.74    0.63 
  -9   3   0   21.01    0.64 
  -9   3   0   20.25    0.64 
   8  -3   0   14.89    0.48 
   8  -3   0   15.77    0.48 
  -8   3   0   15.01    0.48 
  -8   3   0   15.29    0.48 
  -8   3   0   16.09    0.48 
   7  -3   0    7.88    0.28 
   7  -3   0    8.41    0.27 
   7  -3   0    8.32    0.27 
   7  -3   0    8.53    0.31 
  -7   3   0    8.77    0.28 
  -7   3   0    8.71    0.32 
  -7   3   0    8.32    0.27 
  -7   3   0    8.44    0.29 
  -7   3   0    8.66    0.27 
  -7   3   0    8.39    0.28 
   6  -3   0    5.88    0.19 
   6  -3   0    5.91    0.20 
  -6   3   0    5.70    0.19 
  -6   3   0    5.59    0.19 
  -6   3   0    5.88    0.20 
  -6   3   0    5.49    0.20 
   5  -3   0   56.76    1.72 
   5  -3   0   54.24    1.72 
  -5   3   0   57.40    1.72 
  -5   3   0   54.24    1.72 
  -5   3   0   57.20    1.72 
  -5   3   0   56.56    1.72 
   4  -3   0   29.60    0.92 
   4  -3   0   30.53    0.91 
  -4   3   0   29.10    0.92 
  -4   3   0   29.51    0.91 
  -4   3   0   28.78    0.91 
  -4   3   0   28.50    0.91 
  -4   3   0   31.57    0.91 
   3  -3   0    3.14    0.10 
   3  -3   0    3.00    0.09 
  -3   3   0    2.92    0.10 
  -3   3   0    2.95    0.10 
  -3   3   0    2.89    0.10 
  -3   3   0    2.91    0.10 
  -3   3   0    3.05    0.10 
  -3   3   0    2.98    0.12 
   2  -3   0    0.10    0.02 
   2  -3   0    0.08    0.02 
   1  -3   0    0.38    0.02 
   1  -3   0    0.38    0.02 
  -1   3   0    0.41    0.02 
   0  -3   0    1.15    0.04 
   0  -3   0    1.21    0.04 
  -1  -3   0  366.46   11.02 
  -1  -3   0  357.30   11.03 
  -1  -3   0  361.19   11.02 
  -2  -3   0    0.69    0.03 
  -2  -3   0    0.78    0.03 
  -2  -3   0    0.64    0.03 
   2   3   0    0.68    0.03 
   2   3   0    0.74    0.04 
   2   3   0    0.62    0.03 
   3   3   0    0.12    0.03 
  -4  -3   0    2.03    0.08 
  -5  -3   0    0.09    0.03 
  -6  -3   0   14.21    0.46 
   6   3   0   14.35    0.46 
  -7  -3   0    6.11    0.19 
   7   3   0    5.84    0.19 
   7   3   0    6.07    0.20 
   7   3   0    5.70    0.20 
   7   3   0    5.91    0.19 
   7   3   0    6.09    0.21 
  -8  -3   0    0.16    0.03 
   8   3   0    0.10    0.04 
   8   3   0    0.13    0.02 
   8   3   0    0.12    0.02 
   8   3   0    0.12    0.02 
   9  -4   0    0.37    0.03 
   9  -4   0    0.38    0.04 
  -9   4   0    0.38    0.04 
  -9   4   0    0.42    0.04 
  -9   4   0    0.43    0.04 
  -9   4   0    0.49    0.05 
   8  -4   0    0.43    0.03 
   8  -4   0    0.42    0.04 
  -8   4   0    0.47    0.05 
  -8   4   0    0.41    0.06 
  -8   4   0    0.46    0.05 
  -8   4   0    0.47    0.06 
  -8   4   0    0.43    0.05 
   7  -4   0    1.34    0.07 
   7  -4   0    1.29    0.06 
  -7   4   0    1.30    0.08 
  -7   4   0    1.19    0.08 
  -7   4   0    1.29    0.07 
  -7   4   0    1.17    0.07 
   6  -4   0   11.35    0.37 
   6  -4   0   10.91    0.36 
  -6   4   0   11.46    0.36 
  -6   4   0   11.32    0.37 
  -6   4   0   11.36    0.36 
   5  -4   0   25.98    0.82 
  -5   4   0   26.28    0.81 
  -5   4   0   26.57    0.82 
  -5   4   0   26.35    0.82 
   4  -4   0    8.48    0.27 
   4  -4   0    8.33    0.26 
  -4   4   0    8.11    0.26 
  -4   4   0    8.35    0.27 
  -4   4   0    8.16    0.26 
   3  -4   0    5.12    0.15 
   3  -4   0    4.80    0.16 
  -3   4   0    5.11    0.16 
  -3   4   0    4.58    0.16 
   2  -4   0   11.84    0.39 
   2  -4   0   13.06    0.38 
  -2   4   0   12.23    0.39 
  -2   4   0   12.34    0.39 
  -2   4   0   12.91    0.39 
   1  -4   0    4.70    0.15 
   0  -4   0    1.42    0.04 
   0   4   0    1.32    0.05 
  -1  -4   0   11.58    0.36 
   1   4   0   11.64    0.36 
   1   4   0   11.76    0.36 
   1   4   0   11.67    0.36 
   1   4   0   11.45    0.36 
  -2  -4   0   47.65    1.52 
  -2  -4   0   50.37    1.51 
   2   4   0   49.78    1.52 
   2   4   0   50.13    1.52 
   2   4   0   50.81    1.52 
   2   4   0   48.87    1.52 
  -3  -4   0   76.39    2.26 
  -3  -4   0   73.52    2.26 
   3   4   0   73.08    2.26 
   3   4   0   73.47    2.26 
   3   4   0   74.28    2.26 
   3   4   0   72.63    2.27 
  -4  -4   0   21.48    0.65 
   4   4   0   20.55    0.66 
  -5  -4   0   10.12    0.32 
   5   4   0    9.89    0.33 
   6   4   0    0.07    0.02 
   6   4   0    0.14    0.05 
   6   4   0    0.10    0.03 
   6   4   0    0.08    0.05 
   6   4   0    0.04    0.03 
  -7  -4   0    5.30    0.17 
   7   4   0    5.21    0.17 
   7   4   0    5.12    0.17 
   7   4   0    5.19    0.17 
   7   4   0    5.36    0.18 
   7   4   0    5.01    0.19 
   8  -5   0    0.87    0.05 
   8  -5   0    0.87    0.04 
  -8   5   0    0.90    0.05 
  -8   5   0    0.99    0.07 
  -8   5   0    0.82    0.06 
  -8   5   0    0.84    0.05 
  -8   5   0    0.82    0.06 
   7  -5   0    0.80    0.05 
   7  -5   0    0.80    0.04 
  -7   5   0    0.76    0.07 
  -7   5   0    0.90    0.06 
  -7   5   0    0.86    0.07 
  -7   5   0    0.86    0.07 
  -7   5   0    0.90    0.06 
   6  -5   0   34.64    1.06 
  -6   5   0   33.24    1.05 
   5  -5   0   11.76    0.38 
  -5   5   0   11.89    0.37 
  -5   5   0   11.63    0.37 
   4  -5   0   36.06    1.09 
   4  -5   0   34.76    1.08 
   4  -5   0   34.56    1.08 
  -4   5   0   34.25    1.08 
  -4   5   0   36.25    1.08 
   3  -5   0   12.78    0.38 
   3  -5   0   12.30    0.39 
  -3   5   0   12.76    0.39 
  -3   5   0   12.14    0.38 
  -3   5   0   11.77    0.38 
   2  -5   0   11.99    0.37 
   2  -5   0   11.90    0.38 
  -2   5   0   12.56    0.38 
  -2   5   0   12.32    0.38 
  -2   5   0   11.80    0.38 
  -2   5   0   12.09    0.38 
   1  -5   0   44.43    1.36 
  -1   5   0   44.76    1.36 
  -1   5   0   44.41    1.37 
  -1   5   0   44.60    1.36 
   0  -5   0    0.59    0.02 
   0   5   0    0.64    0.05 
   0   5   0    0.59    0.03 
  -1  -5   0    2.76    0.09 
   1   5   0    2.69    0.10 
   1   5   0    2.81    0.09 
   1   5   0    2.86    0.11 
   1   5   0    2.75    0.09 
  -2  -5   0    4.53    0.15 
  -2  -5   0    4.63    0.15 
   2   5   0    4.68    0.15 
   2   5   0    4.74    0.16 
   2   5   0    4.83    0.15 
   2   5   0    5.01    0.17 
  -3  -5   0    7.36    0.22 
  -3  -5   0    7.02    0.23 
  -3  -5   0    6.96    0.22 
   3   5   0    7.57    0.23 
   3   5   0    6.99    0.24 
   3   5   0    6.64    0.24 
   3   5   0    7.48    0.23 
   3   5   0    7.07    0.23 
  -4  -5   0    5.86    0.19 
   4   5   0    5.63    0.19 
   4   5   0    5.77    0.21 
  -5  -5   0   14.38    0.42 
  -5  -5   0   12.36    0.42 
  -5  -5   0   13.51    0.42 
   5   5   0   12.92    0.44 
   5   5   0   13.01    0.44 
   5   5   0   13.32    0.43 
   5   5   0   12.90    0.41 
  -6  -5   0    3.00    0.10 
  -6  -5   0    2.67    0.09 
   6   5   0    2.54    0.11 
   6   5   0    2.18    0.12 
   6   5   0    2.65    0.09 
   6   5   0    2.51    0.10 
  -7  -5   0    0.17    0.03 
   7   5   0    0.25    0.06 
   7   5   0    0.23    0.04 
   7   5   0    0.15    0.03 
   8  -6   0    2.90    0.10 
   8  -6   0    3.07    0.10 
  -8   6   0    2.81    0.11 
  -8   6   0    2.84    0.10 
  -8   6   0    2.91    0.10 
  -8   6   0    3.06    0.10 
  -8   6   0    2.79    0.11 
   7  -6   0    0.12    0.03 
   7  -6   0    0.12    0.02 
  -7   6   0    0.15    0.04 
  -7   6   0    0.17    0.04 
  -7   6   0    0.17    0.03 
  -7   6   0    0.16    0.04 
  -7   6   0    0.20    0.03 
   6  -6   0    0.46    0.08 
  -6   6   0    0.39    0.06 
   5  -6   0    0.72    0.05 
   5  -6   0    0.63    0.06 
  -5   6   0    0.69    0.05 
  -5   6   0    0.74    0.06 
   4  -6   0    0.10    0.02 
   4  -6   0    0.14    0.03 
   4  -6   0    0.13    0.02 
  -4   6   0    0.14    0.03 
  -4   6   0    0.17    0.04 
   3  -6   0   56.72    1.78 
   3  -6   0   59.25    1.78 
  -3   6   0   59.51    1.79 
  -3   6   0   55.96    1.78 
  -3   6   0   59.69    1.78 
   2  -6   0   11.50    0.34 
  -2   6   0   11.10    0.34 
  -2   6   0   10.63    0.35 
  -2   6   0   10.78    0.35 
   1  -6   0   15.99    0.47 
  -1   6   0   14.93    0.48 
  -1   6   0   15.70    0.47 
  -1   6   0   14.64    0.48 
   0  -6   0    2.90    0.09 
   0   6   0    2.89    0.10 
   0   6   0    2.93    0.10 
   0   6   0    3.13    0.12 
  -1  -6   0   49.29    1.54 
   1   6   0   49.29    1.56 
   1   6   0   51.02    1.55 
   1   6   0   51.70    1.55 
   1   6   0   51.32    1.55 
  -2  -6   0   56.53    1.71 
  -2  -6   0   56.41    1.71 
   2   6   0   54.62    1.71 
   2   6   0   53.71    1.72 
   2   6   0   56.76    1.72 
   2   6   0   57.39    1.71 
  -3  -6   0    6.07    0.20 
  -3  -6   0    6.27    0.20 
   3   6   0    6.31    0.22 
   3   6   0    6.03    0.20 
   3   6   0    6.10    0.20 
   3   6   0    6.22    0.22 
  -4  -6   0    0.56    0.04 
   4   6   0    0.58    0.06 
   4   6   0    0.57    0.09 
  -5  -6   0    0.82    0.05 
  -5  -6   0    0.93    0.05 
   5   6   0    0.96    0.08 
   5   6   0    0.90    0.05 
   5   6   0    0.99    0.06 
   5   6   0    0.85    0.09 
  -6  -6   0    2.95    0.10 
   6   6   0    2.97    0.12 
   6   6   0    2.94    0.10 
   6   6   0    3.00    0.11 
   6   6   0    2.94    0.13 
   8  -7   0    2.12    0.07 
   8  -7   0    2.17    0.08 
  -8   7   0    2.20    0.08 
  -8   7   0    2.13    0.09 
  -8   7   0    2.22    0.08 
  -8   7   0    2.20    0.09 
   7  -7   0    2.70    0.09 
   7  -7   0    3.11    0.10 
   7  -7   0    2.66    0.10 
  -7   7   0    2.68    0.11 
  -7   7   0    2.47    0.10 
  -7   7   0    2.72    0.10 
  -7   7   0    2.49    0.11 
   6  -7   0    7.55    0.24 
   6  -7   0    7.65    0.24 
  -6   7   0    7.44    0.24 
  -6   7   0    7.60    0.25 
  -6   7   0    7.30    0.24 
  -6   7   0    7.27    0.24 
   5  -7   0    3.95    0.13 
  -5   7   0    3.64    0.14 
  -5   7   0    3.58    0.14 
   4  -7   0    0.78    0.05 
   4  -7   0    0.82    0.04 
  -4   7   0    0.83    0.06 
  -4   7   0    0.87    0.06 
   3  -7   0    7.65    0.25 
   3  -7   0    7.99    0.25 
  -3   7   0    8.02    0.26 
  -3   7   0    8.15    0.26 
   2  -7   0   24.12    0.76 
   2  -7   0   24.78    0.76 
  -2   7   0   24.46    0.77 
  -2   7   0   25.82    0.78 
  -2   7   0   24.90    0.77 
   1  -7   0    1.05    0.04 
   1  -7   0    1.15    0.04 
  -1   7   0    1.10    0.08 
  -1   7   0    1.18    0.05 
   0  -7   0    1.92    0.07 
   0  -7   0    1.90    0.07 
   0   7   0    2.04    0.10 
   0   7   0    1.88    0.08 
  -1  -7   0   11.62    0.36 
  -1  -7   0   11.49    0.36 
   1   7   0   11.45    0.38 
   1   7   0   11.72    0.36 
   1   7   0   11.62    0.37 
  -2  -7   0   12.89    0.39 
  -2  -7   0   12.38    0.39 
   2   7   0   12.88    0.40 
   2   7   0   13.20    0.40 
   2   7   0   12.48    0.42 
  -3  -7   0    5.41    0.18 
   3   7   0    5.52    0.18 
   3   7   0    5.49    0.21 
  -4  -7   0   13.21    0.41 
  -4  -7   0   12.96    0.41 
   4   7   0   12.96    0.41 
   4   7   0   13.34    0.41 
   4   7   0   13.20    0.43 
  -5  -7   0    0.16    0.04 
  -5  -7   0    0.22    0.04 
   5   7   0    0.12    0.02 
   5   7   0    0.20    0.06 
   5   7   0    0.17    0.03 
  -6  -7   0    6.90    0.21 
   6   7   0    6.56    0.21 
   6   7   0    6.70    0.21 
   6   7   0    6.48    0.21 
   7  -8   0    3.25    0.12 
   7  -8   0    3.56    0.11 
   7  -8   0    3.47    0.11 
  -7   8   0    3.29    0.12 
  -7   8   0    3.39    0.12 
  -7   8   0    3.44    0.12 
  -7   8   0    3.45    0.12 
   6  -8   0    0.13    0.02 
   6  -8   0    0.07    0.03 
  -6   8   0    0.06    0.04 
  -6   8   0    0.09    0.03 
  -6   8   0    0.09    0.04 
  -6   8   0    0.07    0.02 
  -6   8   0    0.09    0.04 
  -6   8   0    0.12    0.04 
   5  -8   0    7.93    0.25 
   5  -8   0    8.39    0.26 
  -5   8   0    8.17    0.26 
  -5   8   0    8.35    0.26 
  -5   8   0    7.85    0.26 
  -5   8   0    7.93    0.26 
  -5   8   0    8.00    0.26 
  -5   8   0    7.92    0.26 
   4  -8   0   14.26    0.43 
  -4   8   0   13.26    0.44 
   3  -8   0    5.14    0.17 
   3  -8   0    5.15    0.16 
  -3   8   0    4.88    0.18 
  -3   8   0    5.33    0.17 
   2  -8   0   40.84    1.23 
   2  -8   0   39.64    1.23 
  -2   8   0   39.92    1.23 
   1  -8   0   29.18    0.91 
   1  -8   0   29.44    0.91 
  -1   8   0   29.80    0.93 
  -1   8   0   30.02    0.91 
   0  -8   0    7.50    0.23 
   0   8   0    7.24    0.26 
   0   8   0    7.43    0.24 
   0   8   0    7.45    0.24 
  -1  -8   0    8.17    0.26 
   1   8   0    8.38    0.29 
   1   8   0    8.41    0.27 
   1   8   0    8.47    0.27 
  -2  -8   0    1.68    0.06 
   2   8   0    1.58    0.09 
   2   8   0    1.61    0.07 
   2   8   0    1.73    0.11 
   2   8   0    1.55    0.09 
   2   8   0    1.48    0.08 
  -3  -8   0    1.53    0.07 
  -3  -8   0    1.59    0.06 
   3   8   0    1.83    0.10 
   3   8   0    1.53    0.08 
   3   8   0    1.53    0.09 
   3   8   0    1.64    0.06 
  -4  -8   0    0.30    0.04 
  -4  -8   0    0.32    0.04 
   4   8   0    0.36    0.05 
   4   8   0    0.38    0.03 
  -5  -8   0    1.06    0.05 
   5   8   0    1.08    0.05 
   5   8   0    0.99    0.04 
   7  -9   0    0.94    0.04 
  -7   9   0    0.93    0.06 
  -7   9   0    1.05    0.05 
  -7   9   0    0.92    0.04 
  -7   9   0    0.89    0.06 
   6  -9   0    2.54    0.09 
  -6   9   0    2.76    0.10 
  -6   9   0    2.65    0.09 
  -6   9   0    2.60    0.10 
  -6   9   0    2.48    0.10 
   5  -9   0    7.20    0.23 
   5  -9   0    7.18    0.23 
  -5   9   0    7.37    0.23 
  -5   9   0    7.41    0.24 
  -5   9   0    7.81    0.24 
  -5   9   0    7.52    0.24 
  -5   9   0    6.71    0.24 
  -5   9   0    7.28    0.24 
   4  -9   0    2.31    0.08 
  -4   9   0    2.19    0.09 
  -4   9   0    2.21    0.09 
  -4   9   0    2.18    0.10 
  -4   9   0    2.14    0.10 
  -4   9   0    2.22    0.08 
  -4   9   0    2.15    0.09 
  -4   9   0    2.23    0.09 
   3  -9   0    0.10    0.02 
  -3   9   0    0.10    0.03 
  -3   9   0    0.10    0.04 
  -3   9   0    0.06    0.04 
  -3   9   0    0.08    0.03 
  -3   9   0    0.03    0.04 
  -3   9   0    0.08    0.04 
  -3   9   0    0.06    0.04 
  -3   9   0    0.05    0.04 
   2  -9   0    0.13    0.02 
  -2   9   0    0.18    0.04 
  -2   9   0    0.13    0.04 
  -2   9   0    0.15    0.03 
  -2   9   0    0.10    0.04 
  -2   9   0    0.16    0.04 
  -2   9   0    0.26    0.06 
  -2   9   0    0.16    0.05 
  -2   9   0    0.13    0.05 
   1  -9   0   34.12    1.02 
  -1   9   0   30.23    1.04 
  -1   9   0   33.04    1.03 
  -1   9   0   36.17    1.04 
  -1   9   0   35.48    1.04 
  -1   9   0   34.21    1.04 
  -1   9   0   31.91    1.03 
  -1   9   0   32.55    1.04 
  -1   9   0   32.33    1.04 
   0  -9   0    0.10    0.02 
   0   9   0    0.05    0.04 
   0   9   0    0.13    0.04 
   0   9   0    0.12    0.04 
   0   9   0    0.06    0.03 
   0   9   0    0.10    0.03 
   0   9   0    0.07    0.06 
  -1  -9   0   11.30    0.34 
   1   9   0   10.92    0.34 
   1   9   0   10.92    0.34 
   1   9   0   10.46    0.34 
   1   9   0   10.64    0.34 
  -2  -9   0    0.17    0.04 
   2   9   0    0.13    0.03 
   2   9   0    0.13    0.04 
   2   9   0    0.12    0.03 
   2   9   0    0.10    0.03 
  -3  -9   0    4.49    0.15 
   3   9   0    4.49    0.15 
   3   9   0    4.55    0.14 
   3   9   0    4.41    0.15 
  -4  -9   0    0.06    0.02 
   4   9   0    0.03    0.02 
   4   9   0    0.03    0.02 
   6 -10   0    1.54    0.06 
   6 -10   0    1.61    0.06 
  -6  10   0    1.55    0.07 
  -6  10   0    1.53    0.06 
  -6  10   0    1.62    0.07 
  -6  10   0    1.68    0.07 
  -6  10   0    1.71    0.07 
   5 -10   0    0.04    0.02 
  -5  10   0    0.03    0.03 
  -5  10   0   -0.02    0.03 
  -5  10   0    0.03    0.03 
  -5  10   0    0.02    0.02 
  -5  10   0    0.02    0.03 
   4 -10   0   21.41    0.65 
   4 -10   0   21.21    0.66 
  -4  10   0   21.37    0.66 
  -4  10   0   20.95    0.66 
  -4  10   0   20.67    0.66 
  -4  10   0   22.30    0.66 
  -4  10   0   21.26    0.66 
  -4  10   0   20.93    0.66 
  -4  10   0   21.67    0.66 
   3 -10   0    3.48    0.11 
  -3  10   0    2.99    0.12 
  -3  10   0    3.23    0.12 
  -3  10   0    3.21    0.12 
  -3  10   0    3.38    0.12 
  -3  10   0    3.12    0.12 
   2 -10   0    0.03    0.02 
  -2  10   0    0.03    0.03 
  -2  10   0    0.02    0.03 
  -2  10   0    0.08    0.03 
  -2  10   0    0.02    0.03 
  -2  10   0    0.06    0.04 
  -2  10   0    0.08    0.03 
  -2  10   0   -0.02    0.02 
   1 -10   0    9.24    0.28 
  -1  10   0    9.11    0.29 
  -1  10   0    8.65    0.29 
  -1  10   0    9.02    0.29 
  -1  10   0    9.01    0.29 
  -1  10   0    9.28    0.29 
  -1  10   0    9.21    0.28 
   0 -10   0    9.55    0.29 
   0  10   0    9.18    0.29 
   0  10   0    9.36    0.30 
   0  10   0    9.23    0.30 
   0  10   0    9.37    0.30 
   0  10   0    9.55    0.30 
  -1 -10   0    7.33    0.24 
   1  10   0    7.54    0.25 
   1  10   0    7.68    0.24 
   1  10   0    7.82    0.25 
   1  10   0    7.88    0.24 
  -2 -10   0    0.08    0.02 
   2  10   0    0.06    0.02 
   2  10   0    0.11    0.03 
   2  10   0    0.06    0.03 
  -3 -10   0    0.90    0.04 
   3  10   0    0.90    0.05 
   3  10   0    0.80    0.04 
   4 -11   0    2.32    0.08 
  -4  11   0    2.35    0.09 
  -4  11   0    2.40    0.09 
  -4  11   0    2.30    0.09 
  -4  11   0    2.48    0.08 
  -4  11   0    2.43    0.09 
   3 -11   0    0.11    0.02 
  -3  11   0    0.12    0.03 
  -3  11   0    0.09    0.03 
  -3  11   0    0.11    0.03 
  -3  11   0    0.11    0.03 
  -3  11   0    0.14    0.03 
  -2  11   0    0.19    0.04 
  -2  11   0    0.23    0.04 
  -2  11   0    0.19    0.05 
  -2  11   0    0.18    0.03 
  -2  11   0    0.22    0.04 
  -1  11   0    4.69    0.15 
  -1  11   0    4.70    0.15 
  -1  11   0    4.60    0.15 
  -1  11   0    4.53    0.15 
  -1  11   0    4.60    0.15 
   0 -11   0    8.97    0.27 
   0  11   0    8.58    0.27 
   0  11   0    8.40    0.27 
   0  11   0    8.78    0.27 
   0  11   0    8.39    0.27 
   0  11   0    8.60    0.27 
  -1 -11   0    0.51    0.03 
   1  11   0    0.47    0.04 
   1  11   0    0.55    0.04 
   1  11   0    0.45    0.04 
   1  11   0    0.44    0.03 
   2  11  -1    0.41    0.04 
   2  11  -1    0.50    0.04 
   2  11  -1    0.41    0.03 
  -2 -11   1    0.44    0.03 
   1  11  -1    0.24    0.03 
   1  11  -1    0.20    0.04 
   1  11  -1    0.22    0.04 
   1  11  -1    0.29    0.04 
   0  11  -1    0.98    0.05 
   0  11  -1    0.83    0.04 
   0  11  -1    0.89    0.05 
   0  11  -1    0.82    0.06 
  -1  11  -1    1.03    0.06 
  -1  11  -1    0.92    0.06 
  -1  11  -1    0.95    0.05 
  -1  11  -1    0.98    0.06 
  -1  11  -1    0.94    0.06 
  -1  11  -1    0.84    0.04 
  -2  11  -1    1.59    0.07 
  -2  11  -1    1.47    0.07 
  -2  11  -1    1.40    0.07 
  -2  11  -1    1.49    0.07 
  -2  11  -1    1.55    0.07 
  -3  11  -1    1.57    0.07 
  -3  11  -1    1.46    0.07 
  -3  11  -1    1.53    0.07 
  -3  11  -1    1.46    0.07 
  -3  11  -1    1.62    0.07 
  -4  11  -1    0.30    0.04 
  -4  11  -1    0.22    0.04 
  -4  11  -1    0.34    0.05 
  -4  11  -1    0.28    0.05 
  -4  11  -1    0.29    0.04 
  -4  11  -1    0.25    0.03 
   3  10  -1    0.19    0.03 
   3  10  -1    0.20    0.04 
   3  10  -1    0.20    0.03 
  -3 -10   1    0.23    0.03 
   2  10  -1    0.42    0.05 
   2  10  -1    0.40    0.04 
   2  10  -1    0.39    0.05 
   1  10  -1    0.27    0.05 
   1  10  -1    0.20    0.03 
   1  10  -1    0.19    0.04 
   1  10  -1    0.22    0.05 
  -1 -10   1    0.23    0.03 
   0  10  -1    7.51    0.24 
   0  10  -1    7.36    0.24 
   0  10  -1    7.62    0.24 
   0  10  -1    7.19    0.24 
   0  10  -1    7.41    0.24 
   0 -10   1    7.51    0.23 
  -1  10  -1    4.81    0.17 
  -1  10  -1    4.92    0.16 
  -1  10  -1    4.82    0.17 
  -1  10  -1    4.87    0.17 
  -1  10  -1    5.11    0.16 
  -1  10  -1    4.84    0.17 
   1 -10   1    4.98    0.16 
  -2  10  -1    0.06    0.03 
  -2  10  -1    0.03    0.03 
  -2  10  -1    0.08    0.04 
  -2  10  -1    0.07    0.04 
  -2  10  -1    0.12    0.04 
  -2  10  -1    0.03    0.03 
  -2  10  -1    0.04    0.04 
   2 -10   1    0.11    0.02 
  -3  10  -1    4.63    0.16 
  -3  10  -1    4.64    0.16 
  -3  10  -1    4.80    0.16 
  -3  10  -1    4.55    0.15 
  -3  10  -1    4.69    0.16 
  -3  10  -1    4.67    0.16 
   3 -10   1    4.72    0.15 
  -4  10  -1    7.88    0.25 
  -4  10  -1    7.34    0.24 
  -4  10  -1    7.50    0.24 
  -4  10  -1    7.82    0.25 
  -4  10  -1    7.74    0.24 
  -4  10  -1    7.58    0.25 
   4 -10   1    7.24    0.24 
  -5  10  -1    3.58    0.13 
  -5  10  -1    3.78    0.13 
  -5  10  -1    3.74    0.13 
  -5  10  -1    3.74    0.12 
  -5  10  -1    3.84    0.13 
  -5  10  -1    3.62    0.13 
   5 -10   1    3.81    0.12 
  -6  10  -1    5.35    0.18 
  -6  10  -1    5.36    0.18 
  -6  10  -1    5.68    0.18 
  -6  10  -1    5.27    0.17 
  -6  10  -1    5.50    0.18 
   6 -10   1    5.64    0.17 
   6 -10   1    5.33    0.17 
   4   9  -1    1.72    0.07 
   4   9  -1    1.60    0.06 
  -4  -9   1    1.70    0.06 
   3   9  -1    4.40    0.15 
   3   9  -1    4.47    0.14 
   3   9  -1    4.16    0.15 
  -3  -9   1    4.51    0.14 
   2   9  -1    2.21    0.09 
   2   9  -1    2.28    0.08 
   2   9  -1    2.39    0.09 
  -2  -9   1    2.25    0.08 
   1   9  -1    1.90    0.09 
   1   9  -1    1.91    0.08 
   1   9  -1    1.85    0.09 
   1   9  -1    1.78    0.07 
  -1  -9   1    1.90    0.07 
   0   9  -1    0.03    0.07 
   0   9  -1    0.11    0.07 
   0   9  -1    0.13    0.07 
   0  -9   1    0.13    0.02 
  -1   9  -1    9.05    0.29 
  -1   9  -1    8.46    0.30 
   1  -9   1    8.81    0.27 
  -2   9  -1    9.88    0.32 
   2  -9   1   10.14    0.31 
  -3   9  -1    1.30    0.08 
  -3   9  -1    1.29    0.08 
  -3   9  -1    1.26    0.08 
  -3   9  -1    1.23    0.06 
  -3   9  -1    1.19    0.07 
  -3   9  -1    1.22    0.08 
  -3   9  -1    1.39    0.07 
   3  -9   1    1.20    0.05 
  -4   9  -1    5.07    0.17 
  -4   9  -1    5.12    0.17 
  -4   9  -1    5.11    0.18 
  -4   9  -1    5.54    0.17 
  -4   9  -1    4.86    0.18 
  -4   9  -1    5.23    0.18 
  -4   9  -1    5.04    0.18 
   4  -9   1    5.33    0.17 
  -5   9  -1    1.54    0.08 
  -5   9  -1    1.56    0.07 
  -5   9  -1    1.45    0.06 
  -5   9  -1    1.44    0.08 
  -5   9  -1    1.37    0.08 
  -5   9  -1    1.41    0.07 
   5  -9   1    1.47    0.06 
   5  -9   1    1.35    0.07 
  -6   9  -1    0.44    0.05 
  -6   9  -1    0.30    0.04 
  -6   9  -1    0.43    0.05 
  -6   9  -1    0.37    0.05 
  -6   9  -1    0.36    0.05 
   6  -9   1    0.37    0.04 
   6  -9   1    0.32    0.03 
  -7   9  -1    1.84    0.08 
  -7   9  -1    1.94    0.08 
  -7   9  -1    1.87    0.07 
   7  -9   1    1.97    0.07 
   7  -9   1    2.25    0.07 
   7  -9   1    2.09    0.07 
   5   8  -1    4.20    0.14 
   5   8  -1    4.25    0.14 
  -5  -8   1    4.23    0.14 
   4   8  -1    2.20    0.09 
   4   8  -1    2.19    0.12 
   4   8  -1    2.35    0.08 
  -4  -8   1    2.35    0.08 
  -4  -8   1    2.30    0.09 
   3   8  -1    6.54    0.21 
   3   8  -1    6.65    0.22 
   3   8  -1    6.33    0.22 
  -3  -8   1    6.92    0.21 
   2   8  -1   27.32    0.90 
   2   8  -1   29.85    0.88 
   2   8  -1   28.30    0.88 
   1   8  -1    5.06    0.17 
   1   8  -1    4.90    0.17 
   1   8  -1    5.11    0.19 
  -1  -8   1    4.99    0.16 
  -1  -8   1    4.99    0.16 
   0   8  -1    0.17    0.06 
   0   8  -1    0.18    0.04 
   0  -8   1    0.13    0.03 
  -1   8  -1    4.96    0.16 
  -1   8  -1    4.86    0.18 
   1  -8   1    4.47    0.15 
   1  -8   1    4.64    0.15 
  -2   8  -1    4.00    0.14 
  -2   8  -1    3.94    0.14 
   2  -8   1    3.74    0.13 
   2  -8   1    4.02    0.13 
  -3   8  -1   17.40    0.54 
  -3   8  -1   17.04    0.54 
   3  -8   1   16.87    0.53 
   3  -8   1   17.25    0.53 
  -4   8  -1   12.97    0.43 
   4  -8   1   13.89    0.42 
  -5   8  -1   10.06    0.33 
  -5   8  -1   10.66    0.34 
  -5   8  -1   10.70    0.33 
  -5   8  -1   10.36    0.34 
  -5   8  -1   10.47    0.34 
  -5   8  -1   10.90    0.34 
   5  -8   1   10.14    0.33 
   5  -8   1   10.97    0.33 
  -6   8  -1    5.92    0.20 
  -6   8  -1    6.14    0.19 
  -6   8  -1    5.69    0.20 
  -6   8  -1    5.92    0.20 
  -6   8  -1    5.94    0.20 
   6  -8   1    5.64    0.19 
   6  -8   1    6.11    0.19 
  -7   8  -1    1.24    0.06 
  -7   8  -1    1.36    0.07 
  -7   8  -1    1.35    0.07 
  -7   8  -1    1.35    0.07 
  -7   8  -1    1.25    0.06 
   7  -8   1    1.38    0.06 
   7  -8   1    1.18    0.06 
   7  -8   1    1.25    0.05 
   6   7  -1    3.36    0.11 
   6   7  -1    3.45    0.13 
   6   7  -1    3.63    0.12 
  -6  -7   1    3.41    0.11 
  -6  -7   1    3.37    0.11 
   5   7  -1    1.32    0.09 
   5   7  -1    1.34    0.09 
   5   7  -1    1.30    0.07 
   5   7  -1    1.29    0.06 
  -5  -7   1    1.29    0.06 
   4   7  -1   25.94    0.80 
   4   7  -1   26.34    0.80 
   4   7  -1   26.59    0.81 
  -4  -7   1   25.11    0.80 
  -4  -7   1   25.63    0.80 
   3   7  -1    0.18    0.04 
   3   7  -1    0.19    0.06 
   3   7  -1    0.18    0.04 
   3   7  -1    0.16    0.05 
  -3  -7   1    0.15    0.03 
   2   7  -1    4.14    0.17 
   2   7  -1    4.32    0.15 
   2   7  -1    4.26    0.17 
   2   7  -1    4.51    0.15 
   2   7  -1    4.43    0.16 
  -2  -7   1    4.54    0.14 
  -2  -7   1    4.54    0.14 
   1   7  -1    0.77    0.07 
   1   7  -1    0.69    0.05 
   1   7  -1    0.69    0.05 
  -1  -7   1    0.73    0.03 
  -1  -7   1    0.69    0.03 
   0   7  -1    2.61    0.09 
   0   7  -1    2.27    0.11 
   0   7  -1    2.62    0.10 
   0  -7   1    2.79    0.08 
  -1   7  -1   23.64    0.71 
  -1   7  -1   21.10    0.72 
   1  -7   1   24.09    0.70 
  -2   7  -1    9.33    0.29 
  -2   7  -1    9.49    0.29 
   2  -7   1    8.58    0.28 
   2  -7   1    9.19    0.28 
  -3   7  -1    6.78    0.22 
  -3   7  -1    6.54    0.22 
  -3   7  -1    6.82    0.22 
   3  -7   1    6.98    0.21 
   3  -7   1    6.75    0.21 
  -4   7  -1    1.40    0.07 
  -4   7  -1    1.39    0.07 
   4  -7   1    1.32    0.06 
   4  -7   1    1.28    0.06 
  -5   7  -1   11.97    0.40 
  -5   7  -1   12.27    0.40 
   5  -7   1   13.33    0.39 
  -6   7  -1    0.31    0.06 
  -6   7  -1    0.26    0.04 
  -6   7  -1    0.31    0.05 
  -6   7  -1    0.27    0.06 
  -6   7  -1    0.33    0.05 
   6  -7   1    0.34    0.05 
   6  -7   1    0.30    0.04 
   6  -7   1    0.32    0.04 
  -7   7  -1    0.15    0.03 
  -7   7  -1    0.16    0.04 
  -7   7  -1    0.10    0.03 
   7  -7   1    0.09    0.03 
   7  -7   1    0.13    0.02 
   7  -7   1    0.10    0.03 
  -8   7  -1   11.42    0.35 
  -8   7  -1   11.59    0.35 
  -8   7  -1   11.43    0.35 
  -8   7  -1   11.31    0.35 
   8  -7   1   10.93    0.35 
   8  -7   1   11.21    0.35 
   8  -7   1   10.97    0.35 
   7   6  -1    2.46    0.09 
   7   6  -1    2.27    0.09 
   7   6  -1    2.37    0.08 
  -7  -6   1    2.50    0.08 
   6   6  -1    0.10    0.06 
   6   6  -1    0.10    0.02 
   6   6  -1    0.12    0.03 
   6   6  -1    0.16    0.05 
  -6  -6   1    0.09    0.02 
  -6  -6   1    0.15    0.03 
   5   6  -1    5.50    0.21 
   5   6  -1    5.77    0.19 
   5   6  -1    6.38    0.22 
   5   6  -1    5.99    0.20 
  -5  -6   1    5.98    0.19 
  -5  -6   1    5.85    0.19 
   4   6  -1    1.92    0.11 
   4   6  -1    1.94    0.09 
   4   6  -1    1.82    0.09 
   3   6  -1    1.35    0.09 
   3   6  -1    1.41    0.09 
   3   6  -1    1.33    0.08 
   3   6  -1    1.39    0.07 
   3   6  -1    1.40    0.07 
  -3  -6   1    1.29    0.05 
  -3  -6   1    1.36    0.05 
   2   6  -1    2.87    0.11 
   2   6  -1    2.98    0.10 
   2   6  -1    3.00    0.10 
   2   6  -1    3.11    0.12 
  -2  -6   1    2.92    0.10 
  -2  -6   1    2.96    0.10 
   1   6  -1   11.73    0.37 
   1   6  -1   11.54    0.36 
   1   6  -1   11.88    0.37 
   1   6  -1   11.85    0.38 
  -1  -6   1   11.55    0.36 
   0   6  -1   12.04    0.38 
   0   6  -1   12.28    0.39 
   0   6  -1   12.15    0.38 
   0  -6   1   12.09    0.37 
  -1   6  -1   75.94    2.30 
  -1   6  -1   76.38    2.30 
  -1   6  -1   74.07    2.31 
   1  -6   1   74.73    2.30 
  -2   6  -1   22.92    0.74 
  -2   6  -1   23.95    0.74 
  -2   6  -1   24.33    0.74 
   2  -6   1   24.79    0.73 
  -3   6  -1    5.81    0.19 
  -3   6  -1    5.79    0.19 
  -3   6  -1    5.68    0.19 
   3  -6   1    5.58    0.18 
   3  -6   1    5.77    0.18 
  -4   6  -1   12.45    0.41 
  -4   6  -1   13.07    0.40 
   4  -6   1   12.98    0.40 
   4  -6   1   12.96    0.40 
  -5   6  -1    0.39    0.06 
  -5   6  -1    0.53    0.05 
   5  -6   1    0.50    0.07 
   5  -6   1    0.52    0.04 
  -6   6  -1   33.57    1.02 
  -6   6  -1   34.18    1.02 
  -6   6  -1   32.20    1.02 
  -6   6  -1   31.85    1.02 
   6  -6   1   32.75    1.02 
   6  -6   1   33.92    1.02 
   6  -6   1   33.88    1.02 
  -7   6  -1   25.99    0.81 
  -7   6  -1   25.96    0.82 
  -7   6  -1   26.08    0.81 
  -7   6  -1   26.60    0.81 
  -7   6  -1   26.33    0.81 
   7  -6   1   26.97    0.81 
   7  -6   1   26.10    0.81 
   7  -6   1   26.90    0.81 
  -8   6  -1   16.90    0.52 
  -8   6  -1   16.29    0.52 
  -8   6  -1   16.57    0.52 
   8  -6   1   16.77    0.52 
   8  -6   1   16.73    0.52 
   8  -6   1   16.92    0.51 
   7   5  -1    0.72    0.06 
   7   5  -1    0.60    0.04 
   7   5  -1    0.58    0.05 
  -7  -5   1    0.67    0.04 
   6   5  -1   12.22    0.38 
   6   5  -1   11.41    0.37 
   6   5  -1   11.69    0.36 
   6   5  -1   11.71    0.37 
  -6  -5   1   11.40    0.36 
  -6  -5   1   11.62    0.36 
   5   5  -1    4.41    0.17 
  -5  -5   1    3.88    0.15 
   4   5  -1    3.00    0.12 
   4   5  -1    2.94    0.11 
   4   5  -1    2.95    0.11 
   4   5  -1    2.89    0.13 
  -4  -5   1    2.95    0.10 
  -4  -5   1    3.09    0.10 
  -4  -5   1    2.81    0.11 
   3   5  -1    6.75    0.22 
   3   5  -1    6.99    0.23 
   3   5  -1    6.85    0.22 
   3   5  -1    6.94    0.23 
  -3  -5   1    6.75    0.21 
  -3  -5   1    6.83    0.21 
   2   5  -1    0.34    0.04 
   2   5  -1    0.34    0.03 
   2   5  -1    0.30    0.03 
   2   5  -1    0.32    0.04 
  -2  -5   1    0.30    0.02 
   1   5  -1   92.56    2.75 
   1   5  -1   90.67    2.75 
   1   5  -1   90.42    2.76 
   1   5  -1   88.35    2.76 
  -1  -5   1   88.95    2.75 
   0   5  -1   94.30    2.89 
   0   5  -1   97.85    2.90 
   0   5  -1   91.67    2.89 
   0  -5   1   95.26    2.89 
  -1   5  -1   72.36    2.17 
  -1   5  -1   69.11    2.17 
  -1   5  -1   71.92    2.17 
   1  -5   1   70.65    2.17 
  -2   5  -1   48.14    1.53 
  -2   5  -1   49.56    1.53 
  -2   5  -1   51.13    1.53 
   2  -5   1   51.15    1.53 
  -3   5  -1    4.66    0.15 
  -3   5  -1    4.24    0.15 
  -3   5  -1    4.48    0.15 
   3  -5   1    4.60    0.15 
   3  -5   1    4.66    0.14 
  -4   5  -1   89.59    2.77 
  -4   5  -1   91.62    2.76 
  -4   5  -1   88.72    2.77 
   4  -5   1   92.92    2.76 
   4  -5   1   91.80    2.77 
   4  -5   1   87.81    2.76 
  -5   5  -1   50.75    1.57 
  -5   5  -1   52.45    1.56 
   5  -5   1   50.24    1.56 
   5  -5   1   49.91    1.57 
  -7   5  -1    1.36    0.07 
  -7   5  -1    1.47    0.07 
  -7   5  -1    1.28    0.07 
  -7   5  -1    1.32    0.08 
  -7   5  -1    1.30    0.08 
   7  -5   1    1.36    0.07 
   7  -5   1    1.31    0.06 
   7  -5   1    1.30    0.06 
  -8   5  -1    1.74    0.07 
  -8   5  -1    1.65    0.07 
  -8   5  -1    1.79    0.08 
  -8   5  -1    1.53    0.07 
  -8   5  -1    1.64    0.08 
   8  -5   1    1.56    0.07 
   8  -5   1    1.62    0.07 
   8  -5   1    1.70    0.06 
   8   4  -1    8.21    0.25 
   8   4  -1    7.85    0.26 
   8   4  -1    7.91    0.25 
  -8  -4   1    8.40    0.25 
   7   4  -1    1.34    0.06 
   7   4  -1    1.26    0.09 
   7   4  -1    1.40    0.06 
   7   4  -1    1.36    0.07 
   7   4  -1    1.40    0.10 
  -7  -4   1    1.35    0.06 
   6   4  -1    1.01    0.07 
   6   4  -1    1.10    0.06 
   6   4  -1    1.11    0.09 
   6   4  -1    1.14    0.10 
  -6  -4   1    0.93    0.06 
  -6  -4   1    1.10    0.06 
   5   4  -1    0.55    0.08 
  -5  -4   1    0.57    0.06 
   4   4  -1   14.23    0.44 
   4   4  -1   14.38    0.43 
   4   4  -1   13.62    0.43 
   4   4  -1   13.16    0.44 
  -4  -4   1   13.98    0.44 
  -4  -4   1   14.19    0.43 
  -4  -4   1   14.14    0.43 
   3   4  -1    0.25    0.03 
   3   4  -1    0.24    0.04 
   3   4  -1    0.25    0.04 
   3   4  -1    0.23    0.03 
  -3  -4   1    0.20    0.02 
  -3  -4   1    0.26    0.03 
   2   4  -1   48.70    1.51 
   2   4  -1   50.75    1.51 
   2   4  -1   51.06    1.52 
   2   4  -1   50.88    1.51 
  -2  -4   1   49.45    1.51 
  -2  -4   1   45.77    1.51 
   1   4  -1   12.18    0.38 
   1   4  -1   11.79    0.38 
   1   4  -1   12.47    0.38 
   1   4  -1   12.37    0.38 
  -1  -4   1   12.42    0.37 
   0  -4   1   19.62    0.60 
   1  -4   1    0.62    0.02 
  -2   4  -1   66.23    1.90 
  -2   4  -1   61.98    1.90 
  -2   4  -1   57.08    1.90 
   2  -4   1   63.74    1.90 
  -3   4  -1   26.03    0.76 
  -3   4  -1   24.54    0.75 
  -3   4  -1   24.41    0.76 
  -3   4  -1   23.12    0.76 
   3  -4   1   24.84    0.75 
   3  -4   1   24.25    0.76 
  -4   4  -1    0.23    0.03 
  -4   4  -1    0.21    0.04 
  -4   4  -1    0.25    0.04 
  -4   4  -1    0.24    0.03 
   4  -4   1    0.28    0.04 
   4  -4   1    0.24    0.03 
  -5   4  -1   12.83    0.40 
  -5   4  -1   13.01    0.41 
  -5   4  -1   12.70    0.41 
   5  -4   1   12.57    0.41 
  -6   4  -1    9.20    0.30 
  -6   4  -1    9.69    0.31 
   6  -4   1    9.03    0.31 
  -7   4  -1    9.62    0.31 
  -7   4  -1    9.69    0.31 
  -7   4  -1    9.51    0.31 
  -7   4  -1    9.82    0.31 
  -7   4  -1   10.06    0.31 
   7  -4   1    9.78    0.31 
   7  -4   1    9.46    0.31 
   7  -4   1   10.13    0.31 
  -8   4  -1    1.27    0.07 
  -8   4  -1    1.31    0.07 
  -8   4  -1    1.26    0.06 
  -8   4  -1    1.32    0.06 
   8  -4   1    1.26    0.06 
   8  -4   1    1.22    0.05 
   8   3  -1   28.00    0.85 
   8   3  -1   27.63    0.86 
   8   3  -1   27.20    0.86 
   8   3  -1   28.10    0.85 
  -8  -3   1   28.30    0.85 
   7   3  -1    3.56    0.11 
   7   3  -1    3.46    0.12 
   7   3  -1    3.29    0.15 
   7   3  -1    3.43    0.14 
   7   3  -1    3.33    0.12 
  -7  -3   1    3.45    0.12 
   6   3  -1    9.27    0.32 
  -6  -3   1    9.70    0.31 
   5   3  -1   11.71    0.40 
  -5  -3   1   12.79    0.39 
   4   3  -1    1.38    0.06 
   4   3  -1    1.43    0.07 
  -4  -3   1    1.46    0.06 
  -4  -3   1    1.45    0.05 
   3   3  -1    0.13    0.02 
   3   3  -1    0.07    0.02 
   3   3  -1    0.11    0.03 
  -3  -3   1    0.09    0.02 
   2   3  -1    3.13    0.10 
   2   3  -1    3.20    0.11 
  -2  -3   1    3.07    0.10 
  -2  -3   1    3.21    0.10 
  -2  -3   1    3.34    0.14 
  -1  -3   1   64.63    2.03 
  -1  -3   1   68.58    2.04 
   0  -3   1   58.07    1.78 
   2  -3   1  381.61   11.57 
   2  -3   1  373.63   11.57 
   2  -3   1  383.66   11.57 
  -3   3  -1  580.34   18.35 
  -3   3  -1  610.20   18.35 
  -3   3  -1  579.82   18.35 
  -3   3  -1  595.80   18.35 
  -3   3  -1  581.83   18.36 
   3  -3   1  649.40   18.36 
   3  -3   1  617.88   18.35 
  -4   3  -1  127.95    3.98 
  -4   3  -1  125.28    3.98 
  -4   3  -1  130.29    3.97 
  -4   3  -1  138.85    3.98 
   4  -3   1  128.95    3.98 
  -5   3  -1    0.19    0.04 
  -5   3  -1    0.20    0.05 
  -5   3  -1    0.24    0.05 
  -5   3  -1    0.21    0.03 
   5  -3   1    0.16    0.05 
   5  -3   1    0.16    0.03 
  -6   3  -1   19.72    0.63 
  -6   3  -1   19.41    0.61 
  -6   3  -1   20.76    0.62 
   6  -3   1   19.52    0.63 
  -7   3  -1    0.82    0.06 
  -7   3  -1    0.85    0.07 
  -7   3  -1    0.85    0.06 
  -7   3  -1    0.89    0.07 
   7  -3   1    0.86    0.06 
   7  -3   1    0.89    0.05 
   7  -3   1    0.89    0.06 
  -8   3  -1    2.79    0.10 
  -8   3  -1    2.75    0.10 
  -8   3  -1    2.79    0.10 
   8  -3   1    2.70    0.10 
   8  -3   1    2.69    0.09 
   8   2  -1    2.69    0.14 
   8   2  -1    3.19    0.12 
   8   2  -1    3.10    0.11 
   8   2  -1    2.99    0.11 
   8   2  -1    3.13    0.10 
  -8  -2   1    3.09    0.10 
   7   2  -1    4.59    0.16 
   7   2  -1    4.90    0.18 
   7   2  -1    4.61    0.15 
   7   2  -1    4.81    0.18 
  -7  -2   1    4.43    0.15 
   6   2  -1    0.32    0.08 
  -6  -2   1    0.27    0.06 
  -6  -2   1    0.35    0.05 
   5   2  -1   43.67    1.41 
   5   2  -1   48.11    1.41 
   5   2  -1   44.42    1.42 
  -5  -2   1   46.23    1.41 
  -5  -2   1   46.09    1.41 
  -5  -2   1   47.05    1.41 
   4   2  -1   39.30    1.16 
   4   2  -1   35.88    1.17 
   4   2  -1   38.37    1.16 
  -4  -2   1   38.30    1.17 
  -4  -2   1   38.27    1.17 
   3   2  -1   27.09    0.82 
   3   2  -1   26.43    0.82 
   3   2  -1   26.16    0.81 
  -3  -2   1   26.36    0.82 
  -3  -2   1   27.26    0.82 
  -3  -2   1   26.34    0.82 
  -3  -2   1   26.94    0.83 
   2   2  -1   37.08    1.11 
  -2  -2   1   35.03    1.11 
  -2  -2   1   35.69    1.11 
  -2  -2   1   37.27    1.12 
  -2  -2   1   36.03    1.11 
   1   2  -1   40.01    1.23 
   1   2  -1   41.19    1.24 
  -1  -2   1   41.42    1.23 
  -1  -2   1   40.18    1.24 
  -1  -2   1   39.46    1.23 
   0  -2   1   29.58    0.91 
  -1   2  -1    0.62    0.02 
  -1   2  -1    0.55    0.02 
   1  -2   1    0.58    0.02 
   1  -2   1    0.59    0.02 
   1  -2   1    0.61    0.02 
   1  -2   1    0.57    0.02 
  -2   2  -1    0.16    0.02 
  -2   2  -1    0.13    0.03 
   2  -2   1    0.17    0.02 
   2  -2   1    0.11    0.02 
  -3   2  -1    0.11    0.02 
  -3   2  -1    0.13    0.02 
  -3   2  -1    0.16    0.03 
  -3   2  -1    0.15    0.03 
   3  -2   1    0.19    0.03 
  -4   2  -1   91.89    2.89 
  -4   2  -1   96.08    2.88 
  -4   2  -1   89.64    2.89 
  -4   2  -1   92.83    2.88 
   4  -2   1   99.64    2.89 
   4  -2   1   96.47    2.88 
  -5   2  -1    9.57    0.31 
  -5   2  -1    9.57    0.30 
  -5   2  -1    9.76    0.31 
   5  -2   1    9.76    0.31 
   5  -2   1    9.49    0.30 
  -6   2  -1    6.42    0.22 
  -6   2  -1    7.15    0.24 
  -6   2  -1    6.57    0.23 
   6  -2   1    7.01    0.24 
   6  -2   1    6.76    0.22 
  -7   2  -1    2.57    0.11 
  -7   2  -1    2.88    0.11 
   7  -2   1    2.58    0.09 
   7  -2   1    2.70    0.10 
   7  -2   1    2.75    0.13 
  -8   2  -1    4.11    0.14 
  -8   2  -1    4.11    0.14 
  -8   2  -1    4.17    0.14 
   8  -2   1    3.99    0.13 
   9   1  -1    1.28    0.06 
   9   1  -1    1.36    0.05 
   9   1  -1    1.42    0.06 
  -9  -1   1    1.41    0.06 
  -9  -1   1    1.25    0.07 
   8   1  -1    2.65    0.09 
   8   1  -1    2.59    0.10 
   8   1  -1    2.93    0.17 
  -8  -1   1    2.71    0.11 
  -8  -1   1    2.65    0.10 
   7   1  -1   54.33    1.67 
   7   1  -1   56.11    1.67 
   7   1  -1   53.82    1.68 
  -7  -1   1   55.58    1.67 
  -7  -1   1   53.24    1.67 
   6   1  -1    1.62    0.06 
   6   1  -1    1.45    0.10 
  -6  -1   1    1.56    0.08 
  -6  -1   1    1.57    0.09 
  -6  -1   1    1.62    0.07 
   5   1  -1    6.53    0.21 
   5   1  -1    6.53    0.21 
  -5  -1   1    6.60    0.22 
  -5  -1   1    6.73    0.22 
  -5  -1   1    6.63    0.21 
   4   1  -1    8.96    0.27 
  -4  -1   1    8.47    0.27 
  -4  -1   1    8.46    0.28 
  -4  -1   1    9.22    0.28 
   3   1  -1   23.18    0.70 
  -3  -1   1   22.81    0.70 
  -3  -1   1   22.15    0.71 
  -3  -1   1   23.68    0.70 
  -3  -1   1   21.87    0.70 
   2   1  -1    1.39    0.05 
   2   1  -1    1.52    0.05 
  -2  -1   1    1.52    0.05 
  -2  -1   1    1.40    0.06 
  -2  -1   1    1.42    0.05 
  -2  -1   1    1.51    0.05 
   1   1  -1  494.96   15.30 
   1   1  -1  485.81   15.31 
   1   1  -1  507.40   15.30 
   1   1  -1  515.01   15.31 
   1   1  -1  479.37   15.32 
  -1  -1   1  506.00   15.30 
  -1  -1   1  504.37   15.31 
  -1  -1   1  515.01   15.32 
  -1  -1   1  507.87   15.30 
  -1  -1   1  505.31   15.30 
   0  -1   1    0.14    0.01 
  -1   1  -1   20.03    0.65 
  -1   1  -1   21.48    0.65 
   1  -1   1   21.11    0.65 
   1  -1   1   20.65    0.65 
   1  -1   1   22.20    0.65 
   1  -1   1   21.44    0.65 
  -2   1  -1  954.40   29.32 
  -2   1  -1  967.89   29.35 
  -2   1  -1 1000.00   29.32 
   2  -1   1  962.23   29.31 
   2  -1   1  937.64   29.32 
   2  -1   1  948.24   29.32 
  -3   1  -1    1.20    0.07 
  -3   1  -1    1.27    0.04 
  -3   1  -1    1.17    0.05 
  -3   1  -1    1.27    0.05 
   3  -1   1    1.23    0.05 
   3  -1   1    1.27    0.05 
  -4   1  -1  247.44    7.56 
  -4   1  -1  242.36    7.57 
   4  -1   1  250.23    7.56 
   4  -1   1  252.30    7.57 
  -5   1  -1    0.33    0.05 
  -5   1  -1    0.35    0.05 
  -5   1  -1    0.34    0.03 
   5  -1   1    0.35    0.03 
   5  -1   1    0.32    0.05 
  -6   1  -1   21.39    0.63 
  -6   1  -1   20.86    0.64 
  -6   1  -1   20.58    0.65 
   6  -1   1   20.24    0.63 
   6  -1   1   20.01    0.65 
   6  -1   1   19.55    0.65 
  -7   1  -1    7.87    0.25 
  -7   1  -1    7.17    0.25 
   7  -1   1    7.77    0.24 
   7  -1   1    7.66    0.27 
  -8   1  -1    0.09    0.03 
  -8   1  -1    0.12    0.03 
   8  -1   1    0.16    0.06 
   8  -1   1    0.07    0.03 
   9   0  -1    0.33    0.04 
   9   0  -1    0.29    0.03 
   9   0  -1    0.33    0.04 
  -9   0   1    0.25    0.04 
   8   0  -1    0.51    0.04 
   8   0  -1    0.53    0.05 
  -8   0   1    0.55    0.06 
   7   0  -1   22.45    0.66 
  -7   0   1   21.41    0.67 
  -7   0   1   21.15    0.66 
  -7   0   1   20.82    0.67 
  -7   0   1   20.56    0.67 
   6   0  -1   23.73    0.80 
   6   0  -1   26.58    0.79 
  -6   0   1   26.16    0.80 
  -6   0   1   25.65    0.80 
  -6   0   1   26.70    0.80 
   5   0  -1   55.18    1.72 
   5   0  -1   57.70    1.72 
  -5   0   1   55.90    1.73 
  -5   0   1   55.63    1.73 
  -5   0   1   57.56    1.73 
   4   0  -1    7.73    0.25 
   4   0  -1    8.00    0.25 
   4   0  -1    7.83    0.25 
  -4   0   1    8.06    0.25 
  -4   0   1    7.88    0.25 
   3   0  -1   56.08    1.68 
  -3   0   1   52.58    1.69 
  -3   0   1   55.85    1.68 
  -3   0   1   55.18    1.68 
   2   0  -1   18.81    0.57 
   2   0  -1   18.70    0.58 
  -2   0   1   18.27    0.57 
  -2   0   1   18.37    0.57 
  -2   0   1   19.10    0.58 
  -2   0   1   18.95    0.57 
   1   0  -1    4.39    0.14 
   1   0  -1    4.41    0.14 
   1   0  -1    4.32    0.14 
   1   0  -1    4.60    0.14 
  -1   0   1    4.53    0.14 
  -1   0   1    4.60    0.14 
  -1   0   1    4.64    0.14 
  -1   0   1    4.30    0.14 
  -1   0   1    4.56    0.14 
   0   0  -1    4.30    0.13 
   0   0  -1    4.59    0.13 
   0   0  -1    4.16    0.13 
   0   0  -1    4.00    0.13 
   0   0   1    4.12    0.13 
   0   0   1    4.10    0.13 
   0   0   1    4.19    0.13 
   0   0   1    3.93    0.13 
   0   0   1    4.16    0.13 
  -1   0  -1   35.77    1.09 
  -1   0  -1   36.30    1.09 
  -1   0  -1   35.48    1.09 
  -1   0  -1   35.52    1.09 
   1   0   1   34.64    1.09 
   1   0   1   34.13    1.09 
   1   0   1   35.29    1.09 
   1   0   1   35.12    1.09 
   1   0   1   37.61    1.09 
  -2   0  -1  234.21    6.95 
  -2   0  -1  214.49    6.96 
  -2   0  -1  230.99    6.95 
   2   0   1  226.38    6.95 
   2   0   1  231.25    6.95 
   2   0   1  230.50    6.95 
  -3   0  -1   39.57    1.15 
  -3   0  -1   35.84    1.15 
  -3   0  -1   37.50    1.17 
  -4   0  -1    0.13    0.02 
  -4   0  -1    0.11    0.03 
  -4   0  -1    0.11    0.03 
   4   0   1    0.12    0.04 
   4   0   1    0.12    0.02 
  -5   0  -1   13.98    0.46 
  -5   0  -1   15.13    0.46 
  -5   0  -1   15.05    0.45 
   5   0   1   13.59    0.47 
   5   0   1   15.41    0.45 
   5   0   1   14.37    0.46 
  -6   0  -1    0.45    0.06 
  -6   0  -1    0.51    0.05 
  -6   0  -1    0.46    0.07 
  -6   0  -1    0.55    0.08 
   6   0   1    0.55    0.08 
   6   0   1    0.51    0.04 
  -7   0  -1    2.89    0.12 
   7   0   1    2.88    0.10 
   7   0   1    2.86    0.13 
   7   0   1    2.90    0.11 
  -8   0  -1    0.24    0.05 
  -8   0  -1    0.27    0.05 
   8   0   1    0.29    0.08 
   8   0   1    0.28    0.03 
   9  -1  -1    1.45    0.05 
   9  -1  -1    1.54    0.06 
  -9   1   1    1.53    0.07 
  -9   1   1    1.37    0.07 
   8  -1  -1    0.33    0.03 
   8  -1  -1    0.39    0.05 
  -8   1   1    0.27    0.04 
  -8   1   1    0.28    0.04 
   7  -1  -1    2.39    0.09 
  -7   1   1    2.42    0.12 
  -7   1   1    2.29    0.10 
  -7   1   1    2.43    0.11 
   6  -1  -1   22.36    0.69 
   6  -1  -1   22.48    0.71 
  -6   1   1   22.42    0.70 
  -6   1   1   22.67    0.70 
  -6   1   1   22.38    0.69 
   5  -1  -1    0.79    0.04 
   5  -1  -1    0.73    0.06 
   5  -1  -1    0.86    0.04 
  -5   1   1    0.73    0.04 
  -5   1   1    0.72    0.05 
  -5   1   1    0.74    0.05 
  -5   1   1    0.77    0.04 
   4  -1  -1   25.87    0.82 
   4  -1  -1   27.38    0.82 
  -4   1   1   27.37    0.82 
  -4   1   1   26.31    0.82 
  -4   1   1   26.21    0.82 
   3  -1  -1   50.39    1.53 
   3  -1  -1   48.99    1.53 
  -3   1   1   49.34    1.54 
  -3   1   1   50.60    1.52 
   2  -1  -1   24.69    0.76 
   2  -1  -1   24.57    0.76 
   2  -1  -1   23.63    0.76 
  -2   1   1   25.34    0.77 
  -2   1   1   25.92    0.76 
  -2   1   1   24.75    0.76 
   1  -1  -1    3.34    0.11 
   1  -1  -1    3.44    0.11 
   1  -1  -1    3.40    0.11 
   1  -1  -1    3.39    0.11 
   1  -1  -1    3.53    0.11 
  -1   1   1    3.48    0.11 
  -1   1   1    3.62    0.11 
  -1   1   1    3.38    0.11 
  -1   1   1    3.32    0.11 
  -1   1   1    3.46    0.11 
   0  -1  -1   24.39    0.73 
   0  -1  -1   23.57    0.73 
   0  -1  -1   24.22    0.73 
   0  -1  -1   23.17    0.73 
   0   1   1   23.75    0.73 
   0   1   1   23.58    0.73 
   0   1   1   23.85    0.73 
   0   1   1   24.76    0.73 
  -1  -1  -1   92.77    2.87 
  -1  -1  -1   93.70    2.87 
  -1  -1  -1   96.04    2.87 
   1   1   1   92.89    2.87 
   1   1   1   91.47    2.87 
   1   1   1   96.94    2.87 
  -2  -1  -1  117.95    3.47 
  -2  -1  -1  111.32    3.47 
  -2  -1  -1  114.07    3.47 
   2   1   1  110.91    3.47 
  -3  -1  -1    8.01    0.26 
  -3  -1  -1    8.34    0.26 
  -3  -1  -1    8.71    0.26 
  -3  -1  -1    8.15    0.28 
   3   1   1    8.30    0.26 
  -4  -1  -1    0.68    0.04 
  -4  -1  -1    0.57    0.05 
  -4  -1  -1    0.59    0.04 
   4   1   1    0.64    0.03 
  -5  -1  -1   58.16    1.76 
  -5  -1  -1   59.16    1.77 
  -5  -1  -1   54.03    1.76 
   5   1   1   59.61    1.76 
   5   1   1   56.21    1.77 
  -6  -1  -1    1.36    0.07 
  -6  -1  -1    1.41    0.08 
   6   1   1    1.39    0.06 
   6   1   1    1.30    0.09 
  -7  -1  -1    0.58    0.05 
   7   1   1    0.52    0.05 
   7   1   1    0.55    0.04 
   7   1   1    0.55    0.08 
   8   1   1    0.49    0.04 
   8   1   1    0.44    0.04 
   8   1   1    0.45    0.03 
   9  -2  -1    8.65    0.27 
   9  -2  -1    8.62    0.26 
  -9   2   1    8.55    0.27 
  -9   2   1    8.56    0.27 
  -9   2   1    8.03    0.27 
   8  -2  -1    0.41    0.03 
  -8   2   1    0.29    0.06 
  -8   2   1    0.33    0.06 
   7  -2  -1    5.42    0.21 
  -7   2   1    5.77    0.19 
  -7   2   1    5.88    0.21 
  -7   2   1    6.28    0.21 
   6  -2  -1   14.00    0.46 
   6  -2  -1   14.74    0.44 
  -6   2   1   13.02    0.44 
  -6   2   1   14.54    0.45 
  -6   2   1   14.61    0.46 
  -6   2   1   14.35    0.44 
   5  -2  -1   14.06    0.42 
   5  -2  -1   13.39    0.43 
  -5   2   1   13.25    0.43 
  -5   2   1   14.15    0.42 
  -5   2   1   13.46    0.43 
   4  -2  -1    0.14    0.02 
  -4   2   1    0.13    0.02 
  -4   2   1    0.18    0.03 
  -4   2   1    0.13    0.03 
   3  -2  -1   51.66    1.60 
   3  -2  -1   52.77    1.60 
  -3   2   1   52.19    1.60 
  -3   2   1   51.91    1.61 
   2  -2  -1  175.34    5.27 
   2  -2  -1  166.73    5.27 
  -2   2   1  176.10    5.28 
  -2   2   1  172.88    5.27 
   1  -2  -1    0.15    0.02 
   1  -2  -1    0.13    0.01 
   1  -2  -1    0.13    0.02 
   1  -2  -1    0.14    0.02 
   1  -2  -1    0.14    0.01 
  -1   2   1    0.15    0.01 
  -1   2   1    0.17    0.02 
   0  -2  -1  335.63    9.96 
   0  -2  -1  300.91    9.96 
   0  -2  -1  328.77    9.96 
   0  -2  -1  323.88    9.96 
   0   2   1  344.55    9.96 
  -1  -2  -1  114.51    3.39 
  -1  -2  -1  111.74    3.39 
  -1  -2  -1  106.68    3.39 
   1   2   1  111.59    3.39 
  -2  -2  -1    8.44    0.26 
  -2  -2  -1    8.52    0.26 
  -2  -2  -1    8.15    0.26 
   2   2   1    8.34    0.26 
  -3  -2  -1    6.30    0.20 
  -3  -2  -1    6.20    0.20 
   3   2   1    6.10    0.19 
  -4  -2  -1   24.95    0.80 
  -4  -2  -1   25.40    0.79 
   4   2   1   27.00    0.79 
  -5  -2  -1    1.21    0.07 
  -5  -2  -1    1.22    0.06 
   5   2   1    1.39    0.09 
   5   2   1    1.23    0.05 
  -6  -2  -1    2.87    0.11 
  -6  -2  -1    2.91    0.12 
   6   2   1    3.15    0.13 
  -7  -2  -1    2.75    0.10 
   7   2   1    2.53    0.11 
   7   2   1    2.71    0.10 
   7   2   1    2.95    0.13 
   7   2   1    2.75    0.09 
   7   2   1    2.67    0.10 
  -8  -2  -1    5.77    0.18 
   8   2   1    5.72    0.19 
   8   2   1    5.72    0.18 
   8   2   1    5.88    0.18 
   9  -3  -1    0.11    0.02 
  -9   3   1    0.13    0.03 
  -9   3   1    0.12    0.03 
  -9   3   1    0.10    0.03 
  -9   3   1    0.18    0.03 
   8  -3  -1    3.21    0.10 
   8  -3  -1    3.01    0.11 
  -8   3   1    3.08    0.12 
  -8   3   1    3.25    0.12 
  -8   3   1    3.00    0.11 
   7  -3  -1    7.87    0.25 
   7  -3  -1    7.59    0.27 
  -7   3   1    7.55    0.25 
  -7   3   1    8.14    0.26 
  -7   3   1    7.36    0.27 
  -7   3   1    7.84    0.25 
   6  -3  -1    1.20    0.08 
   6  -3  -1    1.08    0.05 
  -6   3   1    1.16    0.07 
  -6   3   1    1.07    0.06 
  -6   3   1    1.02    0.08 
  -6   3   1    1.15    0.06 
   5  -3  -1   33.58    1.02 
   5  -3  -1   33.17    1.02 
  -5   3   1   32.58    1.02 
  -5   3   1   33.41    1.02 
  -5   3   1   32.26    1.02 
  -5   3   1   33.45    1.01 
   4  -3  -1   12.35    0.38 
   4  -3  -1   12.46    0.39 
  -4   3   1   11.81    0.39 
  -4   3   1   12.54    0.39 
  -4   3   1   12.60    0.39 
  -4   3   1   12.60    0.38 
  -4   3   1   12.63    0.39 
   3  -3  -1   34.26    1.04 
   3  -3  -1   33.17    1.03 
  -3   3   1   34.29    1.06 
  -3   3   1   33.82    1.04 
  -3   3   1   34.52    1.04 
  -3   3   1   33.04    1.04 
   2  -3  -1    2.36    0.08 
   2  -3  -1    2.58    0.08 
   2  -3  -1    2.45    0.08 
  -2   3   1    2.59    0.08 
   1  -3  -1    8.12    0.25 
   1  -3  -1    8.13    0.25 
   1  -3  -1    7.43    0.24 
  -1   3   1    8.08    0.25 
   0  -3  -1  546.35   16.62 
   0  -3  -1  535.36   16.61 
   0  -3  -1  550.03   16.61 
   0   3   1  548.99   16.62 
  -1  -3  -1    0.79    0.03 
  -1  -3  -1    0.77    0.03 
  -1  -3  -1    0.80    0.03 
  -2  -3  -1    5.31    0.16 
  -2  -3  -1    4.98    0.16 
   2   3   1    5.27    0.16 
   2   3   1    5.04    0.16 
   2   3   1    5.26    0.16 
   2   3   1    4.95    0.17 
   2   3   1    5.09    0.17 
  -3  -3  -1   23.66    0.72 
   3   3   1   23.01    0.71 
   3   3   1   22.70    0.71 
  -4  -3  -1    0.38    0.04 
   4   3   1    0.30    0.06 
   4   3   1    0.29    0.04 
  -5  -3  -1    0.65    0.06 
  -5  -3  -1    0.71    0.06 
   5   3   1    0.79    0.08 
  -6  -3  -1    0.13    0.03 
   6   3   1    0.16    0.05 
   6   3   1    0.12    0.04 
   6   3   1    0.25    0.06 
   6   3   1    0.12    0.03 
  -7  -3  -1    2.20    0.08 
   7   3   1    2.20    0.08 
   7   3   1    2.06    0.10 
   7   3   1    2.22    0.08 
   7   3   1    2.26    0.09 
   7   3   1    2.30    0.11 
  -8  -3  -1    0.32    0.03 
   8   3   1    0.29    0.03 
   8   3   1    0.36    0.02 
   8   3   1    0.38    0.04 
   9  -4  -1    0.68    0.03 
   9  -4  -1    0.68    0.04 
  -9   4   1    0.77    0.05 
  -9   4   1    0.72    0.04 
  -9   4   1    0.70    0.04 
  -9   4   1    0.58    0.05 
   8  -4  -1    0.52    0.04 
   8  -4  -1    0.55    0.05 
  -8   4   1    0.47    0.05 
  -8   4   1    0.50    0.06 
  -8   4   1    0.45    0.05 
  -8   4   1    0.50    0.06 
   7  -4  -1    1.24    0.06 
   7  -4  -1    1.39    0.07 
  -7   4   1    1.27    0.07 
  -7   4   1    1.32    0.08 
  -7   4   1    1.42    0.08 
  -7   4   1    1.28    0.07 
   6  -4  -1    2.81    0.12 
   6  -4  -1    2.90    0.10 
  -6   4   1    3.08    0.13 
  -6   4   1    2.89    0.11 
   5  -4  -1    2.24    0.10 
  -5   4   1    2.18    0.08 
  -5   4   1    2.45    0.12 
  -5   4   1    2.05    0.09 
  -5   4   1    2.40    0.09 
   4  -4  -1   64.08    1.99 
  -4   4   1   65.88    1.99 
  -4   4   1   63.42    1.99 
  -4   4   1   66.60    1.99 
   3  -4  -1    0.68    0.04 
   3  -4  -1    0.66    0.03 
  -3   4   1    0.67    0.04 
  -3   4   1    0.76    0.04 
   2  -4  -1    0.21    0.01 
   2  -4  -1    0.24    0.03 
   2  -4  -1    0.21    0.03 
  -2   4   1    0.17    0.03 
  -2   4   1    0.17    0.03 
  -2   4   1    0.23    0.02 
  -2   4   1    0.20    0.02 
   1  -4  -1   48.10    1.44 
   1  -4  -1   48.96    1.44 
  -1   4   1   47.05    1.44 
  -1   4   1   44.35    1.44 
   0  -4  -1   23.58    0.77 
   0  -4  -1   26.28    0.77 
   0   4   1   25.72    0.77 
   0   4   1   24.99    0.78 
   0   4   1   25.56    0.77 
  -1  -4  -1    7.73    0.24 
  -1  -4  -1    8.01    0.25 
   1   4   1    8.25    0.25 
   1   4   1    7.93    0.25 
   1   4   1    8.04    0.25 
   1   4   1    7.48    0.25 
  -2  -4  -1   73.57    2.19 
  -2  -4  -1   74.54    2.18 
   2   4   1   70.05    2.18 
   2   4   1   67.37    2.19 
   2   4   1   72.24    2.19 
  -3  -4  -1    0.52    0.03 
  -3  -4  -1    0.58    0.04 
  -3  -4  -1    0.45    0.04 
   3   4   1    0.48    0.04 
  -4  -4  -1    0.17    0.04 
   4   4   1    0.24    0.07 
  -5  -4  -1    0.98    0.07 
   5   4   1    1.02    0.09 
  -6  -4  -1    0.86    0.05 
   6   4   1    0.86    0.05 
   6   4   1    0.83    0.05 
   6   4   1    0.84    0.08 
   6   4   1    0.90    0.06 
   6   4   1    1.01    0.09 
  -7  -4  -1    7.38    0.23 
   7   4   1    7.92    0.24 
   7   4   1    7.43    0.23 
   7   4   1    7.27    0.23 
   7   4   1    7.17    0.24 
   9  -5  -1   15.59    0.48 
   9  -5  -1   15.43    0.48 
  -9   5   1   15.30    0.48 
  -9   5   1   16.06    0.48 
  -9   5   1   15.32    0.48 
   8  -5  -1    0.74    0.04 
   8  -5  -1    0.71    0.05 
  -8   5   1    0.69    0.05 
  -8   5   1    0.71    0.05 
  -8   5   1    0.85    0.05 
  -8   5   1    0.82    0.06 
   7  -5  -1    5.72    0.18 
   7  -5  -1    5.92    0.18 
  -7   5   1    5.57    0.18 
  -7   5   1    5.25    0.19 
  -7   5   1    5.71    0.19 
  -7   5   1    4.89    0.19 
   6  -5  -1    0.19    0.05 
  -6   5   1    0.11    0.04 
   5  -5  -1    2.52    0.11 
  -5   5   1    2.48    0.10 
  -5   5   1    2.67    0.10 
   4  -5  -1   20.26    0.66 
   4  -5  -1   21.43    0.67 
   4  -5  -1   21.41    0.66 
  -4   5   1   21.19    0.67 
  -4   5   1   23.04    0.66 
   3  -5  -1   23.86    0.72 
   3  -5  -1   22.80    0.72 
  -3   5   1   22.82    0.72 
  -3   5   1   23.12    0.72 
  -3   5   1   24.18    0.72 
   2  -5  -1   60.70    1.83 
   2  -5  -1   59.73    1.84 
  -2   5   1   58.00    1.84 
  -2   5   1   60.79    1.84 
  -2   5   1   60.96    1.84 
   1  -5  -1   39.91    1.25 
   1  -5  -1   42.16    1.24 
  -1   5   1   41.06    1.25 
  -1   5   1   40.48    1.25 
  -1   5   1   40.68    1.25 
  -1   5   1   39.80    1.24 
   0  -5  -1   14.48    0.43 
   0  -5  -1   13.73    0.44 
   0   5   1   13.81    0.43 
   0   5   1   14.21    0.44 
  -1  -5  -1  243.35    7.35 
  -1  -5  -1  239.66    7.36 
   1   5   1  241.78    7.36 
   1   5   1  241.99    7.37 
   1   5   1  239.42    7.36 
  -2  -5  -1   28.18    0.82 
  -2  -5  -1   26.07    0.83 
  -2  -5  -1   25.66    0.82 
   2   5   1   26.47    0.82 
   2   5   1   26.80    0.82 
   2   5   1   27.26    0.83 
  -3  -5  -1    7.72    0.24 
  -3  -5  -1    7.73    0.25 
  -3  -5  -1    7.17    0.24 
   3   5   1    7.52    0.26 
   3   5   1    7.53    0.24 
  -4  -5  -1    0.50    0.06 
   4   5   1    0.55    0.08 
  -5  -5  -1   14.81    0.47 
  -5  -5  -1   14.73    0.46 
   5   5   1   15.18    0.47 
   5   5   1   15.23    0.48 
   5   5   1   14.80    0.47 
   5   5   1   15.26    0.46 
  -6  -5  -1   10.33    0.32 
   6   5   1   10.21    0.31 
   6   5   1    9.57    0.33 
   6   5   1   10.07    0.32 
   6   5   1    9.94    0.32 
   6   5   1   10.51    0.32 
  -7  -5  -1    2.32    0.08 
   7   5   1    2.23    0.07 
   7   5   1    2.20    0.10 
   7   5   1    2.19    0.09 
   8  -6  -1    2.21    0.08 
   8  -6  -1    2.20    0.08 
  -8   6   1    2.21    0.09 
  -8   6   1    2.17    0.08 
  -8   6   1    2.31    0.09 
  -8   6   1    2.28    0.08 
  -8   6   1    2.17    0.08 
   7  -6  -1    3.95    0.14 
   7  -6  -1    4.16    0.13 
  -7   6   1    4.07    0.14 
  -7   6   1    3.83    0.14 
  -7   6   1    3.84    0.14 
  -7   6   1    4.13    0.14 
  -7   6   1    4.02    0.14 
   6  -6  -1   13.23    0.44 
  -6   6   1   14.08    0.43 
   5  -6  -1    0.47    0.06 
   5  -6  -1    0.63    0.06 
  -5   6   1    0.50    0.06 
  -5   6   1    0.46    0.05 
   4  -6  -1    8.02    0.26 
   4  -6  -1    7.90    0.25 
   4  -6  -1    7.84    0.25 
  -4   6   1    8.17    0.26 
  -4   6   1    8.08    0.26 
   3  -6  -1   43.39    1.34 
   3  -6  -1   44.75    1.34 
   3  -6  -1   42.83    1.34 
  -3   6   1   43.96    1.35 
  -3   6   1   43.83    1.34 
   2  -6  -1    2.99    0.11 
   2  -6  -1    3.12    0.10 
   2  -6  -1    2.83    0.10 
  -2   6   1    3.17    0.12 
  -2   6   1    3.08    0.10 
  -2   6   1    3.03    0.11 
   1  -6  -1   11.37    0.35 
  -1   6   1   11.35    0.36 
  -1   6   1   11.41    0.36 
   0  -6  -1    0.23    0.02 
   0  -6  -1    0.23    0.02 
   0   6   1    0.21    0.03 
   0   6   1    0.21    0.05 
  -1  -6  -1    9.13    0.28 
  -1  -6  -1    8.50    0.28 
   1   6   1    8.87    0.30 
   1   6   1    9.22    0.28 
   1   6   1    8.96    0.28 
  -2  -6  -1    0.18    0.03 
   2   6   1    0.19    0.05 
   2   6   1    0.18    0.03 
   2   6   1    0.21    0.04 
  -3  -6  -1    0.03    0.04 
  -3  -6  -1    0.04    0.02 
  -3  -6  -1    0.04    0.02 
   3   6   1    0.03    0.03 
  -4  -6  -1    0.45    0.05 
  -4  -6  -1    0.44    0.05 
   4   6   1    0.45    0.04 
   4   6   1    0.45    0.09 
   4   6   1    0.48    0.06 
   4   6   1    0.40    0.06 
  -5  -6  -1    5.34    0.17 
  -5  -6  -1    5.30    0.17 
   5   6   1    5.49    0.17 
   5   6   1    5.33    0.18 
   5   6   1    5.17    0.18 
   5   6   1    5.01    0.20 
  -6  -6  -1   14.50    0.44 
   6   6   1   14.22    0.44 
   6   6   1   13.42    0.44 
   6   6   1   14.46    0.44 
   8  -7  -1    0.52    0.04 
   8  -7  -1    0.56    0.03 
  -8   7   1    0.53    0.05 
  -8   7   1    0.56    0.05 
  -8   7   1    0.51    0.04 
  -8   7   1    0.59    0.05 
   7  -7  -1    5.12    0.17 
   7  -7  -1    5.31    0.16 
  -7   7   1    4.94    0.17 
  -7   7   1    5.02    0.17 
  -7   7   1    5.00    0.17 
   6  -7  -1    1.03    0.05 
   6  -7  -1    0.92    0.06 
  -6   7   1    1.19    0.07 
  -6   7   1    1.12    0.07 
  -6   7   1    1.12    0.06 
   5  -7  -1    0.07    0.03 
  -5   7   1    0.11    0.04 
  -5   7   1    0.06    0.04 
   4  -7  -1    0.70    0.05 
   4  -7  -1    0.75    0.04 
  -4   7   1    0.81    0.06 
   3  -7  -1    0.36    0.03 
   3  -7  -1    0.37    0.04 
  -3   7   1    0.45    0.05 
  -3   7   1    0.39    0.04 
   2  -7  -1    0.40    0.03 
   2  -7  -1    0.40    0.03 
  -2   7   1    0.32    0.05 
  -2   7   1    0.31    0.04 
   1  -7  -1   11.52    0.35 
   1  -7  -1   11.35    0.35 
  -1   7   1   11.02    0.36 
  -1   7   1   10.87    0.35 
   0  -7  -1   27.96    0.83 
   0  -7  -1   28.12    0.83 
   0   7   1   27.06    0.83 
   0   7   1   25.87    0.84 
   0   7   1   26.06    0.83 
  -1  -7  -1    3.97    0.13 
  -1  -7  -1    3.84    0.13 
   1   7   1    4.15    0.16 
   1   7   1    3.77    0.14 
   1   7   1    3.86    0.13 
  -2  -7  -1   19.21    0.59 
  -2  -7  -1   19.42    0.59 
   2   7   1   17.77    0.61 
   2   7   1   20.62    0.60 
  -3  -7  -1   72.85    2.20 
  -3  -7  -1   70.95    2.20 
   3   7   1   70.94    2.21 
   3   7   1   75.06    2.20 
   3   7   1   70.75    2.21 
  -4  -7  -1    2.80    0.10 
  -4  -7  -1    2.94    0.10 
   4   7   1    2.81    0.11 
   4   7   1    3.09    0.10 
   4   7   1    2.89    0.11 
  -5  -7  -1    4.52    0.15 
  -5  -7  -1    4.56    0.15 
   5   7   1    4.37    0.15 
   5   7   1    4.67    0.15 
   7  -8  -1    2.13    0.08 
   7  -8  -1    2.19    0.08 
  -7   8   1    2.27    0.08 
  -7   8   1    2.30    0.09 
  -7   8   1    2.24    0.09 
  -7   8   1    2.21    0.09 
   6  -8  -1    8.58    0.28 
   6  -8  -1    8.34    0.28 
  -6   8   1    9.29    0.28 
  -6   8   1    9.02    0.29 
  -6   8   1    8.81    0.29 
  -6   8   1    9.10    0.28 
   5  -8  -1    0.28    0.05 
   5  -8  -1    0.37    0.04 
  -5   8   1    0.32    0.05 
  -5   8   1    0.28    0.06 
  -5   8   1    0.41    0.07 
  -5   8   1    0.30    0.04 
  -5   8   1    0.31    0.06 
  -5   8   1    0.31    0.07 
   4  -8  -1    4.65    0.15 
  -4   8   1    4.49    0.17 
   3  -8  -1    7.74    0.24 
  -3   8   1    7.23    0.25 
   2  -8  -1   24.27    0.73 
   2  -8  -1   23.02    0.73 
  -2   8   1   23.70    0.73 
   1  -8  -1    0.99    0.05 
   1  -8  -1    0.99    0.04 
  -1   8   1    1.06    0.06 
  -1   8   1    0.96    0.09 
   0  -8  -1   26.48    0.78 
   0   8   1   24.78    0.79 
   0   8   1   25.40    0.81 
  -1  -8  -1    2.01    0.07 
   1   8   1    1.87    0.09 
   1   8   1    2.15    0.12 
  -2  -8  -1    1.32    0.07 
  -2  -8  -1    1.42    0.06 
   2   8   1    1.42    0.08 
   2   8   1    1.53    0.06 
   2   8   1    1.46    0.07 
   2   8   1    1.32    0.07 
  -3  -8  -1   22.08    0.67 
  -3  -8  -1   22.09    0.67 
   3   8   1   21.91    0.67 
   3   8   1   21.87    0.68 
   3   8   1   21.52    0.68 
  -4  -8  -1    3.42    0.11 
   4   8   1    3.23    0.12 
   4   8   1    3.39    0.11 
   4   8   1    3.34    0.12 
   5   8   1    0.77    0.04 
   7  -9  -1    0.40    0.04 
   7  -9  -1    0.41    0.03 
  -7   9   1    0.42    0.05 
  -7   9   1    0.46    0.03 
  -7   9   1    0.42    0.05 
  -7   9   1    0.32    0.04 
   6  -9  -1   10.55    0.32 
  -6   9   1   10.06    0.33 
  -6   9   1   10.66    0.33 
  -6   9   1   10.22    0.32 
  -6   9   1   10.36    0.33 
   5  -9  -1   17.14    0.52 
   5  -9  -1   15.86    0.52 
  -5   9   1   16.53    0.53 
  -5   9   1   16.95    0.53 
  -5   9   1   17.56    0.53 
  -5   9   1   17.09    0.52 
  -5   9   1   16.94    0.52 
   4  -9  -1    2.21    0.08 
   4  -9  -1    2.29    0.08 
  -4   9   1    2.05    0.09 
  -4   9   1    2.11    0.09 
  -4   9   1    1.90    0.09 
  -4   9   1    2.19    0.09 
  -4   9   1    2.21    0.08 
  -4   9   1    2.13    0.09 
  -4   9   1    2.20    0.09 
   3  -9  -1    1.34    0.06 
  -3   9   1    1.42    0.08 
  -3   9   1    1.34    0.07 
  -3   9   1    1.40    0.07 
  -3   9   1    1.30    0.06 
  -3   9   1    1.32    0.07 
  -3   9   1    1.20    0.07 
  -3   9   1    1.21    0.07 
  -3   9   1    1.27    0.07 
   2  -9  -1   23.19    0.67 
  -2   9   1   21.89    0.68 
  -2   9   1   22.59    0.68 
  -2   9   1   21.09    0.68 
  -2   9   1   22.73    0.67 
  -2   9   1   22.43    0.68 
  -2   9   1   19.83    0.68 
  -2   9   1   21.35    0.68 
   1  -9  -1   12.13    0.37 
  -1   9   1   11.93    0.37 
  -1   9   1   11.70    0.37 
  -1   9   1   11.34    0.37 
  -1   9   1   12.46    0.37 
  -1   9   1   11.48    0.37 
  -1   9   1   11.47    0.37 
   0  -9  -1    4.88    0.16 
   0   9   1    5.10    0.16 
   0   9   1    5.10    0.17 
   0   9   1    5.05    0.17 
   0   9   1    4.75    0.16 
   0   9   1    4.54    0.17 
   0   9   1    4.59    0.17 
  -1  -9  -1   14.35    0.44 
   1   9   1   14.43    0.44 
   1   9   1   13.54    0.45 
   1   9   1   14.36    0.45 
   1   9   1   14.58    0.44 
  -2  -9  -1    5.89    0.19 
  -2  -9  -1    5.95    0.19 
   2   9   1    5.43    0.19 
   2   9   1    6.13    0.19 
   2   9   1    5.78    0.19 
   2   9   1    5.96    0.19 
  -3  -9  -1    5.85    0.18 
   3   9   1    5.64    0.19 
   3   9   1    5.74    0.19 
   3   9   1    6.04    0.18 
  -4  -9  -1    0.30    0.03 
   4   9   1    0.34    0.02 
   6 -10  -1    7.12    0.22 
   6 -10  -1    6.89    0.22 
  -6  10   1    7.11    0.22 
  -6  10   1    6.86    0.22 
  -6  10   1    6.86    0.22 
  -6  10   1    7.38    0.22 
   5 -10  -1    0.82    0.04 
  -5  10   1    0.89    0.06 
  -5  10   1    0.89    0.05 
  -5  10   1    0.93    0.06 
  -5  10   1    0.98    0.06 
  -5  10   1    0.79    0.04 
   4 -10  -1    0.43    0.04 
  -4  10   1    0.43    0.05 
  -4  10   1    0.37    0.05 
  -4  10   1    0.42    0.04 
  -4  10   1    0.46    0.06 
  -4  10   1    0.36    0.05 
  -4  10   1    0.36    0.05 
  -4  10   1    0.39    0.05 
   3 -10  -1    0.91    0.05 
   3 -10  -1    0.99    0.05 
  -3  10   1    1.01    0.06 
  -3  10   1    1.09    0.06 
  -3  10   1    0.97    0.07 
  -3  10   1    0.88    0.06 
  -3  10   1    0.86    0.06 
  -3  10   1    0.89    0.06 
   2 -10  -1   15.94    0.49 
  -2  10   1   15.86    0.50 
  -2  10   1   15.97    0.49 
  -2  10   1   16.10    0.50 
  -2  10   1   15.67    0.50 
  -2  10   1   15.54    0.50 
  -2  10   1   16.23    0.50 
  -2  10   1   15.95    0.49 
   1 -10  -1   10.41    0.32 
  -1  10   1   10.29    0.33 
  -1  10   1   10.39    0.33 
  -1  10   1   10.24    0.33 
  -1  10   1   10.19    0.33 
  -1  10   1   10.58    0.33 
  -1  10   1   10.49    0.32 
   0 -10  -1    8.43    0.27 
   0 -10  -1    8.44    0.26 
   0  10   1    8.31    0.27 
   0  10   1    8.62    0.27 
   0  10   1    8.40    0.27 
   0  10   1    8.74    0.27 
   0  10   1    8.35    0.27 
   0  10   1    8.54    0.27 
   1  10   1    0.02    0.03 
   1  10   1    0.06    0.02 
   1  10   1    0.01    0.03 
   1  10   1    0.05    0.03 
  -2 -10  -1    5.53    0.17 
   2  10   1    5.38    0.18 
   2  10   1    5.42    0.17 
   2  10   1    5.47    0.18 
   2  10   1    5.47    0.17 
   4 -11  -1    8.61    0.26 
  -4  11   1    8.18    0.26 
  -4  11   1    8.22    0.26 
  -4  11   1    8.25    0.26 
  -4  11   1    8.66    0.26 
   3 -11  -1    0.02    0.02 
  -3  11   1    0.04    0.02 
  -3  11   1    0.01    0.02 
  -3  11   1    0.07    0.02 
  -3  11   1    0.06    0.03 
  -3  11   1    0.00    0.03 
  -3  11   1    0.03    0.02 
   2 -11  -1    0.10    0.02 
  -2  11   1    0.14    0.03 
  -2  11   1    0.16    0.03 
  -2  11   1    0.20    0.04 
  -2  11   1    0.13    0.03 
  -2  11   1    0.20    0.04 
   1 -11  -1    3.84    0.12 
  -1  11   1    3.92    0.13 
  -1  11   1    3.61    0.13 
  -1  11   1    3.88    0.13 
  -1  11   1    3.83    0.13 
  -1  11   1    3.81    0.12 
  -1  11   1    3.70    0.13 
   0 -11  -1    0.73    0.04 
   0  11   1    0.76    0.05 
   0  11   1    0.70    0.05 
   0  11   1    0.73    0.04 
   0  11   1    0.65    0.05 
   0  11   1    0.72    0.04 
  -1  12  -2    0.75    0.04 
  -1  12  -2    0.79    0.04 
  -1  12  -2    0.77    0.05 
  -1  12  -2    0.83    0.05 
   2  11  -2    3.32    0.11 
   2  11  -2    3.06    0.11 
   2  11  -2    2.97    0.10 
   1  11  -2    0.90    0.05 
   1  11  -2    0.90    0.05 
   1  11  -2    0.92    0.04 
   0  11  -2    1.10    0.06 
   0  11  -2    1.03    0.05 
   0  11  -2    1.04    0.06 
  -1  11  -2    0.53    0.05 
  -1  11  -2    0.60    0.05 
  -1  11  -2    0.62    0.05 
  -1  11  -2    0.67    0.04 
  -1  11  -2    0.54    0.05 
  -2  11  -2    1.26    0.06 
  -2  11  -2    1.24    0.06 
  -2  11  -2    1.26    0.06 
  -2  11  -2    1.24    0.06 
  -3  11  -2    2.72    0.10 
  -3  11  -2    2.60    0.10 
  -3  11  -2    2.77    0.10 
  -3  11  -2    2.65    0.10 
  -4  11  -2    1.53    0.07 
  -4  11  -2    1.38    0.06 
  -4  11  -2    1.46    0.07 
  -4  11  -2    1.47    0.07 
  -4  11  -2    1.40    0.06 
  -4  11  -2    1.48    0.06 
   4 -11   2    1.51    0.06 
   3  10  -2    2.52    0.09 
   3  10  -2    2.44    0.09 
   3  10  -2    2.17    0.08 
   2  10  -2    0.39    0.04 
   2  10  -2    0.37    0.05 
   2  10  -2    0.44    0.05 
  -2 -10   2    0.42    0.04 
   1  10  -2    4.29    0.14 
   1  10  -2    4.19    0.14 
   1  10  -2    4.29    0.15 
   0  10  -2    0.80    0.06 
   0  10  -2    0.72    0.10 
   0  10  -2    0.79    0.05 
   0  10  -2    0.65    0.06 
   0 -10   2    0.81    0.04 
  -1  10  -2    0.39    0.04 
  -1  10  -2    0.41    0.06 
  -1  10  -2    0.51    0.06 
  -1  10  -2    0.43    0.06 
  -1  10  -2    0.46    0.06 
   1 -10   2    0.37    0.04 
  -2  10  -2    6.74    0.22 
  -2  10  -2    6.38    0.21 
  -2  10  -2    6.42    0.21 
  -2  10  -2    6.56    0.21 
  -2  10  -2    6.36    0.22 
   2 -10   2    6.63    0.21 
  -3  10  -2    4.29    0.15 
  -3  10  -2    4.37    0.15 
  -3  10  -2    4.43    0.14 
  -3  10  -2    4.31    0.15 
  -3  10  -2    4.48    0.15 
  -3  10  -2    4.29    0.15 
   3 -10   2    4.27    0.14 
  -4  10  -2   15.14    0.47 
  -4  10  -2   15.44    0.47 
  -4  10  -2   15.22    0.47 
  -4  10  -2   14.83    0.47 
  -4  10  -2   15.71    0.47 
  -4  10  -2   14.99    0.47 
   4 -10   2   14.97    0.47 
  -5  10  -2    0.95    0.06 
  -5  10  -2    0.94    0.05 
  -5  10  -2    0.89    0.05 
  -5  10  -2    0.98    0.06 
   5 -10   2    0.90    0.05 
  -6  10  -2    0.01    0.03 
  -6  10  -2    0.03    0.03 
  -6  10  -2    0.02    0.03 
  -6  10  -2    0.04    0.03 
  -6  10  -2    0.02    0.02 
   6 -10   2    0.06    0.02 
   6 -10   2    0.05    0.02 
   5   9  -2    0.21    0.03 
   5   9  -2    0.19    0.04 
  -5  -9   2    0.18    0.03 
   4   9  -2    2.70    0.10 
   4   9  -2    2.45    0.09 
   4   9  -2    2.56    0.10 
  -4  -9   2    2.60    0.09 
   3   9  -2   13.24    0.42 
   3   9  -2   13.39    0.42 
   3   9  -2   13.57    0.42 
  -3  -9   2   13.50    0.42 
   2   9  -2    9.65    0.32 
   2   9  -2   10.08    0.32 
   2   9  -2   10.04    0.31 
  -2  -9   2   10.36    0.31 
   1   9  -2   14.58    0.45 
   1   9  -2   14.30    0.44 
   1   9  -2   14.34    0.45 
  -1  -9   2   13.93    0.44 
   0   9  -2    1.53    0.08 
   0   9  -2    1.53    0.11 
   0  -9   2    1.56    0.06 
  -1   9  -2    7.99    0.26 
   1  -9   2    7.76    0.24 
  -2   9  -2    0.29    0.06 
   2  -9   2    0.31    0.03 
  -3   9  -2    5.92    0.20 
  -3   9  -2    5.35    0.20 
  -3   9  -2    6.06    0.20 
  -3   9  -2    5.69    0.20 
  -3   9  -2    5.70    0.19 
  -3   9  -2    5.88    0.19 
  -3   9  -2    5.54    0.19 
   3  -9   2    6.03    0.18 
  -4   9  -2    0.10    0.03 
  -4   9  -2    0.05    0.03 
  -4   9  -2    0.05    0.04 
  -4   9  -2    0.07    0.04 
  -4   9  -2    0.05    0.03 
  -4   9  -2    0.06    0.02 
   4  -9   2    0.07    0.03 
  -5   9  -2    2.14    0.09 
  -5   9  -2    2.18    0.09 
  -5   9  -2    2.17    0.09 
  -5   9  -2    2.28    0.09 
  -5   9  -2    2.25    0.08 
  -5   9  -2    2.24    0.09 
  -5   9  -2    2.18    0.09 
   5  -9   2    2.15    0.08 
   5  -9   2    2.17    0.09 
  -6   9  -2    5.44    0.19 
  -6   9  -2    5.68    0.19 
  -6   9  -2    5.80    0.19 
  -6   9  -2    5.63    0.19 
  -6   9  -2    5.83    0.18 
   6  -9   2    5.82    0.18 
   6  -9   2    5.57    0.18 
   5   8  -2    1.10    0.05 
   5   8  -2    1.04    0.06 
   5   8  -2    1.00    0.10 
  -5  -8   2    1.00    0.05 
   4   8  -2   23.25    0.71 
   4   8  -2   23.95    0.72 
   4   8  -2   22.92    0.70 
   4   8  -2   22.04    0.71 
  -4  -8   2   22.48    0.70 
   3   8  -2    0.89    0.05 
   3   8  -2    0.85    0.10 
   3   8  -2    1.02    0.06 
   3   8  -2    1.16    0.07 
  -3  -8   2    1.03    0.05 
   2   8  -2   24.94    0.76 
   2   8  -2   24.48    0.78 
   2   8  -2   24.39    0.77 
  -2  -8   2   25.24    0.76 
   1   8  -2    0.52    0.09 
   1   8  -2    0.47    0.06 
   1   8  -2    0.48    0.05 
  -1  -8   2    0.45    0.03 
  -1  -8   2    0.41    0.03 
   0   8  -2   11.82    0.37 
   0  -8   2   11.46    0.36 
   1  -8   2    0.04    0.02 
  -2   8  -2   19.88    0.61 
  -2   8  -2   19.87    0.61 
   2  -8   2   19.67    0.60 
   2  -8   2   19.03    0.60 
  -3   8  -2   36.51    1.11 
   3  -8   2   34.54    1.10 
   3  -8   2   36.96    1.10 
  -4   8  -2    2.45    0.10 
  -4   8  -2    2.39    0.11 
   4  -8   2    2.71    0.09 
  -5   8  -2    0.84    0.07 
  -5   8  -2    1.00    0.05 
  -5   8  -2    1.07    0.07 
  -5   8  -2    1.11    0.06 
  -5   8  -2    1.03    0.08 
   5  -8   2    0.94    0.06 
   5  -8   2    1.05    0.06 
  -6   8  -2    7.90    0.25 
  -6   8  -2    8.07    0.26 
  -6   8  -2    8.17    0.26 
  -6   8  -2    7.52    0.25 
  -6   8  -2    7.70    0.26 
  -6   8  -2    8.02    0.26 
  -6   8  -2    7.83    0.26 
   6  -8   2    8.04    0.25 
   6  -8   2    8.05    0.25 
  -7   8  -2   14.18    0.43 
  -7   8  -2   12.93    0.43 
  -7   8  -2   13.95    0.43 
  -7   8  -2   13.61    0.43 
  -7   8  -2   13.78    0.43 
   7  -8   2   13.81    0.43 
   7  -8   2   13.55    0.42 
   7  -8   2   14.21    0.42 
   7  -8   2   13.58    0.42 
   6   7  -2    0.08    0.02 
   6   7  -2    0.08    0.03 
   6   7  -2    0.09    0.05 
  -6  -7   2    0.09    0.02 
   5   7  -2    6.47    0.22 
   5   7  -2    6.51    0.21 
   5   7  -2    6.73    0.23 
   5   7  -2    6.44    0.21 
  -5  -7   2    6.71    0.21 
  -5  -7   2    6.30    0.21 
   4   7  -2    1.14    0.07 
   4   7  -2    1.26    0.10 
   4   7  -2    1.15    0.09 
   4   7  -2    1.15    0.07 
   4   7  -2    1.16    0.06 
  -4  -7   2    1.19    0.05 
   3   7  -2   14.12    0.43 
   3   7  -2   13.61    0.43 
   3   7  -2   13.79    0.44 
   3   7  -2   13.60    0.44 
   3   7  -2   13.14    0.45 
  -3  -7   2   13.55    0.42 
  -3  -7   2   14.00    0.42 
   2   7  -2    1.39    0.09 
   2   7  -2    1.46    0.07 
   2   7  -2    1.57    0.07 
   2   7  -2    1.28    0.09 
   2   7  -2    1.50    0.09 
  -2  -7   2    1.45    0.05 
  -2  -7   2    1.39    0.05 
   1   7  -2   10.75    0.36 
   1   7  -2   11.57    0.35 
   1   7  -2   10.87    0.35 
   1   7  -2   11.10    0.36 
  -1  -7   2   10.89    0.34 
   0   7  -2   12.88    0.41 
   0  -7   2   13.30    0.40 
  -1   7  -2   19.06    0.59 
  -1   7  -2   18.84    0.59 
   1  -7   2   18.75    0.58 
  -2   7  -2    4.70    0.16 
  -2   7  -2    4.92    0.16 
   2  -7   2    4.74    0.15 
  -3   7  -2   34.49    1.08 
  -3   7  -2   35.39    1.08 
   3  -7   2   35.56    1.07 
   3  -7   2   35.00    1.07 
  -4   7  -2    0.50    0.06 
  -4   7  -2    0.57    0.05 
   4  -7   2    0.48    0.05 
   4  -7   2    0.58    0.04 
  -5   7  -2    7.61    0.25 
  -5   7  -2    7.10    0.25 
   5  -7   2    7.97    0.24 
  -6   7  -2    0.61    0.05 
  -6   7  -2    0.50    0.06 
  -6   7  -2    0.56    0.06 
  -6   7  -2    0.49    0.06 
   6  -7   2    0.57    0.05 
   6  -7   2    0.54    0.04 
   6  -7   2    0.63    0.05 
  -7   7  -2    0.12    0.03 
  -7   7  -2    0.18    0.03 
  -7   7  -2    0.12    0.03 
  -7   7  -2    0.15    0.03 
   7  -7   2    0.15    0.02 
   7  -7   2    0.19    0.03 
   7  -7   2    0.20    0.04 
   7  -7   2    0.19    0.04 
   7   6  -2    1.80    0.08 
   7   6  -2    1.59    0.06 
   7   6  -2    1.73    0.07 
  -7  -6   2    1.73    0.06 
   6   6  -2   30.77    0.98 
   6   6  -2   32.63    0.98 
   6   6  -2   31.81    0.99 
   6   6  -2   31.74    0.98 
  -6  -6   2   31.91    0.98 
  -6  -6   2   32.13    0.98 
   5   6  -2   14.31    0.46 
   5   6  -2   15.45    0.48 
   5   6  -2   14.22    0.47 
   5   6  -2   14.86    0.46 
  -5  -6   2   15.03    0.46 
   4   6  -2    0.66    0.06 
   4   6  -2    0.79    0.08 
   4   6  -2    0.75    0.09 
   4   6  -2    0.79    0.09 
   4   6  -2    0.80    0.06 
  -4  -6   2    0.75    0.04 
  -4  -6   2    0.80    0.04 
   3   6  -2   23.41    0.73 
   3   6  -2   23.50    0.74 
   3   6  -2   23.93    0.73 
   3   6  -2   23.81    0.74 
   3   6  -2   24.61    0.74 
  -3  -6   2   23.47    0.73 
  -3  -6   2   23.33    0.73 
   2   6  -2    8.50    0.27 
   2   6  -2    8.25    0.26 
   2   6  -2    8.41    0.26 
   2   6  -2    8.17    0.26 
  -2  -6   2    8.03    0.25 
  -2  -6   2    7.61    0.25 
   1   6  -2    0.49    0.04 
   1   6  -2    0.51    0.05 
   1   6  -2    0.42    0.05 
   1   6  -2    0.47    0.03 
  -1  -6   2    0.44    0.02 
   0   6  -2    3.05    0.12 
   0   6  -2    3.27    0.11 
   0   6  -2    3.27    0.11 
  -1   6  -2   14.50    0.45 
  -1   6  -2   14.60    0.45 
   1  -6   2   14.01    0.44 
  -2   6  -2   47.61    1.37 
  -2   6  -2   42.10    1.37 
  -2   6  -2   45.40    1.37 
   2  -6   2   43.88    1.37 
  -3   6  -2    0.49    0.04 
  -3   6  -2    0.60    0.04 
   3  -6   2    0.46    0.03 
   3  -6   2    0.50    0.03 
  -4   6  -2   16.21    0.53 
  -4   6  -2   16.82    0.52 
   4  -6   2   17.34    0.52 
   4  -6   2   16.94    0.52 
  -5   6  -2   10.44    0.32 
  -5   6  -2   10.04    0.33 
  -5   6  -2    9.98    0.33 
   5  -6   2    9.97    0.32 
   5  -6   2   10.33    0.32 
  -6   6  -2   23.93    0.73 
  -6   6  -2   23.01    0.73 
  -6   6  -2   24.41    0.73 
  -6   6  -2   23.78    0.73 
   6  -6   2   22.65    0.73 
   6  -6   2   24.16    0.72 
   6  -6   2   23.00    0.72 
  -7   6  -2   25.32    0.81 
  -7   6  -2   26.15    0.81 
  -7   6  -2   26.39    0.81 
  -7   6  -2   25.94    0.81 
   7  -6   2   25.83    0.80 
   7  -6   2   26.26    0.81 
   7  -6   2   27.27    0.80 
  -8   6  -2    0.07    0.03 
  -8   6  -2    0.07    0.02 
  -8   6  -2    0.06    0.03 
   8  -6   2    0.06    0.02 
   8  -6   2    0.08    0.02 
   8  -6   2    0.05    0.02 
   7   5  -2    4.77    0.19 
   7   5  -2    5.04    0.17 
   7   5  -2    5.01    0.16 
   7   5  -2    5.07    0.17 
  -7  -5   2    5.26    0.16 
   6   5  -2    0.96    0.07 
   6   5  -2    1.06    0.09 
   6   5  -2    1.03    0.09 
   6   5  -2    1.02    0.05 
  -6  -5   2    1.03    0.06 
  -6  -5   2    0.87    0.05 
   5   5  -2    1.05    0.09 
   5   5  -2    0.92    0.07 
  -5  -5   2    1.00    0.05 
   4   5  -2   11.08    0.36 
   4   5  -2   10.59    0.34 
   4   5  -2   11.18    0.35 
   4   5  -2   10.51    0.35 
   4   5  -2   10.89    0.34 
  -4  -5   2   10.74    0.34 
  -4  -5   2   10.86    0.34 
   3   5  -2    3.12    0.11 
   3   5  -2    3.15    0.12 
   3   5  -2    3.22    0.12 
   3   5  -2    3.23    0.11 
  -3  -5   2    3.19    0.10 
  -3  -5   2    3.01    0.10 
   2   5  -2   63.13    1.92 
   2   5  -2   65.19    1.92 
   2   5  -2   62.57    1.92 
   2   5  -2   60.47    1.92 
  -2  -5   2   62.12    1.91 
   1   5  -2    0.27    0.04 
   1   5  -2    0.32    0.03 
   1   5  -2    0.27    0.04 
   0   5  -2   14.70    0.45 
   0   5  -2   14.26    0.45 
   0   5  -2   15.22    0.46 
   0   5  -2   14.52    0.45 
  -1   5  -2   16.28    0.50 
  -1   5  -2   15.94    0.50 
  -1   5  -2   16.39    0.50 
   1  -5   2   16.45    0.50 
  -2   5  -2    1.70    0.07 
  -2   5  -2    1.90    0.07 
  -2   5  -2    1.81    0.07 
   2  -5   2    1.83    0.06 
  -3   5  -2    0.97    0.06 
  -3   5  -2    0.99    0.05 
  -3   5  -2    1.02    0.05 
   3  -5   2    0.87    0.05 
   3  -5   2    1.00    0.04 
  -4   5  -2   11.39    0.35 
  -4   5  -2   11.50    0.35 
  -4   5  -2   11.74    0.36 
  -4   5  -2   10.97    0.35 
   4  -5   2   11.23    0.35 
   4  -5   2   10.54    0.35 
   4  -5   2   10.96    0.36 
  -5   5  -2    0.24    0.06 
  -5   5  -2    0.33    0.05 
  -5   5  -2    0.28    0.06 
   5  -5   2    0.31    0.06 
   5  -5   2    0.28    0.04 
  -6   5  -2   15.37    0.48 
  -6   5  -2   15.71    0.48 
  -6   5  -2   15.15    0.47 
   6  -5   2   14.24    0.48 
  -7   5  -2    0.03    0.04 
  -7   5  -2    0.09    0.04 
  -7   5  -2    0.00    0.03 
  -7   5  -2    0.05    0.04 
  -7   5  -2    0.03    0.03 
   7  -5   2    0.01    0.02 
   7  -5   2    0.04    0.03 
   7  -5   2    0.03    0.03 
  -8   5  -2    0.49    0.05 
  -8   5  -2    0.48    0.04 
  -8   5  -2    0.40    0.04 
  -8   5  -2    0.38    0.05 
   8  -5   2    0.38    0.04 
   8  -5   2    0.45    0.04 
   8  -5   2    0.42    0.03 
   8   4  -2    1.21    0.07 
   8   4  -2    1.17    0.05 
   8   4  -2    0.99    0.05 
  -8  -4   2    1.10    0.05 
   7   4  -2   25.10    0.76 
   7   4  -2   24.17    0.76 
   7   4  -2   25.36    0.77 
   7   4  -2   24.22    0.76 
   7   4  -2   24.30    0.76 
  -7  -4   2   24.66    0.76 
   6   4  -2    0.30    0.04 
   6   4  -2    0.41    0.08 
   6   4  -2    0.26    0.06 
   6   4  -2    0.39    0.07 
   6   4  -2    0.38    0.06 
  -6  -4   2    0.25    0.06 
  -6  -4   2    0.31    0.04 
  -6  -4   2    0.26    0.05 
   5   4  -2   14.73    0.46 
   5   4  -2   14.32    0.46 
   5   4  -2   15.02    0.47 
  -5  -4   2   14.88    0.45 
  -5  -4   2   14.05    0.46 
   4   4  -2   56.74    1.88 
   4   4  -2   61.28    1.88 
   4   4  -2   60.08    1.87 
   4   4  -2   63.23    1.87 
   4   4  -2   61.53    1.87 
  -4  -4   2   62.13    1.86 
  -4  -4   2   61.62    1.87 
  -4  -4   2   61.68    1.86 
   3   4  -2    0.63    0.05 
   3   4  -2    0.59    0.05 
   3   4  -2    0.61    0.03 
   3   4  -2    0.61    0.03 
  -3  -4   2    0.64    0.03 
  -3  -4   2    0.61    0.04 
   2   4  -2    0.30    0.02 
   2   4  -2    0.26    0.02 
   2   4  -2    0.27    0.03 
   2   4  -2    0.24    0.03 
  -2  -4   2    0.27    0.02 
   1   4  -2    0.38    0.02 
   1   4  -2    0.35    0.03 
   1   4  -2    0.42    0.03 
   1   4  -2    0.36    0.02 
   0  -4   2   15.12    0.48 
  -1   4  -2   18.84    0.57 
   1  -4   2   18.25    0.58 
   1  -4   2   17.97    0.56 
  -2   4  -2   28.02    0.89 
  -2   4  -2   27.66    0.89 
  -2   4  -2   30.44    0.89 
  -2   4  -2   29.09    0.89 
   2  -4   2   30.21    0.89 
  -3   4  -2   16.93    0.56 
  -3   4  -2   18.65    0.56 
  -3   4  -2   19.33    0.57 
  -3   4  -2   18.65    0.56 
   3  -4   2   18.13    0.57 
   3  -4   2   17.84    0.56 
  -4   4  -2   21.37    0.64 
  -4   4  -2   20.19    0.65 
  -4   4  -2   20.31    0.64 
  -4   4  -2   20.57    0.65 
   4  -4   2   21.24    0.65 
   4  -4   2   21.24    0.64 
   4  -4   2   20.67    0.64 
  -5   4  -2   36.39    1.16 
  -5   4  -2   38.10    1.17 
  -5   4  -2   38.01    1.16 
   5  -4   2   38.02    1.16 
  -6   4  -2    9.08    0.30 
  -6   4  -2    8.75    0.30 
   6  -4   2    9.19    0.30 
  -7   4  -2    2.01    0.08 
  -7   4  -2    1.81    0.08 
  -7   4  -2    1.96    0.09 
  -7   4  -2    2.00    0.09 
  -7   4  -2    2.08    0.09 
   7  -4   2    1.98    0.07 
   7  -4   2    1.90    0.08 
   7  -4   2    1.95    0.08 
  -8   4  -2    0.20    0.03 
  -8   4  -2    0.17    0.03 
  -8   4  -2    0.14    0.03 
  -8   4  -2    0.15    0.04 
   8  -4   2    0.14    0.03 
   8  -4   2    0.18    0.03 
   8  -4   2    0.13    0.03 
   8   3  -2   11.28    0.34 
   8   3  -2   10.87    0.34 
   8   3  -2   10.88    0.35 
   8   3  -2   10.78    0.34 
  -8  -3   2   11.09    0.34 
   7   3  -2    0.95    0.06 
   7   3  -2    1.02    0.09 
   7   3  -2    0.99    0.10 
   7   3  -2    0.95    0.06 
   7   3  -2    1.05    0.05 
  -7  -3   2    0.94    0.05 
   6   3  -2    0.63    0.08 
  -6  -3   2    0.56    0.06 
   5   3  -2    9.70    0.33 
   5   3  -2   10.29    0.32 
   5   3  -2   10.05    0.33 
  -5  -3   2   10.61    0.33 
   4   3  -2    2.21    0.09 
   4   3  -2    2.28    0.08 
   4   3  -2    2.09    0.09 
  -4  -3   2    2.14    0.07 
  -4  -3   2    2.21    0.08 
  -4  -3   2    2.22    0.09 
   3   3  -2    4.81    0.16 
   3   3  -2    5.05    0.17 
   3   3  -2    5.15    0.17 
   3   3  -2    5.18    0.16 
   3   3  -2    5.12    0.16 
  -3  -3   2    4.90    0.16 
  -3  -3   2    5.00    0.16 
  -3  -3   2    5.05    0.16 
   2   3  -2   64.50    1.94 
   2   3  -2   64.72    1.95 
   2   3  -2   63.30    1.94 
  -2  -3   2   62.98    1.96 
  -2  -3   2   62.99    1.94 
  -2  -3   2   63.08    1.94 
  -1  -3   2    0.49    0.04 
   0  -3   2    9.00    0.29 
   1  -3   2    1.03    0.03 
   2  -3   2    5.09    0.16 
   2  -3   2    5.32    0.17 
   2  -3   2    5.21    0.16 
  -3   3  -2   28.10    0.90 
  -3   3  -2   29.56    0.90 
  -3   3  -2   29.31    0.90 
  -3   3  -2   30.05    0.91 
   3  -3   2   30.39    0.90 
   3  -3   2   28.83    0.90 
  -4   3  -2   94.98    2.90 
  -4   3  -2   94.19    2.91 
  -4   3  -2   92.96    2.90 
  -4   3  -2   98.32    2.91 
   4  -3   2   94.75    2.91 
  -5   3  -2    0.06    0.04 
  -5   3  -2    0.06    0.03 
   5  -3   2    0.07    0.03 
  -6   3  -2   32.18    1.01 
  -6   3  -2   33.10    1.01 
   6  -3   2   32.25    1.00 
   6  -3   2   32.18    1.01 
  -7   3  -2    0.09    0.04 
  -7   3  -2    0.08    0.03 
  -7   3  -2    0.07    0.04 
   7  -3   2    0.03    0.03 
   7  -3   2    0.09    0.02 
   7  -3   2    0.02    0.06 
   7  -3   2    0.02    0.03 
  -8   3  -2   13.32    0.42 
  -8   3  -2   13.44    0.42 
  -8   3  -2   14.10    0.43 
   8  -3   2   14.06    0.42 
   8  -3   2   13.08    0.42 
   8  -3   2   13.83    0.42 
   8   2  -2    8.11    0.25 
   8   2  -2    8.14    0.26 
   8   2  -2    8.40    0.26 
  -8  -2   2    7.70    0.26 
  -8  -2   2    8.33    0.26 
   7   2  -2    0.55    0.05 
   7   2  -2    0.56    0.04 
   7   2  -2    0.51    0.10 
   7   2  -2    0.61    0.09 
  -7  -2   2    0.70    0.07 
  -7  -2   2    0.66    0.05 
   6   2  -2    4.10    0.16 
   6   2  -2    3.94    0.14 
  -6  -2   2    3.88    0.15 
  -6  -2   2    4.03    0.15 
   5   2  -2   21.85    0.67 
  -5  -2   2   22.21    0.68 
  -5  -2   2   21.28    0.68 
   4   2  -2    0.98    0.05 
   4   2  -2    1.08    0.04 
   4   2  -2    1.13    0.04 
  -4  -2   2    1.05    0.05 
  -4  -2   2    1.16    0.05 
  -4  -2   2    1.05    0.04 
   3   2  -2  139.60    4.35 
   3   2  -2  149.16    4.35 
   3   2  -2  137.75    4.35 
   3   2  -2  146.78    4.35 
  -3  -2   2  142.71    4.35 
  -3  -2   2  144.52    4.35 
  -3  -2   2  137.90    4.35 
  -2  -2   2    1.77    0.06 
  -2  -2   2    1.90    0.06 
  -2  -2   2    1.97    0.08 
  -2  -2   2    1.87    0.06 
   1   2  -2   56.50    1.73 
   1   2  -2   56.52    1.73 
  -1  -2   2   56.98    1.74 
   0  -2   2    6.84    0.22 
  -1   2  -2  135.05    4.23 
  -1   2  -2  143.57    4.23 
   1  -2   2  134.91    4.23 
   1  -2   2  136.07    4.23 
   1  -2   2  140.62    4.23 
   1  -2   2  142.88    4.23 
  -2   2  -2    0.22    0.02 
   2  -2   2    0.24    0.01 
  -3   2  -2   63.93    1.96 
  -3   2  -2   62.82    1.95 
  -3   2  -2   63.57    1.95 
  -3   2  -2   65.48    1.95 
   3  -2   2   63.41    1.95 
   3  -2   2   62.36    1.95 
   3  -2   2   65.60    1.96 
  -4   2  -2   17.02    0.51 
  -4   2  -2   15.92    0.51 
  -4   2  -2   16.48    0.51 
  -4   2  -2   16.19    0.51 
   4  -2   2   16.40    0.51 
  -5   2  -2    0.06    0.03 
  -5   2  -2    0.05    0.02 
  -5   2  -2    0.04    0.04 
   5  -2   2    0.03    0.03 
   5  -2   2    0.03    0.02 
  -6   2  -2    0.15    0.05 
  -6   2  -2    0.13    0.03 
  -6   2  -2    0.13    0.05 
   6  -2   2    0.13    0.05 
   6  -2   2    0.13    0.03 
  -7   2  -2    0.04    0.03 
  -7   2  -2    0.07    0.04 
   7  -2   2    0.02    0.05 
   7  -2   2    0.01    0.02 
   7  -2   2    0.06    0.03 
   7  -2   2    0.03    0.03 
  -8   2  -2    0.15    0.03 
  -8   2  -2    0.13    0.03 
   8  -2   2    0.11    0.02 
   8  -2   2    0.11    0.03 
   9   1  -2    0.15    0.02 
   9   1  -2    0.14    0.02 
   9   1  -2    0.16    0.03 
  -9  -1   2    0.18    0.03 
  -9  -1   2    0.15    0.03 
   8   1  -2   12.84    0.40 
   8   1  -2   12.97    0.41 
  -8  -1   2   13.88    0.41 
  -8  -1   2   12.55    0.41 
  -7  -1   2    7.14    0.24 
  -7  -1   2    7.19    0.25 
  -7  -1   2    7.29    0.25 
  -7  -1   2    7.86    0.25 
   6   1  -2   12.13    0.38 
   6   1  -2   13.31    0.42 
   6   1  -2   11.91    0.38 
  -6  -1   2   12.12    0.39 
  -6  -1   2   12.46    0.39 
  -6  -1   2   11.82    0.39 
   5   1  -2   24.01    0.74 
  -5  -1   2   23.19    0.74 
  -5  -1   2   24.58    0.75 
  -5  -1   2   24.35    0.75 
   4   1  -2    5.62    0.18 
   4   1  -2    5.61    0.18 
  -4  -1   2    5.59    0.18 
  -4  -1   2    5.74    0.18 
   3   1  -2    9.44    0.29 
  -3  -1   2    9.33    0.29 
  -3  -1   2    8.98    0.29 
  -3  -1   2    9.80    0.31 
  -3  -1   2    9.18    0.29 
   2   1  -2    3.96    0.12 
  -2  -1   2    3.58    0.12 
  -2  -1   2    4.01    0.12 
  -2  -1   2    3.81    0.12 
  -2  -1   2    4.01    0.13 
  -2  -1   2    3.71    0.12 
   1   1  -2   24.10    0.73 
   1   1  -2   24.11    0.73 
  -1  -1   2   23.75    0.73 
  -1  -1   2   24.23    0.73 
  -1  -1   2   23.28    0.73 
  -1  -1   2   24.66    0.74 
  -1  -1   2   23.17    0.73 
   0   1  -2   35.07    1.07 
   0   1  -2   33.10    1.07 
   0   1  -2   34.67    1.07 
   0  -1   2   36.31    1.07 
   0  -1   2   37.09    1.07 
   0  -1   2   35.27    1.08 
   0  -1   2   35.71    1.07 
   0  -1   2   33.75    1.07 
  -1   1  -2  482.16   13.95 
  -1   1  -2  391.55   13.96 
   1  -1   2  471.07   13.96 
   1  -1   2  468.97   13.96 
   1  -1   2  473.67   13.96 
   1  -1   2  459.45   13.95 
  -2   1  -2  393.14   11.81 
   2  -1   2  381.71   11.81 
  -3   1  -2    4.23    0.14 
  -3   1  -2    4.48    0.15 
  -3   1  -2    4.67    0.15 
   3  -1   2    4.81    0.15 
   3  -1   2    4.34    0.14 
  -4   1  -2   89.69    2.68 
  -4   1  -2   86.23    2.68 
  -4   1  -2   90.04    2.68 
   4  -1   2   84.19    2.68 
   4  -1   2   88.24    2.69 
  -5   1  -2    9.25    0.30 
  -5   1  -2    9.20    0.29 
  -5   1  -2    9.02    0.30 
   5  -1   2    9.39    0.30 
   5  -1   2    9.30    0.29 
  -6   1  -2   26.47    0.84 
  -6   1  -2   26.24    0.83 
  -6   1  -2   25.99    0.84 
   6  -1   2   27.33    0.83 
   6  -1   2   28.02    0.84 
   6  -1   2   26.96    0.84 
  -7   1  -2   10.08    0.33 
  -7   1  -2    9.93    0.33 
   7  -1   2   10.75    0.32 
   7  -1   2   10.46    0.34 
   7  -1   2   10.14    0.33 
  -8   1  -2    7.83    0.25 
  -8   1  -2    7.33    0.24 
   8  -1   2    7.46    0.24 
   8  -1   2    8.00    0.24 
   8  -1   2    7.58    0.24 
   9   0  -2    2.73    0.09 
   9   0  -2    2.76    0.10 
  -9   0   2    2.87    0.10 
   8   0  -2    7.99    0.25 
   8   0  -2    7.72    0.25 
  -8   0   2    7.86    0.25 
  -8   0   2    8.03    0.26 
   7   0  -2    0.65    0.05 
  -7   0   2    0.69    0.06 
  -7   0   2    0.51    0.08 
  -7   0   2    0.60    0.07 
   6   0  -2    0.56    0.04 
  -6   0   2    0.69    0.06 
  -6   0   2    0.67    0.05 
  -6   0   2    0.68    0.06 
   5   0  -2   40.80    1.26 
   5   0  -2   41.50    1.27 
  -5   0   2   41.49    1.27 
  -5   0   2   41.43    1.27 
   4   0  -2   51.38    1.53 
   4   0  -2   51.70    1.53 
  -4   0   2   51.33    1.53 
  -4   0   2   46.15    1.53 
  -4   0   2   49.59    1.53 
   3   0  -2    0.83    0.04 
  -3   0   2    0.79    0.04 
  -3   0   2    0.88    0.04 
   2   0  -2  246.40    7.52 
   2   0  -2  244.41    7.52 
  -2   0   2  253.23    7.52 
  -2   0   2  241.03    7.52 
  -2   0   2  242.83    7.52 
  -2   0   2  252.80    7.53 
   1   0  -2    0.56    0.02 
   1   0  -2    0.55    0.02 
   1   0  -2    0.54    0.02 
  -1   0   2    0.59    0.03 
  -1   0   2    0.63    0.02 
  -1   0   2    0.55    0.02 
  -1   0   2    0.57    0.02 
   0   0  -2  122.12    3.61 
   0   0  -2  117.76    3.61 
   0   0  -2  115.46    3.61 
   0   0   2  117.42    3.61 
   0   0   2  115.11    3.61 
   0   0   2  116.74    3.61 
   0   0   2  119.39    3.61 
   0   0   2  123.86    3.62 
  -1   0  -2    0.09    0.02 
  -1   0  -2    0.11    0.01 
   1   0   2    0.09    0.02 
  -2   0  -2   10.69    0.34 
  -2   0  -2   10.58    0.33 
   2   0   2   10.85    0.33 
   2   0   2   10.31    0.33 
  -3   0  -2   48.24    1.55 
  -3   0  -2   48.76    1.55 
  -3   0  -2   49.71    1.55 
  -3   0  -2   51.56    1.55 
   3   0   2   53.26    1.55 
   3   0   2   52.41    1.55 
  -4   0  -2    2.26    0.09 
  -4   0  -2    2.67    0.10 
  -4   0  -2    2.41    0.09 
  -4   0  -2    2.38    0.08 
   4   0   2    2.31    0.10 
   4   0   2    2.48    0.08 
  -5   0  -2    1.42    0.08 
  -5   0  -2    1.54    0.08 
  -5   0  -2    1.51    0.06 
   5   0   2    1.45    0.09 
   5   0   2    1.43    0.06 
   5   0   2    1.45    0.08 
  -6   0  -2    1.62    0.08 
  -6   0  -2    1.79    0.10 
   6   0   2    1.65    0.07 
   6   0   2    1.70    0.10 
  -7   0  -2    0.96    0.07 
  -7   0  -2    0.92    0.07 
   7   0   2    0.98    0.09 
   7   0   2    0.90    0.05 
   7   0   2    0.94    0.06 
   7   0   2    0.87    0.06 
  -8   0  -2    0.08    0.03 
   8   0   2    0.03    0.02 
   8   0   2    0.07    0.02 
   9  -1  -2    0.09    0.02 
   9  -1  -2    0.06    0.02 
  -9   1   2    0.12    0.03 
  -9   1   2    0.11    0.03 
   8  -1  -2    2.42    0.08 
   8  -1  -2    2.37    0.10 
  -8   1   2    2.46    0.10 
   7  -1  -2   80.87    2.44 
  -7   1   2   76.89    2.44 
  -7   1   2   81.73    2.45 
   6  -1  -2   14.77    0.48 
   6  -1  -2   15.77    0.48 
  -6   1   2   15.72    0.48 
  -6   1   2   15.49    0.49 
  -6   1   2   14.81    0.49 
  -6   1   2   15.83    0.48 
   5  -1  -2    0.28    0.03 
   5  -1  -2    0.25    0.03 
  -5   1   2    0.24    0.04 
  -5   1   2    0.24    0.04 
  -5   1   2    0.22    0.03 
   4  -1  -2    6.76    0.20 
   4  -1  -2    6.25    0.21 
  -4   1   2    6.64    0.21 
  -4   1   2    5.94    0.21 
  -4   1   2    6.58    0.20 
   3  -1  -2    6.33    0.21 
  -3   1   2    6.80    0.22 
  -3   1   2    6.75    0.21 
   2  -1  -2   74.62    2.26 
   2  -1  -2   75.86    2.26 
   2  -1  -2   71.57    2.26 
  -2   1   2   70.77    2.26 
  -2   1   2   76.91    2.26 
  -2   1   2   73.77    2.26 
   1  -1  -2  165.29    4.86 
   1  -1  -2  153.75    4.86 
   1  -1  -2  154.18    4.86 
   1  -1  -2  164.23    4.86 
  -1   1   2  155.18    4.86 
  -1   1   2  162.24    4.86 
  -1   1   2  164.46    4.86 
  -1   1   2  155.86    4.86 
   0  -1  -2   20.48    0.62 
   0  -1  -2   18.98    0.62 
   0  -1  -2   20.00    0.62 
   0   1   2   20.80    0.62 
   0   1   2   19.69    0.62 
   0   1   2   21.32    0.62 
   0   1   2   19.34    0.62 
  -1  -1  -2   25.39    0.84 
  -1  -1  -2   27.28    0.84 
  -1  -1  -2   27.59    0.84 
   1   1   2   27.80    0.84 
   1   1   2   29.18    0.85 
  -2  -1  -2   30.40    0.92 
  -2  -1  -2   29.94    0.92 
   2   1   2   29.08    0.92 
  -3  -1  -2    1.40    0.06 
  -3  -1  -2    1.35    0.05 
   3   1   2    1.31    0.06 
   3   1   2    1.28    0.05 
  -4  -1  -2   24.70    0.74 
  -4  -1  -2   23.42    0.75 
   4   1   2   24.11    0.74 
  -5  -1  -2    7.64    0.24 
  -5  -1  -2    7.17    0.25 
   5   1   2    7.51    0.23 
   5   1   2    7.18    0.25 
  -6  -1  -2    3.60    0.15 
  -6  -1  -2    3.60    0.13 
   6   1   2    3.77    0.13 
   6   1   2    3.89    0.15 
   7   1   2    3.42    0.12 
   7   1   2    3.54    0.12 
   7   1   2    3.36    0.12 
   7   1   2    3.54    0.14 
   8   1   2    0.59    0.04 
   8   1   2    0.58    0.03 
   9  -2  -2    0.15    0.02 
   9  -2  -2    0.11    0.03 
  -9   2   2    0.12    0.03 
  -9   2   2    0.14    0.03 
   8  -2  -2    0.63    0.06 
   8  -2  -2    0.67    0.04 
  -8   2   2    0.55    0.07 
  -8   2   2    0.53    0.06 
  -8   2   2    0.56    0.06 
   7  -2  -2   30.95    0.95 
   7  -2  -2   30.00    0.97 
  -7   2   2   30.72    0.96 
  -7   2   2   31.39    0.95 
  -7   2   2   31.11    0.96 
   6  -2  -2   21.81    0.69 
   6  -2  -2   21.18    0.68 
   6  -2  -2   21.74    0.68 
  -6   2   2   22.71    0.68 
  -6   2   2   22.72    0.69 
  -6   2   2   21.51    0.68 
   5  -2  -2    6.48    0.20 
   5  -2  -2    5.96    0.21 
  -5   2   2    6.35    0.20 
  -5   2   2    6.37    0.20 
  -5   2   2    6.00    0.20 
   4  -2  -2    6.01    0.18 
   4  -2  -2    5.78    0.19 
  -4   2   2    5.80    0.19 
  -4   2   2    5.64    0.19 
  -4   2   2    5.87    0.18 
  -4   2   2    5.69    0.19 
   3  -2  -2  107.30    3.07 
   3  -2  -2   96.84    3.07 
   3  -2  -2   99.58    3.07 
  -3   2   2   97.46    3.06 
  -3   2   2  100.96    3.06 
  -3   2   2   99.97    3.08 
   2  -2  -2    1.15    0.04 
   2  -2  -2    1.18    0.05 
  -2   2   2    1.17    0.05 
  -2   2   2    1.19    0.04 
   1  -2  -2   81.64    2.43 
   1  -2  -2   80.54    2.43 
   1  -2  -2   77.24    2.44 
  -1   2   2   78.32    2.43 
  -1   2   2   80.59    2.43 
   0  -2  -2   17.44    0.53 
   0  -2  -2   17.16    0.53 
   0   2   2   17.02    0.53 
  -1  -2  -2   31.99    0.98 
  -1  -2  -2   31.45    0.98 
   1   2   2   32.98    0.99 
  -2  -2  -2   65.46    1.97 
  -2  -2  -2   64.81    1.97 
  -2  -2  -2   63.63    1.97 
   2   2   2   65.59    1.97 
   2   2   2   65.04    1.96 
   2   2   2   61.67    1.96 
  -3  -2  -2   21.29    0.67 
  -3  -2  -2   21.28    0.66 
   3   2   2   21.87    0.66 
  -4  -2  -2   37.45    1.20 
  -4  -2  -2   39.94    1.20 
   4   2   2   38.51    1.21 
   4   2   2   39.99    1.19 
  -5  -2  -2    2.68    0.10 
  -5  -2  -2    2.66    0.11 
   5   2   2    2.57    0.12 
   5   2   2    2.55    0.09 
  -6  -2  -2    6.94    0.23 
   6   2   2    7.13    0.24 
   6   2   2    7.51    0.23 
   6   2   2    6.73    0.24 
   6   2   2    7.11    0.22 
   6   2   2    6.83    0.23 
  -7  -2  -2    5.99    0.19 
   7   2   2    5.75    0.20 
   7   2   2    6.07    0.19 
   7   2   2    6.01    0.21 
   7   2   2    6.09    0.20 
   7   2   2    6.24    0.19 
   8   2   2    0.02    0.02 
   9  -3  -2    0.01    0.02 
  -9   3   2   -0.02    0.03 
  -9   3   2    0.02    0.03 
  -9   3   2    0.06    0.03 
   8  -3  -2    0.04    0.02 
   8  -3  -2    0.06    0.04 
  -8   3   2    0.03    0.04 
  -8   3   2    0.05    0.04 
  -8   3   2    0.02    0.03 
   7  -3  -2    4.87    0.18 
   7  -3  -2    4.64    0.16 
  -7   3   2    4.63    0.17 
  -7   3   2    4.58    0.16 
  -7   3   2    4.48    0.16 
  -7   3   2    4.55    0.18 
   6  -3  -2    0.14    0.02 
   6  -3  -2    0.12    0.04 
  -6   3   2    0.14    0.03 
  -6   3   2    0.18    0.04 
  -6   3   2    0.17    0.03 
  -6   3   2    0.17    0.05 
   5  -3  -2    4.27    0.14 
   5  -3  -2    4.27    0.15 
  -5   3   2    4.53    0.14 
  -5   3   2    4.35    0.15 
  -5   3   2    4.55    0.15 
   4  -3  -2    2.26    0.09 
  -4   3   2    2.19    0.08 
  -4   3   2    2.37    0.08 
  -4   3   2    2.15    0.08 
   3  -3  -2    0.46    0.03 
   3  -3  -2    0.47    0.03 
  -3   3   2    0.43    0.04 
  -3   3   2    0.45    0.03 
  -3   3   2    0.43    0.02 
   2  -3  -2   11.08    0.35 
   2  -3  -2   10.91    0.35 
   2  -3  -2   11.54    0.35 
  -2   3   2   11.49    0.35 
   1  -3  -2   37.11    1.17 
   1  -3  -2   39.55    1.17 
   1  -3  -2   36.42    1.16 
  -1   3   2   39.36    1.17 
   0  -3  -2    8.87    0.29 
   0  -3  -2    9.87    0.29 
   0  -3  -2    9.27    0.29 
   0   3   2    9.86    0.30 
  -1  -3  -2    0.18    0.01 
  -1  -3  -2    0.22    0.02 
   1   3   2    0.21    0.02 
   1   3   2    0.20    0.02 
  -2  -3  -2   11.12    0.34 
  -2  -3  -2   10.03    0.34 
   2   3   2   11.07    0.34 
   2   3   2   11.72    0.34 
  -3  -3  -2    0.48    0.04 
  -3  -3  -2    0.42    0.04 
   3   3   2    0.40    0.03 
  -4  -3  -2    0.40    0.05 
  -4  -3  -2    0.31    0.04 
   4   3   2    0.38    0.03 
   4   3   2    0.36    0.07 
  -5  -3  -2   26.74    0.86 
  -5  -3  -2   28.63    0.86 
   5   3   2   27.87    0.87 
  -6  -3  -2    1.58    0.06 
   6   3   2    1.59    0.07 
   6   3   2    1.29    0.07 
   6   3   2    1.75    0.09 
   6   3   2    1.41    0.10 
   6   3   2    1.47    0.06 
  -7  -3  -2    0.17    0.02 
   7   3   2    0.21    0.04 
   7   3   2    0.17    0.03 
   9  -4  -2    0.89    0.04 
  -9   4   2    0.84    0.06 
  -9   4   2    0.95    0.06 
  -9   4   2    0.85    0.05 
  -9   4   2    0.86    0.05 
   8  -4  -2    0.11    0.02 
   8  -4  -2    0.07    0.03 
  -8   4   2    0.08    0.03 
  -8   4   2    0.09    0.03 
  -8   4   2    0.05    0.03 
   7  -4  -2    6.82    0.23 
   7  -4  -2    6.85    0.22 
  -7   4   2    7.00    0.23 
  -7   4   2    6.95    0.23 
  -7   4   2    7.10    0.24 
  -7   4   2    7.04    0.23 
   6  -4  -2   27.46    0.86 
   6  -4  -2   27.05    0.85 
  -6   4   2   28.13    0.85 
  -6   4   2   27.55    0.85 
   5  -4  -2   20.48    0.64 
   5  -4  -2   20.00    0.63 
  -5   4   2   20.33    0.63 
  -5   4   2   20.86    0.63 
  -5   4   2   19.81    0.63 
   4  -4  -2    8.62    0.28 
   4  -4  -2    9.12    0.29 
  -4   4   2    8.84    0.28 
  -4   4   2    8.70    0.28 
  -4   4   2    8.96    0.28 
   3  -4  -2   10.57    0.32 
   3  -4  -2    9.95    0.32 
  -3   4   2   10.51    0.32 
  -3   4   2    9.87    0.32 
  -3   4   2   10.11    0.32 
   2  -4  -2   25.01    0.76 
  -2   4   2   24.95    0.76 
  -2   4   2   24.85    0.76 
  -2   4   2   23.92    0.76 
   1  -4  -2   34.24    1.04 
   1  -4  -2   34.38    1.04 
  -1   4   2   32.98    1.04 
  -1   4   2   33.56    1.04 
  -1   4   2   34.24    1.04 
   0  -4  -2    1.90    0.06 
   0  -4  -2    1.93    0.07 
   0   4   2    1.86    0.07 
   0   4   2    2.01    0.08 
   0   4   2    1.86    0.07 
  -1  -4  -2   22.58    0.71 
  -1  -4  -2   22.75    0.70 
   1   4   2   23.25    0.70 
   1   4   2   22.38    0.70 
   1   4   2   23.60    0.71 
  -2  -4  -2   28.08    0.87 
  -2  -4  -2   28.75    0.88 
   2   4   2   28.46    0.87 
  -3  -4  -2   10.45    0.33 
  -4  -4  -2   11.02    0.35 
   4   4   2   10.53    0.35 
  -5  -4  -2   15.10    0.47 
   5   4   2   15.34    0.49 
   5   4   2   14.70    0.47 
   5   4   2   15.06    0.48 
   5   4   2   15.36    0.47 
  -6  -4  -2    1.23    0.06 
   6   4   2    1.26    0.05 
   6   4   2    1.17    0.06 
   6   4   2    1.12    0.09 
   6   4   2    1.26    0.08 
  -7  -4  -2    0.06    0.02 
   7   4   2    0.07    0.02 
   7   4   2    0.07    0.02 
   9  -5  -2    0.24    0.03 
   9  -5  -2    0.24    0.02 
  -9   5   2    0.26    0.03 
  -9   5   2    0.28    0.04 
  -9   5   2    0.22    0.05 
   8  -5  -2    3.34    0.11 
   8  -5  -2    3.12    0.11 
  -8   5   2    3.25    0.12 
  -8   5   2    3.41    0.11 
  -8   5   2    3.33    0.12 
  -8   5   2    3.15    0.12 
  -8   5   2    3.18    0.11 
   7  -5  -2    0.18    0.03 
   7  -5  -2    0.22    0.04 
  -7   5   2    0.25    0.05 
  -7   5   2    0.23    0.04 
  -7   5   2    0.20    0.04 
  -7   5   2    0.19    0.04 
   6  -5  -2   29.50    0.92 
  -6   5   2   29.65    0.92 
   5  -5  -2    1.23    0.07 
  -5   5   2    1.12    0.06 
  -5   5   2    1.09    0.06 
   4  -5  -2    6.21    0.21 
   4  -5  -2    6.67    0.22 
  -4   5   2    6.85    0.22 
  -4   5   2    6.76    0.21 
   3  -5  -2    2.69    0.09 
   3  -5  -2    2.67    0.10 
  -3   5   2    2.75    0.10 
   2  -5  -2   21.71    0.67 
   2  -5  -2   21.18    0.66 
  -2   5   2   21.62    0.66 
  -2   5   2   21.73    0.67 
   1  -5  -2   25.02    0.74 
   1  -5  -2   23.66    0.75 
  -1   5   2   23.91    0.75 
  -1   5   2   24.54    0.75 
   0  -5  -2   13.74    0.45 
   0  -5  -2   15.00    0.44 
   0   5   2   14.27    0.45 
   0   5   2   14.73    0.44 
   0   5   2   13.75    0.44 
  -1  -5  -2  126.49    3.69 
  -1  -5  -2  118.17    3.69 
   1   5   2  117.72    3.70 
   1   5   2  121.24    3.69 
   1   5   2  120.48    3.69 
  -2  -5  -2    2.00    0.07 
  -2  -5  -2    2.01    0.08 
  -2  -5  -2    2.08    0.07 
   2   5   2    2.01    0.08 
   2   5   2    2.45    0.10 
  -3  -5  -2   51.07    1.57 
  -4  -5  -2    1.80    0.09 
  -5  -5  -2    0.74    0.05 
   5   5   2    0.65    0.06 
   5   5   2    0.81    0.04 
   5   5   2    0.80    0.07 
   5   5   2    0.66    0.05 
   5   5   2    0.71    0.09 
  -6  -5  -2    0.04    0.02 
   6   5   2    0.02    0.02 
   6   5   2    0.00    0.04 
   6   5   2    0.01    0.02 
   6   5   2    0.02    0.03 
   8  -6  -2    2.16    0.07 
   8  -6  -2    2.22    0.08 
  -8   6   2    2.07    0.08 
  -8   6   2    2.06    0.08 
  -8   6   2    2.19    0.09 
  -8   6   2    2.05    0.08 
  -8   6   2    2.02    0.09 
   7  -6  -2    3.56    0.13 
   7  -6  -2    3.93    0.12 
  -7   6   2    3.81    0.13 
  -7   6   2    3.78    0.14 
  -7   6   2    3.74    0.13 
  -7   6   2    3.53    0.14 
   6  -6  -2    0.34    0.05 
   6  -6  -2    0.33    0.07 
   6  -6  -2    0.42    0.07 
  -6   6   2    0.30    0.06 
  -6   6   2    0.32    0.07 
  -6   6   2    0.36    0.06 
   5  -6  -2   39.76    1.26 
  -5   6   2   41.79    1.25 
  -5   6   2   40.48    1.26 
   4  -6  -2   39.43    1.20 
   4  -6  -2   37.36    1.19 
  -4   6   2   39.81    1.20 
   3  -6  -2    5.06    0.16 
   3  -6  -2    5.18    0.17 
   3  -6  -2    4.95    0.16 
  -3   6   2    4.73    0.17 
   2  -6  -2    1.42    0.05 
   2  -6  -2    1.28    0.06 
   2  -6  -2    1.47    0.05 
  -2   6   2    1.46    0.06 
  -2   6   2    1.51    0.07 
   1  -6  -2   15.72    0.49 
   1  -6  -2   15.62    0.50 
   1  -6  -2   16.12    0.50 
  -1   6   2   16.51    0.50 
  -1   6   2   16.54    0.51 
   0  -6  -2   23.13    0.73 
   0  -6  -2   23.23    0.73 
   0  -6  -2   23.78    0.73 
   0   6   2   23.89    0.73 
   0   6   2   24.56    0.74 
  -1  -6  -2    0.08    0.03 
  -1  -6  -2    0.09    0.02 
  -1  -6  -2    0.10    0.02 
   1   6   2    0.05    0.04 
   1   6   2    0.11    0.04 
  -2  -6  -2   41.88    1.26 
  -2  -6  -2   40.19    1.26 
  -2  -6  -2   40.60    1.26 
   2   6   2   41.51    1.27 
  -3  -6  -2    4.51    0.16 
  -4  -6  -2    0.25    0.04 
  -4  -6  -2    0.17    0.04 
   4   6   2    0.26    0.04 
   4   6   2    0.24    0.05 
  -5  -6  -2    2.33    0.09 
   5   6   2    2.47    0.08 
   5   6   2    2.37    0.09 
  -6  -6  -2    0.42    0.03 
   6   6   2    0.38    0.03 
   6   6   2    0.41    0.04 
   8  -7  -2    0.43    0.04 
   8  -7  -2    0.42    0.03 
  -8   7   2    0.47    0.05 
  -8   7   2    0.45    0.04 
  -8   7   2    0.33    0.05 
   7  -7  -2    1.85    0.07 
   7  -7  -2    1.80    0.07 
  -7   7   2    1.82    0.08 
  -7   7   2    1.63    0.07 
  -7   7   2    1.92    0.09 
  -7   7   2    1.90    0.08 
   6  -7  -2    0.54    0.04 
   6  -7  -2    0.53    0.05 
  -6   7   2    0.63    0.05 
  -6   7   2    0.64    0.06 
  -6   7   2    0.61    0.06 
   5  -7  -2    0.24    0.07 
  -5   7   2    0.39    0.06 
   4  -7  -2   19.60    0.60 
   4  -7  -2   19.25    0.61 
  -4   7   2   19.72    0.61 
   3  -7  -2    1.26    0.06 
   3  -7  -2    1.27    0.05 
  -3   7   2    1.25    0.07 
   2  -7  -2    4.13    0.13 
   2  -7  -2    4.07    0.13 
  -2   7   2    4.11    0.14 
   1  -7  -2    5.13    0.16 
   1  -7  -2    5.23    0.16 
  -1   7   2    4.99    0.17 
   0  -7  -2   15.42    0.47 
   0  -7  -2   14.88    0.47 
   0   7   2   15.05    0.47 
   0   7   2   15.25    0.49 
  -1  -7  -2   43.93    1.32 
  -1  -7  -2   43.58    1.32 
   1   7   2   42.03    1.34 
  -2  -7  -2  119.32    3.64 
  -3  -7  -2    0.37    0.04 
  -3  -7  -2    0.36    0.04 
   3   7   2    0.43    0.04 
   3   7   2    0.39    0.05 
  -4  -7  -2    9.36    0.29 
  -4  -7  -2    9.37    0.29 
   4   7   2    9.47    0.29 
   4   7   2    9.49    0.30 
  -5  -7  -2    4.28    0.14 
   5   7   2    4.03    0.14 
   5   7   2    4.34    0.13 
   7  -8  -2    3.97    0.12 
   7  -8  -2    3.79    0.13 
  -7   8   2    3.79    0.13 
  -7   8   2    3.71    0.13 
  -7   8   2    3.94    0.13 
  -7   8   2    3.72    0.13 
   6  -8  -2   28.61    0.88 
   6  -8  -2   29.50    0.88 
  -6   8   2   27.74    0.88 
  -6   8   2   29.00    0.89 
  -6   8   2   29.02    0.89 
   5  -8  -2    3.44    0.12 
   5  -8  -2    3.64    0.12 
  -5   8   2    3.85    0.13 
  -5   8   2    3.58    0.12 
  -5   8   2    3.70    0.14 
  -5   8   2    3.56    0.13 
  -5   8   2    3.27    0.13 
  -5   8   2    3.33    0.13 
   4  -8  -2   46.67    1.40 
   4  -8  -2   44.30    1.40 
  -4   8   2   45.66    1.41 
  -4   8   2   49.51    1.41 
  -4   8   2   46.56    1.41 
  -4   8   2   43.54    1.41 
  -4   8   2   44.51    1.41 
  -4   8   2   45.88    1.40 
  -4   8   2   46.15    1.41 
   3  -8  -2    3.37    0.11 
  -3   8   2    3.23    0.13 
   2  -8  -2   51.58    1.57 
  -2   8   2   51.16    1.58 
   1  -8  -2    7.78    0.24 
  -1   8   2    7.33    0.25 
   0  -8  -2    3.75    0.12 
   0   8   2    3.46    0.13 
   0   8   2    3.76    0.16 
  -1  -8  -2    0.34    0.04 
  -1  -8  -2    0.31    0.04 
   1   8   2    0.42    0.06 
   1   8   2    0.35    0.06 
   1   8   2    0.43    0.06 
   1   8   2    0.35    0.04 
   1   8   2    0.34    0.06 
  -2  -8  -2    0.58    0.04 
  -2  -8  -2    0.62    0.04 
   2   8   2    0.50    0.04 
   2   8   2    0.63    0.06 
  -3  -8  -2    0.42    0.04 
  -3  -8  -2    0.41    0.03 
   3   8   2    0.37    0.03 
   3   8   2    0.40    0.05 
  -4  -8  -2    0.06    0.02 
  -4  -8  -2    0.07    0.02 
   4   8   2    0.04    0.02 
   4   8   2    0.07    0.03 
   7  -9  -2    1.20    0.05 
   7  -9  -2    1.10    0.04 
  -7   9   2    1.15    0.06 
  -7   9   2    1.19    0.06 
  -7   9   2    1.13    0.05 
  -7   9   2    1.18    0.05 
   6  -9  -2    1.24    0.05 
   6  -9  -2    1.28    0.06 
  -6   9   2    1.26    0.05 
  -6   9   2    1.29    0.06 
  -6   9   2    1.24    0.07 
  -6   9   2    1.31    0.07 
   5  -9  -2    0.29    0.03 
  -5   9   2    0.29    0.05 
  -5   9   2    0.30    0.06 
  -5   9   2    0.37    0.05 
  -5   9   2    0.40    0.04 
  -5   9   2    0.32    0.05 
   4  -9  -2    3.87    0.13 
   4  -9  -2    3.94    0.13 
  -4   9   2    4.03    0.14 
  -4   9   2    3.96    0.13 
  -4   9   2    3.82    0.14 
  -4   9   2    3.52    0.13 
  -4   9   2    3.84    0.13 
  -4   9   2    3.89    0.13 
  -4   9   2    3.87    0.14 
   3  -9  -2   10.84    0.34 
   3  -9  -2   10.76    0.34 
  -3   9   2   10.96    0.35 
  -3   9   2   11.32    0.35 
  -3   9   2   11.23    0.34 
  -3   9   2   10.67    0.35 
  -3   9   2   10.56    0.35 
  -3   9   2   11.19    0.35 
  -3   9   2   10.89    0.34 
   2  -9  -2    0.03    0.02 
   2  -9  -2    0.01    0.03 
  -2   9   2    0.00    0.03 
  -2   9   2    0.04    0.03 
  -2   9   2   -0.02    0.03 
  -2   9   2   -0.04    0.04 
  -2   9   2    0.04    0.03 
  -2   9   2    0.01    0.03 
  -2   9   2    0.03    0.04 
   1  -9  -2    2.98    0.10 
   1  -9  -2    3.19    0.10 
  -1   9   2    2.99    0.10 
  -1   9   2    3.04    0.11 
  -1   9   2    2.65    0.11 
  -1   9   2    3.11    0.11 
  -1   9   2    2.96    0.11 
   0  -9  -2   15.29    0.49 
   0  -9  -2   16.39    0.49 
   0   9   2   15.47    0.50 
   0   9   2   15.82    0.50 
   0   9   2   16.49    0.50 
   0   9   2   16.69    0.49 
   0   9   2   15.89    0.50 
  -1  -9  -2    0.20    0.04 
  -1  -9  -2    0.21    0.03 
   1   9   2    0.26    0.05 
   1   9   2    0.25    0.03 
   1   9   2    0.22    0.05 
   1   9   2    0.29    0.05 
   1   9   2    0.19    0.04 
  -2  -9  -2    5.70    0.18 
   2   9   2    5.49    0.18 
   2   9   2    5.57    0.18 
  -3  -9  -2   29.60    0.89 
   3   9   2   29.37    0.89 
   3   9   2   28.34    0.89 
   6 -10  -2   14.19    0.44 
   5 -10  -2    3.11    0.10 
  -5  10   2    2.91    0.11 
  -5  10   2    3.02    0.11 
  -5  10   2    2.99    0.11 
  -5  10   2    3.09    0.10 
   4 -10  -2   10.56    0.32 
  -4  10   2   10.38    0.33 
  -4  10   2   11.09    0.33 
  -4  10   2   10.58    0.33 
  -4  10   2   10.29    0.33 
  -4  10   2   10.04    0.32 
  -4  10   2   10.07    0.33 
  -4  10   2   10.80    0.33 
  -4  10   2   10.19    0.33 
   3 -10  -2   24.46    0.74 
  -3  10   2   23.49    0.75 
  -3  10   2   25.31    0.75 
  -3  10   2   23.40    0.75 
  -3  10   2   23.99    0.74 
  -3  10   2   23.85    0.75 
  -3  10   2   24.95    0.75 
   2 -10  -2   13.67    0.42 
   2 -10  -2   13.31    0.42 
  -2  10   2   13.66    0.43 
  -2  10   2   13.65    0.43 
  -2  10   2   14.31    0.42 
  -2  10   2   14.35    0.43 
  -2  10   2   12.79    0.43 
  -2  10   2   14.28    0.42 
  -2  10   2   12.83    0.43 
   1 -10  -2    3.62    0.13 
   1 -10  -2    3.73    0.13 
  -1  10   2    4.06    0.13 
  -1  10   2    3.87    0.13 
  -1  10   2    3.99    0.13 
  -1  10   2    3.81    0.13 
  -1  10   2    3.91    0.13 
   0 -10  -2    4.74    0.15 
   0  10   2    4.80    0.16 
   0  10   2    4.74    0.15 
   0  10   2    4.85    0.16 
   0  10   2    4.82    0.16 
   0  10   2    4.70    0.16 
  -1 -10  -2    0.41    0.03 
   1  10   2    0.34    0.05 
   1  10   2    0.33    0.04 
   1  10   2    0.30    0.03 
   2  10   2   10.76    0.33 
   2  10   2   10.68    0.33 
   4 -11  -2    3.59    0.11 
  -4  11   2    3.65    0.12 
  -4  11   2    3.38    0.12 
  -4  11   2    3.47    0.12 
  -4  11   2    3.53    0.11 
  -4  11   2    3.47    0.12 
   3 -11  -2    0.61    0.03 
  -3  11   2    0.68    0.04 
  -3  11   2    0.56    0.04 
  -3  11   2    0.55    0.05 
  -3  11   2    0.58    0.04 
  -3  11   2    0.62    0.04 
   2 -11  -2    5.54    0.18 
  -2  11   2    5.48    0.18 
  -2  11   2    5.56    0.18 
  -2  11   2    5.55    0.18 
  -2  11   2    5.76    0.18 
  -1  11   2    1.87    0.07 
  -1  11   2    1.97    0.07 
  -1  11   2    1.86    0.07 
  -1  11   2    1.93    0.07 
  -1  11   2    1.83    0.07 
  -1  12  -3   14.33    0.45 
  -1  12  -3   14.78    0.45 
   2  11  -3    6.83    0.22 
   2  11  -3    6.81    0.22 
   1  11  -3    3.09    0.11 
   1  11  -3    3.08    0.11 
   0  11  -3    2.80    0.10 
   0  11  -3    2.86    0.10 
  -1  11  -3    0.26    0.05 
  -1  11  -3    0.17    0.03 
  -2  11  -3    0.02    0.03 
  -2  11  -3    0.04    0.03 
  -2  11  -3    0.03    0.03 
  -2  11  -3    0.01    0.03 
  -3  11  -3    2.12    0.08 
  -3  11  -3    1.92    0.08 
  -3  11  -3    2.17    0.07 
  -3  11  -3    2.00    0.08 
  -3  11  -3    2.11    0.08 
  -4  11  -3    0.65    0.05 
  -4  11  -3    0.63    0.05 
  -4  11  -3    0.64    0.04 
  -4  11  -3    0.67    0.04 
  -4  11  -3    0.64    0.05 
   4  10  -3    0.55    0.04 
   4  10  -3    0.60    0.04 
  -4 -10   3    0.50    0.04 
   3  10  -3    0.12    0.03 
   3  10  -3    0.14    0.03 
   2  10  -3    0.04    0.03 
   2  10  -3    0.06    0.03 
  -2 -10   3    0.04    0.02 
   1  10  -3    5.38    0.18 
   1  10  -3    5.21    0.17 
  -1 -10   3    5.14    0.17 
   0  10  -3   16.25    0.51 
   0  10  -3   16.86    0.52 
  -1  10  -3    3.42    0.13 
  -1  10  -3    3.68    0.13 
  -2  10  -3    6.21    0.21 
  -2  10  -3    6.09    0.20 
  -2  10  -3    6.19    0.20 
  -2  10  -3    6.38    0.21 
   2 -10   3    5.98    0.19 
  -3  10  -3    0.55    0.11 
  -3  10  -3    0.52    0.04 
  -3  10  -3    0.55    0.06 
  -3  10  -3    0.62    0.06 
  -3  10  -3    0.57    0.05 
  -3  10  -3    0.59    0.05 
   3 -10   3    0.52    0.04 
  -4  10  -3    6.42    0.21 
  -4  10  -3    6.32    0.20 
  -4  10  -3    6.49    0.20 
  -4  10  -3    6.31    0.20 
  -4  10  -3    6.11    0.21 
  -4  10  -3    6.65    0.21 
   4 -10   3    5.77    0.20 
  -5  10  -3    0.57    0.04 
  -5  10  -3    0.48    0.05 
  -5  10  -3    0.44    0.06 
  -5  10  -3    0.58    0.04 
  -5  10  -3    0.50    0.05 
   5 -10   3    0.51    0.04 
   5 -10   3    0.56    0.04 
   5   9  -3    1.88    0.07 
   5   9  -3    1.87    0.07 
  -5  -9   3    1.90    0.07 
   4   9  -3   14.92    0.45 
   4   9  -3   14.71    0.44 
   4   9  -3   13.31    0.46 
   3   9  -3    0.27    0.05 
   3   9  -3    0.23    0.03 
   3   9  -3    0.27    0.06 
  -3  -9   3    0.26    0.04 
   2   9  -3   28.28    0.87 
   2   9  -3   29.17    0.87 
   2   9  -3   27.85    0.89 
  -2  -9   3   27.98    0.87 
   1   9  -3    2.26    0.10 
   1   9  -3    2.30    0.10 
   1   9  -3    2.38    0.13 
   0   9  -3   23.26    0.72 
  -1   9  -3    3.73    0.14 
  -2   9  -3    0.72    0.07 
  -2   9  -3    0.85    0.08 
  -2   9  -3    0.87    0.11 
   2  -9   3    0.74    0.04 
  -3   9  -3    8.78    0.29 
  -3   9  -3    9.06    0.29 
  -3   9  -3    8.94    0.29 
  -3   9  -3    9.04    0.29 
  -3   9  -3    8.97    0.29 
  -3   9  -3    9.17    0.29 
  -3   9  -3    8.78    0.29 
   3  -9   3    9.42    0.28 
  -4   9  -3    9.85    0.32 
  -4   9  -3    9.83    0.32 
  -4   9  -3   10.10    0.32 
  -4   9  -3   10.46    0.32 
  -4   9  -3   10.43    0.32 
  -4   9  -3   10.42    0.32 
  -4   9  -3   10.33    0.32 
   4  -9   3    9.83    0.32 
  -5   9  -3    0.02    0.03 
  -5   9  -3   -0.01    0.02 
  -5   9  -3    0.02    0.03 
  -5   9  -3    0.01    0.03 
  -5   9  -3    0.03    0.04 
  -5   9  -3    0.02    0.03 
   5  -9   3    0.04    0.03 
   5  -9   3    0.01    0.03 
  -6   9  -3    0.44    0.07 
  -6   9  -3    0.47    0.05 
  -6   9  -3    0.42    0.06 
  -6   9  -3    0.42    0.04 
  -6   9  -3    0.41    0.05 
  -6   9  -3    0.52    0.05 
  -6   9  -3    0.44    0.05 
   6  -9   3    0.37    0.04 
   6  -9   3    0.42    0.03 
   6   8  -3    6.07    0.19 
   6   8  -3    5.89    0.20 
  -6  -8   3    5.93    0.19 
   5   8  -3    0.04    0.05 
   5   8  -3    0.04    0.03 
   5   8  -3    0.08    0.06 
   5   8  -3    0.03    0.03 
  -5  -8   3    0.06    0.03 
   4   8  -3    0.05    0.03 
   4   8  -3    0.10    0.06 
   4   8  -3    0.10    0.03 
  -4  -8   3    0.06    0.02 
   3   8  -3    1.19    0.10 
   3   8  -3    1.29    0.07 
   3   8  -3    1.36    0.08 
  -3  -8   3    1.28    0.06 
   2   8  -3    9.51    0.30 
   2   8  -3    8.71    0.29 
   2   8  -3    8.60    0.30 
   2   8  -3    8.80    0.31 
   2   8  -3    9.11    0.29 
  -2  -8   3    8.72    0.28 
   1   8  -3    0.87    0.06 
   1   8  -3    0.88    0.06 
   1   8  -3    0.98    0.09 
   1   8  -3    0.86    0.09 
   0   8  -3    1.52    0.07 
   0   8  -3    1.29    0.10 
   0   8  -3    1.26    0.10 
  -1   8  -3    0.15    0.04 
  -2   8  -3    3.75    0.13 
   2  -8   3    3.47    0.12 
  -3   8  -3   11.77    0.38 
  -3   8  -3   12.31    0.38 
  -4   8  -3    0.95    0.07 
  -4   8  -3    1.00    0.06 
  -4   8  -3    1.05    0.08 
  -4   8  -3    1.03    0.08 
  -4   8  -3    0.98    0.06 
  -4   8  -3    1.04    0.07 
  -4   8  -3    1.02    0.08 
   4  -8   3    1.11    0.05 
  -5   8  -3   27.05    0.86 
  -5   8  -3   28.36    0.86 
  -5   8  -3   27.21    0.85 
  -5   8  -3   27.24    0.86 
  -5   8  -3   28.29    0.86 
  -5   8  -3   26.99    0.85 
  -5   8  -3   28.11    0.86 
  -5   8  -3   28.10    0.85 
   5  -8   3   28.65    0.85 
   5  -8   3   27.15    0.85 
  -6   8  -3    0.08    0.03 
  -6   8  -3    0.19    0.03 
  -6   8  -3    0.12    0.03 
  -6   8  -3    0.12    0.03 
  -6   8  -3    0.14    0.03 
  -6   8  -3    0.12    0.04 
   6  -8   3    0.17    0.03 
   6  -8   3    0.13    0.02 
  -7   8  -3    1.82    0.07 
  -7   8  -3    1.95    0.08 
  -7   8  -3    1.80    0.08 
   7  -8   3    1.89    0.07 
   7  -8   3    1.85    0.07 
   7  -8   3    1.86    0.07 
   6   7  -3    1.58    0.07 
   6   7  -3    1.61    0.09 
  -6  -7   3    1.54    0.06 
   5   7  -3    1.85    0.10 
   5   7  -3    1.73    0.08 
   5   7  -3    1.92    0.11 
   5   7  -3    1.91    0.08 
  -5  -7   3    1.82    0.07 
  -5  -7   3    1.83    0.08 
   4   7  -3   25.42    0.80 
   4   7  -3   26.61    0.81 
   4   7  -3   25.68    0.80 
   4   7  -3   25.45    0.80 
   4   7  -3   25.87    0.82 
   4   7  -3   25.93    0.80 
   4   7  -3   25.93    0.81 
   4   7  -3   24.36    0.81 
  -4  -7   3   27.62    0.79 
   3   7  -3    0.18    0.06 
   3   7  -3    0.22    0.05 
   3   7  -3    0.21    0.06 
   3   7  -3    0.21    0.04 
   3   7  -3    0.30    0.05 
  -3  -7   3    0.19    0.03 
  -3  -7   3    0.21    0.03 
   2   7  -3    0.40    0.07 
   2   7  -3    0.29    0.07 
   2   7  -3    0.37    0.05 
   2   7  -3    0.37    0.05 
   2   7  -3    0.39    0.08 
  -2  -7   3    0.42    0.03 
   1   7  -3    4.85    0.16 
   1   7  -3    5.19    0.18 
   1   7  -3    5.00    0.18 
   1   7  -3    4.95    0.18 
   1   7  -3    5.04    0.17 
   0   7  -3    0.05    0.03 
   0   7  -3    0.02    0.04 
   0   7  -3    0.02    0.05 
  -1   7  -3    3.66    0.13 
  -1   7  -3    3.87    0.16 
  -1   7  -3    3.93    0.13 
  -2   7  -3    0.93    0.05 
  -2   7  -3    0.97    0.06 
   2  -7   3    1.01    0.04 
  -3   7  -3    3.17    0.12 
  -3   7  -3    3.08    0.11 
   3  -7   3    3.03    0.10 
   3  -7   3    3.03    0.10 
  -4   7  -3    0.13    0.03 
  -4   7  -3    0.13    0.04 
   4  -7   3    0.14    0.02 
   4  -7   3    0.20    0.04 
  -5   7  -3    0.94    0.06 
  -5   7  -3    0.84    0.07 
  -5   7  -3    0.93    0.07 
  -5   7  -3    0.91    0.07 
  -5   7  -3    0.89    0.07 
  -5   7  -3    0.84    0.07 
  -5   7  -3    0.68    0.10 
   5  -7   3    0.89    0.06 
   5  -7   3    0.99    0.05 
  -6   7  -3    2.21    0.10 
  -6   7  -3    2.61    0.10 
  -6   7  -3    2.51    0.10 
  -6   7  -3    2.38    0.10 
  -6   7  -3    2.42    0.09 
  -6   7  -3    2.19    0.13 
   6  -7   3    2.51    0.09 
   6  -7   3    2.49    0.09 
   6  -7   3    2.48    0.09 
  -7   7  -3    0.09    0.03 
  -7   7  -3    0.03    0.03 
  -7   7  -3    0.04    0.03 
   7  -7   3    0.04    0.04 
   7  -7   3    0.02    0.03 
   7  -7   3    0.05    0.02 
   7  -7   3    0.07    0.03 
   7   6  -3    0.19    0.04 
   7   6  -3    0.25    0.04 
  -7  -6   3    0.25    0.04 
  -7  -6   3    0.24    0.03 
   6   6  -3    1.96    0.09 
   6   6  -3    2.19    0.10 
   6   6  -3    1.90    0.11 
  -6  -6   3    2.01    0.08 
   5   6  -3   18.15    0.54 
   5   6  -3   16.94    0.53 
   5   6  -3   16.55    0.53 
   5   6  -3   16.35    0.53 
  -5  -6   3   17.10    0.52 
  -5  -6   3   16.46    0.53 
   4   6  -3    7.86    0.27 
   4   6  -3    7.41    0.26 
   4   6  -3    8.03    0.25 
   4   6  -3    7.56    0.27 
   4   6  -3    7.55    0.25 
  -4  -6   3    7.60    0.24 
  -4  -6   3    7.89    0.24 
   3   6  -3    5.10    0.19 
   3   6  -3    5.26    0.17 
   3   6  -3    5.26    0.17 
   3   6  -3    5.17    0.18 
   3   6  -3    5.07    0.18 
  -3  -6   3    5.03    0.16 
  -3  -6   3    5.09    0.16 
   2   6  -3   20.30    0.62 
   2   6  -3   20.13    0.62 
   2   6  -3   19.77    0.61 
   2   6  -3   19.76    0.64 
   2   6  -3   19.90    0.61 
  -2  -6   3   19.23    0.61 
   1   6  -3   15.62    0.50 
   1   6  -3   16.55    0.50 
   1   6  -3   16.03    0.50 
   1   6  -3   16.44    0.51 
   0   6  -3   16.94    0.53 
   0   6  -3   16.93    0.52 
   0   6  -3   17.13    0.52 
   0   6  -3   16.09    0.52 
  -1   6  -3    0.64    0.04 
  -1   6  -3    0.62    0.04 
  -1   6  -3    0.59    0.05 
  -2   6  -3    0.54    0.04 
  -2   6  -3    0.47    0.05 
  -2   6  -3    0.60    0.04 
   2  -6   3    0.54    0.03 
  -3   6  -3    8.20    0.27 
  -3   6  -3    8.47    0.26 
  -3   6  -3    8.26    0.26 
   3  -6   3    8.17    0.25 
   3  -6   3    7.76    0.25 
  -4   6  -3    1.41    0.08 
  -4   6  -3    1.27    0.07 
  -4   6  -3    1.39    0.07 
   4  -6   3    1.44    0.06 
   4  -6   3    1.34    0.06 
  -5   6  -3    0.26    0.06 
  -5   6  -3    0.24    0.05 
   5  -6   3    0.18    0.04 
  -6   6  -3    9.98    0.32 
  -6   6  -3   10.22    0.32 
  -6   6  -3    9.76    0.32 
  -6   6  -3    9.80    0.32 
   6  -6   3   10.09    0.31 
   6  -6   3    9.57    0.31 
   6  -6   3   10.17    0.31 
  -7   6  -3    7.70    0.25 
  -7   6  -3    8.05    0.25 
  -7   6  -3    7.55    0.25 
   7  -6   3    7.83    0.25 
   7  -6   3    8.24    0.25 
   7  -6   3    7.89    0.25 
  -8   6  -3    3.99    0.13 
  -8   6  -3    4.07    0.13 
  -8   6  -3    4.04    0.13 
   8  -6   3    3.90    0.13 
   8  -6   3    4.02    0.13 
   8  -6   3    4.06    0.13 
   7   5  -3    4.83    0.16 
   7   5  -3    4.52    0.18 
   7   5  -3    4.72    0.17 
  -7  -5   3    4.70    0.15 
  -7  -5   3    4.61    0.15 
   6   5  -3    0.37    0.06 
   6   5  -3    0.29    0.09 
   6   5  -3    0.31    0.06 
  -6  -5   3    0.29    0.05 
  -6  -5   3    0.29    0.04 
   5   5  -3    0.59    0.08 
   5   5  -3    0.48    0.05 
   5   5  -3    0.44    0.08 
  -5  -5   3    0.40    0.04 
   4   5  -3    0.15    0.04 
   4   5  -3    0.10    0.03 
   4   5  -3    0.11    0.04 
   4   5  -3    0.11    0.03 
   4   5  -3    0.14    0.05 
  -4  -5   3    0.13    0.03 
  -4  -5   3    0.11    0.02 
   3   5  -3    8.36    0.26 
   3   5  -3    8.18    0.27 
   3   5  -3    8.54    0.26 
   3   5  -3    7.88    0.26 
  -3  -5   3    7.71    0.25 
  -3  -5   3    8.14    0.25 
   2   5  -3   15.90    0.50 
   2   5  -3   16.32    0.50 
   2   5  -3   15.85    0.50 
   2   5  -3   16.41    0.50 
  -2  -5   3   15.89    0.49 
   1   5  -3    0.30    0.03 
   1   5  -3    0.29    0.04 
   1   5  -3    0.30    0.03 
   1   5  -3    0.28    0.04 
   1   5  -3    0.37    0.04 
   0   5  -3    6.20    0.20 
   0   5  -3    6.19    0.20 
   0   5  -3    6.25    0.20 
   0   5  -3    6.11    0.20 
   0   5  -3    6.45    0.20 
   0   5  -3    6.37    0.20 
   0   5  -3    6.16    0.20 
  -1   5  -3    1.26    0.05 
  -1   5  -3    1.15    0.05 
  -1   5  -3    1.13    0.05 
  -2   5  -3    0.94    0.04 
  -2   5  -3    0.72    0.05 
  -2   5  -3    0.89    0.04 
  -2   5  -3    0.84    0.05 
   2  -5   3    0.91    0.03 
  -3   5  -3    0.27    0.04 
  -3   5  -3    0.36    0.04 
  -3   5  -3    0.32    0.03 
  -3   5  -3    0.28    0.05 
   3  -5   3    0.26    0.03 
   3  -5   3    0.29    0.03 
  -4   5  -3   10.37    0.33 
  -4   5  -3   10.17    0.33 
  -4   5  -3   10.86    0.34 
  -4   5  -3   10.68    0.34 
   4  -5   3   11.01    0.33 
   4  -5   3   10.23    0.34 
   4  -5   3   10.52    0.33 
  -5   5  -3   20.71    0.65 
  -5   5  -3   20.67    0.64 
  -5   5  -3   20.76    0.64 
   5  -5   3   20.93    0.64 
   5  -5   3   19.89    0.65 
  -6   5  -3    3.16    0.12 
  -6   5  -3    3.26    0.13 
  -6   5  -3    3.39    0.12 
  -6   5  -3    3.08    0.12 
   6  -5   3    3.26    0.12 
   6  -5   3    3.27    0.11 
   6  -5   3    3.32    0.12 
   6  -5   3    3.33    0.12 
  -7   5  -3    0.78    0.06 
  -7   5  -3    0.74    0.05 
  -7   5  -3    0.59    0.05 
  -7   5  -3    0.78    0.06 
   7  -5   3    0.68    0.04 
   7  -5   3    0.68    0.05 
   7  -5   3    0.71    0.05 
  -8   5  -3    2.00    0.08 
  -8   5  -3    2.16    0.08 
  -8   5  -3    2.06    0.08 
   8  -5   3    1.99    0.08 
   8  -5   3    1.95    0.07 
   8  -5   3    1.96    0.07 
   8   4  -3    1.53    0.07 
   8   4  -3    1.51    0.08 
  -8  -4   3    1.48    0.06 
   7   4  -3    0.12    0.05 
   7   4  -3    0.10    0.03 
   7   4  -3    0.11    0.06 
  -7  -4   3    0.19    0.05 
  -7  -4   3    0.15    0.03 
   6   4  -3    2.47    0.12 
   6   4  -3    2.29    0.10 
  -6  -4   3    2.13    0.10 
   5   4  -3   22.85    0.69 
   5   4  -3   22.05    0.68 
   5   4  -3   22.81    0.70 
  -5  -4   3   21.89    0.68 
  -5  -4   3   21.97    0.69 
  -5  -4   3   21.03    0.68 
   4   4  -3    1.70    0.08 
   4   4  -3    1.87    0.07 
   4   4  -3    1.68    0.10 
   4   4  -3    1.78    0.07 
   4   4  -3    1.96    0.09 
  -4  -4   3    1.85    0.07 
  -4  -4   3    1.82    0.07 
  -4  -4   3    1.85    0.06 
   3   4  -3   68.44    2.12 
   3   4  -3   70.59    2.11 
   3   4  -3   67.91    2.12 
   3   4  -3   70.86    2.12 
   3   4  -3   66.60    2.12 
  -3  -4   3   71.06    2.11 
   2   4  -3   73.67    2.23 
   2   4  -3   74.25    2.24 
   2   4  -3   74.40    2.24 
   2   4  -3   71.81    2.24 
   2   4  -3   74.33    2.24 
  -2  -4   3   73.89    2.23 
  -2  -4   3   69.82    2.24 
   1   4  -3   10.47    0.31 
   1   4  -3   10.26    0.32 
   1   4  -3   10.36    0.32 
   1   4  -3   10.09    0.32 
   1   4  -3    9.55    0.32 
  -1  -4   3   10.32    0.33 
   0   4  -3    0.07    0.02 
   0   4  -3    0.10    0.03 
   0  -4   3    0.12    0.05 
  -1   4  -3   37.62    1.09 
  -1   4  -3   36.44    1.09 
  -1   4  -3   35.00    1.09 
  -1   4  -3   34.89    1.09 
   1  -4   3   35.94    1.09 
   1  -4   3   33.73    1.11 
  -2   4  -3    0.17    0.03 
  -2   4  -3    0.17    0.03 
  -2   4  -3    0.15    0.02 
   2  -4   3    0.15    0.03 
  -3   4  -3    4.45    0.13 
  -3   4  -3    3.75    0.13 
  -3   4  -3    4.09    0.14 
   3  -4   3    4.15    0.13 
   3  -4   3    4.03    0.14 
  -4   4  -3    0.18    0.05 
  -4   4  -3    0.13    0.03 
   4  -4   3    0.21    0.03 
   4  -4   3    0.18    0.03 
   4  -4   3    0.14    0.03 
  -5   4  -3    3.33    0.13 
  -5   4  -3    3.20    0.12 
  -5   4  -3    3.25    0.13 
   5  -4   3    3.36    0.13 
  -6   4  -3   19.18    0.61 
  -6   4  -3   18.67    0.61 
   6  -4   3   19.95    0.61 
  -7   4  -3    0.76    0.07 
  -7   4  -3    0.79    0.06 
  -7   4  -3    0.76    0.06 
  -7   4  -3    0.94    0.05 
   7  -4   3    0.79    0.05 
   7  -4   3    0.83    0.05 
   7  -4   3    0.74    0.10 
   7  -4   3    0.83    0.04 
  -8   4  -3   15.79    0.49 
  -8   4  -3   15.79    0.49 
  -8   4  -3   16.36    0.49 
   8  -4   3   15.58    0.49 
   8  -4   3   16.25    0.49 
   8  -4   3   15.82    0.49 
   8   3  -3    8.92    0.29 
   8   3  -3    9.12    0.28 
   8   3  -3    9.08    0.29 
  -8  -3   3    8.96    0.28 
   7   3  -3    3.68    0.13 
   7   3  -3    3.70    0.15 
   7   3  -3    3.30    0.15 
   7   3  -3    3.52    0.12 
  -7  -3   3    3.75    0.12 
   6   3  -3    4.83    0.16 
   6   3  -3    4.75    0.18 
  -6  -3   3    4.48    0.17 
  -6  -3   3    4.86    0.18 
   5   3  -3    4.24    0.16 
   5   3  -3    4.13    0.14 
  -5  -3   3    3.89    0.15 
  -5  -3   3    4.06    0.14 
  -5  -3   3    4.17    0.14 
   4   3  -3   17.77    0.56 
   4   3  -3   18.93    0.56 
   4   3  -3   17.50    0.56 
   4   3  -3   18.47    0.57 
  -4  -3   3   17.93    0.56 
  -4  -3   3   18.60    0.56 
  -4  -3   3   17.54    0.56 
   3   3  -3   31.72    0.95 
   3   3  -3   31.28    0.96 
   3   3  -3   31.54    0.96 
   3   3  -3   30.70    0.96 
   3   3  -3   31.76    0.96 
  -3  -3   3   32.07    0.95 
  -3  -3   3   29.23    0.96 
  -3  -3   3   31.31    0.96 
   2   3  -3   14.41    0.45 
   2   3  -3   14.91    0.45 
   2   3  -3   14.59    0.45 
   2   3  -3   14.80    0.46 
   2   3  -3   14.58    0.45 
  -2  -3   3   14.68    0.45 
  -2  -3   3   14.44    0.47 
  -1  -3   3  143.96    4.41 
   0  -3   3   19.89    0.62 
   1  -3   3  114.76    3.49 
   1  -3   3  114.00    3.51 
  -2   3  -3   17.60    0.52 
  -2   3  -3   16.33    0.52 
  -2   3  -3   17.47    0.53 
  -2   3  -3   17.21    0.52 
   2  -3   3   16.40    0.52 
   2  -3   3   16.81    0.52 
  -3   3  -3    0.20    0.04 
  -3   3  -3    0.17    0.03 
  -3   3  -3    0.23    0.03 
  -3   3  -3    0.19    0.03 
   3  -3   3    0.19    0.03 
   3  -3   3    0.20    0.02 
  -4   3  -3    1.75    0.08 
  -4   3  -3    2.05    0.09 
  -4   3  -3    2.16    0.08 
   4  -3   3    2.39    0.09 
  -5   3  -3    0.05    0.04 
  -5   3  -3    0.04    0.04 
   5  -3   3    0.05    0.04 
  -6   3  -3    2.64    0.11 
  -6   3  -3    2.44    0.12 
   6  -3   3    2.33    0.12 
   6  -3   3    2.26    0.09 
  -7   3  -3    4.38    0.16 
  -7   3  -3    4.31    0.15 
  -7   3  -3    4.40    0.15 
   7  -3   3    4.60    0.15 
   7  -3   3    4.21    0.17 
   7  -3   3    4.29    0.15 
   7  -3   3    4.20    0.14 
  -8   3  -3    1.55    0.06 
  -8   3  -3    1.53    0.07 
   8  -3   3    1.47    0.06 
   8  -3   3    1.46    0.06 
   8  -3   3    1.50    0.06 
   9   2  -3    4.41    0.14 
   9   2  -3    4.64    0.15 
  -9  -2   3    4.54    0.14 
  -9  -2   3    4.31    0.15 
   8   2  -3    5.28    0.18 
   8   2  -3    5.33    0.17 
  -8  -2   3    5.30    0.18 
  -8  -2   3    5.61    0.17 
   7   2  -3    2.52    0.10 
  -7  -2   3    2.59    0.09 
  -7  -2   3    2.34    0.11 
   6   2  -3    7.18    0.23 
  -6  -2   3    7.10    0.24 
  -6  -2   3    7.40    0.25 
   5   2  -3   13.65    0.41 
  -5  -2   3   12.77    0.42 
  -5  -2   3   13.12    0.42 
   4   2  -3  123.12    3.71 
   4   2  -3  114.85    3.71 
   4   2  -3  119.91    3.72 
  -4  -2   3  124.22    3.71 
  -4  -2   3  126.26    3.72 
   3   2  -3   60.01    1.78 
   3   2  -3   57.30    1.78 
   3   2  -3   56.57    1.78 
   3   2  -3   60.33    1.78 
   3   2  -3   56.78    1.78 
  -3  -2   3   58.29    1.78 
  -3  -2   3   58.70    1.78 
  -3  -2   3   58.05    1.78 
  -3  -2   3   57.43    1.78 
  -2  -2   3    2.28    0.07 
  -2  -2   3    2.15    0.08 
  -2  -2   3    2.45    0.09 
  -2  -2   3    2.37    0.07 
  -1  -2   3   87.14    2.67 
   0   2  -3   42.68    1.30 
   0   2  -3   43.03    1.30 
   0  -2   3   41.93    1.31 
   1  -2   3   29.61    0.95 
   1  -2   3   32.34    0.95 
   1  -2   3   31.08    0.95 
  -2   2  -3   15.72    0.49 
  -2   2  -3   16.06    0.49 
   2  -2   3   15.96    0.49 
   2  -2   3   16.08    0.49 
   2  -2   3   15.34    0.49 
   2  -2   3   15.54    0.48 
  -3   2  -3   55.31    1.65 
  -3   2  -3   54.08    1.65 
  -3   2  -3   51.60    1.65 
  -3   2  -3   53.27    1.65 
   3  -2   3   52.95    1.65 
   3  -2   3   55.54    1.65 
   3  -2   3   54.55    1.65 
  -4   2  -3  163.92    4.67 
  -4   2  -3  152.31    4.66 
  -4   2  -3  145.26    4.67 
   4  -2   3  146.45    4.66 
   4  -2   3  156.39    4.67 
  -5   2  -3    7.79    0.25 
  -5   2  -3    7.79    0.25 
  -5   2  -3    7.68    0.26 
   5  -2   3    7.48    0.24 
   5  -2   3    7.78    0.26 
  -6   2  -3   35.85    1.11 
  -6   2  -3   37.06    1.11 
  -6   2  -3   35.64    1.11 
   6  -2   3   36.49    1.12 
   6  -2   3   34.24    1.10 
  -7   2  -3   17.75    0.54 
  -7   2  -3   17.12    0.54 
   7  -2   3   16.50    0.53 
   7  -2   3   16.82    0.53 
   7  -2   3   17.14    0.55 
   7  -2   3   18.04    0.54 
  -8   2  -3    2.52    0.09 
  -8   2  -3    2.41    0.09 
   8  -2   3    2.64    0.09 
   8  -2   3    2.52    0.08 
   8  -2   3    2.53    0.09 
   9   1  -3    1.01    0.05 
   9   1  -3    1.01    0.05 
  -9  -1   3    1.02    0.05 
  -9  -1   3    0.97    0.06 
   8   1  -3    1.38    0.06 
  -8  -1   3    1.38    0.08 
  -8  -1   3    1.23    0.06 
   7   1  -3   38.58    1.19 
  -7  -1   3   38.93    1.20 
  -7  -1   3   40.07    1.20 
  -7  -1   3   37.48    1.19 
   6   1  -3    0.39    0.04 
   6   1  -3    0.40    0.03 
  -6  -1   3    0.36    0.05 
  -6  -1   3    0.30    0.05 
  -6  -1   3    0.40    0.06 
   5   1  -3    3.06    0.10 
   5   1  -3    3.19    0.11 
  -5  -1   3    3.11    0.11 
  -5  -1   3    3.30    0.12 
   4   1  -3   33.45    1.01 
   4   1  -3   32.78    1.02 
   4   1  -3   33.43    1.01 
  -4  -1   3   31.84    1.01 
  -4  -1   3   32.86    1.02 
  -4  -1   3   33.75    1.02 
   3   1  -3    8.10    0.24 
   3   1  -3    7.10    0.23 
  -3  -1   3    7.22    0.23 
  -3  -1   3    7.19    0.23 
  -3  -1   3    7.13    0.23 
  -3  -1   3    7.49    0.23 
  -3  -1   3    7.50    0.23 
   2   1  -3    2.75    0.09 
  -2  -1   3    2.65    0.10 
  -2  -1   3    2.65    0.09 
  -2  -1   3    2.74    0.09 
   1   1  -3   61.24    1.90 
   1   1  -3   64.86    1.90 
  -1  -1   3   62.95    1.90 
  -1  -1   3   61.22    1.90 
  -1  -1   3   59.48    1.90 
  -1  -1   3   65.13    1.90 
  -1  -1   3   61.86    1.91 
   0   1  -3   79.62    2.45 
   0   1  -3   82.87    2.45 
   0  -1   3   78.41    2.45 
   0  -1   3   85.24    2.45 
   0  -1   3   78.37    2.45 
   0  -1   3   76.21    2.45 
   0  -1   3   81.72    2.46 
  -1   1  -3    3.98    0.12 
   1  -1   3    3.84    0.12 
   1  -1   3    3.79    0.13 
  -2   1  -3   34.53    1.01 
   2  -1   3   31.94    1.01 
   2  -1   3   31.73    1.01 
   2  -1   3   33.05    1.01 
   2  -1   3   33.16    1.01 
  -3   1  -3    0.56    0.03 
  -3   1  -3    0.49    0.04 
  -3   1  -3    0.46    0.04 
   3  -1   3    0.51    0.03 
   3  -1   3    0.52    0.04 
  -4   1  -3    0.46    0.03 
  -4   1  -3    0.43    0.05 
  -4   1  -3    0.44    0.05 
   4  -1   3    0.43    0.05 
   4  -1   3    0.38    0.03 
  -5   1  -3   13.56    0.41 
  -5   1  -3   11.93    0.41 
  -5   1  -3   13.37    0.41 
   5  -1   3   12.94    0.40 
   5  -1   3   12.97    0.42 
  -6   1  -3    0.50    0.06 
  -6   1  -3    0.67    0.08 
  -6   1  -3    0.56    0.08 
   6  -1   3    0.47    0.08 
   6  -1   3    0.59    0.09 
   6  -1   3    0.56    0.05 
  -7   1  -3    1.07    0.07 
  -7   1  -3    1.07    0.07 
   7  -1   3    1.22    0.06 
   7  -1   3    1.18    0.10 
   7  -1   3    1.16    0.05 
  -8   1  -3    1.00    0.06 
  -8   1  -3    1.10    0.06 
   8  -1   3    1.07    0.04 
   8  -1   3    0.99    0.05 
   9   0  -3    2.82    0.10 
  -9   0   3    2.78    0.11 
  -9   0   3    2.95    0.10 
   8   0  -3   24.02    0.75 
  -8   0   3   24.26    0.75 
  -8   0   3   24.78    0.75 
   7   0  -3   25.33    0.78 
   7   0  -3   23.73    0.78 
  -7   0   3   26.22    0.79 
  -7   0   3   25.04    0.78 
  -7   0   3   25.76    0.79 
   6   0  -3    1.20    0.05 
   6   0  -3    1.24    0.06 
  -6   0   3    1.26    0.06 
  -6   0   3    1.28    0.07 
  -6   0   3    1.16    0.07 
   5   0  -3   11.13    0.35 
   5   0  -3   10.98    0.35 
  -5   0   3   11.06    0.35 
  -5   0   3   10.99    0.35 
  -5   0   3   11.43    0.35 
   4   0  -3    0.09    0.02 
  -4   0   3    0.08    0.02 
  -4   0   3    0.10    0.02 
   3   0  -3   24.98    0.78 
  -3   0   3   25.29    0.79 
  -3   0   3   24.82    0.78 
  -3   0   3   26.00    0.78 
   2   0  -3    1.87    0.07 
  -2   0   3    1.94    0.06 
  -2   0   3    1.81    0.06 
  -2   0   3    1.87    0.08 
   1   0  -3   20.90    0.65 
   1   0  -3   21.68    0.65 
  -1   0   3   21.40    0.66 
  -1   0   3   20.98    0.65 
  -1   0   3   20.65    0.65 
  -1   0   3   22.06    0.65 
   0   0  -3   39.16    1.22 
   0   0  -3   39.93    1.22 
   0   0   3   39.20    1.22 
   0   0   3   41.53    1.22 
   0   0   3   40.02    1.22 
   0   0   3   39.53    1.23 
  -1   0  -3    5.09    0.16 
   1   0   3    4.78    0.16 
   1   0   3    4.83    0.16 
  -2   0  -3   51.98    1.57 
  -2   0  -3   52.51    1.58 
   2   0   3   51.83    1.58 
   2   0   3   49.59    1.57 
  -3   0  -3    2.81    0.10 
  -3   0  -3    2.75    0.10 
  -3   0  -3    2.65    0.10 
  -3   0  -3    2.87    0.09 
   3   0   3    2.99    0.09 
   3   0   3    2.82    0.10 
  -4   0  -3   26.36    0.82 
  -4   0  -3   25.75    0.81 
  -4   0  -3   25.88    0.80 
   4   0   3   25.56    0.80 
   4   0   3   26.87    0.81 
  -5   0  -3    2.66    0.13 
  -5   0  -3    2.45    0.10 
   5   0   3    2.47    0.12 
   5   0   3    2.99    0.12 
   5   0   3    2.62    0.09 
  -6   0  -3    1.25    0.07 
   6   0   3    1.29    0.06 
  -7   0  -3    7.13    0.24 
   7   0   3    7.44    0.23 
   7   0   3    7.08    0.23 
   7   0   3    7.31    0.23 
   7   0   3    7.47    0.25 
  -8   0  -3    0.43    0.05 
   8   0   3    0.48    0.03 
   8   0   3    0.50    0.04 
   8   0   3    0.52    0.04 
   9  -1  -3    1.81    0.07 
  -9   1   3    1.83    0.08 
   8  -1  -3    1.78    0.08 
  -8   1   3    1.71    0.10 
  -8   1   3    1.91    0.09 
   7  -1  -3   19.37    0.60 
   7  -1  -3   18.54    0.60 
  -7   1   3   18.96    0.60 
  -7   1   3   19.47    0.61 
  -7   1   3   19.95    0.61 
   6  -1  -3   21.66    0.68 
   6  -1  -3   22.11    0.68 
  -6   1   3   21.51    0.68 
  -6   1   3   22.24    0.68 
  -6   1   3   22.09    0.68 
   5  -1  -3    0.18    0.05 
   5  -1  -3    0.13    0.02 
  -5   1   3    0.16    0.04 
  -5   1   3    0.19    0.03 
  -5   1   3    0.10    0.03 
   4  -1  -3    0.50    0.04 
   4  -1  -3    0.55    0.03 
   4  -1  -3    0.45    0.04 
  -4   1   3    0.53    0.04 
  -4   1   3    0.56    0.04 
  -4   1   3    0.52    0.03 
   3  -1  -3  105.91    3.22 
   3  -1  -3  105.26    3.21 
  -3   1   3  102.61    3.23 
  -3   1   3  104.18    3.22 
  -3   1   3  109.00    3.22 
   2  -1  -3    9.59    0.30 
   2  -1  -3    9.33    0.29 
  -2   1   3    9.44    0.29 
  -2   1   3    9.18    0.29 
  -2   1   3    9.62    0.30 
   1  -1  -3    9.86    0.32 
   1  -1  -3   10.30    0.32 
  -1   1   3   10.60    0.33 
  -1   1   3   10.49    0.33 
  -1   1   3   10.68    0.32 
  -1   1   3   10.63    0.32 
   0  -1  -3   52.72    1.64 
   0  -1  -3   55.40    1.64 
   0   1   3   52.28    1.64 
   0   1   3   53.03    1.64 
   0   1   3   54.64    1.64 
  -1  -1  -3    5.26    0.17 
   1   1   3    5.33    0.17 
  -2  -1  -3   20.71    0.64 
  -2  -1  -3   20.89    0.65 
   2   1   3   20.38    0.65 
   2   1   3   21.62    0.64 
  -3  -1  -3   30.30    0.92 
  -3  -1  -3   30.37    0.93 
   3   1   3   28.98    0.93 
   3   1   3   30.88    0.92 
  -4  -1  -3    0.72    0.04 
  -4  -1  -3    0.78    0.06 
   4   1   3    0.70    0.04 
   4   1   3    0.58    0.07 
  -5  -1  -3    5.49    0.18 
  -5  -1  -3    5.43    0.19 
   5   1   3    5.34    0.18 
   5   1   3    5.59    0.20 
   6   1   3    0.91    0.06 
   6   1   3    0.95    0.09 
   6   1   3    0.98    0.06 
   6   1   3    0.93    0.08 
   6   1   3    0.94    0.05 
   7   1   3    2.61    0.09 
   7   1   3    2.60    0.09 
   7   1   3    2.63    0.10 
   7   1   3    2.59    0.12 
   9  -2  -3    0.24    0.04 
  -9   2   3    0.21    0.04 
  -9   2   3    0.25    0.05 
  -9   2   3    0.28    0.06 
   8  -2  -3    0.06    0.04 
  -8   2   3    0.09    0.04 
  -8   2   3    0.11    0.04 
  -8   2   3    0.12    0.04 
   7  -2  -3    0.59    0.05 
   7  -2  -3    0.46    0.05 
  -7   2   3    0.58    0.06 
  -7   2   3    0.57    0.05 
  -7   2   3    0.44    0.08 
   6  -2  -3    6.65    0.23 
   6  -2  -3    6.84    0.22 
   6  -2  -3    6.55    0.22 
  -6   2   3    6.76    0.22 
  -6   2   3    6.98    0.22 
   5  -2  -3   12.84    0.39 
   5  -2  -3   12.46    0.40 
  -5   2   3   12.58    0.40 
  -5   2   3   12.36    0.40 
  -5   2   3   13.04    0.39 
   4  -2  -3   24.20    0.75 
   4  -2  -3   25.15    0.76 
  -4   2   3   24.51    0.75 
  -4   2   3   23.44    0.75 
  -4   2   3   24.44    0.76 
  -4   2   3   24.48    0.75 
   3  -2  -3    0.16    0.03 
   3  -2  -3    0.17    0.02 
  -3   2   3    0.14    0.02 
   2  -2  -3    3.10    0.11 
   2  -2  -3    3.14    0.11 
  -2   2   3    3.27    0.11 
   1  -2  -3   57.75    1.73 
   1  -2  -3   55.34    1.73 
   0  -2  -3    2.03    0.07 
   0  -2  -3    1.99    0.07 
   0   2   3    2.02    0.07 
  -1  -2  -3    4.25    0.14 
  -1  -2  -3    4.11    0.13 
  -1  -2  -3    4.38    0.14 
   1   2   3    4.15    0.14 
   1   2   3    4.21    0.13 
  -2  -2  -3   69.61    2.20 
  -2  -2  -3   72.22    2.20 
   2   2   3   73.73    2.19 
  -3  -2  -3   32.57    1.01 
  -3  -2  -3   34.13    1.01 
   3   2   3   31.43    1.00 
  -4  -2  -3   30.45    0.92 
  -4  -2  -3   29.73    0.91 
   4   2   3   28.16    0.92 
   4   2   3   30.08    0.91 
  -5  -2  -3    5.49    0.19 
  -5  -2  -3    5.34    0.18 
   5   2   3    5.34    0.19 
   5   2   3    5.12    0.17 
  -6  -2  -3   24.44    0.74 
   6   2   3   23.67    0.76 
   6   2   3   24.77    0.74 
   6   2   3   23.52    0.75 
   6   2   3   24.12    0.74 
   6   2   3   24.22    0.75 
   7   2   3   11.72    0.37 
   7   2   3   11.99    0.36 
   7   2   3   11.48    0.37 
  -9   3   3    0.84    0.05 
  -9   3   3    0.81    0.06 
  -9   3   3    0.64    0.06 
  -8   3   3    5.12    0.18 
  -8   3   3    5.16    0.18 
  -8   3   3    5.36    0.18 
   7  -3  -3    2.37    0.09 
   7  -3  -3    2.45    0.12 
   7  -3  -3    2.23    0.09 
  -7   3   3    2.31    0.09 
  -7   3   3    2.17    0.10 
   6  -3  -3   44.30    1.38 
   6  -3  -3   44.97    1.37 
  -6   3   3   42.62    1.37 
  -6   3   3   46.98    1.37 
   5  -3  -3   30.36    0.94 
   5  -3  -3   31.59    0.95 
  -5   3   3   29.95    0.94 
  -5   3   3   30.28    0.94 
  -5   3   3   30.40    0.94 
   4  -3  -3    9.36    0.30 
   4  -3  -3    9.66    0.31 
  -4   3   3    9.33    0.30 
  -4   3   3    9.82    0.30 
   3  -3  -3    3.14    0.11 
   3  -3  -3    3.47    0.11 
  -3   3   3    3.30    0.11 
  -3   3   3    3.13    0.11 
   2  -3  -3  224.45    6.72 
   2  -3  -3  218.03    6.71 
   2  -3  -3  216.51    6.72 
  -2   3   3  221.09    6.71 
  -2   3   3  225.54    6.71 
  -2   3   3  215.26    6.72 
   1  -3  -3   16.93    0.53 
   1  -3  -3   17.43    0.53 
  -1   3   3   17.16    0.53 
  -1   3   3   17.19    0.53 
   0  -3  -3   60.13    1.84 
   0  -3  -3   58.37    1.85 
   0  -3  -3   58.73    1.85 
   0   3   3   62.52    1.85 
   0   3   3   62.28    1.85 
   0   3   3   60.60    1.85 
  -1  -3  -3   45.33    1.45 
  -1  -3  -3   48.52    1.45 
   1   3   3   45.78    1.45 
   1   3   3   49.96    1.45 
  -2  -3  -3    0.08    0.02 
   2   3   3    0.10    0.02 
  -3  -3  -3    0.09    0.03 
   3   3   3    0.07    0.02 
  -4  -3  -3    0.17    0.05 
  -4  -3  -3    0.08    0.03 
   4   3   3    0.09    0.05 
   4   3   3    0.11    0.02 
  -5  -3  -3   13.10    0.42 
  -5  -3  -3   12.73    0.42 
  -5  -3  -3   13.42    0.43 
   5   3   3   14.18    0.43 
   5   3   3   13.22    0.43 
   5   3   3   13.08    0.43 
   5   3   3   13.78    0.42 
  -6  -3  -3    9.89    0.31 
   6   3   3    9.89    0.31 
   6   3   3   10.08    0.31 
   6   3   3    9.73    0.33 
   6   3   3   10.08    0.32 
  -7  -3  -3    0.97    0.05 
   7   3   3    1.01    0.04 
   7   3   3    1.08    0.05 
   7   3   3    1.02    0.05 
  -9   4   3    0.82    0.05 
  -9   4   3    0.84    0.05 
  -9   4   3    0.76    0.06 
   8  -4  -3    0.71    0.05 
  -8   4   3    0.67    0.06 
  -8   4   3    0.76    0.05 
  -8   4   3    0.68    0.06 
   7  -4  -3   65.50    1.92 
  -7   4   3   61.61    1.93 
  -7   4   3   62.63    1.92 
  -7   4   3   63.82    1.92 
  -7   4   3   60.48    1.93 
   6  -4  -3   13.81    0.44 
   6  -4  -3   13.17    0.43 
  -6   4   3   13.48    0.43 
  -6   4   3   14.26    0.43 
   5  -4  -3    1.25    0.07 
   5  -4  -3    1.21    0.06 
  -5   4   3    1.22    0.06 
  -5   4   3    1.26    0.06 
  -5   4   3    1.38    0.06 
   4  -4  -3    2.79    0.10 
   4  -4  -3    3.04    0.11 
  -4   4   3    3.07    0.10 
  -4   4   3    2.96    0.10 
  -4   4   3    3.02    0.11 
   3  -4  -3    9.15    0.29 
   3  -4  -3    9.13    0.29 
  -3   4   3    9.52    0.29 
  -3   4   3    8.90    0.29 
  -3   4   3    9.48    0.29 
   2  -4  -3    2.36    0.08 
   2  -4  -3    2.47    0.09 
  -2   4   3    2.42    0.08 
  -2   4   3    2.55    0.08 
  -2   4   3    2.48    0.09 
   1  -4  -3    0.17    0.03 
   1  -4  -3    0.17    0.02 
   0  -4  -3    0.32    0.03 
   0  -4  -3    0.27    0.02 
   0   4   3    0.28    0.02 
   0   4   3    0.22    0.04 
  -1  -4  -3    7.98    0.26 
   1   4   3    7.95    0.26 
   1   4   3    8.08    0.25 
  -2  -4  -3    8.95    0.29 
  -3  -4  -3   50.86    1.57 
  -4  -4  -3   51.60    1.59 
  -5  -4  -3   52.74    1.60 
   5   4   3   52.76    1.60 
   5   4   3   53.51    1.60 
   5   4   3   52.25    1.61 
   5   4   3   52.19    1.60 
   5   4   3   50.48    1.61 
  -6  -4  -3    0.33    0.04 
   6   4   3    0.38    0.05 
   6   4   3    0.44    0.09 
   6   4   3    0.41    0.04 
   6   4   3    0.43    0.03 
   9  -5  -3    1.87    0.07 
  -9   5   3    1.78    0.07 
  -9   5   3    1.86    0.08 
  -9   5   3    1.88    0.07 
   8  -5  -3    0.57    0.05 
  -8   5   3    0.59    0.05 
  -8   5   3    0.62    0.06 
  -8   5   3    0.67    0.05 
  -8   5   3    0.62    0.06 
   7  -5  -3    2.50    0.09 
  -7   5   3    2.40    0.10 
  -7   5   3    2.20    0.10 
  -7   5   3    2.51    0.10 
  -7   5   3    2.50    0.10 
   6  -5  -3   13.28    0.41 
   6  -5  -3   13.84    0.43 
  -6   5   3   12.65    0.42 
  -6   5   3   12.79    0.42 
   5  -5  -3   20.30    0.64 
  -5   5   3   20.54    0.63 
  -5   5   3   19.86    0.63 
   4  -5  -3   42.33    1.30 
  -4   5   3   40.62    1.30 
  -4   5   3   43.53    1.29 
   3  -5  -3   60.41    1.81 
  -3   5   3   57.43    1.81 
   2  -5  -3   93.04    2.94 
   2  -5  -3   96.13    2.93 
  -2   5   3   97.47    2.94 
  -2   5   3   98.00    2.94 
   1  -5  -3   27.91    0.86 
   1  -5  -3   28.90    0.87 
  -1   5   3   27.76    0.87 
   0  -5  -3   24.64    0.74 
   0  -5  -3   23.52    0.75 
   0   5   3   24.73    0.76 
  -1  -5  -3    4.93    0.17 
  -1  -5  -3    5.29    0.18 
   1   5   3    5.71    0.19 
  -2  -5  -3   56.71    1.74 
  -3  -5  -3    1.47    0.08 
  -4  -5  -3    1.35    0.06 
   4   5   3    1.48    0.08 
   4   5   3    1.55    0.06 
   4   5   3    1.43    0.07 
  -5  -5  -3    0.85    0.05 
   5   5   3    0.77    0.06 
   5   5   3    0.81    0.05 
   5   5   3    0.83    0.04 
   5   5   3    0.82    0.07 
  -6  -5  -3   12.33    0.37 
   6   5   3   11.88    0.37 
   6   5   3   11.82    0.37 
   6   5   3   11.58    0.37 
   8  -6  -3    0.58    0.04 
   8  -6  -3    0.53    0.04 
  -8   6   3    0.60    0.04 
  -8   6   3    0.59    0.06 
  -8   6   3    0.65    0.05 
   7  -6  -3    0.67    0.05 
   7  -6  -3    0.61    0.04 
  -7   6   3    0.59    0.06 
  -7   6   3    0.65    0.07 
  -7   6   3    0.56    0.07 
  -7   6   3    0.64    0.05 
   6  -6  -3    6.89    0.22 
   6  -6  -3    7.72    0.23 
  -6   6   3    6.55    0.23 
  -6   6   3    6.46    0.23 
  -6   6   3    6.50    0.22 
  -6   6   3    6.80    0.22 
  -6   6   3    6.48    0.23 
   5  -6  -3   21.90    0.69 
  -5   6   3   21.12    0.68 
  -5   6   3   22.91    0.69 
   4  -6  -3    4.46    0.17 
  -4   6   3    4.87    0.16 
   3  -6  -3   13.90    0.44 
   3  -6  -3   14.54    0.45 
  -3   6   3   13.95    0.45 
   2  -6  -3    2.89    0.11 
   2  -6  -3    2.86    0.09 
   2  -6  -3    2.85    0.09 
  -2   6   3    2.82    0.10 
  -2   6   3    2.58    0.11 
   1  -6  -3    2.59    0.10 
   1  -6  -3    2.39    0.08 
   1  -6  -3    2.37    0.08 
  -1   6   3    2.60    0.09 
   0  -6  -3    1.75    0.06 
   0  -6  -3    1.65    0.06 
   0  -6  -3    1.85    0.08 
   0   6   3    1.87    0.09 
  -1  -6  -3    5.28    0.18 
  -1  -6  -3    5.16    0.17 
   1   6   3    5.05    0.19 
  -2  -6  -3   32.47    1.01 
  -3  -6  -3    6.78    0.22 
  -3  -6  -3    6.84    0.22 
   3   6   3    6.82    0.22 
   3   6   3    7.19    0.23 
   3   6   3    6.75    0.22 
  -4  -6  -3    9.37    0.29 
   4   6   3    9.62    0.30 
   4   6   3    9.02    0.30 
   4   6   3    9.58    0.29 
  -5  -6  -3   11.73    0.36 
   5   6   3   11.35    0.36 
   5   6   3   11.60    0.36 
   8  -7  -3    0.07    0.02 
   8  -7  -3    0.02    0.02 
  -8   7   3    0.00    0.03 
  -8   7   3    0.06    0.02 
  -8   7   3    0.00    0.04 
   7  -7  -3    0.08    0.03 
   7  -7  -3    0.01    0.02 
  -7   7   3    0.02    0.03 
  -7   7   3    0.02    0.03 
  -7   7   3    0.03    0.04 
  -7   7   3    0.02    0.04 
  -7   7   3    0.01    0.02 
   6  -7  -3    6.63    0.22 
   6  -7  -3    6.91    0.22 
  -6   7   3    6.72    0.22 
  -6   7   3    6.98    0.23 
  -6   7   3    7.13    0.23 
  -6   7   3    6.64    0.22 
  -6   7   3    6.86    0.23 
   5  -7  -3   24.14    0.76 
   5  -7  -3   26.07    0.76 
  -5   7   3   25.54    0.76 
  -5   7   3   25.93    0.77 
  -5   7   3   23.85    0.77 
  -5   7   3   24.10    0.77 
  -5   7   3   23.94    0.77 
   4  -7  -3   10.58    0.34 
  -4   7   3   10.33    0.34 
   3  -7  -3    8.41    0.26 
   3  -7  -3    8.25    0.27 
  -3   7   3    8.11    0.27 
   2  -7  -3   68.99    2.15 
   2  -7  -3   69.16    2.16 
   2  -7  -3   71.25    2.15 
  -2   7   3   72.07    2.15 
   1  -7  -3    1.29    0.05 
   1  -7  -3    1.25    0.06 
   1  -7  -3    1.31    0.07 
  -1   7   3    1.40    0.07 
   0  -7  -3   62.94    1.96 
   0  -7  -3   64.85    1.97 
   0  -7  -3   64.39    1.96 
  -1  -7  -3   18.26    0.56 
  -2  -7  -3    6.29    0.20 
  -2  -7  -3    6.34    0.20 
   2   7   3    6.40    0.21 
   2   7   3    6.02    0.21 
   2   7   3    6.57    0.20 
  -3  -7  -3   10.90    0.35 
  -3  -7  -3   10.85    0.35 
   3   7   3   11.13    0.35 
   3   7   3   11.83    0.35 
  -4  -7  -3    2.71    0.09 
   4   7   3    2.77    0.10 
   4   7   3    2.71    0.09 
  -5  -7  -3   12.12    0.38 
   5   7   3   12.34    0.38 
   5   7   3   12.21    0.38 
   7  -8  -3    7.36    0.23 
   7  -8  -3    6.58    0.22 
  -7   8   3    7.40    0.23 
  -7   8   3    7.65    0.23 
  -7   8   3    7.00    0.23 
  -7   8   3    7.02    0.23 
   6  -8  -3    1.21    0.06 
   6  -8  -3    1.23    0.06 
  -6   8   3    1.20    0.06 
  -6   8   3    1.26    0.07 
  -6   8   3    1.25    0.07 
   5  -8  -3    0.82    0.04 
   5  -8  -3    0.76    0.05 
  -5   8   3    0.84    0.07 
  -5   8   3    0.91    0.07 
  -5   8   3    0.78    0.05 
  -5   8   3    0.75    0.05 
   4  -8  -3   47.36    1.43 
   4  -8  -3   45.42    1.44 
  -4   8   3   45.81    1.44 
  -4   8   3   46.95    1.44 
  -4   8   3   48.81    1.44 
  -4   8   3   47.73    1.44 
  -4   8   3   46.21    1.44 
   3  -8  -3    1.72    0.08 
   3  -8  -3    1.82    0.07 
   3  -8  -3    1.78    0.07 
  -3   8   3    1.89    0.09 
  -3   8   3    1.75    0.07 
  -3   8   3    1.63    0.10 
  -3   8   3    1.67    0.08 
  -3   8   3    1.87    0.09 
  -3   8   3    1.74    0.09 
  -3   8   3    1.74    0.09 
   2  -8  -3    0.20    0.03 
  -2   8   3    0.19    0.04 
   1  -8  -3   15.72    0.47 
  -1   8   3   14.99    0.48 
   0  -8  -3   16.34    0.51 
   0  -8  -3   16.31    0.51 
   0   8   3   16.23    0.51 
   0   8   3   15.50    0.51 
   0   8   3   16.98    0.51 
   0   8   3   16.37    0.51 
   0   8   3   16.79    0.51 
  -1  -8  -3    3.01    0.10 
  -1  -8  -3    2.78    0.10 
  -1  -8  -3    3.04    0.10 
   1   8   3    2.84    0.11 
   1   8   3    2.86    0.10 
   1   8   3    2.69    0.11 
   1   8   3    2.92    0.11 
  -2  -8  -3    0.97    0.05 
  -2  -8  -3    0.95    0.05 
   2   8   3    1.03    0.05 
   2   8   3    1.04    0.06 
  -3  -8  -3    0.09    0.02 
  -3  -8  -3    0.11    0.02 
   3   8   3    0.14    0.03 
   3   8   3    0.14    0.02 
  -4  -8  -3    0.48    0.03 
   4   8   3    0.42    0.04 
   4   8   3    0.46    0.03 
   6  -9  -3    0.27    0.04 
  -6   9   3    0.27    0.06 
  -6   9   3    0.28    0.05 
  -6   9   3    0.32    0.05 
  -6   9   3    0.27    0.03 
   5  -9  -3    1.23    0.06 
   5  -9  -3    1.24    0.05 
  -5   9   3    1.26    0.07 
  -5   9   3    1.22    0.05 
  -5   9   3    1.08    0.07 
  -5   9   3    1.20    0.06 
   4  -9  -3   18.58    0.56 
   4  -9  -3   17.84    0.57 
  -4   9   3   17.92    0.57 
  -4   9   3   18.63    0.56 
  -4   9   3   18.08    0.58 
  -4   9   3   18.68    0.57 
  -4   9   3   18.58    0.56 
  -4   9   3   18.06    0.57 
  -4   9   3   18.11    0.57 
   3  -9  -3    0.57    0.05 
   3  -9  -3    0.58    0.04 
  -3   9   3    0.58    0.05 
  -3   9   3    0.55    0.04 
  -3   9   3    0.54    0.05 
  -3   9   3    0.59    0.06 
  -3   9   3    0.59    0.06 
   2  -9  -3    7.75    0.24 
   2  -9  -3    7.40    0.24 
  -2   9   3    7.21    0.25 
  -2   9   3    7.68    0.24 
  -2   9   3    7.72    0.24 
  -2   9   3    7.55    0.24 
  -2   9   3    7.53    0.24 
  -2   9   3    7.29    0.24 
   1  -9  -3   20.34    0.64 
   1  -9  -3   21.48    0.64 
  -1   9   3   20.92    0.65 
  -1   9   3   21.00    0.64 
  -1   9   3   20.49    0.64 
  -1   9   3   20.56    0.65 
  -1   9   3   21.56    0.65 
   0  -9  -3    4.57    0.16 
   0  -9  -3    4.95    0.16 
   0   9   3    4.97    0.16 
   0   9   3    5.01    0.17 
   0   9   3    4.93    0.16 
   0   9   3    4.89    0.16 
   0   9   3    4.79    0.16 
  -1  -9  -3    4.70    0.15 
   1   9   3    4.56    0.16 
   1   9   3    4.87    0.15 
   1   9   3    4.65    0.16 
   1   9   3    4.71    0.16 
  -2  -9  -3    4.26    0.14 
   2   9   3    4.63    0.15 
   2   9   3    4.70    0.14 
   5 -10  -3    3.70    0.12 
  -5  10   3    3.95    0.12 
  -5  10   3    3.13    0.12 
  -5  10   3    3.53    0.12 
  -5  10   3    3.81    0.12 
  -5  10   3    3.48    0.12 
   4 -10  -3    5.76    0.18 
  -4  10   3    5.71    0.19 
  -4  10   3    5.91    0.19 
  -4  10   3    5.97    0.19 
  -4  10   3    5.75    0.19 
  -4  10   3    5.75    0.19 
  -4  10   3    6.38    0.19 
   3 -10  -3    2.97    0.10 
  -3  10   3    3.22    0.11 
  -3  10   3    3.17    0.10 
  -3  10   3    3.00    0.11 
  -3  10   3    2.88    0.11 
  -3  10   3    2.98    0.11 
   2 -10  -3    0.10    0.02 
  -2  10   3    0.16    0.04 
  -2  10   3    0.21    0.05 
  -2  10   3    0.20    0.04 
  -2  10   3    0.14    0.03 
  -2  10   3    0.19    0.04 
  -2  10   3    0.12    0.02 
   1 -10  -3    3.08    0.10 
  -1  10   3    3.09    0.11 
  -1  10   3    3.26    0.10 
  -1  10   3    3.16    0.11 
  -1  10   3    3.27    0.11 
  -1  10   3    2.88    0.11 
   0 -10  -3    1.22    0.05 
   0  10   3    1.28    0.05 
   0  10   3    1.15    0.06 
   0  10   3    1.21    0.06 
   0  10   3    1.22    0.06 
   0  10   3    1.15    0.06 
  -1 -10  -3    0.08    0.02 
   1  10   3    0.09    0.02 
   1  10   3    0.12    0.02 
   1  10   3    0.10    0.03 
   2  11  -4    0.00    0.03 
   2  11  -4    0.07    0.02 
   1  11  -4    0.05    0.03 
   1  11  -4    0.06    0.03 
   0  11  -4    0.78    0.06 
  -1  11  -4    0.85    0.06 
  -1  11  -4    0.85    0.06 
  -2  11  -4    0.24    0.05 
  -2  11  -4    0.30    0.04 
  -3  11  -4    0.05    0.03 
  -3  11  -4    0.02    0.02 
  -3  11  -4    0.03    0.03 
  -3  11  -4    0.06    0.03 
  -4  11  -4    1.49    0.07 
  -4  11  -4    1.64    0.06 
  -4  11  -4    1.54    0.06 
  -4  11  -4    1.44    0.06 
   4  10  -4    0.08    0.02 
   3  10  -4    3.90    0.13 
   3  10  -4    3.99    0.13 
   2  10  -4    0.72    0.05 
   2  10  -4    0.76    0.06 
   2  10  -4    0.63    0.10 
   1  10  -4    0.23    0.04 
   1  10  -4    0.23    0.07 
   1  10  -4    0.28    0.05 
   0  10  -4    9.28    0.30 
  -1  10  -4   18.25    0.56 
  -1  10  -4   18.03    0.56 
  -2  10  -4    6.07    0.19 
  -2  10  -4    5.64    0.20 
  -2  10  -4    5.87    0.19 
  -3  10  -4    1.54    0.08 
  -3  10  -4    1.59    0.07 
  -3  10  -4    1.50    0.08 
  -3  10  -4    1.67    0.08 
  -3  10  -4    1.58    0.06 
  -3  10  -4    1.46    0.07 
   3 -10   4    1.48    0.06 
  -4  10  -4    0.57    0.04 
  -4  10  -4    0.52    0.04 
  -4  10  -4    0.56    0.05 
  -4  10  -4    0.50    0.06 
  -4  10  -4    0.55    0.05 
  -5  10  -4   12.13    0.38 
  -5  10  -4   12.35    0.38 
  -5  10  -4   13.04    0.38 
  -5  10  -4   12.23    0.38 
  -5  10  -4   12.01    0.38 
   5 -10   4   11.89    0.38 
   5   9  -4    0.61    0.05 
   5   9  -4    0.52    0.09 
   5   9  -4    0.67    0.05 
  -5  -9   4    0.72    0.04 
   4   9  -4    0.32    0.05 
   4   9  -4    0.36    0.05 
   4   9  -4    0.43    0.09 
   3   9  -4    0.22    0.06 
   3   9  -4    0.18    0.04 
   3   9  -4    0.17    0.03 
  -3  -9   4    0.20    0.04 
   2   9  -4   18.26    0.56 
   2   9  -4   17.83    0.57 
   2   9  -4   17.59    0.56 
   1   9  -4    1.25    0.08 
   1   9  -4    1.35    0.11 
   1   9  -4    1.19    0.08 
   0   9  -4   21.58    0.69 
  -1   9  -4    0.97    0.11 
  -2   9  -4    4.11    0.14 
  -2   9  -4    4.08    0.14 
  -2   9  -4    3.98    0.14 
  -3   9  -4    5.53    0.19 
  -3   9  -4    5.44    0.18 
  -3   9  -4    5.23    0.19 
  -3   9  -4    5.64    0.18 
  -3   9  -4    5.61    0.18 
   3  -9   4    5.39    0.18 
  -4   9  -4    1.48    0.07 
  -4   9  -4    1.56    0.08 
  -4   9  -4    1.43    0.07 
  -4   9  -4    1.41    0.08 
  -4   9  -4    1.53    0.06 
   4  -9   4    1.38    0.06 
  -5   9  -4    1.83    0.07 
  -5   9  -4    1.69    0.07 
  -5   9  -4    1.87    0.08 
  -5   9  -4    1.75    0.08 
  -5   9  -4    1.88    0.08 
  -5   9  -4    1.66    0.07 
   5  -9   4    1.76    0.07 
  -6   9  -4    0.02    0.03 
  -6   9  -4    0.03    0.02 
  -6   9  -4    0.04    0.03 
  -6   9  -4    0.01    0.02 
  -6   9  -4    0.03    0.03 
   6  -9   4    0.02    0.03 
   6  -9   4    0.03    0.03 
   6   8  -4    0.44    0.04 
   6   8  -4    0.43    0.06 
  -6  -8   4    0.40    0.04 
   5   8  -4    0.39    0.09 
   5   8  -4    0.52    0.05 
   5   8  -4    0.54    0.05 
   5   8  -4    0.50    0.08 
  -5  -8   4    0.44    0.05 
   4   8  -4    0.90    0.06 
   4   8  -4    0.84    0.09 
   4   8  -4    0.85    0.07 
   4   8  -4    0.86    0.10 
  -4  -8   4    0.91    0.05 
   3   8  -4    0.05    0.04 
   3   8  -4    0.04    0.04 
   3   8  -4    0.03    0.06 
  -3  -8   4    0.03    0.02 
   2   8  -4   23.36    0.75 
   2   8  -4   23.82    0.74 
   2   8  -4   23.25    0.74 
   2   8  -4   23.37    0.73 
   2   8  -4   24.27    0.73 
   1   8  -4    0.99    0.10 
   1   8  -4    1.11    0.07 
   1   8  -4    1.00    0.09 
   1   8  -4    1.03    0.07 
   0   8  -4    0.52    0.09 
  -1   8  -4    3.05    0.12 
  -1   8  -4    2.88    0.14 
  -2   8  -4    0.02    0.03 
  -2   8  -4    0.05    0.06 
  -2   8  -4    0.06    0.04 
   2  -8   4    0.08    0.02 
  -3   8  -4    8.72    0.28 
  -3   8  -4    8.54    0.28 
   3  -8   4    8.87    0.27 
  -4   8  -4    0.11    0.04 
  -4   8  -4    0.07    0.03 
  -4   8  -4    0.14    0.03 
  -4   8  -4    0.05    0.04 
  -4   8  -4    0.17    0.04 
  -4   8  -4    0.11    0.06 
  -4   8  -4    0.06    0.03 
  -4   8  -4    0.08    0.04 
   4  -8   4    0.09    0.03 
  -5   8  -4    9.36    0.28 
  -5   8  -4    9.15    0.28 
  -5   8  -4    8.74    0.28 
  -5   8  -4    8.67    0.28 
  -5   8  -4    8.90    0.28 
  -5   8  -4    8.09    0.28 
  -5   8  -4    8.80    0.28 
   5  -8   4    8.75    0.28 
   5  -8   4    8.91    0.28 
  -6   8  -4    0.37    0.05 
  -6   8  -4    0.40    0.05 
  -6   8  -4    0.34    0.04 
  -6   8  -4    0.34    0.05 
   6  -8   4    0.31    0.04 
   6  -8   4    0.34    0.04 
   6   7  -4    0.82    0.06 
   6   7  -4    0.79    0.09 
   6   7  -4    0.84    0.06 
   6   7  -4    0.79    0.08 
  -6  -7   4    0.84    0.05 
   5   7  -4    2.05    0.11 
   5   7  -4    2.07    0.09 
   5   7  -4    2.07    0.11 
   5   7  -4    2.10    0.09 
  -5  -7   4    1.96    0.08 
   4   7  -4    7.17    0.23 
   4   7  -4    6.94    0.25 
   4   7  -4    6.65    0.24 
   4   7  -4    6.79    0.24 
   4   7  -4    6.69    0.23 
   4   7  -4    6.88    0.23 
   4   7  -4    6.54    0.23 
   4   7  -4    6.85    0.24 
  -4  -7   4    7.23    0.22 
   3   7  -4    4.46    0.16 
   3   7  -4    4.43    0.18 
   3   7  -4    4.58    0.16 
   3   7  -4    4.57    0.17 
   3   7  -4    4.69    0.18 
  -3  -7   4    4.50    0.14 
  -3  -7   4    4.50    0.15 
   2   7  -4    4.44    0.15 
   2   7  -4    4.43    0.16 
   2   7  -4    4.44    0.15 
   2   7  -4    4.47    0.17 
   2   7  -4    4.16    0.17 
  -2  -7   4    4.30    0.14 
   1   7  -4   24.91    0.79 
   1   7  -4   25.78    0.79 
   1   7  -4   26.26    0.80 
   1   7  -4   25.15    0.79 
   0   7  -4   51.38    1.59 
  -1   7  -4   31.09    0.97 
  -1   7  -4   31.51    0.96 
  -2   7  -4    1.95    0.08 
  -2   7  -4    1.81    0.11 
  -2   7  -4    1.95    0.08 
   2  -7   4    1.93    0.07 
  -3   7  -4    1.45    0.07 
  -3   7  -4    1.60    0.08 
  -3   7  -4    1.56    0.09 
   3  -7   4    1.60    0.06 
   3  -7   4    1.50    0.06 
  -4   7  -4    0.66    0.08 
  -4   7  -4    0.84    0.07 
  -4   7  -4    0.72    0.06 
   4  -7   4    0.85    0.05 
  -5   7  -4    0.49    0.06 
  -5   7  -4    0.65    0.05 
  -5   7  -4    0.57    0.07 
  -5   7  -4    0.59    0.07 
  -5   7  -4    0.49    0.06 
  -5   7  -4    0.54    0.06 
  -5   7  -4    0.63    0.06 
   5  -7   4    0.53    0.05 
   5  -7   4    0.66    0.05 
  -6   7  -4    0.67    0.05 
  -6   7  -4    0.65    0.06 
  -6   7  -4    0.63    0.06 
  -6   7  -4    0.66    0.06 
   6  -7   4    0.62    0.05 
   6  -7   4    0.59    0.07 
   6  -7   4    0.68    0.05 
  -7   7  -4    0.09    0.03 
  -7   7  -4    0.09    0.03 
  -7   7  -4    0.09    0.02 
  -7   7  -4    0.05    0.04 
   7  -7   4    0.06    0.03 
   7  -7   4    0.10    0.02 
   7   6  -4   13.34    0.41 
   7   6  -4   13.17    0.42 
  -7  -6   4   13.28    0.41 
   6   6  -4    0.06    0.03 
   6   6  -4    0.05    0.03 
   6   6  -4    0.09    0.05 
   6   6  -4    0.01    0.05 
  -6  -6   4    0.04    0.03 
  -6  -6   4    0.02    0.03 
   5   6  -4   15.81    0.49 
   5   6  -4   14.31    0.48 
   5   6  -4   14.98    0.49 
   5   6  -4   15.85    0.48 
  -5  -6   4   15.91    0.48 
   4   6  -4    0.61    0.06 
   4   6  -4    0.72    0.08 
   4   6  -4    0.55    0.08 
   4   6  -4    0.73    0.08 
   4   6  -4    0.53    0.06 
  -4  -6   4    0.58    0.04 
  -4  -6   4    0.61    0.04 
   3   6  -4    1.09    0.06 
   3   6  -4    1.21    0.07 
   3   6  -4    1.20    0.06 
   3   6  -4    1.16    0.08 
   3   6  -4    1.05    0.08 
  -3  -6   4    1.09    0.05 
  -3  -6   4    1.16    0.05 
   2   6  -4    0.37    0.05 
   2   6  -4    0.26    0.07 
   2   6  -4    0.32    0.06 
   2   6  -4    0.32    0.04 
   2   6  -4    0.33    0.04 
  -2  -6   4    0.34    0.02 
   1   6  -4    4.94    0.16 
   1   6  -4    5.05    0.17 
   1   6  -4    4.95    0.17 
   1   6  -4    4.88    0.16 
   0   6  -4   45.46    1.40 
   0   6  -4   46.90    1.41 
   0   6  -4   45.04    1.40 
  -1   6  -4    0.45    0.04 
  -1   6  -4    0.43    0.04 
  -1   6  -4    0.50    0.05 
  -2   6  -4   14.65    0.45 
  -2   6  -4   14.41    0.45 
  -2   6  -4   14.40    0.45 
   2  -6   4   13.94    0.44 
  -3   6  -4    4.66    0.16 
  -3   6  -4    4.94    0.17 
  -3   6  -4    4.77    0.16 
  -3   6  -4    4.55    0.17 
   3  -6   4    4.70    0.15 
   3  -6   4    4.58    0.15 
  -4   6  -4    2.04    0.09 
  -4   6  -4    2.23    0.09 
  -4   6  -4    2.09    0.10 
  -4   6  -4    2.10    0.10 
   4  -6   4    2.24    0.08 
   4  -6   4    2.18    0.08 
  -5   6  -4    0.02    0.06 
  -5   6  -4    0.05    0.06 
  -5   6  -4   -0.01    0.04 
   5  -6   4    0.03    0.03 
  -6   6  -4    3.13    0.12 
  -6   6  -4    3.25    0.12 
  -6   6  -4    3.32    0.12 
  -6   6  -4    3.15    0.12 
   6  -6   4    3.10    0.12 
   6  -6   4    3.47    0.11 
   6  -6   4    3.20    0.12 
  -7   6  -4    0.16    0.03 
  -7   6  -4    0.25    0.05 
  -7   6  -4    0.18    0.03 
   7  -6   4    0.16    0.03 
   7  -6   4    0.23    0.04 
   7  -6   4    0.18    0.03 
   8   5  -4    0.40    0.04 
   8   5  -4    0.31    0.06 
  -8  -5   4    0.33    0.03 
   7   5  -4    0.00    0.03 
   7   5  -4    0.02    0.05 
   7   5  -4    0.05    0.06 
  -7  -5   4    0.03    0.03 
  -7  -5   4    0.01    0.02 
   6   5  -4    5.91    0.19 
   6   5  -4    5.77    0.21 
   6   5  -4    5.52    0.21 
  -6  -5   4    5.99    0.19 
  -6  -5   4    5.66    0.19 
  -6  -5   4    5.71    0.19 
   5   5  -4   17.29    0.54 
   5   5  -4   17.11    0.55 
   5   5  -4   17.04    0.54 
   5   5  -4   17.56    0.55 
  -5  -5   4   17.21    0.53 
   4   5  -4    0.34    0.06 
   4   5  -4    0.33    0.07 
   4   5  -4    0.30    0.04 
   4   5  -4    0.26    0.05 
   4   5  -4    0.38    0.04 
  -4  -5   4    0.27    0.03 
  -4  -5   4    0.37    0.03 
   3   5  -4    0.29    0.04 
   3   5  -4    0.21    0.06 
   3   5  -4    0.31    0.04 
   3   5  -4    0.31    0.05 
  -3  -5   4    0.27    0.03 
  -3  -5   4    0.31    0.02 
   2   5  -4   10.08    0.31 
   2   5  -4    9.82    0.31 
   2   5  -4    9.39    0.31 
   2   5  -4    9.50    0.30 
   2   5  -4    9.81    0.31 
  -2  -5   4    9.82    0.30 
   1   5  -4   17.71    0.53 
   1   5  -4   17.49    0.54 
   1   5  -4   17.26    0.54 
   1   5  -4   16.66    0.54 
   1   5  -4   17.58    0.54 
   1   5  -4   17.41    0.54 
   0   5  -4   36.69    1.08 
   0   5  -4   35.85    1.09 
   0   5  -4   35.25    1.08 
   0   5  -4   33.74    1.08 
   0   5  -4   34.95    1.08 
  -1   5  -4   11.25    0.34 
  -1   5  -4   10.74    0.34 
  -1   5  -4   10.36    0.34 
  -1   5  -4   10.94    0.34 
   1  -5   4   10.75    0.33 
  -2   5  -4    5.95    0.20 
  -2   5  -4    6.11    0.20 
  -2   5  -4    6.18    0.20 
  -2   5  -4    6.08    0.20 
   2  -5   4    6.19    0.19 
  -3   5  -4   16.39    0.51 
  -3   5  -4   15.55    0.51 
  -3   5  -4   16.46    0.51 
  -3   5  -4   16.56    0.51 
   3  -5   4   16.32    0.50 
   3  -5   4   16.72    0.50 
  -4   5  -4    6.18    0.21 
  -4   5  -4    6.05    0.20 
  -4   5  -4    6.28    0.21 
  -4   5  -4    5.91    0.21 
   4  -5   4    6.60    0.20 
   4  -5   4    6.15    0.20 
   4  -5   4    5.97    0.21 
  -5   5  -4    4.66    0.16 
  -5   5  -4    4.69    0.18 
  -5   5  -4    4.63    0.17 
   5  -5   4    4.73    0.17 
   5  -5   4    4.94    0.16 
  -6   5  -4    1.60    0.08 
  -6   5  -4    1.42    0.08 
  -6   5  -4    1.48    0.07 
   6  -5   4    1.45    0.07 
   6  -5   4    1.58    0.07 
   6  -5   4    1.62    0.07 
  -7   5  -4    1.33    0.08 
  -7   5  -4    1.49    0.07 
  -7   5  -4    1.51    0.07 
   7  -5   4    1.40    0.06 
   7  -5   4    1.52    0.07 
   8   4  -4    0.59    0.05 
   8   4  -4    0.64    0.07 
  -8  -4   4    0.61    0.04 
   7   4  -4    6.59    0.21 
   7   4  -4    6.15    0.22 
   7   4  -4    6.31    0.23 
  -7  -4   4    6.59    0.21 
  -7  -4   4    6.56    0.21 
   6   4  -4    3.83    0.14 
   6   4  -4    3.95    0.16 
  -6  -4   4    3.79    0.15 
   5   4  -4    6.24    0.22 
   5   4  -4    6.30    0.22 
   5   4  -4    6.25    0.21 
   5   4  -4    6.50    0.20 
  -5  -4   4    5.82    0.20 
  -5  -4   4    5.88    0.21 
  -5  -4   4    6.23    0.20 
   4   4  -4   23.48    0.72 
   4   4  -4   24.39    0.73 
   4   4  -4   22.97    0.73 
   4   4  -4   21.68    0.73 
   4   4  -4   24.43    0.72 
   4   4  -4   24.23    0.73 
  -4  -4   4   22.40    0.73 
  -4  -4   4   23.58    0.72 
   3   4  -4    7.84    0.25 
   3   4  -4    7.88    0.25 
   3   4  -4    8.11    0.24 
   3   4  -4    7.80    0.25 
   3   4  -4    7.99    0.25 
  -3  -4   4    7.85    0.24 
  -3  -4   4    7.15    0.25 
   2   4  -4    0.21    0.03 
   2   4  -4    0.15    0.03 
   2   4  -4    0.18    0.03 
   2   4  -4    0.23    0.04 
   2   4  -4    0.20    0.04 
  -2  -4   4    0.18    0.02 
  -2  -4   4    0.16    0.04 
   1   4  -4    0.29    0.03 
   1   4  -4    0.32    0.03 
   1   4  -4    0.38    0.04 
   1   4  -4    0.32    0.03 
   1   4  -4    0.31    0.02 
   1   4  -4    0.29    0.03 
   1   4  -4    0.32    0.04 
   0   4  -4    3.72    0.12 
   0   4  -4    3.76    0.12 
   0   4  -4    3.90    0.13 
   0   4  -4    3.66    0.12 
   0   4  -4    3.67    0.12 
  -1   4  -4    7.76    0.25 
  -1   4  -4    8.42    0.25 
  -1   4  -4    7.85    0.25 
  -1   4  -4    8.10    0.26 
  -1   4  -4    8.13    0.25 
   1  -4   4    8.17    0.25 
  -2   4  -4    3.96    0.13 
  -2   4  -4    3.88    0.13 
  -2   4  -4    4.08    0.13 
  -2   4  -4    3.83    0.13 
   2  -4   4    3.64    0.12 
  -3   4  -4   11.06    0.35 
  -3   4  -4   11.41    0.36 
  -3   4  -4   11.38    0.35 
  -3   4  -4   10.83    0.35 
   3  -4   4   11.52    0.34 
   3  -4   4   10.88    0.35 
   3  -4   4   10.69    0.35 
  -4   4  -4    0.86    0.06 
  -4   4  -4    0.69    0.06 
  -4   4  -4    0.79    0.05 
   4  -4   4    0.79    0.06 
   4  -4   4    0.75    0.05 
   4  -4   4    0.76    0.05 
  -5   4  -4    3.85    0.15 
  -5   4  -4    4.10    0.16 
   5  -4   4    4.11    0.15 
  -6   4  -4    6.69    0.23 
  -6   4  -4    7.07    0.23 
  -6   4  -4    7.23    0.23 
  -6   4  -4    7.09    0.23 
   6  -4   4    6.29    0.23 
   6  -4   4    7.55    0.23 
   6  -4   4    7.33    0.23 
  -7   4  -4    1.04    0.06 
  -7   4  -4    0.99    0.06 
  -7   4  -4    1.02    0.06 
   7  -4   4    0.96    0.09 
   7  -4   4    1.04    0.06 
   7  -4   4    1.01    0.06 
   7  -4   4    1.00    0.05 
  -8   4  -4    3.36    0.12 
  -8   4  -4    3.45    0.11 
   8  -4   4    3.38    0.11 
   8  -4   4    3.37    0.11 
   8   3  -4    6.44    0.21 
   8   3  -4    6.71    0.21 
  -8  -3   4    6.73    0.21 
  -8  -3   4    6.64    0.22 
   7   3  -4   13.60    0.42 
   7   3  -4   13.38    0.42 
   7   3  -4   12.87    0.43 
  -7  -3   4   12.75    0.42 
  -7  -3   4   13.98    0.42 
  -7  -3   4   13.60    0.42 
   6   3  -4    0.39    0.05 
  -6  -3   4    0.36    0.06 
  -6  -3   4    0.32    0.09 
   5   3  -4    7.81    0.27 
   5   3  -4    7.73    0.25 
   5   3  -4    7.35    0.26 
  -5  -3   4    8.93    0.25 
  -5  -3   4    7.30    0.25 
  -5  -3   4    7.72    0.25 
  -5  -3   4    7.67    0.26 
   4   3  -4   24.68    0.78 
   4   3  -4   24.31    0.78 
   4   3  -4   26.13    0.79 
   4   3  -4   26.18    0.78 
   4   3  -4   25.03    0.79 
  -4  -3   4   25.34    0.78 
  -4  -3   4   25.41    0.78 
  -4  -3   4   25.23    0.78 
   3   3  -4   14.16    0.43 
   3   3  -4   13.84    0.43 
   3   3  -4   14.14    0.44 
   3   3  -4   13.57    0.43 
   3   3  -4   13.91    0.43 
   3   3  -4   14.06    0.44 
  -3  -3   4   13.95    0.43 
  -3  -3   4   14.19    0.44 
  -3  -3   4   14.20    0.43 
   2   3  -4    4.74    0.15 
   2   3  -4    4.64    0.15 
   2   3  -4    4.49    0.15 
   2   3  -4    4.64    0.15 
   2   3  -4    4.77    0.15 
   2   3  -4    4.61    0.15 
  -2  -3   4    4.84    0.15 
  -2  -3   4    4.74    0.15 
   1   3  -4   46.88    1.42 
   1   3  -4   44.88    1.42 
   1   3  -4   46.60    1.43 
   1   3  -4   48.52    1.42 
  -1  -3   4   46.08    1.42 
  -1  -3   4   46.19    1.44 
   0   3  -4   20.95    0.64 
   0   3  -4   21.28    0.65 
   0   3  -4   21.01    0.65 
   0  -3   4   20.82    0.64 
   0  -3   4   20.93    0.66 
  -1   3  -4    0.94    0.05 
  -1   3  -4    0.90    0.04 
  -1   3  -4    0.93    0.04 
  -1   3  -4    0.85    0.04 
  -1   3  -4    0.91    0.04 
   1  -3   4    0.84    0.03 
  -2   3  -4   12.65    0.38 
  -2   3  -4   11.89    0.38 
  -2   3  -4   12.35    0.38 
  -2   3  -4   12.21    0.38 
   2  -3   4   11.15    0.38 
   2  -3   4   12.80    0.37 
  -3   3  -4   10.79    0.34 
  -3   3  -4   10.51    0.33 
  -3   3  -4   10.86    0.34 
   3  -3   4   10.91    0.33 
   3  -3   4   10.63    0.34 
  -4   3  -4   22.82    0.72 
   4  -3   4   23.08    0.72 
  -5   3  -4    0.05    0.05 
  -5   3  -4    0.06    0.04 
   5  -3   4    0.08    0.04 
  -6   3  -4   56.02    1.74 
  -6   3  -4   57.06    1.74 
   6  -3   4   58.56    1.74 
   6  -3   4   55.80    1.74 
  -7   3  -4    2.43    0.09 
  -7   3  -4    2.21    0.09 
   7  -3   4    2.15    0.12 
   7  -3   4    2.19    0.09 
   7  -3   4    2.31    0.09 
   7  -3   4    2.34    0.08 
  -8   3  -4    6.07    0.19 
  -8   3  -4    5.80    0.19 
   8  -3   4    6.26    0.19 
   8  -3   4    5.99    0.19 
   9   2  -4   13.70    0.43 
  -9  -2   4   14.17    0.43 
  -9  -2   4   13.90    0.43 
   8   2  -4    0.51    0.05 
   8   2  -4    0.54    0.05 
  -8  -2   4    0.47    0.06 
  -8  -2   4    0.52    0.04 
   7   2  -4    3.44    0.14 
   7   2  -4    3.63    0.13 
  -7  -2   4    3.60    0.12 
  -7  -2   4    3.48    0.14 
   6   2  -4    1.29    0.06 
  -6  -2   4    1.17    0.09 
  -6  -2   4    1.20    0.07 
   5   2  -4    0.48    0.04 
   5   2  -4    0.57    0.06 
  -5  -2   4    0.50    0.06 
  -5  -2   4    0.45    0.04 
   4   2  -4    1.89    0.07 
   4   2  -4    1.92    0.07 
   4   2  -4    1.97    0.08 
  -4  -2   4    1.90    0.08 
  -4  -2   4    1.95    0.07 
  -4  -2   4    1.91    0.08 
   3   2  -4    0.09    0.02 
   3   2  -4    0.04    0.03 
   3   2  -4    0.14    0.03 
   3   2  -4    0.09    0.01 
   3   2  -4    0.06    0.02 
   3   2  -4    0.05    0.02 
  -3  -2   4    0.12    0.02 
  -3  -2   4    0.13    0.03 
  -3  -2   4    0.12    0.03 
   2   2  -4    0.30    0.03 
   2   2  -4    0.33    0.03 
   2   2  -4    0.28    0.02 
  -2  -2   4    0.26    0.05 
  -2  -2   4    0.28    0.02 
  -2  -2   4    0.25    0.03 
  -2  -2   4    0.28    0.02 
  -1  -2   4    5.30    0.17 
  -1  -2   4    5.76    0.19 
  -1  -2   4    5.52    0.17 
   0  -2   4   34.96    1.06 
   0  -2   4   35.18    1.06 
   0  -2   4   33.46    1.07 
   0  -2   4   34.90    1.06 
  -1   2  -4    0.24    0.03 
   1  -2   4    0.21    0.02 
   1  -2   4    0.25    0.05 
   1  -2   4    0.25    0.02 
   1  -2   4    0.25    0.03 
  -2   2  -4   16.52    0.50 
  -2   2  -4   17.01    0.50 
  -2   2  -4   16.21    0.50 
  -2   2  -4   16.37    0.50 
  -2   2  -4   15.29    0.50 
  -2   2  -4   15.84    0.50 
   2  -2   4   16.77    0.50 
   2  -2   4   15.58    0.50 
  -3   2  -4   23.78    0.73 
  -3   2  -4   22.64    0.72 
  -3   2  -4   23.54    0.73 
   3  -2   4   23.80    0.73 
  -4   2  -4   13.16    0.40 
  -4   2  -4   12.32    0.41 
  -4   2  -4   13.30    0.41 
   4  -2   4   13.01    0.41 
   4  -2   4   12.50    0.40 
  -5   2  -4    5.09    0.19 
  -5   2  -4    5.48    0.19 
   5  -2   4    5.48    0.18 
   5  -2   4    5.33    0.19 
  -6   2  -4   14.61    0.46 
  -6   2  -4   14.54    0.46 
   6  -2   4   14.89    0.45 
   6  -2   4   14.21    0.46 
  -7   2  -4    2.76    0.10 
  -7   2  -4    2.76    0.10 
   7  -2   4    2.58    0.13 
   7  -2   4    2.69    0.10 
   7  -2   4    2.67    0.09 
   7  -2   4    2.76    0.10 
  -8   2  -4    5.11    0.16 
  -8   2  -4    5.15    0.16 
   8  -2   4    5.01    0.16 
   8  -2   4    4.83    0.16 
   8  -2   4    4.75    0.16 
   9   1  -4    1.41    0.06 
   9   1  -4    1.29    0.06 
  -9  -1   4    1.43    0.07 
  -9  -1   4    1.32    0.06 
   8   1  -4   21.15    0.67 
  -8  -1   4   22.37    0.67 
  -8  -1   4   21.38    0.67 
   7   1  -4    9.74    0.33 
  -7  -1   4    9.89    0.33 
  -7  -1   4   10.56    0.34 
  -7  -1   4   11.34    0.34 
   6   1  -4    0.16    0.04 
  -6  -1   4    0.20    0.05 
  -6  -1   4    0.20    0.05 
  -6  -1   4    0.14    0.03 
   5   1  -4   10.32    0.32 
   5   1  -4   10.27    0.32 
   5   1  -4   10.05    0.33 
  -5  -1   4   10.43    0.33 
  -5  -1   4    9.63    0.32 
  -5  -1   4   10.56    0.33 
   4   1  -4    4.66    0.15 
   4   1  -4    4.74    0.16 
   4   1  -4    4.47    0.15 
  -4  -1   4    4.44    0.16 
  -4  -1   4    4.95    0.16 
   3   1  -4    7.26    0.23 
   3   1  -4    6.95    0.22 
   3   1  -4    7.30    0.23 
   3   1  -4    7.22    0.22 
   3   1  -4    7.41    0.23 
  -3  -1   4    7.23    0.22 
  -3  -1   4    7.04    0.23 
  -3  -1   4    7.54    0.23 
  -2  -1   4  146.70    4.64 
  -2  -1   4  155.75    4.64 
  -2  -1   4  152.33    4.66 
  -2  -1   4  154.24    4.65 
   1   1  -4   32.47    0.99 
  -1  -1   4   32.75    0.99 
  -1  -1   4   32.56    1.00 
  -1  -1   4   31.09    0.99 
  -1  -1   4   32.30    0.99 
   0   1  -4    6.60    0.20 
   0  -1   4    6.01    0.20 
   0  -1   4    6.49    0.20 
   0  -1   4    6.35    0.20 
   0  -1   4    6.86    0.22 
  -1   1  -4    1.30    0.05 
   1  -1   4    1.24    0.05 
   1  -1   4    1.20    0.05 
  -2   1  -4    5.05    0.16 
  -2   1  -4    4.87    0.16 
  -2   1  -4    5.01    0.15 
   2  -1   4    4.76    0.16 
   2  -1   4    4.73    0.15 
  -3   1  -4    9.74    0.32 
  -3   1  -4   10.06    0.32 
  -3   1  -4   10.39    0.31 
   3  -1   4    9.99    0.32 
   3  -1   4   10.12    0.31 
  -4   1  -4   19.60    0.65 
  -4   1  -4   21.01    0.65 
  -4   1  -4   20.84    0.64 
   4  -1   4   21.47    0.64 
   4  -1   4   21.03    0.65 
  -5   1  -4   25.30    0.78 
  -5   1  -4   23.84    0.78 
   5  -1   4   26.31    0.79 
   5  -1   4   25.31    0.78 
  -6   1  -4   19.04    0.59 
  -6   1  -4   18.40    0.59 
   6  -1   4   19.67    0.60 
   6  -1   4   18.24    0.59 
   6  -1   4   18.97    0.59 
  -7   1  -4    8.20    0.26 
   7  -1   4    8.15    0.28 
   7  -1   4    8.35    0.26 
   7  -1   4    8.45    0.26 
   9   0  -4    3.25    0.11 
  -9   0   4    3.44    0.12 
  -9   0   4    3.24    0.11 
   8   0  -4   18.56    0.58 
  -8   0   4   18.60    0.58 
  -8   0   4   18.50    0.57 
   7   0  -4    1.19    0.06 
  -7   0   4    1.24    0.10 
  -7   0   4    1.20    0.07 
  -7   0   4    1.22    0.08 
   6   0  -4   48.36    1.47 
   6   0  -4   48.21    1.47 
  -6   0   4   47.64    1.48 
  -6   0   4   48.04    1.47 
   5   0  -4    8.91    0.30 
   5   0  -4    9.09    0.29 
   5   0  -4    9.73    0.29 
  -5   0   4    9.21    0.30 
  -5   0   4    9.20    0.29 
  -5   0   4    9.31    0.30 
   4   0  -4    1.05    0.05 
   4   0  -4    1.02    0.04 
   4   0  -4    1.04    0.04 
  -4   0   4    1.00    0.05 
  -4   0   4    0.85    0.05 
  -4   0   4    1.01    0.04 
   3   0  -4   35.99    1.12 
   3   0  -4   37.80    1.12 
   3   0  -4   35.44    1.12 
   3   0  -4   39.34    1.11 
  -3   0   4   36.00    1.12 
  -3   0   4   34.18    1.12 
  -3   0   4   36.71    1.12 
  -3   0   4   35.71    1.11 
   2   0  -4   22.14    0.66 
  -2   0   4   20.96    0.66 
  -2   0   4   20.35    0.67 
  -2   0   4   22.05    0.66 
   1   0  -4   43.92    1.33 
  -1   0   4   41.79    1.33 
  -1   0   4   44.88    1.33 
  -1   0   4   43.42    1.34 
   0   0  -4   69.71    2.11 
   0   0   4   69.11    2.11 
   0   0   4   68.58    2.12 
   0   0   4   68.56    2.11 
  -1   0  -4   48.30    1.47 
  -1   0  -4   47.47    1.47 
   1   0   4   47.88    1.47 
   1   0   4   48.45    1.47 
  -2   0  -4    9.80    0.31 
  -2   0  -4   10.22    0.31 
   2   0   4    9.65    0.31 
   2   0   4    9.74    0.31 
  -3   0  -4    0.97    0.04 
   3   0   4    0.95    0.06 
   3   0   4    0.95    0.04 
  -4   0  -4    9.60    0.30 
   4   0   4    9.33    0.31 
   4   0   4    9.10    0.29 
  -5   0  -4    9.76    0.31 
   5   0   4   10.39    0.33 
   5   0   4    9.56    0.31 
   5   0   4    9.18    0.33 
  -6   0  -4    0.77    0.07 
   6   0   4    0.69    0.05 
   6   0   4    0.67    0.05 
   6   0   4    0.71    0.08 
  -7   0  -4    1.03    0.06 
   7   0   4    0.98    0.05 
   7   0   4    1.02    0.05 
   7   0   4    0.93    0.05 
   7   0   4    0.99    0.09 
   9  -1  -4    4.14    0.14 
  -9   1   4    4.03    0.14 
   8  -1  -4    0.85    0.06 
  -8   1   4    0.72    0.08 
  -8   1   4    0.83    0.07 
   7  -1  -4   19.71    0.63 
   7  -1  -4   20.68    0.62 
  -7   1   4   19.63    0.63 
  -7   1   4   20.11    0.64 
  -7   1   4   20.88    0.64 
  -7   1   4   19.78    0.63 
   6  -1  -4    5.38    0.18 
   6  -1  -4    5.43    0.18 
  -6   1   4    5.54    0.19 
  -6   1   4    5.45    0.19 
  -6   1   4    5.33    0.18 
   5  -1  -4   15.45    0.47 
  -5   1   4   15.11    0.48 
  -5   1   4   15.40    0.47 
  -5   1   4   14.58    0.47 
   4  -1  -4  240.36    7.23 
   4  -1  -4  236.82    7.24 
   4  -1  -4  234.38    7.24 
  -4   1   4  238.70    7.24 
  -4   1   4  212.88    7.24 
  -4   1   4  260.06    7.23 
   3  -1  -4   41.46    1.24 
   3  -1  -4   40.28    1.25 
  -3   1   4   38.82    1.24 
  -3   1   4   40.36    1.26 
  -3   1   4   39.40    1.24 
  -3   1   4   42.95    1.24 
   2  -1  -4   14.00    0.43 
  -2   1   4   13.75    0.43 
  -2   1   4   13.51    0.44 
   1  -1  -4  119.27    3.63 
  -1   1   4  111.85    3.63 
  -1   1   4  125.67    3.63 
   0  -1  -4    5.26    0.17 
   0   1   4    5.38    0.17 
  -1  -1  -4  107.23    3.28 
  -1  -1  -4  106.77    3.29 
   1   1   4  110.59    3.28 
   1   1   4  105.80    3.29 
  -2  -1  -4    1.73    0.07 
  -2  -1  -4    1.85    0.06 
   2   1   4    1.77    0.07 
   2   1   4    1.86    0.06 
  -3  -1  -4    2.70    0.10 
  -3  -1  -4    2.89    0.10 
   3   1   4    2.71    0.09 
   3   1   4    2.66    0.11 
  -4  -1  -4   21.34    0.65 
  -4  -1  -4   20.90    0.66 
   4   1   4   21.22    0.66 
   4   1   4   20.82    0.65 
   4   1   4   21.03    0.67 
  -5  -1  -4    8.36    0.28 
   5   1   4    8.90    0.29 
   5   1   4    8.75    0.28 
  -6  -1  -4   28.81    0.92 
   6   1   4   30.91    0.92 
   6   1   4   29.89    0.92 
   6   1   4   28.61    0.92 
   6   1   4   30.87    0.93 
  -7  -1  -4   12.96    0.40 
   7   1   4   12.96    0.40 
   7   1   4   12.49    0.40 
   9  -2  -4    0.01    0.03 
  -9   2   4   -0.03    0.03 
  -9   2   4    0.01    0.03 
  -8   2   4   25.45    0.77 
  -8   2   4   24.00    0.77 
  -8   2   4   25.54    0.77 
   7  -2  -4   44.74    1.38 
   7  -2  -4   44.90    1.38 
  -7   2   4   46.98    1.38 
  -7   2   4   43.07    1.38 
  -7   2   4   45.31    1.39 
   6  -2  -4   11.32    0.37 
   6  -2  -4   10.87    0.38 
   6  -2  -4   11.92    0.36 
  -6   2   4   11.38    0.38 
  -6   2   4   11.90    0.37 
  -6   2   4   12.04    0.37 
  -6   2   4   11.89    0.37 
   5  -2  -4    0.49    0.06 
   5  -2  -4    0.53    0.03 
  -5   2   4    0.46    0.05 
  -5   2   4    0.52    0.04 
  -5   2   4    0.48    0.06 
   4  -2  -4    1.87    0.08 
   4  -2  -4    1.81    0.07 
  -4   2   4    1.79    0.07 
  -4   2   4    1.89    0.08 
  -4   2   4    1.79    0.07 
   3  -2  -4   10.09    0.31 
   3  -2  -4    9.54    0.30 
  -3   2   4    9.24    0.30 
  -3   2   4    9.53    0.31 
   2  -2  -4   10.96    0.35 
   2  -2  -4   11.37    0.34 
  -2   2   4   10.42    0.35 
  -2   2   4   11.41    0.34 
   1  -2  -4   54.87    1.70 
   1  -2  -4   55.35    1.69 
  -1   2   4   55.87    1.69 
   0  -2  -4  197.18    5.80 
   0  -2  -4  190.03    5.80 
   0   2   4  179.55    5.80 
   0   2   4  193.52    5.80 
  -1  -2  -4   16.04    0.49 
  -1  -2  -4   16.13    0.50 
   1   2   4   16.30    0.50 
   1   2   4   15.71    0.49 
  -2  -2  -4   58.14    1.79 
  -2  -2  -4   58.33    1.79 
   2   2   4   58.75    1.79 
  -3  -2  -4    3.81    0.13 
  -3  -2  -4    3.88    0.14 
   3   2   4    4.01    0.13 
  -4  -2  -4    5.06    0.17 
  -4  -2  -4    5.12    0.18 
   4   2   4    5.30    0.17 
   4   2   4    5.30    0.19 
  -5  -2  -4    4.23    0.14 
  -5  -2  -4    4.47    0.17 
   5   2   4    3.99    0.14 
   5   2   4    4.23    0.15 
   5   2   4    3.78    0.15 
   5   2   4    4.32    0.16 
   5   2   4    4.35    0.16 
   6   2   4    4.75    0.15 
   6   2   4    4.76    0.16 
   6   2   4    4.83    0.16 
   6   2   4    4.58    0.18 
   7   2   4    8.88    0.28 
   7   2   4    8.98    0.28 
   7   2   4    8.45    0.27 
   9  -3  -4    1.41    0.06 
  -9   3   4    1.47    0.07 
  -9   3   4    1.30    0.07 
  -9   3   4    1.45    0.06 
  -8   3   4    1.33    0.07 
  -8   3   4    1.47    0.08 
   7  -3  -4    6.61    0.21 
   7  -3  -4    6.31    0.21 
   7  -3  -4    6.35    0.24 
  -7   3   4    6.43    0.21 
  -7   3   4    6.46    0.22 
  -7   3   4    6.31    0.23 
  -7   3   4    6.77    0.22 
   6  -3  -4    8.84    0.28 
   6  -3  -4    8.47    0.30 
  -6   3   4    9.05    0.29 
  -6   3   4    9.05    0.28 
   5  -3  -4   42.63    1.35 
   5  -3  -4   45.93    1.36 
  -5   3   4   44.89    1.35 
  -5   3   4   42.33    1.35 
   4  -3  -4    2.98    0.10 
   4  -3  -4    3.02    0.12 
  -4   3   4    3.17    0.10 
  -4   3   4    3.25    0.11 
   3  -3  -4   95.32    2.95 
   3  -3  -4   96.61    2.94 
  -3   3   4   96.83    2.94 
   2  -3  -4    5.11    0.17 
   2  -3  -4    4.95    0.16 
  -2   3   4    5.00    0.16 
   1  -3  -4    2.77    0.10 
   1  -3  -4    2.65    0.09 
  -1   3   4    2.70    0.09 
   0  -3  -4   65.45    1.99 
   0  -3  -4   64.46    1.99 
   0   3   4   65.30    1.99 
  -1  -3  -4   10.11    0.30 
  -1  -3  -4    8.99    0.30 
   1   3   4    9.45    0.30 
  -2  -3  -4    3.04    0.11 
  -2  -3  -4    3.03    0.10 
   2   3   4    2.96    0.10 
  -3  -3  -4    0.65    0.06 
  -3  -3  -4    0.79    0.05 
   3   3   4    0.73    0.04 
  -4  -3  -4    3.56    0.14 
  -4  -3  -4    3.32    0.13 
   4   3   4    3.48    0.12 
  -5  -3  -4   18.34    0.56 
   5   3   4   18.35    0.57 
   5   3   4   19.01    0.57 
   5   3   4   17.38    0.58 
   5   3   4   18.19    0.56 
  -6  -3  -4    9.50    0.29 
   6   3   4    8.42    0.30 
   6   3   4    9.33    0.29 
   6   3   4    8.87    0.28 
   6   3   4    9.53    0.29 
  -9   4   4   18.34    0.57 
  -9   4   4   18.37    0.57 
   8  -4  -4   25.32    0.78 
  -8   4   4   26.49    0.78 
  -8   4   4   23.98    0.78 
  -8   4   4   25.42    0.78 
   7  -4  -4    0.56    0.05 
  -7   4   4    0.56    0.08 
  -7   4   4    0.66    0.06 
  -7   4   4    0.68    0.07 
   6  -4  -4   26.43    0.82 
   6  -4  -4   27.34    0.84 
  -6   4   4   26.54    0.82 
  -6   4   4   26.15    0.82 
   5  -4  -4    0.24    0.04 
   5  -4  -4    0.25    0.06 
  -5   4   4    0.27    0.05 
  -5   4   4    0.27    0.04 
  -5   4   4    0.31    0.05 
   4  -4  -4    1.05    0.07 
   4  -4  -4    1.06    0.05 
  -4   4   4    1.03    0.06 
  -4   4   4    1.03    0.05 
  -4   4   4    1.14    0.05 
   3  -4  -4    4.35    0.15 
   3  -4  -4    4.11    0.14 
  -3   4   4    4.28    0.14 
  -3   4   4    4.44    0.15 
   2  -4  -4   28.27    0.86 
   2  -4  -4   26.79    0.85 
  -2   4   4   27.87    0.85 
  -2   4   4   27.92    0.85 
   1  -4  -4    0.26    0.03 
   1  -4  -4    0.32    0.03 
  -1   4   4    0.34    0.02 
   0  -4  -4  102.81    3.28 
   0  -4  -4  106.14    3.28 
   0   4   4  113.23    3.28 
  -1  -4  -4    9.06    0.28 
  -1  -4  -4    8.54    0.27 
   1   4   4    8.60    0.27 
  -2  -4  -4   23.01    0.72 
  -2  -4  -4   23.41    0.72 
   2   4   4   23.19    0.71 
  -3  -4  -4    0.60    0.06 
  -3  -4  -4    0.63    0.05 
  -4  -4  -4   46.31    1.37 
   4   4   4   43.62    1.37 
   4   4   4   43.74    1.38 
   4   4   4   45.84    1.38 
  -5  -4  -4    0.94    0.05 
   5   4   4    0.94    0.06 
   5   4   4    1.06    0.06 
   5   4   4    0.97    0.05 
  -6  -4  -4    0.01    0.02 
   6   4   4    0.03    0.02 
   6   4   4    0.03    0.02 
   6   4   4    0.04    0.02 
   9  -5  -4    0.11    0.02 
  -9   5   4    0.05    0.02 
  -9   5   4    0.07    0.02 
  -9   5   4    0.09    0.03 
   8  -5  -4    1.49    0.07 
  -8   5   4    1.52    0.07 
  -8   5   4    1.76    0.07 
  -8   5   4    1.55    0.08 
  -8   5   4    1.57    0.08 
   7  -5  -4    0.04    0.03 
  -7   5   4    0.07    0.04 
  -7   5   4    0.08    0.03 
  -7   5   4    0.07    0.04 
   6  -5  -4   30.33    0.91 
   6  -5  -4   27.03    0.89 
  -6   5   4   30.33    0.90 
  -6   5   4   28.33    0.90 
   5  -5  -4    0.08    0.04 
   5  -5  -4    0.07    0.03 
  -5   5   4    0.08    0.04 
  -5   5   4    0.07    0.03 
   4  -5  -4    2.71    0.11 
  -4   5   4    2.59    0.10 
   3  -5  -4    5.08    0.19 
  -3   5   4    5.81    0.18 
   2  -5  -4   11.58    0.37 
  -2   5   4   11.69    0.37 
   1  -5  -4   61.35    1.88 
   0  -5  -4    1.22    0.06 
  -1  -5  -4    1.34    0.07 
  -2  -5  -4    1.67    0.08 
  -3  -5  -4    1.97    0.09 
  -4  -5  -4   18.52    0.57 
   4   5   4   18.29    0.57 
   4   5   4   17.98    0.57 
   4   5   4   18.63    0.57 
  -5  -5  -4    0.64    0.04 
   5   5   4    0.65    0.05 
   5   5   4    0.72    0.04 
   5   5   4    0.66    0.04 
   8  -6  -4    7.40    0.23 
  -8   6   4    7.14    0.23 
  -8   6   4    7.05    0.23 
  -8   6   4    7.15    0.23 
   7  -6  -4    0.80    0.05 
  -7   6   4    0.75    0.05 
  -7   6   4    0.80    0.05 
  -7   6   4    0.65    0.07 
   6  -6  -4   29.23    0.88 
  -6   6   4   29.10    0.88 
  -6   6   4   27.48    0.88 
  -6   6   4   28.44    0.88 
  -6   6   4   28.43    0.88 
   5  -6  -4    6.01    0.22 
  -5   6   4    6.36    0.21 
   4  -6  -4    0.51    0.07 
  -4   6   4    0.49    0.06 
   3  -6  -4    3.42    0.13 
  -3   6   4    3.49    0.13 
   2  -6  -4    8.77    0.29 
   1  -6  -4    0.41    0.05 
   1  -6  -4    0.44    0.04 
   0  -6  -4    1.29    0.07 
  -1  -6  -4    0.08    0.03 
  -2  -6  -4   17.05    0.54 
  -3  -6  -4    5.42    0.18 
   3   6   4    5.42    0.18 
   3   6   4    5.58    0.19 
   3   6   4    5.47    0.18 
   3   6   4    5.72    0.18 
  -4  -6  -4    1.05    0.05 
   4   6   4    1.01    0.06 
   4   6   4    0.92    0.05 
   4   6   4    0.97    0.05 
  -5  -6  -4    0.78    0.04 
   5   6   4    0.75    0.04 
   5   6   4    0.87    0.05 
   8  -7  -4    3.11    0.10 
  -8   7   4    2.96    0.11 
  -8   7   4    3.36    0.11 
   7  -7  -4    1.57    0.07 
  -7   7   4    1.52    0.06 
  -7   7   4    1.58    0.08 
  -7   7   4    1.44    0.08 
  -7   7   4    1.62    0.06 
   6  -7  -4    1.18    0.06 
  -6   7   4    1.07    0.07 
  -6   7   4    1.08    0.06 
  -6   7   4    1.05    0.07 
  -6   7   4    1.09    0.06 
   5  -7  -4   45.40    1.39 
   5  -7  -4   46.27    1.40 
  -5   7   4   48.23    1.40 
  -5   7   4   45.19    1.40 
  -5   7   4   44.02    1.40 
  -5   7   4   45.65    1.40 
  -5   7   4   45.18    1.40 
  -5   7   4   44.75    1.40 
   4  -7  -4    4.10    0.16 
  -4   7   4    4.43    0.16 
   3  -7  -4    0.59    0.07 
  -3   7   4    0.66    0.07 
   2  -7  -4   12.50    0.40 
   1  -7  -4   10.57    0.34 
   0  -7  -4   10.37    0.34 
  -1  -7  -4    4.52    0.15 
  -1  -7  -4    4.72    0.15 
   1   7   4    4.88    0.16 
   1   7   4    4.50    0.16 
   1   7   4    4.51    0.16 
  -2  -7  -4   33.19    1.01 
  -2  -7  -4   33.15    1.01 
   2   7   4   32.35    1.01 
   2   7   4   33.76    1.01 
   2   7   4   31.68    1.01 
  -3  -7  -4    0.69    0.04 
   3   7   4    0.66    0.04 
   3   7   4    0.68    0.05 
  -4  -7  -4    5.18    0.17 
   4   7   4    5.25    0.16 
   4   7   4    5.26    0.17 
   7  -8  -4    1.36    0.05 
  -7   8   4    1.35    0.05 
  -7   8   4    1.36    0.07 
  -7   8   4    1.16    0.07 
   6  -8  -4    1.05    0.05 
  -6   8   4    0.90    0.06 
  -6   8   4    0.97    0.05 
  -6   8   4    0.98    0.07 
   5  -8  -4   16.13    0.49 
   5  -8  -4   15.76    0.49 
  -5   8   4   15.60    0.49 
  -5   8   4   15.25    0.49 
  -5   8   4   16.38    0.50 
  -5   8   4   16.60    0.50 
   4  -8  -4    0.65    0.04 
   4  -8  -4    0.72    0.05 
  -4   8   4    0.58    0.07 
  -4   8   4    0.68    0.06 
  -4   8   4    0.57    0.07 
  -4   8   4    0.75    0.05 
  -4   8   4    0.73    0.05 
   3  -8  -4    1.01    0.05 
   3  -8  -4    0.92    0.06 
  -3   8   4    0.99    0.06 
  -3   8   4    0.98    0.07 
  -3   8   4    0.94    0.07 
  -3   8   4    0.88    0.08 
  -3   8   4    0.93    0.07 
   2  -8  -4    3.44    0.12 
   2  -8  -4    3.30    0.11 
  -2   8   4    3.08    0.12 
  -2   8   4    3.58    0.12 
  -2   8   4    3.18    0.13 
  -2   8   4    3.31    0.12 
  -2   8   4    3.60    0.13 
   1  -8  -4    0.15    0.03 
  -1   8   4    0.23    0.04 
  -1   8   4    0.27    0.05 
  -1   8   4    0.24    0.06 
  -1   8   4    0.19    0.03 
  -1   8   4    0.19    0.04 
   0  -8  -4    4.41    0.15 
   0  -8  -4    4.62    0.15 
   0   8   4    4.68    0.16 
   0   8   4    5.20    0.18 
   0   8   4    4.72    0.16 
   0   8   4    4.75    0.16 
   0   8   4    4.72    0.16 
  -1  -8  -4    0.47    0.04 
  -1  -8  -4    0.43    0.04 
   1   8   4    0.59    0.05 
   1   8   4    0.56    0.05 
   1   8   4    0.60    0.05 
   1   8   4    0.52    0.04 
  -2  -8  -4    0.11    0.02 
  -2  -8  -4    0.12    0.02 
   2   8   4    0.11    0.03 
   2   8   4    0.08    0.02 
   2   8   4    0.14    0.03 
  -3  -8  -4    0.31    0.03 
   3   8   4    0.25    0.03 
   3   8   4    0.33    0.04 
   6  -9  -4    5.04    0.16 
  -6   9   4    4.76    0.17 
  -6   9   4    4.92    0.16 
  -6   9   4    5.30    0.17 
   5  -9  -4    2.34    0.09 
   5  -9  -4    2.47    0.09 
  -5   9   4    2.53    0.09 
  -5   9   4    2.47    0.10 
  -5   9   4    2.41    0.10 
  -5   9   4    2.37    0.09 
   4  -9  -4    2.36    0.08 
   4  -9  -4    2.44    0.09 
  -4   9   4    2.30    0.08 
  -4   9   4    2.21    0.09 
  -4   9   4    2.14    0.10 
  -4   9   4    2.14    0.09 
  -4   9   4    2.45    0.08 
   3  -9  -4    0.96    0.05 
   3  -9  -4    1.03    0.05 
  -3   9   4    1.05    0.06 
  -3   9   4    0.99    0.05 
  -3   9   4    0.96    0.06 
  -3   9   4    1.18    0.09 
   2  -9  -4    0.06    0.02 
   2  -9  -4    0.06    0.03 
  -2   9   4    0.08    0.03 
  -2   9   4    0.12    0.03 
  -2   9   4    0.09    0.03 
  -2   9   4    0.08    0.03 
  -2   9   4    0.03    0.04 
   1  -9  -4    1.66    0.06 
   1  -9  -4    1.73    0.07 
  -1   9   4    1.76    0.07 
  -1   9   4    1.53    0.07 
  -1   9   4    1.70    0.08 
  -1   9   4    1.89    0.07 
  -1   9   4    1.74    0.08 
  -1   9   4    1.60    0.07 
   0  -9  -4    0.51    0.03 
   0  -9  -4    0.40    0.04 
   0   9   4    0.34    0.05 
   0   9   4    0.47    0.04 
   0   9   4    0.41    0.05 
   0   9   4    0.43    0.05 
   0   9   4    0.41    0.05 
  -1  -9  -4    1.48    0.06 
  -1  -9  -4    1.59    0.06 
   1   9   4    1.58    0.07 
   1   9   4    1.58    0.07 
   1   9   4    1.63    0.06 
   1   9   4    1.42    0.07 
  -2  -9  -4    2.64    0.09 
   2   9   4    2.67    0.09 
   2   9   4    2.80    0.09 
   4 -10  -4   12.29    0.39 
  -4  10   4   12.84    0.40 
  -4  10   4   13.29    0.40 
  -4  10   4   12.76    0.39 
   3 -10  -4    0.49    0.03 
  -3  10   4    0.49    0.05 
  -3  10   4    0.54    0.04 
  -3  10   4    0.51    0.04 
  -3  10   4    0.49    0.04 
  -3  10   4    0.56    0.05 
   2 -10  -4    8.24    0.25 
  -2  10   4    7.96    0.25 
  -2  10   4    7.99    0.25 
  -2  10   4    7.94    0.25 
  -2  10   4    8.01    0.25 
   1 -10  -4    0.01    0.02 
  -1  10   4    0.03    0.02 
  -1  10   4    0.04    0.03 
  -1  10   4    0.05    0.02 
  -1  10   4    0.03    0.02 
  -1  10   4    0.06    0.02 
   0 -10  -4    0.30    0.03 
   0  10   4    0.24    0.04 
   0  10   4    0.33    0.04 
   0  10   4    0.22    0.03 
   0  10   4    0.28    0.04 
   2  11  -5    0.19    0.04 
   2  11  -5    0.18    0.03 
   1  11  -5    1.83    0.08 
  -1  11  -5    3.67    0.13 
  -2  11  -5    6.18    0.20 
  -3  11  -5    0.83    0.04 
  -3  11  -5    0.89    0.05 
  -3  11  -5    0.82    0.05 
   4  10  -5    2.11    0.08 
   4  10  -5    1.97    0.08 
   3  10  -5    0.17    0.03 
   2  10  -5    1.33    0.11 
   2  10  -5    1.34    0.07 
   2  10  -5    1.31    0.08 
   1  10  -5    1.95    0.12 
   1  10  -5    1.82    0.08 
   0  10  -5   16.07    0.52 
  -1  10  -5    0.32    0.06 
  -1  10  -5    0.36    0.10 
  -2  10  -5   77.92    2.39 
  -2  10  -5   78.05    2.38 
  -3  10  -5    0.38    0.05 
  -3  10  -5    0.40    0.05 
  -3  10  -5    0.35    0.04 
  -3  10  -5    0.51    0.04 
   3 -10   5    0.42    0.05 
  -4  10  -5    9.33    0.29 
  -4  10  -5    9.49    0.29 
  -4  10  -5    9.30    0.29 
  -4  10  -5    9.42    0.30 
  -4  10  -5    8.81    0.29 
  -5  10  -5    0.02    0.02 
  -5  10  -5    0.00    0.02 
  -5  10  -5    0.02    0.02 
  -5  10  -5   -0.03    0.03 
   5 -10   5    0.03    0.02 
   5   9  -5    0.65    0.06 
   5   9  -5    0.55    0.04 
   5   9  -5    0.54    0.05 
  -5  -9   5    0.58    0.04 
   4   9  -5    2.58    0.10 
   4   9  -5    2.60    0.09 
   4   9  -5    2.46    0.11 
   4   9  -5    2.60    0.13 
   3   9  -5    5.32    0.18 
   3   9  -5    5.34    0.20 
   3   9  -5    5.39    0.18 
  -3  -9   5    5.18    0.17 
   2   9  -5    0.11    0.06 
   2   9  -5    0.15    0.04 
   1   9  -5    1.79    0.12 
   0   9  -5    6.89    0.25 
  -1   9  -5    0.02    0.04 
  -1   9  -5    0.06    0.06 
  -2   9  -5   12.14    0.39 
  -2   9  -5   12.60    0.39 
  -3   9  -5    0.16    0.05 
  -3   9  -5    0.29    0.04 
  -3   9  -5    0.19    0.04 
  -3   9  -5    0.29    0.05 
  -3   9  -5    0.18    0.04 
   3  -9   5    0.23    0.04 
  -4   9  -5    0.44    0.05 
  -4   9  -5    0.36    0.05 
  -4   9  -5    0.43    0.05 
  -4   9  -5    0.41    0.05 
  -4   9  -5    0.40    0.04 
  -4   9  -5    0.42    0.06 
   4  -9   5    0.35    0.05 
  -5   9  -5    0.23    0.03 
  -5   9  -5    0.21    0.04 
  -5   9  -5    0.23    0.05 
  -5   9  -5    0.21    0.04 
  -5   9  -5    0.20    0.05 
  -5   9  -5    0.16    0.03 
   5  -9   5    0.21    0.04 
  -6   9  -5    0.02    0.03 
  -6   9  -5    0.04    0.03 
  -6   9  -5    0.03    0.02 
  -6   9  -5    0.03    0.03 
   6  -9   5    0.07    0.03 
   6  -9   5    0.03    0.03 
   6   8  -5    3.12    0.10 
   6   8  -5    3.07    0.11 
   6   8  -5    3.06    0.12 
  -6  -8   5    3.09    0.10 
   5   8  -5    0.52    0.07 
   5   8  -5    0.50    0.05 
   5   8  -5    0.51    0.05 
   5   8  -5    0.50    0.09 
   4   8  -5   -0.01    0.03 
   4   8  -5    0.03    0.06 
   4   8  -5    0.10    0.06 
   4   8  -5    0.05    0.04 
  -4  -8   5    0.02    0.02 
   3   8  -5    3.07    0.14 
   3   8  -5    2.89    0.13 
   3   8  -5    3.00    0.11 
  -3  -8   5    2.85    0.10 
   2   8  -5    9.90    0.34 
   2   8  -5    9.83    0.33 
   2   8  -5   10.48    0.32 
   2   8  -5   10.38    0.33 
   2   8  -5   10.15    0.34 
   1   8  -5    0.36    0.09 
   1   8  -5    0.40    0.10 
   0   8  -5    3.19    0.14 
  -1   8  -5    0.66    0.09 
  -1   8  -5    0.57    0.06 
  -1   8  -5    0.57    0.06 
  -2   8  -5    1.39    0.08 
  -2   8  -5    1.44    0.08 
  -3   8  -5   32.60    1.03 
  -3   8  -5   33.67    1.02 
  -3   8  -5   34.67    1.02 
  -3   8  -5   31.77    1.03 
  -3   8  -5   32.95    1.02 
  -3   8  -5   33.28    1.02 
  -3   8  -5   32.23    1.02 
  -3   8  -5   33.87    1.02 
   3  -8   5   32.95    1.01 
  -4   8  -5    1.50    0.07 
  -4   8  -5    1.72    0.08 
  -4   8  -5    1.62    0.08 
  -4   8  -5    1.66    0.09 
  -4   8  -5    1.61    0.08 
  -4   8  -5    1.61    0.07 
  -4   8  -5    1.59    0.09 
   4  -8   5    1.59    0.07 
  -5   8  -5   -0.02    0.03 
  -5   8  -5    0.02    0.03 
  -5   8  -5    0.00    0.02 
  -5   8  -5    0.05    0.04 
  -5   8  -5    0.04    0.03 
  -5   8  -5    0.05    0.03 
   5  -8   5    0.06    0.03 
   5  -8   5    0.03    0.03 
  -6   8  -5    0.26    0.05 
  -6   8  -5    0.27    0.05 
  -6   8  -5    0.34    0.05 
  -6   8  -5    0.31    0.04 
   6  -8   5    0.40    0.04 
   6  -8   5    0.29    0.04 
   6   7  -5    0.39    0.11 
   6   7  -5    0.26    0.03 
   6   7  -5    0.28    0.05 
   6   7  -5    0.22    0.05 
  -6  -7   5    0.22    0.05 
   5   7  -5   11.61    0.39 
   5   7  -5   11.66    0.37 
   5   7  -5   11.52    0.38 
   5   7  -5   11.89    0.37 
  -5  -7   5   11.98    0.37 
   4   7  -5    3.75    0.16 
   4   7  -5    3.45    0.15 
   4   7  -5    3.47    0.13 
  -4  -7   5    3.79    0.12 
   3   7  -5   23.46    0.72 
   3   7  -5   23.27    0.73 
   3   7  -5   22.95    0.72 
   3   7  -5   24.65    0.73 
   3   7  -5   23.36    0.72 
  -3  -7   5   22.49    0.71 
  -3  -7   5   22.17    0.71 
   2   7  -5   18.73    0.58 
   2   7  -5   18.51    0.58 
   2   7  -5   18.86    0.60 
   2   7  -5   18.93    0.59 
   2   7  -5   18.60    0.59 
   1   7  -5   11.26    0.37 
   1   7  -5   11.51    0.35 
   1   7  -5   10.89    0.37 
   1   7  -5   11.49    0.36 
   0   7  -5    1.54    0.07 
   0   7  -5    1.37    0.10 
   0   7  -5    1.49    0.09 
   0   7  -5    1.48    0.07 
  -1   7  -5   12.72    0.39 
  -1   7  -5   12.20    0.39 
  -1   7  -5   12.28    0.40 
  -1   7  -5   11.75    0.38 
  -2   7  -5    0.09    0.05 
  -2   7  -5    0.07    0.03 
  -2   7  -5    0.09    0.05 
  -2   7  -5    0.07    0.03 
   2  -7   5    0.08    0.02 
   2  -7   5    0.06    0.02 
  -3   7  -5    5.76    0.21 
  -3   7  -5    6.08    0.20 
  -3   7  -5    5.92    0.20 
   3  -7   5    6.02    0.19 
   3  -7   5    5.89    0.19 
  -4   7  -5    0.00    0.07 
  -4   7  -5    0.01    0.03 
  -4   7  -5    0.00    0.04 
  -4   7  -5   -0.03    0.03 
  -4   7  -5    0.04    0.04 
  -4   7  -5    0.05    0.04 
  -4   7  -5    0.05    0.04 
  -4   7  -5    0.03    0.04 
  -4   7  -5    0.06    0.04 
  -4   7  -5    0.01    0.04 
   4  -7   5    0.03    0.03 
  -5   7  -5    7.86    0.24 
  -5   7  -5    6.77    0.24 
  -5   7  -5    7.59    0.24 
  -5   7  -5    7.19    0.24 
  -5   7  -5    7.75    0.24 
  -5   7  -5    7.86    0.24 
   5  -7   5    6.62    0.23 
   5  -7   5    7.79    0.24 
  -6   7  -5    0.61    0.06 
  -6   7  -5    0.57    0.05 
  -6   7  -5    0.56    0.05 
  -6   7  -5    0.42    0.06 
  -6   7  -5    0.62    0.06 
   6  -7   5    0.46    0.05 
  -7   7  -5    0.62    0.05 
  -7   7  -5    0.75    0.05 
  -7   7  -5    0.67    0.04 
   7  -7   5    0.77    0.04 
   7  -7   5    0.61    0.04 
   7  -7   5    0.67    0.04 
   7   6  -5    5.57    0.18 
   7   6  -5    5.66    0.19 
  -7  -6   5    5.69    0.18 
   6   6  -5    0.03    0.05 
   6   6  -5    0.06    0.03 
   6   6  -5    0.04    0.06 
   6   6  -5    0.07    0.03 
  -6  -6   5    0.09    0.03 
  -6  -6   5    0.08    0.03 
   5   6  -5    6.03    0.21 
   5   6  -5    5.27    0.19 
   5   6  -5    6.08    0.21 
  -5  -6   5    6.05    0.19 
   4   6  -5    0.47    0.06 
   4   6  -5    0.39    0.08 
   4   6  -5    0.58    0.06 
   4   6  -5    0.51    0.08 
   4   6  -5    0.47    0.08 
  -4  -6   5    0.51    0.04 
  -4  -6   5    0.47    0.04 
   3   6  -5   28.07    0.84 
   3   6  -5   28.25    0.83 
   3   6  -5   27.64    0.85 
   3   6  -5   26.40    0.84 
   3   6  -5   27.53    0.84 
   3   6  -5   27.26    0.85 
  -3  -6   5   25.34    0.83 
  -3  -6   5   25.93    0.83 
   2   6  -5    2.49    0.10 
   2   6  -5    2.43    0.09 
   2   6  -5    2.53    0.11 
   2   6  -5    2.41    0.09 
   2   6  -5    2.32    0.12 
   2   6  -5    2.61    0.11 
  -2  -6   5    2.50    0.08 
   1   6  -5    2.49    0.10 
   1   6  -5    2.39    0.09 
   1   6  -5    2.73    0.09 
   1   6  -5    2.60    0.11 
   1   6  -5    2.78    0.10 
   1   6  -5    2.43    0.12 
   0   6  -5    0.61    0.05 
   0   6  -5    0.61    0.05 
   0   6  -5    0.52    0.04 
   0   6  -5    0.52    0.05 
  -1   6  -5   16.04    0.50 
  -1   6  -5   14.39    0.51 
  -1   6  -5   15.90    0.50 
  -1   6  -5   16.88    0.50 
   1  -6   5   16.45    0.49 
  -2   6  -5    8.16    0.25 
  -2   6  -5    7.80    0.26 
  -2   6  -5    8.22    0.26 
  -2   6  -5    7.99    0.26 
   2  -6   5    8.09    0.25 
   2  -6   5    7.31    0.25 
  -3   6  -5    8.71    0.28 
  -3   6  -5    8.96    0.29 
  -3   6  -5    9.36    0.29 
  -3   6  -5    8.75    0.29 
   3  -6   5    8.52    0.28 
   3  -6   5    8.87    0.28 
  -4   6  -5    0.47    0.07 
  -4   6  -5    0.53    0.06 
  -4   6  -5    0.45    0.08 
  -4   6  -5    0.58    0.06 
   4  -6   5    0.57    0.04 
  -5   6  -5    3.02    0.12 
  -5   6  -5    3.16    0.12 
  -5   6  -5    3.21    0.12 
  -5   6  -5    3.02    0.12 
  -5   6  -5    3.09    0.12 
  -5   6  -5    3.03    0.12 
   5  -6   5    3.17    0.11 
   5  -6   5    3.30    0.11 
  -6   6  -5    0.37    0.06 
  -6   6  -5    0.36    0.05 
  -6   6  -5    0.47    0.06 
  -6   6  -5    0.43    0.06 
   6  -6   5    0.45    0.05 
   6  -6   5    0.50    0.05 
   6  -6   5    0.45    0.05 
  -7   6  -5    0.77    0.04 
  -7   6  -5    0.76    0.06 
  -7   6  -5    0.69    0.05 
   7  -6   5    0.76    0.05 
   7  -6   5    0.75    0.05 
   7  -6   5    0.74    0.05 
   8   5  -5    1.15    0.06 
   8   5  -5    1.22    0.07 
  -8  -5   5    1.27    0.05 
   7   5  -5   16.80    0.53 
   7   5  -5   16.68    0.52 
  -7  -5   5   16.54    0.52 
  -7  -5   5   17.19    0.52 
   6   5  -5    0.63    0.09 
   6   5  -5    0.66    0.09 
   6   5  -5    0.67    0.06 
  -6  -5   5    0.63    0.06 
  -6  -5   5    0.65    0.05 
   5   5  -5    6.31    0.21 
   5   5  -5    6.15    0.22 
   5   5  -5    6.03    0.22 
   5   5  -5    6.13    0.20 
   5   5  -5    5.91    0.22 
  -5  -5   5    6.58    0.20 
   4   5  -5    1.04    0.06 
   4   5  -5    0.93    0.09 
   4   5  -5    0.93    0.08 
   4   5  -5    0.99    0.07 
   4   5  -5    0.92    0.06 
  -4  -5   5    0.93    0.05 
  -4  -5   5    1.03    0.05 
   3   5  -5   16.54    0.50 
   3   5  -5   16.58    0.50 
   3   5  -5   15.26    0.51 
   3   5  -5   16.87    0.51 
   3   5  -5   16.45    0.51 
   3   5  -5   16.47    0.51 
  -3  -5   5   14.75    0.50 
  -3  -5   5   16.60    0.50 
  -3  -5   5   15.77    0.51 
   2   5  -5   16.10    0.51 
   2   5  -5   16.39    0.50 
   2   5  -5   16.40    0.50 
   2   5  -5   15.81    0.50 
   2   5  -5   15.47    0.50 
   2   5  -5   15.86    0.50 
  -2  -5   5   16.03    0.50 
  -2  -5   5   16.50    0.49 
   1   5  -5   20.36    0.60 
   1   5  -5   19.24    0.61 
   1   5  -5   20.11    0.60 
   1   5  -5   18.15    0.61 
   1   5  -5   19.55    0.60 
   1   5  -5   19.29    0.60 
   0   5  -5   37.02    1.14 
   0   5  -5   37.63    1.14 
   0   5  -5   37.23    1.14 
   0   5  -5   36.44    1.14 
  -1   5  -5    4.90    0.16 
  -1   5  -5    5.17    0.16 
  -1   5  -5    5.01    0.17 
   1  -5   5    4.78    0.16 
  -2   5  -5    6.05    0.20 
  -2   5  -5    5.83    0.19 
  -2   5  -5    6.14    0.20 
  -2   5  -5    6.20    0.20 
   2  -5   5    6.07    0.19 
   2  -5   5    5.58    0.19 
  -3   5  -5   34.58    1.04 
  -3   5  -5   34.59    1.05 
  -3   5  -5   32.99    1.04 
  -3   5  -5   32.63    1.04 
   3  -5   5   33.51    1.03 
   3  -5   5   34.30    1.04 
  -4   5  -5    0.13    0.05 
  -4   5  -5    0.11    0.05 
   4  -5   5    0.20    0.04 
   4  -5   5    0.12    0.03 
  -5   5  -5    2.43    0.12 
  -5   5  -5    2.28    0.10 
  -5   5  -5    2.35    0.13 
  -5   5  -5    1.96    0.12 
  -5   5  -5    2.21    0.10 
  -5   5  -5    2.19    0.10 
   5  -5   5    2.26    0.09 
   5  -5   5    2.38    0.09 
   5  -5   5    2.31    0.09 
  -6   5  -5    1.00    0.06 
  -6   5  -5    1.03    0.07 
  -6   5  -5    1.03    0.07 
   6  -5   5    1.02    0.06 
   6  -5   5    1.06    0.06 
   6  -5   5    0.94    0.06 
  -7   5  -5    0.53    0.05 
  -7   5  -5    0.42    0.04 
  -7   5  -5    0.41    0.06 
   7  -5   5    0.61    0.04 
   7  -5   5    0.51    0.05 
   7  -5   5    0.50    0.05 
   8   4  -5    0.24    0.05 
  -8  -4   5    0.30    0.03 
   7   4  -5    8.85    0.30 
   7   4  -5    9.07    0.31 
  -7  -4   5    9.76    0.30 
  -7  -4   5    9.63    0.29 
  -7  -4   5    9.52    0.30 
   6   4  -5    0.38    0.06 
  -6  -4   5    0.51    0.10 
  -6  -4   5    0.41    0.05 
   5   4  -5   76.26    2.37 
   5   4  -5   73.25    2.36 
   5   4  -5   76.89    2.37 
   5   4  -5   77.32    2.36 
  -5  -4   5   81.05    2.36 
  -5  -4   5   78.19    2.37 
   4   4  -5   16.23    0.54 
   4   4  -5   17.11    0.53 
   4   4  -5   17.20    0.53 
   4   4  -5   16.39    0.54 
   4   4  -5   17.48    0.54 
   4   4  -5   17.70    0.53 
  -4  -4   5   16.99    0.54 
  -4  -4   5   17.61    0.53 
  -4  -4   5   16.90    0.53 
   3   4  -5   31.96    0.99 
   3   4  -5   31.75    0.98 
   3   4  -5   31.25    0.98 
   3   4  -5   32.11    0.98 
   3   4  -5   32.45    0.99 
   3   4  -5   31.10    0.98 
  -3  -4   5   32.21    0.98 
  -3  -4   5   32.02    0.97 
   2   4  -5    2.85    0.09 
   2   4  -5    2.65    0.09 
   2   4  -5    2.84    0.10 
   2   4  -5    2.51    0.10 
   2   4  -5    2.65    0.09 
   2   4  -5    2.89    0.10 
  -2  -4   5    2.70    0.09 
  -2  -4   5    2.62    0.10 
   1   4  -5   83.39    2.57 
   1   4  -5   85.89    2.57 
   1   4  -5   82.85    2.58 
   1   4  -5   86.14    2.57 
   1   4  -5   84.66    2.57 
   1   4  -5   82.48    2.58 
   0   4  -5   87.25    2.66 
   0   4  -5   88.17    2.67 
   0   4  -5   83.82    2.66 
   0   4  -5   87.24    2.66 
   0   4  -5   89.74    2.67 
   0  -4   5   87.15    2.66 
  -1   4  -5   91.76    2.74 
  -1   4  -5   89.38    2.73 
  -1   4  -5   90.79    2.74 
  -1   4  -5   87.96    2.74 
  -1   4  -5   90.17    2.74 
   1  -4   5   87.30    2.73 
  -2   4  -5   11.22    0.36 
  -2   4  -5   11.52    0.35 
  -2   4  -5   11.16    0.36 
  -2   4  -5   10.87    0.35 
   2  -4   5   11.53    0.35 
  -3   4  -5    2.75    0.11 
  -3   4  -5    2.51    0.09 
  -3   4  -5    2.63    0.10 
   3  -4   5    2.60    0.10 
   3  -4   5    2.65    0.09 
   3  -4   5    2.58    0.09 
  -4   4  -5    3.49    0.14 
  -4   4  -5    3.47    0.13 
   4  -4   5    3.43    0.13 
   4  -4   5    3.34    0.12 
  -5   4  -5    0.16    0.05 
  -5   4  -5    0.27    0.06 
   5  -4   5    0.25    0.07 
  -6   4  -5    3.64    0.13 
  -6   4  -5    3.40    0.13 
  -6   4  -5    3.46    0.13 
   6  -4   5    3.60    0.13 
   6  -4   5    3.80    0.13 
   6  -4   5    3.60    0.13 
  -7   4  -5    1.79    0.07 
  -7   4  -5    1.78    0.08 
   7  -4   5    1.70    0.07 
   7  -4   5    1.68    0.07 
   8   3  -5    2.52    0.10 
  -8  -3   5    2.48    0.09 
  -8  -3   5    2.45    0.10 
   7   3  -5   22.39    0.70 
   7   3  -5   21.77    0.72 
  -7  -3   5   23.76    0.70 
  -7  -3   5   23.37    0.71 
  -7  -3   5   22.71    0.70 
   6   3  -5    6.82    0.23 
  -6  -3   5    7.40    0.25 
  -6  -3   5    7.36    0.24 
   5   3  -5    0.04    0.04 
   5   3  -5    0.04    0.03 
  -5  -3   5    0.04    0.03 
  -5  -3   5    0.09    0.02 
  -5  -3   5    0.06    0.05 
  -5  -3   5    0.02    0.02 
   4   3  -5    1.18    0.07 
   4   3  -5    1.02    0.05 
   4   3  -5    1.03    0.06 
   4   3  -5    0.96    0.06 
   4   3  -5    0.98    0.05 
  -4  -3   5    1.19    0.05 
  -4  -3   5    1.06    0.07 
  -4  -3   5    1.02    0.06 
  -4  -3   5    1.00    0.04 
   3   3  -5    2.56    0.10 
   3   3  -5    2.66    0.09 
   3   3  -5    2.59    0.08 
   3   3  -5    2.34    0.09 
   3   3  -5    2.56    0.09 
   3   3  -5    2.52    0.10 
  -3  -3   5    2.49    0.08 
  -3  -3   5    2.45    0.09 
  -3  -3   5    2.57    0.09 
   2   3  -5    0.44    0.03 
   2   3  -5    0.47    0.03 
   2   3  -5    0.43    0.03 
   2   3  -5    0.39    0.04 
   2   3  -5    0.38    0.03 
   2   3  -5    0.35    0.03 
   2   3  -5    0.45    0.04 
  -2  -3   5    0.41    0.04 
  -2  -3   5    0.40    0.02 
   1   3  -5    3.15    0.10 
   1   3  -5    3.16    0.11 
   1   3  -5    3.16    0.11 
   1   3  -5    3.07    0.10 
   1   3  -5    3.19    0.11 
   1   3  -5    3.47    0.10 
  -1  -3   5    2.98    0.10 
   0   3  -5   11.96    0.37 
   0   3  -5   11.30    0.36 
   0   3  -5   11.50    0.36 
   0   3  -5   12.09    0.36 
   0   3  -5   11.31    0.36 
   0  -3   5   11.88    0.36 
  -1   3  -5   25.50    0.77 
  -1   3  -5   25.09    0.77 
  -1   3  -5   25.67    0.77 
  -1   3  -5   24.54    0.77 
  -1   3  -5   25.77    0.77 
   1  -3   5   24.37    0.77 
   1  -3   5   23.77    0.76 
  -2   3  -5    1.06    0.05 
  -2   3  -5    1.06    0.05 
  -2   3  -5    1.13    0.06 
  -2   3  -5    1.09    0.05 
  -2   3  -5    1.06    0.06 
   2  -3   5    1.12    0.05 
   2  -3   5    1.14    0.05 
  -3   3  -5    2.63    0.10 
  -3   3  -5    2.54    0.10 
   3  -3   5    2.52    0.09 
   3  -3   5    2.61    0.09 
   3  -3   5    2.71    0.10 
  -4   3  -5   13.45    0.42 
  -4   3  -5   12.32    0.42 
   4  -3   5   13.80    0.42 
  -5   3  -5   14.50    0.46 
  -5   3  -5   13.91    0.45 
   5  -3   5   14.11    0.46 
  -6   3  -5   19.67    0.59 
  -6   3  -5   19.01    0.58 
   6  -3   5   17.59    0.59 
   6  -3   5   19.02    0.59 
   6  -3   5   19.11    0.58 
  -7   3  -5    0.40    0.05 
  -7   3  -5    0.45    0.05 
   7  -3   5    0.52    0.05 
   7  -3   5    0.45    0.04 
   9   2  -5    0.86    0.06 
  -9  -2   5    0.95    0.06 
  -9  -2   5    0.88    0.04 
   8   2  -5    0.38    0.06 
   8   2  -5    0.34    0.04 
  -8  -2   5    0.45    0.06 
  -8  -2   5    0.36    0.04 
   7   2  -5   14.60    0.46 
   7   2  -5   14.87    0.46 
  -7  -2   5   14.47    0.46 
  -7  -2   5   14.88    0.46 
   6   2  -5   10.75    0.34 
  -6  -2   5   10.07    0.34 
  -6  -2   5   11.08    0.35 
   5   2  -5   63.02    1.96 
   5   2  -5   63.84    1.95 
  -5  -2   5   62.33    1.95 
  -5  -2   5   66.02    1.96 
  -5  -2   5   63.24    1.96 
   4   2  -5   23.24    0.72 
   4   2  -5   23.62    0.72 
   4   2  -5   22.08    0.71 
   4   2  -5   22.51    0.71 
  -4  -2   5   23.48    0.72 
  -4  -2   5   22.91    0.71 
  -4  -2   5   23.49    0.71 
   3   2  -5   35.17    1.07 
   3   2  -5   34.00    1.06 
   3   2  -5   35.18    1.06 
   3   2  -5   34.10    1.06 
   3   2  -5   35.02    1.06 
   3   2  -5   35.76    1.07 
  -3  -2   5   34.83    1.07 
  -3  -2   5   33.85    1.07 
  -3  -2   5   34.24    1.06 
   2   2  -5  114.81    3.38 
   2   2  -5  108.70    3.38 
   2   2  -5  113.99    3.38 
   2   2  -5  106.48    3.38 
   2   2  -5  113.26    3.37 
   2   2  -5  111.01    3.38 
  -2  -2   5  113.93    3.37 
  -2  -2   5  107.86    3.38 
  -2  -2   5  105.46    3.38 
   1   2  -5  134.15    3.93 
   1   2  -5  129.61    3.93 
   1   2  -5  129.07    3.93 
   1   2  -5  124.83    3.93 
   1   2  -5  129.36    3.94 
  -1  -2   5  125.93    3.94 
  -1  -2   5  129.43    3.93 
   0   2  -5  135.82    4.14 
   0   2  -5  132.64    4.15 
   0   2  -5  136.63    4.15 
   0   2  -5  137.51    4.15 
   0   2  -5  137.81    4.15 
   0  -2   5  139.03    4.15 
   0  -2   5  132.14    4.15 
  -1   2  -5   23.46    0.73 
  -1   2  -5   23.47    0.72 
  -1   2  -5   23.03    0.72 
  -1   2  -5   24.84    0.73 
  -1   2  -5   23.23    0.72 
   1  -2   5   23.51    0.73 
   1  -2   5   23.38    0.72 
  -2   2  -5   28.89    0.91 
  -2   2  -5   30.26    0.91 
  -2   2  -5   28.05    0.91 
   2  -2   5   29.99    0.91 
   2  -2   5   30.34    0.90 
  -3   2  -5    0.10    0.03 
  -3   2  -5    0.06    0.04 
   3  -2   5    0.06    0.03 
  -4   2  -5   11.83    0.38 
  -4   2  -5   11.83    0.38 
   4  -2   5   12.05    0.39 
  -5   2  -5    0.43    0.08 
   5  -2   5    0.52    0.08 
   5  -2   5    0.49    0.05 
  -6   2  -5    0.73    0.07 
   6  -2   5    0.97    0.09 
   6  -2   5    0.76    0.06 
  -7   2  -5    1.57    0.07 
  -7   2  -5    1.44    0.07 
   7  -2   5    1.51    0.07 
   7  -2   5    1.43    0.06 
   9   1  -5   36.09    1.10 
  -9  -1   5   36.65    1.10 
  -9  -1   5   35.30    1.10 
   8   1  -5   17.47    0.56 
   8   1  -5   17.88    0.56 
  -8  -1   5   17.90    0.56 
  -8  -1   5   18.77    0.56 
   7   1  -5    3.34    0.12 
   7   1  -5    3.27    0.13 
  -7  -1   5    3.37    0.13 
  -7  -1   5    3.70    0.18 
  -7  -1   5    3.28    0.12 
   6   1  -5    8.06    0.26 
  -6  -1   5    8.21    0.27 
   5   1  -5    6.54    0.22 
   5   1  -5    6.70    0.21 
  -5  -1   5    6.19    0.22 
  -5  -1   5    6.83    0.22 
   4   1  -5  154.07    4.77 
   4   1  -5  157.33    4.78 
   4   1  -5  159.53    4.77 
  -4  -1   5  147.19    4.77 
  -4  -1   5  163.47    4.78 
   3   1  -5   25.15    0.78 
   3   1  -5   25.48    0.77 
   3   1  -5   25.13    0.77 
   3   1  -5   24.97    0.77 
   3   1  -5   25.21    0.78 
  -3  -1   5   25.18    0.77 
  -3  -1   5   24.79    0.78 
  -3  -1   5   25.19    0.77 
   2   1  -5   22.26    0.71 
   2   1  -5   23.11    0.71 
   2   1  -5   22.85    0.71 
   2   1  -5   23.66    0.71 
   2   1  -5   22.62    0.71 
  -2  -1   5   22.72    0.71 
  -2  -1   5   23.35    0.71 
  -2  -1   5   23.35    0.71 
  -2  -1   5   23.61    0.71 
   1   1  -5   47.86    1.46 
   1   1  -5   47.14    1.45 
   1   1  -5   47.65    1.46 
  -1  -1   5   47.32    1.47 
  -1  -1   5   47.91    1.46 
  -1  -1   5   45.28    1.46 
  -1  -1   5   48.61    1.46 
  -1  -1   5   49.41    1.46 
   0   1  -5   53.58    1.62 
   0   1  -5   53.55    1.62 
   0   1  -5   52.34    1.62 
   0  -1   5   53.47    1.64 
   0  -1   5   53.52    1.62 
   0  -1   5   51.74    1.62 
  -1   1  -5   43.88    1.32 
  -1   1  -5   41.50    1.32 
  -1   1  -5   41.99    1.33 
  -1   1  -5   43.35    1.33 
  -1   1  -5   44.26    1.32 
   1  -1   5   44.15    1.32 
   1  -1   5   41.49    1.32 
   1  -1   5   45.37    1.33 
  -2   1  -5    0.44    0.04 
  -2   1  -5    0.56    0.04 
  -2   1  -5    0.56    0.03 
   2  -1   5    0.56    0.04 
   2  -1   5    0.54    0.03 
  -3   1  -5   32.71    1.06 
  -3   1  -5   34.59    1.06 
  -3   1  -5   35.28    1.06 
   3  -1   5   33.86    1.06 
   3  -1   5   35.73    1.07 
  -4   1  -5   10.23    0.32 
  -4   1  -5    9.81    0.32 
   4  -1   5   10.11    0.32 
   4  -1   5   10.03    0.33 
  -5   1  -5    0.07    0.04 
   5  -1   5    0.10    0.05 
   5  -1   5    0.08    0.03 
  -6   1  -5    2.68    0.10 
   6  -1   5    2.58    0.12 
   6  -1   5    2.61    0.10 
   6  -1   5    2.56    0.10 
  -7   1  -5    4.42    0.15 
   7  -1   5    4.79    0.15 
   9   0  -5    0.28    0.04 
  -9   0   5    0.23    0.03 
  -9   0   5    0.19    0.03 
   8   0  -5    2.63    0.10 
   8   0  -5    2.73    0.11 
  -8   0   5    2.58    0.09 
  -8   0   5    2.55    0.11 
  -8   0   5    2.41    0.11 
   7   0  -5    1.12    0.06 
  -7   0   5    1.04    0.09 
  -7   0   5    1.05    0.07 
  -7   0   5    1.06    0.08 
   6   0  -5   11.84    0.38 
   6   0  -5   12.03    0.38 
  -6   0   5   12.03    0.38 
  -6   0   5   12.34    0.39 
  -6   0   5   12.48    0.39 
   5   0  -5    4.20    0.15 
   5   0  -5    4.36    0.15 
   5   0  -5    4.28    0.14 
  -5   0   5    4.51    0.15 
  -5   0   5    4.71    0.16 
   4   0  -5    9.35    0.29 
   4   0  -5    9.13    0.30 
   4   0  -5    9.57    0.29 
  -4   0   5    9.55    0.30 
  -4   0   5    8.93    0.29 
  -4   0   5    9.08    0.29 
   3   0  -5   42.88    1.45 
   3   0  -5   50.00    1.44 
   3   0  -5   46.49    1.44 
   3   0  -5   48.24    1.45 
  -3   0   5   49.27    1.45 
  -3   0   5   47.12    1.45 
  -3   0   5   46.57    1.44 
   2   0  -5  116.98    3.55 
   2   0  -5  116.53    3.54 
   2   0  -5  119.39    3.54 
   2   0  -5  118.97    3.54 
  -2   0   5  112.07    3.55 
  -2   0   5  117.21    3.55 
  -2   0   5  114.67    3.56 
  -2   0   5  113.15    3.55 
  -2   0   5  116.22    3.55 
   1   0  -5   61.90    1.83 
   1   0  -5   59.97    1.83 
   1   0  -5   60.18    1.83 
   1   0  -5   58.14    1.84 
  -1   0   5   59.71    1.84 
  -1   0   5   59.46    1.84 
  -1   0   5   60.54    1.85 
   0   0  -5    7.66    0.24 
   0   0  -5    7.75    0.24 
   0   0  -5    7.75    0.24 
   0   0  -5    7.25    0.24 
   0   0   5    7.40    0.24 
   0   0   5    7.65    0.25 
  -1   0  -5    3.80    0.13 
   1   0   5    4.00    0.13 
   1   0   5    3.98    0.14 
  -2   0  -5    3.39    0.11 
   2   0   5    3.29    0.11 
   2   0   5    3.05    0.12 
  -3   0  -5   44.26    1.33 
   3   0   5   45.07    1.33 
   3   0   5   41.07    1.34 
  -4   0  -5    1.41    0.07 
   4   0   5    1.43    0.09 
   4   0   5    1.44    0.06 
  -5   0  -5    0.03    0.04 
   5   0   5    0.04    0.05 
   5   0   5    0.07    0.03 
   5   0   5    0.02    0.05 
  -6   0  -5    1.00    0.07 
   6   0   5    0.97    0.09 
   6   0   5    1.12    0.06 
  -7   0  -5    1.36    0.06 
   7   0   5    1.40    0.06 
   7   0   5    1.36    0.06 
   9  -1  -5    5.20    0.16 
  -9   1   5    4.78    0.17 
  -9   1   5    5.07    0.17 
   8  -1  -5    8.92    0.29 
  -8   1   5    9.25    0.30 
  -8   1   5    9.03    0.30 
  -8   1   5    9.52    0.29 
   7  -1  -5    0.61    0.05 
   7  -1  -5    0.56    0.05 
  -7   1   5    0.52    0.09 
  -7   1   5    0.64    0.07 
  -7   1   5    0.51    0.06 
   6  -1  -5   52.04    1.60 
   6  -1  -5   53.38    1.60 
  -6   1   5   53.95    1.61 
  -6   1   5   50.18    1.60 
  -6   1   5   51.59    1.61 
   5  -1  -5    9.25    0.31 
   5  -1  -5    9.60    0.30 
  -5   1   5    9.23    0.31 
  -5   1   5    9.87    0.30 
  -5   1   5    9.29    0.30 
   4  -1  -5   41.99    1.23 
   4  -1  -5   39.20    1.24 
  -4   1   5   37.82    1.23 
  -4   1   5   41.34    1.24 
  -4   1   5   40.37    1.23 
   3  -1  -5    2.73    0.09 
   3  -1  -5    2.76    0.09 
  -3   1   5    2.72    0.09 
  -3   1   5    2.75    0.10 
   2  -1  -5    0.63    0.03 
   2  -1  -5    0.60    0.04 
   2  -1  -5    0.58    0.03 
  -2   1   5    0.64    0.03 
   1  -1  -5    1.74    0.06 
   1  -1  -5    1.66    0.07 
   1  -1  -5    1.70    0.06 
  -1   1   5    1.77    0.06 
  -1   1   5    1.64    0.07 
   0  -1  -5    0.60    0.03 
   0  -1  -5    0.54    0.04 
   0   1   5    0.49    0.03 
   0   1   5    0.53    0.04 
  -1  -1  -5    0.47    0.03 
  -1  -1  -5    0.38    0.04 
   1   1   5    0.43    0.04 
  -2  -1  -5   44.93    1.36 
  -2  -1  -5   42.59    1.35 
   2   1   5   44.01    1.36 
   2   1   5   45.00    1.35 
  -3  -1  -5   13.15    0.41 
  -3  -1  -5   12.61    0.42 
   3   1   5   13.19    0.40 
   3   1   5   12.90    0.42 
  -4  -1  -5    5.54    0.19 
   4   1   5    5.80    0.21 
   4   1   5    5.77    0.19 
   4   1   5    6.29    0.21 
  -5  -1  -5    0.95    0.08 
   5   1   5    0.91    0.06 
   5   1   5    0.99    0.09 
   5   1   5    1.02    0.07 
   5   1   5    0.94    0.06 
  -6  -1  -5    0.03    0.04 
   6   1   5    0.05    0.03 
   6   1   5    0.00    0.05 
  -7  -1  -5    3.13    0.11 
   7   1   5    3.31    0.11 
   7   1   5    3.20    0.11 
   9  -2  -5    0.60    0.05 
  -9   2   5    0.72    0.05 
  -9   2   5    0.77    0.06 
  -9   2   5    0.78    0.06 
   8  -2  -5    1.27    0.07 
  -8   2   5    1.42    0.08 
  -8   2   5    1.32    0.08 
  -8   2   5    1.57    0.09 
   7  -2  -5    0.49    0.09 
   7  -2  -5    0.54    0.05 
   7  -2  -5    0.47    0.08 
   7  -2  -5    0.48    0.06 
  -7   2   5    0.52    0.07 
  -7   2   5    0.41    0.09 
  -7   2   5    0.46    0.06 
  -7   2   5    0.39    0.09 
   6  -2  -5    1.64    0.07 
   6  -2  -5    1.66    0.07 
  -6   2   5    1.69    0.07 
  -6   2   5    1.65    0.10 
   5  -2  -5    4.39    0.16 
   5  -2  -5    4.49    0.15 
  -5   2   5    4.65    0.16 
  -5   2   5    4.77    0.15 
  -5   2   5    4.16    0.15 
   4  -2  -5   17.81    0.56 
   4  -2  -5   18.71    0.55 
  -4   2   5   17.06    0.56 
  -4   2   5   17.93    0.55 
   3  -2  -5    2.44    0.09 
   3  -2  -5    2.53    0.10 
   3  -2  -5    2.67    0.09 
  -3   2   5    2.65    0.10 
  -3   2   5    2.65    0.09 
   2  -2  -5   47.52    1.40 
   2  -2  -5   45.50    1.40 
  -2   2   5   44.49    1.40 
  -2   2   5   45.11    1.40 
   1  -2  -5    6.74    0.21 
   1  -2  -5    6.28    0.21 
  -1   2   5    6.96    0.22 
  -1   2   5    6.66    0.21 
   0  -2  -5    0.63    0.04 
   0  -2  -5    0.58    0.03 
   0   2   5    0.62    0.03 
   0   2   5    0.54    0.05 
  -1  -2  -5    0.22    0.03 
  -1  -2  -5    0.21    0.04 
   1   2   5    0.27    0.02 
   1   2   5    0.24    0.05 
  -2  -2  -5   24.17    0.77 
  -2  -2  -5   25.06    0.76 
   2   2   5   24.82    0.76 
  -3  -2  -5    0.32    0.06 
  -3  -2  -5    0.43    0.04 
   3   2   5    0.39    0.04 
  -4  -2  -5    3.13    0.12 
  -4  -2  -5    3.42    0.14 
   4   2   5    3.32    0.12 
   5   2   5    1.61    0.08 
   5   2   5    1.68    0.08 
   6   2   5    7.70    0.25 
   6   2   5    7.73    0.25 
   9  -3  -5    2.38    0.09 
  -9   3   5    2.42    0.09 
  -9   3   5    2.48    0.09 
  -8   3   5    3.90    0.14 
  -8   3   5    4.01    0.14 
  -7   3   5    6.54    0.21 
  -7   3   5    6.42    0.22 
  -7   3   5    6.11    0.22 
   6  -3  -5   42.05    1.29 
   6  -3  -5   41.57    1.30 
  -6   3   5   42.94    1.29 
  -6   3   5   41.13    1.29 
   5  -3  -5    2.16    0.10 
   5  -3  -5    2.15    0.10 
   5  -3  -5    2.15    0.08 
  -5   3   5    2.15    0.08 
  -5   3   5    2.06    0.09 
   4  -3  -5    1.02    0.07 
   4  -3  -5    1.08    0.05 
  -4   3   5    1.21    0.06 
  -4   3   5    1.04    0.05 
   3  -3  -5   38.42    1.16 
   3  -3  -5   37.30    1.15 
  -3   3   5   36.54    1.15 
   2  -3  -5   10.44    0.32 
   2  -3  -5   10.36    0.33 
  -2   3   5   10.48    0.32 
   1  -3  -5    9.47    0.29 
   1  -3  -5    8.96    0.30 
  -1   3   5    9.49    0.29 
   0  -3  -5   13.40    0.42 
   0  -3  -5   12.98    0.41 
   0   3   5   13.68    0.41 
  -1  -3  -5    4.73    0.15 
  -1  -3  -5    4.57    0.16 
   1   3   5    4.47    0.15 
  -2  -3  -5    0.35    0.05 
  -2  -3  -5    0.29    0.04 
  -3  -3  -5    4.36    0.15 
  -3  -3  -5    4.67    0.16 
   3   3   5    4.04    0.15 
  -4  -3  -5    0.39    0.05 
   4   3   5    0.38    0.05 
   4   3   5    0.32    0.06 
   4   3   5    0.37    0.06 
  -5  -3  -5    0.94    0.05 
   5   3   5    0.87    0.06 
   5   3   5    0.91    0.06 
   6   3   5    1.62    0.07 
   6   3   5    1.78    0.07 
  -9   4   5    1.69    0.07 
  -9   4   5    1.70    0.07 
  -8   4   5    0.49    0.07 
  -8   4   5    0.47    0.06 
  -8   4   5    0.44    0.05 
   7  -4  -5   24.33    0.76 
  -7   4   5   23.88    0.76 
  -7   4   5   25.04    0.76 
  -7   4   5   24.97    0.76 
   6  -4  -5    2.86    0.13 
   6  -4  -5    2.79    0.10 
  -6   4   5    2.81    0.12 
  -6   4   5    2.70    0.11 
  -6   4   5    2.79    0.10 
   5  -4  -5    3.16    0.13 
   5  -4  -5    3.13    0.11 
  -5   4   5    2.88    0.11 
  -5   4   5    2.75    0.12 
  -5   4   5    3.22    0.11 
   4  -4  -5   39.62    1.16 
   4  -4  -5   36.63    1.15 
  -4   4   5   36.11    1.15 
  -4   4   5   37.10    1.15 
   3  -4  -5    2.16    0.09 
   3  -4  -5    2.00    0.08 
  -3   4   5    2.31    0.09 
  -3   4   5    2.11    0.08 
   2  -4  -5   23.50    0.72 
   2  -4  -5   23.00    0.71 
  -2   4   5   23.11    0.71 
  -2   4   5   22.50    0.71 
   1  -4  -5    0.35    0.03 
   1  -4  -5    0.38    0.04 
  -1   4   5    0.40    0.03 
   0  -4  -5    7.34    0.23 
   0  -4  -5    7.65    0.24 
   0   4   5    7.13    0.23 
  -1  -4  -5    7.86    0.27 
  -1  -4  -5    8.42    0.27 
   1   4   5    8.87    0.26 
  -2  -4  -5    2.45    0.10 
  -2  -4  -5    2.40    0.09 
   2   4   5    2.36    0.09 
  -3  -4  -5    3.84    0.14 
  -3  -4  -5    3.77    0.15 
  -4  -4  -5    2.29    0.09 
   4   4   5    2.44    0.10 
   4   4   5    2.44    0.09 
   4   4   5    2.43    0.10 
  -5  -4  -5    5.30    0.17 
   5   4   5    5.29    0.17 
   5   4   5    5.47    0.18 
   8  -5  -5   18.45    0.56 
  -8   5   5   17.76    0.56 
  -8   5   5   17.61    0.56 
  -8   5   5   18.08    0.56 
   7  -5  -5    5.93    0.19 
  -7   5   5    5.75    0.19 
  -7   5   5    5.74    0.20 
  -7   5   5    5.69    0.20 
   6  -5  -5   15.10    0.45 
  -6   5   5   14.55    0.46 
  -6   5   5   14.27    0.45 
  -6   5   5   13.63    0.46 
  -6   5   5   15.19    0.46 
   5  -5  -5    0.49    0.07 
   5  -5  -5    0.50    0.05 
  -5   5   5    0.67    0.07 
   4  -5  -5    0.25    0.06 
   4  -5  -5    0.24    0.04 
  -4   5   5    0.16    0.04 
   3  -5  -5    0.94    0.05 
   3  -5  -5    1.00    0.07 
  -3   5   5    1.01    0.06 
   2  -5  -5   23.60    0.71 
   2  -5  -5   21.28    0.70 
  -2   5   5   23.00    0.70 
   1  -5  -5    3.26    0.12 
   0  -5  -5    0.43    0.05 
  -1  -5  -5    5.10    0.18 
  -2  -5  -5    4.89    0.18 
  -3  -5  -5    0.41    0.04 
   3   5   5    0.44    0.06 
   3   5   5    0.32    0.05 
   3   5   5    0.44    0.06 
  -4  -5  -5    3.80    0.13 
   4   5   5    3.74    0.13 
   4   5   5    3.81    0.13 
  -5  -5  -5    0.06    0.02 
   5   5   5    0.07    0.02 
   5   5   5    0.08    0.02 
   8  -6  -5    0.82    0.04 
  -8   6   5    0.75    0.05 
  -8   6   5    0.85    0.06 
   7  -6  -5    1.84    0.07 
  -7   6   5    1.87    0.07 
  -7   6   5    1.75    0.09 
  -7   6   5    1.75    0.07 
   6  -6  -5    9.33    0.29 
  -6   6   5    8.94    0.30 
  -6   6   5    9.47    0.29 
  -6   6   5    8.69    0.29 
  -6   6   5    9.32    0.30 
  -6   6   5    9.15    0.29 
   5  -6  -5   37.95    1.21 
   5  -6  -5   39.54    1.24 
  -5   6   5   41.24    1.22 
  -5   6   5   38.97    1.22 
  -5   6   5   40.17    1.22 
   4  -6  -5    2.51    0.11 
  -4   6   5    2.35    0.11 
   3  -6  -5    8.08    0.27 
  -3   6   5    7.99    0.27 
   2  -6  -5   10.89    0.35 
   1  -6  -5    4.69    0.17 
   0  -6  -5   26.71    0.83 
  -1  -6  -5    0.78    0.07 
  -2  -6  -5    3.41    0.11 
   2   6   5    3.33    0.12 
   2   6   5    3.25    0.13 
   2   6   5    3.48    0.12 
   2   6   5    3.19    0.12 
  -3  -6  -5    0.17    0.04 
   3   6   5    0.27    0.04 
   3   6   5    0.19    0.05 
   3   6   5    0.21    0.03 
  -4  -6  -5    6.98    0.22 
   4   6   5    6.84    0.22 
   4   6   5    6.83    0.22 
   7  -7  -5    3.47    0.12 
  -7   7   5    3.65    0.13 
  -7   7   5    3.61    0.13 
  -7   7   5    3.61    0.12 
  -7   7   5    3.84    0.12 
   6  -7  -5    4.61    0.15 
  -6   7   5    4.36    0.15 
  -6   7   5    4.79    0.15 
  -6   7   5    4.50    0.16 
  -6   7   5    4.99    0.16 
  -6   7   5    4.26    0.15 
   5  -7  -5   19.46    0.59 
  -5   7   5   18.25    0.60 
  -5   7   5   20.64    0.59 
  -5   7   5   19.44    0.59 
  -5   7   5   18.25    0.60 
  -5   7   5   19.20    0.59 
   4  -7  -5    0.62    0.04 
   4  -7  -5    0.59    0.05 
  -4   7   5    0.59    0.07 
  -4   7   5    0.70    0.07 
  -4   7   5    0.64    0.06 
  -4   7   5    0.73    0.05 
  -4   7   5    0.70    0.05 
   3  -7  -5   17.76    0.55 
   3  -7  -5   16.93    0.57 
   3  -7  -5   17.84    0.55 
  -3   7   5   18.62    0.56 
  -3   7   5   17.24    0.55 
  -3   7   5   18.40    0.56 
  -3   7   5   18.25    0.55 
  -3   7   5   17.16    0.55 
   2  -7  -5    0.11    0.04 
   1  -7  -5    0.01    0.02 
   1  -7  -5    0.01    0.07 
   1  -7  -5    0.00    0.03 
  -1   7   5    0.02    0.03 
  -1   7   5    0.02    0.04 
  -1   7   5   -0.02    0.03 
  -1   7   5    0.06    0.04 
  -1   7   5    0.00    0.04 
   0  -7  -5    1.13    0.06 
   0  -7  -5    1.18    0.05 
   0   7   5    1.09    0.06 
   0   7   5    1.02    0.07 
   0   7   5    1.06    0.07 
   0   7   5    1.13    0.07 
  -1  -7  -5   13.67    0.42 
  -1  -7  -5   12.90    0.42 
   1   7   5   14.11    0.43 
   1   7   5   13.33    0.42 
   1   7   5   13.70    0.43 
   1   7   5   13.89    0.43 
  -2  -7  -5    1.37    0.06 
   2   7   5    1.49    0.07 
   2   7   5    1.66    0.07 
   2   7   5    1.51    0.07 
  -3  -7  -5    1.24    0.05 
   3   7   5    1.20    0.06 
   7  -8  -5    2.00    0.07 
  -7   8   5    1.94    0.08 
  -7   8   5    2.00    0.07 
  -7   8   5    1.98    0.08 
   6  -8  -5    0.15    0.03 
  -6   8   5    0.12    0.03 
  -6   8   5    0.18    0.03 
  -6   8   5    0.17    0.04 
  -6   8   5    0.14    0.02 
   5  -8  -5    0.17    0.03 
  -5   8   5    0.13    0.02 
  -5   8   5    0.17    0.04 
  -5   8   5    0.12    0.04 
  -5   8   5    0.15    0.02 
   4  -8  -5   25.23    0.79 
   4  -8  -5   25.59    0.79 
  -4   8   5   25.94    0.80 
  -4   8   5   26.60    0.79 
  -4   8   5   25.74    0.80 
  -4   8   5   25.39    0.79 
   3  -8  -5    0.03    0.03 
   3  -8  -5    0.05    0.02 
  -3   8   5    0.06    0.03 
  -3   8   5    0.08    0.03 
  -3   8   5    0.03    0.04 
  -3   8   5    0.06    0.03 
   2  -8  -5   17.97    0.56 
   2  -8  -5   18.12    0.56 
  -2   8   5   17.61    0.57 
  -2   8   5   18.85    0.57 
  -2   8   5   18.99    0.57 
  -2   8   5   17.94    0.56 
   1  -8  -5   19.87    0.62 
   1  -8  -5   20.53    0.62 
  -1   8   5   20.23    0.62 
  -1   8   5   19.65    0.62 
  -1   8   5   20.29    0.62 
  -1   8   5   19.63    0.62 
  -1   8   5   20.33    0.62 
   0  -8  -5    0.42    0.04 
   0  -8  -5    0.49    0.04 
   0   8   5    0.51    0.05 
   0   8   5    0.48    0.05 
   0   8   5    0.45    0.05 
  -1  -8  -5    2.43    0.08 
   1   8   5    2.40    0.09 
   1   8   5    2.41    0.09 
   1   8   5    2.35    0.09 
  -2  -8  -5    1.12    0.05 
   2   8   5    1.06    0.05 
   2   8   5    1.12    0.06 
   6  -9  -5    5.55    0.18 
  -6   9   5    5.68    0.18 
  -6   9   5    5.92    0.19 
   5  -9  -5   15.76    0.49 
  -5   9   5   15.92    0.50 
  -5   9   5   15.57    0.49 
  -5   9   5   16.52    0.49 
  -5   9   5   16.14    0.50 
   4  -9  -5    4.60    0.15 
  -4   9   5    4.55    0.16 
  -4   9   5    4.63    0.15 
  -4   9   5    4.66    0.16 
   3  -9  -5    4.19    0.13 
   3  -9  -5    4.18    0.14 
  -3   9   5    4.05    0.14 
  -3   9   5    4.06    0.14 
  -3   9   5    4.12    0.14 
  -3   9   5    4.34    0.15 
   2  -9  -5    0.11    0.02 
   2  -9  -5    0.07    0.02 
  -2   9   5    0.10    0.02 
  -2   9   5    0.11    0.03 
  -2   9   5    0.13    0.03 
  -2   9   5    0.12    0.03 
   1  -9  -5    9.36    0.29 
   1  -9  -5    9.55    0.29 
  -1   9   5    9.37    0.29 
  -1   9   5    8.97    0.29 
  -1   9   5    9.34    0.29 
  -1   9   5    9.42    0.29 
  -1   9   5    9.11    0.29 
   0  -9  -5    0.20    0.03 
   0   9   5    0.20    0.04 
   0   9   5    0.19    0.04 
   0   9   5    0.18    0.04 
  -1  -9  -5    1.19    0.05 
   1   9   5    1.21    0.06 
   1   9   5    1.10    0.05 
   1   9   5    1.26    0.05 
   3 -10  -5    9.00    0.29 
  -3  10   5    9.06    0.30 
  -3  10   5    9.60    0.29 
  -3  10   5    9.99    0.29 
  -3  10   5    9.39    0.29 
  -2  10   5    0.48    0.04 
  -2  10   5    0.36    0.05 
  -2  10   5    0.46    0.04 
  -2  10   5    0.49    0.04 
   2  11  -6    0.62    0.04 
  -2  11  -6    4.28    0.14 
  -2  11  -6    4.24    0.14 
  -3  11  -6    1.61    0.06 
  -3  11  -6    1.48    0.06 
   4  10  -6    0.13    0.02 
   3  10  -6    1.01    0.06 
   2  10  -6    0.27    0.06 
   2  10  -6    0.32    0.05 
   1  10  -6    0.33    0.09 
   0  10  -6   -0.03    0.06 
  -1  10  -6   28.78    0.89 
  -2  10  -6   27.33    0.84 
  -2  10  -6   27.53    0.84 
  -3  10  -6    0.22    0.04 
  -3  10  -6    0.21    0.05 
  -4  10  -6   12.84    0.39 
  -4  10  -6   12.24    0.39 
  -4  10  -6   12.29    0.39 
  -4  10  -6   12.77    0.39 
  -4  10  -6   12.33    0.39 
   5   9  -6    8.04    0.25 
   5   9  -6    8.31    0.25 
  -5  -9   6    7.45    0.25 
   4   9  -6    3.10    0.11 
   4   9  -6    2.61    0.13 
   4   9  -6    3.07    0.12 
   3   9  -6    3.59    0.16 
   3   9  -6    2.93    0.11 
   3   9  -6    3.00    0.15 
   2   9  -6    2.41    0.10 
   2   9  -6    2.79    0.13 
   1   9  -6    1.55    0.12 
   0   9  -6   18.51    0.59 
  -1   9  -6   13.82    0.44 
  -1   9  -6   13.51    0.42 
  -1   9  -6   12.91    0.42 
  -2   9  -6    1.71    0.07 
  -2   9  -6    1.89    0.08 
  -3   9  -6    3.20    0.10 
  -3   9  -6    2.78    0.12 
  -3   9  -6    3.18    0.11 
  -3   9  -6    3.13    0.11 
  -3   9  -6    2.94    0.11 
  -3   9  -6    2.94    0.11 
   3  -9   6    2.81    0.10 
  -4   9  -6    9.32    0.29 
  -4   9  -6    9.13    0.30 
  -4   9  -6    9.27    0.29 
  -4   9  -6    9.54    0.30 
  -4   9  -6    9.37    0.29 
  -4   9  -6    9.43    0.30 
  -5   9  -6    0.79    0.06 
  -5   9  -6    0.79    0.04 
  -5   9  -6    0.76    0.05 
  -5   9  -6    0.77    0.04 
  -5   9  -6    0.70    0.05 
  -5   9  -6    0.89    0.06 
   5  -9   6    0.93    0.05 
   5  -9   6    0.77    0.05 
   6   8  -6    0.14    0.02 
   6   8  -6    0.16    0.04 
  -6  -8   6    0.19    0.04 
   5   8  -6    0.30    0.05 
   5   8  -6    0.38    0.05 
   5   8  -6    0.35    0.09 
   4   8  -6    2.00    0.08 
   4   8  -6    1.96    0.10 
   4   8  -6    1.85    0.12 
  -4  -8   6    2.01    0.08 
   3   8  -6    5.80    0.20 
   3   8  -6    5.74    0.19 
   3   8  -6    5.81    0.21 
  -3  -8   6    5.66    0.18 
   2   8  -6    4.35    0.17 
   2   8  -6    4.17    0.18 
   2   8  -6    4.13    0.17 
   2   8  -6    4.25    0.15 
   1   8  -6    1.05    0.10 
   0   8  -6   11.48    0.38 
  -1   8  -6    1.04    0.08 
  -1   8  -6    1.02    0.10 
  -1   8  -6    1.18    0.07 
  -2   8  -6   42.67    1.32 
  -2   8  -6   44.18    1.32 
  -2   8  -6   42.40    1.33 
  -2   8  -6   45.45    1.33 
  -2   8  -6   41.62    1.33 
   2  -8   6   40.89    1.31 
  -3   8  -6   34.26    1.07 
  -3   8  -6   35.75    1.07 
  -3   8  -6   33.77    1.06 
  -3   8  -6   35.44    1.06 
  -3   8  -6   34.87    1.06 
  -3   8  -6   34.13    1.06 
  -3   8  -6   34.80    1.07 
   3  -8   6   33.81    1.06 
  -4   8  -6    0.31    0.04 
  -4   8  -6    0.38    0.06 
  -4   8  -6    0.38    0.06 
  -4   8  -6    0.33    0.05 
  -4   8  -6    0.29    0.05 
  -4   8  -6    0.31    0.06 
   4  -8   6    0.34    0.05 
  -5   8  -6    7.36    0.25 
  -5   8  -6    8.18    0.26 
  -5   8  -6    8.13    0.25 
  -5   8  -6    8.35    0.25 
  -5   8  -6    8.04    0.26 
  -5   8  -6    8.14    0.25 
   5  -8   6    7.81    0.25 
   5  -8   6    7.56    0.25 
  -6   8  -6    4.57    0.16 
  -6   8  -6    5.11    0.16 
  -6   8  -6    4.95    0.16 
   6  -8   6    4.98    0.16 
   6   7  -6    1.20    0.06 
   6   7  -6    1.24    0.08 
  -6  -7   6    1.21    0.06 
   5   7  -6   19.76    0.61 
   5   7  -6   20.01    0.63 
   5   7  -6   20.31    0.62 
  -5  -7   6   19.16    0.61 
   4   7  -6    1.02    0.09 
   4   7  -6    0.96    0.07 
   4   7  -6    1.13    0.10 
  -4  -7   6    0.97    0.05 
   3   7  -6   26.60    0.81 
   3   7  -6   26.96    0.81 
   3   7  -6   26.33    0.82 
   3   7  -6   25.78    0.82 
   3   7  -6   25.60    0.80 
  -3  -7   6   24.79    0.80 
   2   7  -6    3.78    0.16 
   2   7  -6    3.86    0.16 
   2   7  -6    3.77    0.13 
   2   7  -6    3.90    0.16 
   2   7  -6    3.82    0.15 
   1   7  -6   76.89    2.35 
   1   7  -6   77.07    2.36 
   1   7  -6   76.07    2.36 
   1   7  -6   77.54    2.36 
   0   7  -6    2.88    0.14 
   0   7  -6    2.91    0.13 
   0   7  -6    2.93    0.12 
   0   7  -6    3.27    0.11 
  -1   7  -6    0.19    0.05 
  -1   7  -6    0.13    0.05 
  -1   7  -6    0.10    0.03 
  -1   7  -6    0.16    0.04 
  -2   7  -6   77.59    2.40 
  -2   7  -6   80.14    2.40 
  -2   7  -6   80.56    2.40 
   2  -7   6   78.71    2.39 
   2  -7   6   74.53    2.39 
  -3   7  -6   18.07    0.58 
  -3   7  -6   18.44    0.58 
  -3   7  -6   17.77    0.57 
   3  -7   6   19.17    0.57 
  -4   7  -6    4.73    0.17 
  -4   7  -6    4.60    0.16 
  -4   7  -6    4.89    0.16 
  -4   7  -6    4.65    0.17 
  -4   7  -6    4.70    0.17 
  -4   7  -6    4.75    0.16 
  -4   7  -6    4.45    0.16 
   4  -7   6    4.94    0.16 
  -5   7  -6    0.41    0.06 
  -5   7  -6    0.30    0.05 
  -5   7  -6    0.28    0.06 
  -5   7  -6    0.38    0.06 
  -5   7  -6    0.36    0.05 
  -5   7  -6    0.35    0.06 
   5  -7   6    0.38    0.05 
   5  -7   6    0.39    0.05 
  -6   7  -6    0.64    0.04 
  -6   7  -6    0.60    0.06 
  -6   7  -6    0.60    0.06 
  -6   7  -6    0.70    0.05 
   6  -7   6    0.59    0.04 
   6  -7   6    0.67    0.05 
   6  -7   6    0.64    0.05 
   7   6  -6    0.86    0.07 
  -7  -6   6    0.93    0.05 
   6   6  -6    0.89    0.06 
   6   6  -6    1.04    0.11 
   6   6  -6    0.99    0.09 
  -6  -6   6    0.87    0.06 
  -6  -6   6    0.86    0.06 
   5   6  -6    5.14    0.19 
   5   6  -6    5.31    0.18 
   5   6  -6    5.12    0.20 
  -5  -6   6    5.52    0.17 
   4   6  -6   27.85    0.87 
   4   6  -6   27.88    0.87 
   4   6  -6   27.47    0.86 
   4   6  -6   26.85    0.87 
   4   6  -6   28.29    0.86 
   4   6  -6   27.93    0.86 
  -4  -6   6   28.15    0.85 
   3   6  -6    0.51    0.09 
   3   6  -6    0.48    0.06 
   3   6  -6    0.51    0.07 
   3   6  -6    0.56    0.07 
   3   6  -6    0.56    0.09 
   3   6  -6    0.58    0.05 
  -3  -6   6    0.54    0.04 
  -3  -6   6    0.57    0.04 
   2   6  -6    0.35    0.08 
   2   6  -6    0.26    0.06 
   2   6  -6    0.24    0.07 
   2   6  -6    0.22    0.04 
   2   6  -6    0.29    0.04 
  -2  -6   6    0.26    0.03 
   1   6  -6    1.46    0.07 
   1   6  -6    1.37    0.10 
   1   6  -6    1.48    0.06 
   1   6  -6    1.38    0.07 
   1   6  -6    1.48    0.08 
   1   6  -6    1.39    0.07 
   0   6  -6    1.29    0.06 
   0   6  -6    1.23    0.06 
   0   6  -6    1.10    0.10 
   0   6  -6    1.24    0.08 
   0   6  -6    1.27    0.07 
  -1   6  -6   13.68    0.44 
  -1   6  -6   13.36    0.43 
  -1   6  -6   13.77    0.43 
  -1   6  -6   13.68    0.43 
   1  -6   6   13.72    0.42 
  -2   6  -6    2.15    0.09 
  -2   6  -6    2.25    0.09 
   2  -6   6    2.10    0.08 
   2  -6   6    2.19    0.08 
  -3   6  -6   13.88    0.43 
  -3   6  -6   13.58    0.44 
  -3   6  -6   13.77    0.44 
  -3   6  -6   14.17    0.44 
   3  -6   6   13.47    0.43 
   3  -6   6   14.04    0.43 
  -4   6  -6   16.41    0.52 
  -4   6  -6   15.14    0.54 
  -4   6  -6   16.30    0.52 
  -4   6  -6   17.32    0.52 
  -4   6  -6   16.73    0.52 
  -4   6  -6   15.22    0.53 
  -4   6  -6   16.98    0.52 
  -4   6  -6   16.69    0.52 
  -4   6  -6   17.17    0.52 
   4  -6   6   17.25    0.51 
  -5   6  -6    0.33    0.07 
  -5   6  -6    0.32    0.05 
  -5   6  -6    0.24    0.05 
  -5   6  -6    0.34    0.06 
  -5   6  -6    0.32    0.06 
  -5   6  -6    0.24    0.04 
   5  -6   6    0.31    0.05 
   5  -6   6    0.21    0.05 
  -6   6  -6    0.16    0.03 
  -6   6  -6    0.18    0.03 
  -6   6  -6    0.17    0.03 
   6  -6   6    0.20    0.03 
   6  -6   6    0.24    0.04 
   6  -6   6    0.15    0.03 
   6  -6   6    0.14    0.03 
   8   5  -6   -0.02    0.04 
  -8  -5   6    0.04    0.02 
   7   5  -6   19.63    0.60 
   7   5  -6   19.00    0.60 
  -7  -5   6   19.40    0.60 
  -7  -5   6   19.34    0.60 
   6   5  -6    0.12    0.03 
   6   5  -6    0.14    0.06 
  -6  -5   6    0.12    0.03 
  -6  -5   6    0.11    0.04 
   5   5  -6   17.73    0.55 
   5   5  -6   16.13    0.53 
   5   5  -6   16.48    0.54 
   5   5  -6   16.89    0.52 
   5   5  -6   16.16    0.52 
  -5  -5   6   16.78    0.52 
   4   5  -6    2.96    0.13 
   4   5  -6    3.22    0.14 
   4   5  -6    3.15    0.11 
   4   5  -6    3.14    0.13 
   4   5  -6    2.98    0.12 
   4   5  -6    3.09    0.11 
  -4  -5   6    2.94    0.10 
  -4  -5   6    3.03    0.10 
  -4  -5   6    3.11    0.13 
   3   5  -6   60.67    1.87 
   3   5  -6   62.21    1.87 
   3   5  -6   59.82    1.87 
   3   5  -6   62.91    1.88 
   3   5  -6   61.67    1.88 
   3   5  -6   60.47    1.88 
   3   5  -6   60.32    1.88 
  -3  -5   6   60.90    1.88 
  -3  -5   6   60.97    1.87 
   2   5  -6   36.63    1.11 
   2   5  -6   35.79    1.12 
   2   5  -6   35.93    1.12 
   2   5  -6   35.79    1.11 
   2   5  -6   36.40    1.11 
  -2  -5   6   35.69    1.11 
  -2  -5   6   37.46    1.12 
   1   5  -6    0.62    0.06 
   1   5  -6    0.59    0.05 
   1   5  -6    0.60    0.04 
   1   5  -6    0.64    0.04 
   1   5  -6    0.61    0.05 
  -1  -5   6    0.54    0.03 
   0   5  -6   26.83    0.84 
   0   5  -6   27.75    0.84 
   0   5  -6   27.41    0.83 
   0   5  -6   26.80    0.83 
   0  -5   6   26.54    0.83 
  -1   5  -6   41.96    1.33 
  -1   5  -6   44.41    1.33 
  -1   5  -6   45.04    1.33 
   1  -5   6   43.20    1.32 
   1  -5   6   41.61    1.32 
  -2   5  -6   26.49    0.86 
  -2   5  -6   27.93    0.85 
  -2   5  -6   28.86    0.86 
  -2   5  -6   27.04    0.85 
   2  -5   6   27.63    0.85 
   2  -5   6   27.79    0.85 
  -3   5  -6  126.63    3.84 
  -3   5  -6  119.78    3.85 
  -3   5  -6  123.34    3.84 
  -3   5  -6  126.62    3.84 
   3  -5   6  129.30    3.84 
   3  -5   6  128.46    3.84 
  -4   5  -6    5.94    0.22 
  -4   5  -6    5.95    0.21 
   4  -5   6    6.33    0.20 
  -5   5  -6    1.04    0.07 
  -5   5  -6    1.27    0.07 
  -5   5  -6    1.18    0.08 
  -5   5  -6    1.23    0.07 
   5  -5   6    1.08    0.07 
   5  -5   6    1.17    0.06 
   5  -5   6    1.21    0.07 
  -6   5  -6    0.32    0.05 
  -6   5  -6    0.30    0.06 
  -6   5  -6    0.29    0.05 
   6  -5   6    0.35    0.05 
   6  -5   6    0.31    0.04 
   6  -5   6    0.24    0.05 
  -7   5  -6    1.58    0.07 
   7  -5   6    1.57    0.06 
   7  -5   6    1.57    0.06 
   7  -5   6    1.48    0.06 
  -8  -4   6    3.09    0.12 
  -8  -4   6    3.16    0.10 
   7   4  -6    1.02    0.10 
   7   4  -6    1.09    0.06 
  -7  -4   6    1.09    0.08 
  -7  -4   6    1.33    0.06 
  -7  -4   6    1.23    0.06 
   6   4  -6   38.34    1.21 
   6   4  -6   39.99    1.22 
   6   4  -6   40.03    1.21 
  -6  -4   6   39.05    1.21 
  -6  -4   6   39.49    1.21 
  -6  -4   6   38.95    1.21 
  -6  -4   6   40.27    1.21 
   5   4  -6   21.34    0.68 
   5   4  -6   21.59    0.67 
   5   4  -6   21.16    0.67 
  -5  -4   6   21.74    0.67 
  -5  -4   6   22.65    0.67 
  -5  -4   6   21.30    0.68 
   4   4  -6    7.62    0.25 
   4   4  -6    7.70    0.26 
   4   4  -6    7.71    0.25 
   4   4  -6    7.84    0.26 
  -4  -4   6    7.82    0.24 
  -4  -4   6    7.40    0.24 
  -4  -4   6    8.06    0.26 
   3   4  -6    0.36    0.03 
   3   4  -6    0.31    0.05 
   3   4  -6    0.37    0.06 
   3   4  -6    0.29    0.04 
   3   4  -6    0.30    0.05 
   3   4  -6    0.32    0.04 
  -3  -4   6    0.31    0.04 
  -3  -4   6    0.34    0.03 
  -3  -4   6    0.39    0.05 
   2   4  -6   11.26    0.34 
   2   4  -6   10.87    0.35 
   2   4  -6   10.21    0.35 
   2   4  -6   11.53    0.35 
   2   4  -6   11.34    0.35 
   2   4  -6   10.89    0.35 
  -2  -4   6   11.16    0.35 
  -2  -4   6   11.26    0.34 
   1   4  -6    9.96    0.31 
   1   4  -6    9.80    0.31 
   1   4  -6    9.47    0.31 
   1   4  -6    9.73    0.30 
   1   4  -6   10.16    0.31 
   0   4  -6    8.19    0.27 
   0   4  -6    8.70    0.27 
   0   4  -6    8.68    0.27 
   0   4  -6    8.29    0.27 
   0  -4   6    8.45    0.26 
  -1   4  -6   17.41    0.52 
  -1   4  -6   16.09    0.52 
  -1   4  -6   15.98    0.52 
  -1   4  -6   16.86    0.52 
  -1   4  -6   16.91    0.52 
   1  -4   6   17.07    0.51 
  -2   4  -6   11.54    0.35 
  -2   4  -6   10.83    0.34 
  -2   4  -6   10.60    0.35 
  -2   4  -6   10.98    0.34 
   2  -4   6   10.89    0.34 
   2  -4   6   10.16    0.34 
  -3   4  -6   17.02    0.55 
  -3   4  -6   17.71    0.55 
  -3   4  -6   17.35    0.56 
   3  -4   6   17.76    0.54 
   3  -4   6   17.72    0.54 
   3  -4   6   17.93    0.55 
  -4   4  -6    3.39    0.14 
  -4   4  -6    3.24    0.14 
   4  -4   6    3.47    0.14 
  -5   4  -6    2.61    0.11 
  -5   4  -6    2.41    0.11 
  -5   4  -6    2.51    0.10 
   5  -4   6    2.42    0.10 
   5  -4   6    2.62    0.10 
   5  -4   6    2.69    0.10 
   5  -4   6    2.68    0.10 
  -6   4  -6    0.91    0.06 
  -6   4  -6    0.84    0.06 
   6  -4   6    0.95    0.06 
   6  -4   6    0.89    0.06 
   6  -4   6    0.88    0.05 
  -7   4  -6    9.36    0.30 
   7  -4   6    9.70    0.30 
   7  -4   6   10.10    0.30 
   8   3  -6    2.71    0.11 
  -8  -3   6    2.98    0.10 
  -8  -3   6    3.02    0.11 
   7   3  -6    0.91    0.06 
   7   3  -6    1.03    0.08 
  -7  -3   6    1.10    0.06 
  -7  -3   6    1.12    0.06 
  -7  -3   6    0.98    0.08 
   6   3  -6    0.53    0.09 
   6   3  -6    0.59    0.06 
  -6  -3   6    0.64    0.09 
  -6  -3   6    0.54    0.07 
   5   3  -6   16.77    0.54 
   5   3  -6   17.57    0.53 
  -5  -3   6   16.93    0.53 
  -5  -3   6   17.17    0.54 
  -5  -3   6   16.42    0.52 
   4   3  -6    2.78    0.11 
   4   3  -6    2.91    0.10 
   4   3  -6    2.76    0.11 
   4   3  -6    3.05    0.12 
   4   3  -6    2.94    0.10 
  -4  -3   6    2.87    0.11 
  -4  -3   6    2.65    0.10 
  -4  -3   6    2.81    0.10 
  -4  -3   6    2.85    0.11 
   3   3  -6    4.52    0.14 
   3   3  -6    4.49    0.14 
   3   3  -6    4.33    0.14 
   3   3  -6    4.21    0.15 
   3   3  -6    4.10    0.14 
   3   3  -6    4.54    0.15 
  -3  -3   6    4.14    0.15 
  -3  -3   6    4.25    0.15 
  -3  -3   6    4.40    0.14 
   2   3  -6    7.31    0.23 
   2   3  -6    7.33    0.23 
   2   3  -6    7.00    0.23 
   2   3  -6    7.19    0.22 
   2   3  -6    7.19    0.23 
   2   3  -6    7.22    0.23 
  -2  -3   6    7.16    0.22 
  -2  -3   6    7.13    0.23 
   1   3  -6    5.47    0.17 
   1   3  -6    5.37    0.17 
   1   3  -6    5.10    0.17 
   1   3  -6    5.47    0.18 
   1   3  -6    5.25    0.17 
  -1  -3   6    5.43    0.17 
   0   3  -6    8.78    0.27 
   0   3  -6    8.13    0.26 
   0   3  -6    8.84    0.27 
   0   3  -6    8.68    0.27 
   0   3  -6    8.77    0.27 
   0  -3   6    8.17    0.27 
   0  -3   6    8.33    0.27 
  -1   3  -6   32.35    1.02 
  -1   3  -6   32.29    1.02 
  -1   3  -6   33.26    1.02 
  -1   3  -6   33.17    1.02 
  -1   3  -6   34.64    1.02 
   1  -3   6   33.17    1.02 
   1  -3   6   33.17    1.02 
  -2   3  -6   46.82    1.45 
  -2   3  -6   45.84    1.45 
  -2   3  -6   47.22    1.44 
  -2   3  -6   46.34    1.44 
  -2   3  -6   49.10    1.45 
   2  -3   6   46.96    1.44 
   2  -3   6   46.12    1.44 
   2  -3   6   49.01    1.45 
  -3   3  -6    0.02    0.04 
   3  -3   6    0.07    0.04 
   3  -3   6    0.08    0.03 
  -4   3  -6    5.14    0.18 
  -4   3  -6    5.05    0.19 
   4  -3   6    5.07    0.18 
  -5   3  -6   13.47    0.42 
  -5   3  -6   13.07    0.41 
   5  -3   6   13.16    0.41 
   5  -3   6   12.63    0.41 
   5  -3   6   13.78    0.42 
  -6   3  -6    0.26    0.05 
  -6   3  -6    0.17    0.04 
  -6   3  -6    0.19    0.04 
   6  -3   6    0.23    0.05 
   6  -3   6    0.22    0.03 
   6  -3   6    0.21    0.05 
  -7   3  -6    0.08    0.03 
  -9  -2   6    0.71    0.04 
  -9  -2   6    0.74    0.05 
   8   2  -6    0.38    0.04 
   8   2  -6    0.45    0.06 
  -8  -2   6    0.42    0.06 
  -8  -2   6    0.42    0.04 
   7   2  -6   54.61    1.70 
   7   2  -6   54.43    1.69 
   7   2  -6   53.76    1.70 
  -7  -2   6   58.00    1.70 
  -7  -2   6   56.15    1.70 
   6   2  -6   14.56    0.49 
   6   2  -6   15.85    0.48 
  -6  -2   6   15.80    0.49 
   5   2  -6    4.55    0.15 
   5   2  -6    4.14    0.16 
  -5  -2   6    4.40    0.15 
  -5  -2   6    4.61    0.16 
  -5  -2   6    4.53    0.16 
   4   2  -6   13.54    0.42 
   4   2  -6   13.57    0.42 
   4   2  -6   13.59    0.41 
   4   2  -6   13.46    0.41 
  -4  -2   6   13.16    0.42 
  -4  -2   6   12.68    0.41 
  -4  -2   6   13.40    0.42 
  -4  -2   6   13.21    0.41 
   3   2  -6    0.02    0.02 
   3   2  -6    0.03    0.03 
   3   2  -6    0.05    0.03 
   3   2  -6    0.03    0.02 
  -3  -2   6    0.05    0.03 
  -3  -2   6    0.05    0.02 
  -3  -2   6    0.01    0.01 
   2   2  -6   82.38    2.52 
   2   2  -6   81.64    2.52 
   2   2  -6   85.70    2.52 
   2   2  -6   82.36    2.52 
   2   2  -6   82.45    2.52 
   2   2  -6   81.99    2.52 
  -2  -2   6   80.45    2.52 
  -2  -2   6   84.49    2.52 
  -2  -2   6   80.36    2.52 
   1   2  -6    5.40    0.17 
   1   2  -6    5.24    0.18 
   1   2  -6    5.64    0.17 
   1   2  -6    5.27    0.17 
   1   2  -6    5.48    0.17 
  -1  -2   6    5.33    0.18 
  -1  -2   6    5.65    0.17 
   0   2  -6  147.54    4.52 
   0   2  -6  147.58    4.52 
   0   2  -6  151.64    4.52 
   0   2  -6  144.97    4.52 
   0   2  -6  147.88    4.52 
   0  -2   6  150.44    4.52 
   0  -2   6  146.48    4.52 
  -1   2  -6   12.63    0.39 
  -1   2  -6   11.80    0.39 
  -1   2  -6   13.28    0.39 
  -1   2  -6   12.35    0.39 
  -1   2  -6   12.43    0.39 
   1  -2   6   12.08    0.39 
   1  -2   6   12.78    0.39 
  -2   2  -6    1.34    0.06 
  -2   2  -6    1.13    0.07 
  -2   2  -6    1.28    0.06 
   2  -2   6    1.19    0.07 
  -3   2  -6   14.32    0.46 
  -3   2  -6   14.49    0.47 
   3  -2   6   15.51    0.47 
  -4   2  -6    4.93    0.18 
   4  -2   6    5.19    0.19 
  -5   2  -6    8.55    0.29 
  -5   2  -6    9.73    0.29 
   5  -2   6    9.19    0.29 
   5  -2   6    8.90    0.29 
   5  -2   6    9.05    0.29 
  -6   2  -6    0.57    0.05 
  -6   2  -6    0.55    0.06 
   6  -2   6    0.68    0.05 
   6  -2   6    0.67    0.05 
   6  -2   6    0.62    0.05 
   6  -2   6    0.59    0.08 
  -7   2  -6    0.05    0.03 
  -7   2  -6    0.06    0.02 
   7  -2   6    0.07    0.03 
   7  -2   6    0.06    0.02 
   9   1  -6    5.07    0.16 
  -9  -1   6    4.83    0.16 
  -9  -1   6    5.09    0.16 
   8   1  -6    0.30    0.04 
   8   1  -6    0.19    0.03 
  -8  -1   6    0.34    0.06 
  -8  -1   6    0.24    0.04 
   7   1  -6    0.51    0.07 
   7   1  -6    0.45    0.05 
   7   1  -6    0.46    0.06 
  -7  -1   6    0.45    0.08 
  -7  -1   6    0.40    0.07 
  -7  -1   6    0.39    0.05 
   6   1  -6    3.79    0.13 
   6   1  -6    3.66    0.15 
  -6  -1   6    3.64    0.14 
  -6  -1   6    3.63    0.15 
   5   1  -6    2.70    0.11 
   5   1  -6    2.75    0.10 
  -5  -1   6    2.67    0.11 
  -5  -1   6    2.79    0.11 
   4   1  -6   24.74    0.78 
   4   1  -6   26.15    0.78 
   4   1  -6   24.39    0.77 
   4   1  -6   24.84    0.78 
  -4  -1   6   25.74    0.78 
  -4  -1   6   25.57    0.78 
   3   1  -6   20.78    0.63 
   3   1  -6   20.26    0.64 
   3   1  -6   19.96    0.64 
  -3  -1   6   21.94    0.64 
  -3  -1   6   20.23    0.64 
  -3  -1   6   20.45    0.63 
   2   1  -6   13.84    0.43 
   2   1  -6   13.76    0.43 
   2   1  -6   14.07    0.43 
   2   1  -6   14.06    0.43 
   2   1  -6   13.25    0.43 
  -2  -1   6   14.04    0.43 
  -2  -1   6   14.13    0.43 
  -2  -1   6   14.00    0.43 
   1   1  -6   10.76    0.34 
   1   1  -6   11.01    0.34 
   1   1  -6   10.79    0.34 
   1   1  -6   10.77    0.34 
   1   1  -6   10.66    0.34 
  -1  -1   6   11.28    0.34 
  -1  -1   6   11.10    0.34 
   0   1  -6   67.01    2.08 
   0   1  -6   68.40    2.08 
   0   1  -6   69.42    2.07 
   0   1  -6   68.69    2.07 
   0  -1   6   67.95    2.08 
   0  -1   6   65.95    2.07 
  -1   1  -6   13.31    0.41 
  -1   1  -6   12.99    0.41 
  -1   1  -6   12.83    0.41 
  -1   1  -6   13.79    0.42 
   1  -1   6   13.84    0.42 
  -2   1  -6    3.72    0.13 
  -2   1  -6    3.77    0.13 
  -2   1  -6    3.86    0.12 
   2  -1   6    3.81    0.12 
   2  -1   6    3.45    0.14 
  -3   1  -6    6.50    0.21 
  -3   1  -6    6.60    0.21 
   3  -1   6    6.43    0.22 
   3  -1   6    6.44    0.21 
  -4   1  -6    3.17    0.12 
   4  -1   6    2.89    0.13 
   4  -1   6    3.26    0.11 
  -5   1  -6    3.26    0.12 
   5  -1   6    3.32    0.14 
   5  -1   6    3.16    0.12 
   5  -1   6    2.99    0.12 
   5  -1   6    3.16    0.12 
  -6   1  -6    2.04    0.08 
   6  -1   6    1.91    0.08 
   6  -1   6    1.89    0.08 
   6  -1   6    2.01    0.11 
   6  -1   6    1.96    0.08 
  -7   1  -6    1.36    0.06 
  -7   1  -6    1.40    0.06 
   7  -1   6    1.42    0.06 
   9   0  -6    3.23    0.11 
  -9   0   6    3.20    0.11 
  -9   0   6    3.24    0.11 
   8   0  -6    2.45    0.10 
   8   0  -6    2.73    0.10 
  -8   0   6    2.53    0.09 
  -8   0   6    2.68    0.11 
  -8   0   6    2.33    0.11 
   7   0  -6    2.42    0.10 
   7   0  -6    2.25    0.09 
   7   0  -6    2.70    0.11 
  -7   0   6    2.54    0.10 
  -7   0   6    2.57    0.11 
  -7   0   6    2.51    0.12 
   6   0  -6    4.19    0.16 
   6   0  -6    4.20    0.14 
  -6   0   6    4.10    0.14 
  -6   0   6    4.18    0.16 
  -6   0   6    4.30    0.16 
   5   0  -6    0.09    0.03 
   5   0  -6    0.07    0.04 
   5   0  -6    0.07    0.02 
  -5   0   6    0.08    0.04 
  -5   0   6    0.10    0.04 
   4   0  -6   24.45    0.77 
   4   0  -6   25.40    0.76 
   4   0  -6   24.27    0.77 
  -4   0   6   25.55    0.77 
  -4   0   6   25.03    0.77 
  -4   0   6   24.62    0.77 
   3   0  -6   22.05    0.67 
   3   0  -6   22.28    0.68 
   3   0  -6   21.83    0.67 
  -3   0   6   21.12    0.67 
  -3   0   6   21.33    0.67 
  -3   0   6   22.22    0.68 
   2   0  -6    7.11    0.22 
   2   0  -6    7.64    0.22 
   2   0  -6    7.39    0.22 
   2   0  -6    7.04    0.23 
   2   0  -6    6.71    0.22 
  -2   0   6    6.96    0.23 
  -2   0   6    6.68    0.22 
   1   0  -6   34.10    1.02 
   1   0  -6   33.35    1.02 
   1   0  -6   32.13    1.02 
  -1   0   6   32.20    1.02 
  -1   0   6   34.26    1.02 
   0   0  -6    0.29    0.03 
   0   0  -6    0.29    0.03 
   0   0   6    0.32    0.03 
   0   0   6    0.34    0.04 
  -1   0  -6  128.64    3.90 
  -1   0  -6  137.15    3.90 
   1   0   6  122.60    3.90 
   1   0   6  123.20    3.91 
  -2   0  -6    7.48    0.25 
  -2   0  -6    8.12    0.25 
   2   0   6    8.28    0.26 
   2   0   6    7.69    0.25 
  -3   0  -6   28.07    0.85 
  -3   0  -6   27.93    0.85 
   3   0   6   27.78    0.87 
   3   0   6   26.86    0.85 
  -4   0  -6    5.15    0.17 
  -4   0  -6    5.11    0.17 
   4   0   6    4.96    0.17 
   4   0   6    5.15    0.19 
   5   0   6    0.18    0.04 
   5   0   6    0.28    0.06 
   5   0   6    0.22    0.05 
   5   0   6    0.21    0.05 
  -6   0  -6    0.15    0.03 
   6   0   6    0.11    0.05 
   6   0   6    0.18    0.04 
   6   0   6    0.12    0.03 
   9  -1  -6    0.62    0.04 
  -9   1   6    0.53    0.05 
  -9   1   6    0.58    0.06 
   8  -1  -6    8.99    0.28 
   8  -1  -6    8.54    0.28 
  -8   1   6    8.60    0.28 
  -8   1   6    9.19    0.28 
  -8   1   6    8.23    0.28 
   7  -1  -6    1.08    0.08 
   7  -1  -6    1.05    0.07 
  -7   1   6    1.02    0.09 
  -7   1   6    0.97    0.06 
  -7   1   6    1.02    0.09 
   6  -1  -6    5.57    0.18 
   6  -1  -6    5.68    0.18 
  -6   1   6    5.26    0.20 
  -6   1   6    5.26    0.18 
  -6   1   6    5.92    0.20 
   5  -1  -6    8.46    0.28 
   5  -1  -6    8.10    0.26 
   5  -1  -6    8.31    0.27 
  -5   1   6    8.63    0.27 
  -5   1   6    8.21    0.28 
   4  -1  -6   25.51    0.75 
   4  -1  -6   24.69    0.76 
  -4   1   6   24.21    0.75 
  -4   1   6   23.30    0.76 
   3  -1  -6    7.94    0.25 
   3  -1  -6    8.13    0.25 
  -3   1   6    8.18    0.25 
  -3   1   6    7.95    0.26 
   2  -1  -6    1.69    0.06 
   2  -1  -6    1.58    0.06 
  -2   1   6    1.59    0.06 
  -2   1   6    1.62    0.07 
   1  -1  -6   23.20    0.74 
   1  -1  -6   23.88    0.74 
  -1   1   6   24.31    0.74 
  -1   1   6   24.83    0.75 
   0  -1  -6   11.06    0.35 
   0  -1  -6   11.31    0.35 
   0   1   6   11.36    0.36 
   0   1   6   11.33    0.35 
  -1  -1  -6    9.82    0.31 
  -1  -1  -6    9.83    0.31 
   1   1   6    9.97    0.31 
  -2  -1  -6    9.52    0.30 
   2   1   6    9.65    0.31 
   2   1   6    9.22    0.30 
  -3  -1  -6    0.32    0.04 
   3   1   6    0.31    0.04 
   3   1   6    0.34    0.07 
  -4  -1  -6   24.79    0.74 
  -4  -1  -6   24.10    0.74 
   4   1   6   23.04    0.75 
   4   1   6   23.20    0.73 
  -5  -1  -6    4.25    0.16 
   5   1   6    4.40    0.15 
   5   1   6    4.37    0.15 
   5   1   6    4.63    0.15 
  -6  -1  -6    0.05    0.03 
   6   1   6    0.09    0.03 
   6   1   6    0.06    0.03 
   9  -2  -6   13.02    0.41 
  -9   2   6   13.32    0.41 
   8  -2  -6    1.08    0.06 
  -8   2   6    0.86    0.08 
   7  -2  -6    0.17    0.05 
   7  -2  -6    0.11    0.04 
  -7   2   6    0.11    0.05 
   6  -2  -6    0.11    0.04 
   6  -2  -6    0.07    0.03 
  -6   2   6    0.11    0.03 
   5  -2  -6    8.94    0.29 
   5  -2  -6    8.68    0.28 
  -5   2   6    8.66    0.28 
  -5   2   6    8.72    0.28 
  -5   2   6    8.80    0.29 
   4  -2  -6   35.76    1.05 
   4  -2  -6   33.12    1.03 
  -4   2   6   31.94    1.04 
  -4   2   6   33.60    1.03 
   3  -2  -6   14.05    0.45 
   3  -2  -6   14.27    0.46 
   3  -2  -6   14.67    0.45 
  -3   2   6   15.26    0.46 
  -3   2   6   14.21    0.45 
   2  -2  -6   12.72    0.39 
   2  -2  -6   12.33    0.40 
  -2   2   6   12.88    0.40 
  -2   2   6   11.97    0.39 
   1  -2  -6   42.76    1.33 
   1  -2  -6   43.38    1.34 
  -1   2   6   44.86    1.33 
  -1   2   6   43.19    1.34 
   0  -2  -6    1.08    0.05 
   0  -2  -6    1.04    0.05 
   0  -2  -6    1.08    0.06 
   0   2   6    1.10    0.07 
   0   2   6    1.08    0.05 
  -1  -2  -6    0.07    0.02 
  -1  -2  -6    0.12    0.03 
   1   2   6    0.09    0.02 
  -2  -2  -6   14.00    0.44 
  -2  -2  -6   14.50    0.45 
   2   2   6   14.23    0.44 
  -3  -2  -6    7.41    0.24 
  -3  -2  -6    7.47    0.26 
   3   2   6    7.58    0.24 
   4   2   6    0.73    0.06 
   4   2   6    0.71    0.07 
   4   2   6    0.78    0.06 
  -5  -2  -6   11.16    0.37 
   5   2   6   11.62    0.36 
   5   2   6   12.16    0.37 
   5   2   6   11.48    0.36 
  -6  -2  -6    1.85    0.08 
   6   2   6    1.75    0.07 
   6   2   6    1.88    0.07 
   9  -3  -6    0.16    0.03 
  -9   3   6    0.19    0.03 
  -9   3   6    0.22    0.05 
   8  -3  -6    0.11    0.04 
  -8   3   6    0.11    0.04 
  -8   3   6    0.12    0.03 
   7  -3  -6    5.69    0.19 
  -7   3   6    5.70    0.19 
  -7   3   6    5.63    0.19 
  -7   3   6    5.00    0.19 
   6  -3  -6   12.17    0.37 
   6  -3  -6   11.80    0.39 
  -6   3   6   11.53    0.38 
  -6   3   6   11.90    0.37 
   5  -3  -6   20.04    0.65 
   5  -3  -6   21.12    0.63 
   5  -3  -6   20.42    0.64 
  -5   3   6   19.80    0.63 
  -5   3   6   20.98    0.64 
   4  -3  -6    7.76    0.26 
   4  -3  -6    7.82    0.25 
  -4   3   6    7.51    0.26 
  -4   3   6    8.24    0.25 
   3  -3  -6   15.79    0.48 
   3  -3  -6   15.29    0.49 
   3  -3  -6   15.23    0.48 
  -3   3   6   15.34    0.48 
   2  -3  -6   77.84    2.48 
   2  -3  -6   84.82    2.47 
  -2   3   6   80.08    2.47 
   1  -3  -6    8.04    0.26 
   1  -3  -6    8.39    0.27 
  -1   3   6    8.31    0.26 
   0  -3  -6   23.60    0.73 
   0  -3  -6   23.73    0.72 
   0   3   6   22.99    0.72 
  -2  -3  -6   28.54    0.89 
  -2  -3  -6   28.41    0.88 
  -3  -3  -6   13.05    0.41 
  -3  -3  -6   12.78    0.42 
   3   3   6   13.11    0.41 
  -4  -3  -6    4.10    0.14 
   4   3   6    3.95    0.14 
   4   3   6    4.06    0.14 
   4   3   6    3.96    0.14 
   5   3   6    1.41    0.07 
   5   3   6    1.45    0.07 
   5   3   6    1.54    0.07 
  -8   4   6    5.45    0.18 
  -8   4   6    5.49    0.19 
  -8   4   6    5.51    0.19 
  -7   4   6    2.80    0.11 
  -7   4   6    2.73    0.11 
  -7   4   6    2.75    0.11 
   6  -4  -6   10.67    0.36 
   6  -4  -6   11.20    0.35 
   6  -4  -6   11.21    0.38 
  -6   4   6   11.28    0.37 
  -6   4   6   11.54    0.36 
  -6   4   6   11.13    0.36 
  -6   4   6   11.10    0.36 
  -6   4   6   11.12    0.36 
   5  -4  -6    3.42    0.14 
   5  -4  -6    3.42    0.12 
  -5   4   6    3.17    0.12 
  -5   4   6    3.38    0.13 
   4  -4  -6   26.60    0.83 
   4  -4  -6   26.46    0.85 
  -4   4   6   26.87    0.83 
  -4   4   6   28.14    0.84 
   3  -4  -6    0.13    0.04 
  -3   4   6    0.15    0.03 
  -3   4   6    0.11    0.03 
   2  -4  -6    0.23    0.05 
   2  -4  -6    0.31    0.04 
  -2   4   6    0.25    0.03 
  -2   4   6    0.22    0.05 
   1  -4  -6    1.35    0.06 
   1  -4  -6    1.26    0.07 
  -1   4   6    1.26    0.06 
   0  -4  -6    0.24    0.04 
   0  -4  -6    0.27    0.05 
   0   4   6    0.27    0.04 
  -1  -4  -6    0.90    0.07 
  -1  -4  -6    0.99    0.06 
   1   4   6    0.96    0.05 
  -2  -4  -6    4.62    0.16 
  -2  -4  -6    4.83    0.17 
   2   4   6    4.55    0.16 
  -3  -4  -6    1.30    0.06 
   3   4   6    1.25    0.07 
   3   4   6    1.41    0.06 
   3   4   6    1.31    0.07 
  -4  -4  -6    0.50    0.04 
   4   4   6    0.46    0.05 
   4   4   6    0.47    0.05 
   4   4   6    0.56    0.05 
  -5  -4  -6    0.09    0.02 
   5   4   6    0.12    0.03 
   5   4   6    0.09    0.02 
   8  -5  -6    2.42    0.09 
  -8   5   6    2.73    0.09 
  -8   5   6    2.41    0.10 
  -8   5   6    2.65    0.10 
   7  -5  -6   16.07    0.49 
  -7   5   6   15.66    0.49 
  -7   5   6   15.14    0.49 
  -7   5   6   15.90    0.49 
   6  -5  -6    0.57    0.05 
  -6   5   6    0.66    0.06 
  -6   5   6    0.64    0.08 
  -6   5   6    0.73    0.07 
  -6   5   6    0.68    0.04 
   5  -5  -6    7.20    0.24 
   5  -5  -6    6.35    0.22 
  -5   5   6    6.84    0.23 
   4  -5  -6    0.17    0.03 
   4  -5  -6    0.16    0.05 
  -4   5   6    0.23    0.06 
   3  -5  -6   12.58    0.39 
   3  -5  -6   11.97    0.38 
  -3   5   6   11.92    0.38 
  -3   5   6   11.62    0.38 
   2  -5  -6   22.99    0.73 
   2  -5  -6   23.36    0.72 
  -2   5   6   23.58    0.72 
   1  -5  -6   16.08    0.51 
   1  -5  -6   15.77    0.50 
   0  -5  -6    4.59    0.17 
   0  -5  -6    4.65    0.16 
  -1  -5  -6    4.36    0.15 
  -1  -5  -6    4.52    0.16 
  -2  -5  -6   12.74    0.39 
   2   5   6   12.47    0.40 
   2   5   6   12.59    0.40 
   2   5   6   12.81    0.40 
  -3  -5  -6    0.01    0.02 
   3   5   6    0.01    0.03 
   3   5   6    0.02    0.03 
   3   5   6    0.05    0.03 
  -4  -5  -6    6.47    0.20 
   4   5   6    6.51    0.20 
   4   5   6    6.28    0.21 
   4   5   6    6.52    0.21 
   8  -6  -6    0.23    0.03 
  -8   6   6    0.28    0.04 
  -8   6   6    0.23    0.04 
   7  -6  -6    0.97    0.05 
  -7   6   6    0.89    0.05 
  -7   6   6    0.99    0.05 
  -7   6   6    1.04    0.07 
  -7   6   6    0.88    0.08 
   6  -6  -6    2.56    0.09 
  -6   6   6    2.45    0.10 
  -6   6   6    2.46    0.09 
  -6   6   6    2.31    0.11 
  -6   6   6    2.46    0.09 
  -6   6   6    2.29    0.09 
   5  -6  -6    0.15    0.03 
  -5   6   6    0.28    0.05 
  -5   6   6    0.22    0.04 
  -5   6   6    0.18    0.03 
   4  -6  -6    1.22    0.14 
   4  -6  -6    1.60    0.07 
  -4   6   6    1.50    0.09 
  -4   6   6    1.42    0.07 
  -4   6   6    1.47    0.09 
  -4   6   6    1.38    0.07 
   3  -6  -6    0.10    0.04 
  -3   6   6    0.02    0.05 
   2  -6  -6    0.11    0.04 
   1  -6  -6   10.59    0.35 
   0  -6  -6    8.31    0.27 
   0   6   6    8.50    0.27 
   0   6   6    8.65    0.28 
  -1  -6  -6    7.11    0.22 
   1   6   6    6.48    0.22 
   1   6   6    6.83    0.22 
   1   6   6    6.92    0.22 
  -2  -6  -6    1.91    0.07 
   2   6   6    1.98    0.08 
   2   6   6    1.94    0.08 
   2   6   6    2.09    0.08 
   2   6   6    1.86    0.08 
  -3  -6  -6   16.89    0.52 
   3   6   6   17.15    0.52 
   3   6   6   16.16    0.52 
   3   6   6   16.79    0.52 
   7  -7  -6    3.51    0.11 
  -7   7   6    3.18    0.11 
  -7   7   6    3.47    0.12 
  -7   7   6    3.33    0.11 
  -7   7   6    3.49    0.12 
   6  -7  -6    0.24    0.04 
  -6   7   6    0.19    0.04 
  -6   7   6    0.13    0.02 
  -6   7   6    0.14    0.03 
  -6   7   6    0.19    0.04 
  -6   7   6    0.17    0.03 
   5  -7  -6    0.84    0.05 
  -5   7   6    0.91    0.05 
  -5   7   6    0.83    0.07 
  -5   7   6    0.85    0.05 
  -5   7   6    0.95    0.08 
  -5   7   6    0.92    0.05 
   4  -7  -6    5.14    0.16 
  -4   7   6    4.77    0.17 
  -4   7   6    4.65    0.16 
  -4   7   6    4.86    0.16 
  -4   7   6    5.37    0.16 
  -4   7   6    4.93    0.17 
   3  -7  -6    0.14    0.03 
  -3   7   6    0.11    0.04 
  -3   7   6    0.10    0.03 
  -3   7   6    0.13    0.04 
  -3   7   6    0.10    0.03 
   2  -7  -6    0.88    0.05 
  -2   7   6    0.87    0.07 
  -2   7   6    0.81    0.06 
  -2   7   6    0.86    0.06 
  -2   7   6    0.89    0.07 
  -2   7   6    0.96    0.05 
   1  -7  -6    0.32    0.04 
  -1   7   6    0.36    0.06 
  -1   7   6    0.28    0.04 
  -1   7   6    0.33    0.06 
  -1   7   6    0.32    0.05 
   0  -7  -6   13.95    0.43 
   0   7   6   13.68    0.43 
   0   7   6   13.61    0.43 
   0   7   6   13.39    0.43 
   0   7   6   14.09    0.43 
  -1  -7  -6    4.16    0.14 
   1   7   6    3.73    0.14 
   1   7   6    4.15    0.14 
   1   7   6    4.16    0.14 
   1   7   6    4.44    0.14 
  -2  -7  -6    3.20    0.10 
   2   7   6    3.17    0.11 
   2   7   6    2.92    0.11 
   2   7   6    3.18    0.11 
   2   7   6    2.97    0.11 
  -3  -7  -6    2.10    0.07 
   3   7   6    2.04    0.08 
   3   7   6    2.02    0.07 
   6  -8  -6    1.08    0.05 
  -6   8   6    1.12    0.07 
  -6   8   6    1.15    0.05 
  -6   8   6    1.14    0.05 
   5  -8  -6    1.41    0.06 
  -5   8   6    1.37    0.06 
  -5   8   6    1.30    0.06 
  -5   8   6    1.33    0.08 
  -5   8   6    1.41    0.07 
   4  -8  -6    8.31    0.26 
  -4   8   6    8.36    0.27 
  -4   8   6    8.57    0.26 
  -4   8   6    8.28    0.27 
  -4   8   6    8.51    0.26 
   3  -8  -6    0.64    0.05 
  -3   8   6    0.74    0.06 
  -3   8   6    0.64    0.05 
  -3   8   6    0.61    0.04 
  -3   8   6    0.66    0.05 
   2  -8  -6   12.77    0.38 
  -2   8   6   12.36    0.38 
  -2   8   6   12.09    0.38 
  -2   8   6   12.14    0.38 
  -2   8   6   11.84    0.39 
   1  -8  -6    1.84    0.07 
  -1   8   6    1.81    0.08 
  -1   8   6    1.86    0.08 
  -1   8   6    1.87    0.08 
   0  -8  -6    0.13    0.02 
   0   8   6    0.19    0.04 
   0   8   6    0.11    0.03 
   0   8   6    0.11    0.03 
  -1  -8  -6    0.08    0.02 
   1   8   6    0.08    0.02 
   1   8   6    0.10    0.03 
   1   8   6    0.08    0.03 
   5  -9  -6   11.62    0.37 
  -5   9   6   11.82    0.37 
  -5   9   6   12.14    0.37 
  -5   9   6   11.71    0.37 
  -5   9   6   12.72    0.37 
   4  -9  -6    1.22    0.06 
  -4   9   6    1.55    0.07 
  -4   9   6    1.41    0.06 
   3  -9  -6    0.65    0.04 
  -3   9   6    0.68    0.05 
  -3   9   6    0.56    0.05 
  -3   9   6    0.58    0.05 
  -3   9   6    0.67    0.04 
   2  -9  -6    0.07    0.02 
  -2   9   6    0.06    0.03 
  -2   9   6    0.06    0.02 
  -2   9   6    0.09    0.03 
  -1   9   6    0.40    0.04 
  -1   9   6    0.41    0.05 
  -1   9   6    0.31    0.04 
   0  -9  -6    1.60    0.06 
   0   9   6    1.78    0.07 
   0   9   6    1.59    0.06 
   0   9   6    1.64    0.06 
  -2  11  -7    3.43    0.11 
  -2  11  -7    3.33    0.11 
   3  10  -7   12.26    0.38 
   1  10  -7    3.76    0.16 
   0  10  -7    0.56    0.09 
  -1  10  -7   11.45    0.36 
  -2  10  -7   24.63    0.75 
  -2  10  -7   24.51    0.76 
  -3  10  -7    0.33    0.03 
  -3  10  -7    0.33    0.05 
  -3  10  -7    0.33    0.04 
  -3  10  -7    0.35    0.06 
  -3  10  -7    0.30    0.04 
  -4  10  -7    0.39    0.03 
  -4  10  -7    0.46    0.04 
  -4  10  -7    0.33    0.03 
  -4  10  -7    0.47    0.05 
   4 -10   7    0.35    0.04 
   5   9  -7    2.15    0.09 
   5   9  -7    2.31    0.08 
   4   9  -7    4.55    0.15 
   4   9  -7    4.65    0.16 
   3   9  -7    0.14    0.06 
   3   9  -7    0.20    0.03 
   3   9  -7    0.16    0.05 
   2   9  -7    0.79    0.10 
   1   9  -7    6.00    0.22 
   0   9  -7    1.43    0.11 
  -1   9  -7    0.25    0.05 
  -1   9  -7    0.39    0.04 
  -1   9  -7    0.32    0.06 
  -2   9  -7    0.95    0.08 
  -2   9  -7    0.69    0.06 
  -2   9  -7    0.81    0.05 
  -2   9  -7    0.81    0.06 
  -2   9  -7    0.82    0.07 
   2  -9   7    0.75    0.05 
  -3   9  -7    4.89    0.17 
  -3   9  -7    4.79    0.17 
  -3   9  -7    4.97    0.17 
  -3   9  -7    5.14    0.17 
  -3   9  -7    5.32    0.16 
  -3   9  -7    4.98    0.16 
   3  -9   7    4.70    0.16 
  -4   9  -7    1.52    0.06 
  -4   9  -7    1.49    0.06 
  -4   9  -7    1.47    0.06 
  -4   9  -7    1.51    0.07 
  -4   9  -7    1.41    0.07 
  -4   9  -7    1.34    0.07 
   4  -9   7    1.44    0.07 
   6   8  -7    2.72    0.09 
   6   8  -7    2.79    0.11 
  -6  -8   7    2.56    0.09 
   5   8  -7   24.68    0.74 
   5   8  -7   23.48    0.75 
   4   8  -7    1.30    0.07 
   4   8  -7    1.22    0.09 
   4   8  -7    1.46    0.11 
  -4  -8   7    1.33    0.06 
   3   8  -7   22.43    0.74 
   3   8  -7   25.18    0.75 
   3   8  -7   23.77    0.73 
  -3  -8   7   23.53    0.73 
   2   8  -7    3.19    0.15 
   2   8  -7    3.17    0.13 
   1   8  -7   46.48    1.49 
   1   8  -7   50.37    1.50 
   0   8  -7    5.54    0.21 
   0   8  -7    6.04    0.20 
   0   8  -7    6.12    0.22 
   0   8  -7    6.09    0.22 
   0   8  -7    5.69    0.21 
   0   8  -7    6.26    0.22 
  -1   8  -7    7.11    0.25 
  -1   8  -7    8.09    0.27 
  -1   8  -7    7.52    0.25 
  -1   8  -7    7.45    0.24 
  -2   8  -7    1.87    0.08 
  -2   8  -7    1.87    0.10 
  -2   8  -7    1.76    0.10 
  -2   8  -7    1.70    0.09 
  -2   8  -7    1.97    0.08 
  -2   8  -7    1.90    0.09 
   2  -8   7    1.65    0.07 
  -3   8  -7    3.89    0.14 
  -3   8  -7    3.91    0.14 
  -3   8  -7    3.77    0.15 
  -3   8  -7    3.92    0.14 
  -3   8  -7    3.89    0.14 
  -3   8  -7    4.08    0.13 
   3  -8   7    3.95    0.13 
  -4   8  -7    6.71    0.21 
  -4   8  -7    6.86    0.22 
  -4   8  -7    7.19    0.22 
  -4   8  -7    6.59    0.22 
  -4   8  -7    7.08    0.22 
  -4   8  -7    6.79    0.22 
   4  -8   7    5.65    0.21 
   4  -8   7    6.54    0.22 
  -5   8  -7    4.56    0.15 
  -5   8  -7    4.43    0.14 
  -5   8  -7    4.48    0.14 
  -5   8  -7    4.30    0.15 
  -5   8  -7    4.41    0.15 
   5  -8   7    4.20    0.14 
   6   7  -7    0.05    0.03 
   6   7  -7    0.09    0.05 
  -6  -7   7    0.02    0.03 
   5   7  -7    5.49    0.18 
   5   7  -7    5.35    0.20 
   5   7  -7    5.44    0.19 
  -5  -7   7    5.24    0.17 
   4   7  -7    0.52    0.09 
   4   7  -7    0.47    0.10 
   4   7  -7    0.69    0.06 
  -4  -7   7    0.58    0.05 
   3   7  -7    2.77    0.11 
   3   7  -7    2.76    0.14 
   3   7  -7    2.62    0.14 
   3   7  -7    2.71    0.13 
   3   7  -7    2.84    0.13 
  -3  -7   7    2.79    0.10 
   2   7  -7   42.53    1.25 
   2   7  -7   41.39    1.27 
   2   7  -7   38.64    1.27 
   2   7  -7   40.85    1.26 
   1   7  -7    2.57    0.13 
   1   7  -7    2.24    0.11 
   1   7  -7    2.35    0.10 
   1   7  -7    2.40    0.12 
   0   7  -7    4.73    0.17 
   0   7  -7    4.92    0.18 
   0   7  -7    4.66    0.19 
   0   7  -7    4.87    0.17 
  -1   7  -7   18.30    0.58 
  -1   7  -7   18.49    0.57 
  -1   7  -7   18.76    0.58 
  -1   7  -7   18.08    0.59 
  -2   7  -7    0.08    0.04 
  -2   7  -7    0.06    0.04 
  -2   7  -7    0.14    0.06 
   2  -7   7    0.10    0.03 
  -3   7  -7    0.34    0.05 
  -3   7  -7    0.38    0.07 
  -3   7  -7    0.27    0.05 
  -3   7  -7    0.32    0.05 
  -3   7  -7    0.30    0.06 
  -3   7  -7    0.34    0.06 
  -4   7  -7    7.88    0.26 
  -4   7  -7    8.10    0.26 
  -4   7  -7    8.24    0.26 
  -4   7  -7    8.10    0.26 
  -4   7  -7    8.13    0.26 
  -4   7  -7    7.86    0.25 
  -4   7  -7    8.29    0.26 
   4  -7   7    8.31    0.26 
   4  -7   7    7.13    0.25 
  -5   7  -7    6.88    0.22 
  -5   7  -7    6.90    0.22 
  -5   7  -7    6.78    0.23 
  -5   7  -7    7.00    0.23 
  -5   7  -7    7.24    0.23 
   5  -7   7    7.12    0.22 
  -6   7  -7    0.75    0.05 
  -6   7  -7    0.72    0.05 
  -6   7  -7    0.68    0.04 
   6  -7   7    0.79    0.05 
   6  -7   7    0.71    0.05 
   6  -7   7    0.79    0.04 
   7   6  -7    2.22    0.08 
   7   6  -7    2.24    0.10 
  -7  -6   7    2.08    0.08 
   6   6  -7    4.26    0.14 
   6   6  -7    3.99    0.15 
  -6  -6   7    4.12    0.14 
  -6  -6   7    3.91    0.14 
   5   6  -7    7.11    0.23 
   5   6  -7    6.53    0.24 
  -5  -6   7    7.37    0.22 
   4   6  -7    0.78    0.10 
   4   6  -7    0.85    0.07 
   4   6  -7    0.91    0.08 
   4   6  -7    0.92    0.10 
   4   6  -7    0.74    0.09 
   4   6  -7    0.84    0.09 
  -4  -6   7    1.04    0.05 
   3   6  -7   26.14    0.85 
   3   6  -7   27.46    0.85 
   3   6  -7   28.22    0.85 
   3   6  -7   26.08    0.84 
   3   6  -7   28.19    0.85 
  -3  -6   7   27.43    0.84 
  -3  -6   7   28.30    0.85 
  -3  -6   7   26.14    0.83 
   2   6  -7    6.29    0.22 
   2   6  -7    6.33    0.22 
   2   6  -7    6.22    0.21 
   2   6  -7    6.69    0.21 
   2   6  -7    6.75    0.23 
   2   6  -7    6.32    0.22 
  -2  -6   7    6.49    0.22 
  -2  -6   7    6.22    0.20 
   1   6  -7    5.50    0.18 
   1   6  -7    5.72    0.20 
   1   6  -7    5.52    0.19 
   1   6  -7    5.47    0.21 
   1   6  -7    6.13    0.19 
   1   6  -7    5.69    0.19 
  -1  -6   7    5.68    0.18 
   0   6  -7    5.16    0.18 
   0   6  -7    5.00    0.17 
   0   6  -7    5.31    0.19 
   0   6  -7    5.45    0.18 
   0   6  -7    4.68    0.17 
   0  -6   7    4.97    0.16 
  -1   6  -7    0.40    0.05 
  -1   6  -7    0.29    0.06 
  -1   6  -7    0.37    0.08 
  -1   6  -7    0.35    0.07 
   1  -6   7    0.30    0.04 
  -2   6  -7    0.26    0.06 
  -2   6  -7    0.32    0.07 
  -2   6  -7    0.25    0.06 
   2  -6   7    0.27    0.05 
  -3   6  -7   10.94    0.35 
  -3   6  -7    9.63    0.34 
  -3   6  -7   10.56    0.34 
   3  -6   7   10.92    0.33 
  -4   6  -7   18.21    0.56 
  -4   6  -7   17.50    0.56 
  -4   6  -7   17.37    0.56 
  -4   6  -7   18.25    0.56 
  -4   6  -7   17.56    0.56 
  -4   6  -7   18.41    0.56 
   4  -6   7   18.58    0.55 
   4  -6   7   17.10    0.55 
  -5   6  -7    3.50    0.13 
  -5   6  -7    3.70    0.13 
  -5   6  -7    3.65    0.13 
  -5   6  -7    3.74    0.14 
  -5   6  -7    3.78    0.13 
   5  -6   7    3.88    0.13 
  -6   6  -7    0.13    0.03 
  -6   6  -7    0.18    0.03 
  -6   6  -7    0.16    0.03 
   6  -6   7    0.13    0.03 
   6  -6   7    0.11    0.03 
   6  -6   7    0.15    0.03 
   7   5  -7    0.44    0.04 
   7   5  -7    0.40    0.08 
  -7  -5   7    0.41    0.04 
  -7  -5   7    0.38    0.07 
   6   5  -7    0.05    0.05 
   6   5  -7    0.16    0.03 
   6   5  -7    0.17    0.06 
  -6  -5   7    0.10    0.04 
  -6  -5   7    0.11    0.04 
  -6  -5   7    0.09    0.03 
   5   5  -7    1.80    0.08 
   5   5  -7    1.89    0.10 
   5   5  -7    1.58    0.14 
   5   5  -7    1.81    0.11 
   5   5  -7    1.84    0.11 
   5   5  -7    1.64    0.09 
   5   5  -7    1.70    0.09 
  -5  -5   7    1.83    0.07 
  -5  -5   7    1.81    0.12 
   4   5  -7   76.40    2.28 
   4   5  -7   73.15    2.27 
   4   5  -7   72.17    2.27 
   4   5  -7   73.72    2.28 
   4   5  -7   72.14    2.27 
  -4  -5   7   74.79    2.28 
  -4  -5   7   76.86    2.27 
   3   5  -7    2.93    0.13 
   3   5  -7    2.85    0.11 
   3   5  -7    2.77    0.10 
   3   5  -7    2.77    0.12 
   3   5  -7    2.84    0.11 
  -3  -5   7    2.76    0.10 
  -3  -5   7    2.94    0.12 
  -3  -5   7    2.86    0.10 
   2   5  -7   17.07    0.52 
   2   5  -7   16.41    0.51 
   2   5  -7   15.68    0.52 
   2   5  -7   16.45    0.51 
   2   5  -7   15.62    0.52 
   2   5  -7   16.44    0.51 
  -2  -5   7   17.04    0.52 
  -2  -5   7   16.62    0.50 
  -2  -5   7   15.69    0.50 
   1   5  -7    7.72    0.24 
   1   5  -7    6.96    0.24 
   1   5  -7    8.08    0.25 
   1   5  -7    7.43    0.24 
   1   5  -7    7.67    0.24 
   1   5  -7    7.42    0.26 
  -1  -5   7    7.72    0.24 
   0   5  -7   10.64    0.36 
   0   5  -7   11.47    0.35 
   0   5  -7   10.78    0.34 
   0   5  -7   11.44    0.35 
   0   5  -7   11.22    0.35 
   0  -5   7   10.61    0.34 
   0  -5   7   10.39    0.34 
  -1   5  -7    0.05    0.03 
  -1   5  -7    0.06    0.04 
  -1   5  -7    0.04    0.03 
  -1   5  -7    0.05    0.03 
   1  -5   7    0.07    0.02 
   1  -5   7    0.08    0.02 
  -2   5  -7   13.05    0.40 
  -2   5  -7   13.00    0.40 
  -2   5  -7   12.38    0.41 
   2  -5   7   12.75    0.39 
   2  -5   7   12.20    0.40 
  -3   5  -7  102.29    3.16 
  -3   5  -7  104.24    3.16 
  -3   5  -7   99.03    3.15 
   3  -5   7  106.88    3.15 
  -4   5  -7    0.89    0.09 
  -4   5  -7    1.10    0.07 
  -4   5  -7    1.11    0.07 
  -4   5  -7    1.00    0.08 
  -4   5  -7    1.17    0.08 
  -4   5  -7    1.03    0.06 
  -4   5  -7    0.93    0.08 
   4  -5   7    1.15    0.06 
   4  -5   7    1.32    0.09 
   4  -5   7    1.10    0.07 
  -5   5  -7    4.67    0.16 
  -5   5  -7    4.91    0.17 
  -5   5  -7    4.57    0.16 
  -5   5  -7    4.73    0.17 
   5  -5   7    5.05    0.16 
   5  -5   7    4.98    0.16 
   5  -5   7    4.89    0.16 
   5  -5   7    4.85    0.16 
  -6   5  -7    6.21    0.20 
   6  -5   7    6.09    0.20 
   6  -5   7    6.09    0.20 
   6  -5   7    6.21    0.20 
   8   4  -7    0.02    0.02 
   8   4  -7   -0.01    0.05 
  -8  -4   7    0.02    0.02 
  -8  -4   7    0.07    0.03 
   7   4  -7    0.03    0.02 
   7   4  -7    0.08    0.04 
  -7  -4   7    0.02    0.03 
  -7  -4   7    0.03    0.03 
  -7  -4   7   -0.01    0.04 
   6   4  -7    9.33    0.31 
   6   4  -7    9.66    0.30 
  -6  -4   7    9.66    0.30 
   5   4  -7    6.17    0.21 
   5   4  -7    6.39    0.23 
  -5  -4   7    6.44    0.23 
  -5  -4   7    6.84    0.21 
   4   4  -7    0.23    0.04 
   4   4  -7    0.11    0.06 
   4   4  -7    0.18    0.04 
   4   4  -7    0.17    0.04 
  -4  -4   7    0.23    0.04 
  -4  -4   7    0.15    0.05 
  -4  -4   7    0.22    0.04 
   3   4  -7   20.19    0.61 
   3   4  -7   18.82    0.62 
   3   4  -7   20.50    0.61 
   3   4  -7   19.81    0.62 
   3   4  -7   19.90    0.61 
  -3  -4   7   19.90    0.60 
  -3  -4   7   19.00    0.61 
  -3  -4   7   18.95    0.61 
   2   4  -7    0.11    0.04 
   2   4  -7    0.09    0.03 
   2   4  -7    0.08    0.03 
   2   4  -7    0.09    0.02 
   2   4  -7    0.08    0.03 
   2   4  -7    0.10    0.04 
  -2  -4   7    0.09    0.02 
  -2  -4   7    0.06    0.04 
  -2  -4   7    0.12    0.02 
   1   4  -7    8.93    0.28 
   1   4  -7    9.02    0.28 
   1   4  -7    8.70    0.28 
   1   4  -7    8.66    0.27 
   1   4  -7    8.66    0.28 
  -1  -4   7    8.20    0.27 
   0   4  -7    2.18    0.10 
   0   4  -7    2.30    0.09 
   0   4  -7    2.52    0.09 
   0   4  -7    2.43    0.09 
   0  -4   7    2.35    0.08 
   0  -4   7    2.30    0.08 
  -1   4  -7   22.13    0.67 
  -1   4  -7   21.20    0.67 
  -1   4  -7   21.17    0.67 
  -1   4  -7   21.00    0.67 
   1  -4   7   22.30    0.66 
   1  -4   7   21.35    0.66 
  -2   4  -7   22.83    0.68 
  -2   4  -7   22.34    0.67 
  -2   4  -7   20.63    0.68 
  -2   4  -7   21.49    0.68 
   2  -4   7   21.45    0.67 
   2  -4   7   21.76    0.67 
  -3   4  -7    0.38    0.08 
  -3   4  -7    0.29    0.07 
   3  -4   7    0.32    0.05 
   3  -4   7    0.31    0.07 
   3  -4   7    0.30    0.06 
  -4   4  -7    1.84    0.14 
  -4   4  -7    1.70    0.09 
  -4   4  -7    1.77    0.08 
  -4   4  -7    1.87    0.12 
  -4   4  -7    1.84    0.09 
  -4   4  -7    1.61    0.10 
   4  -4   7    1.83    0.15 
   4  -4   7    1.76    0.08 
   4  -4   7    1.60    0.09 
   4  -4   7    1.74    0.08 
  -5   4  -7    1.02    0.07 
  -5   4  -7    0.97    0.06 
  -5   4  -7    0.84    0.06 
   5  -4   7    0.93    0.06 
   5  -4   7    0.92    0.06 
   5  -4   7    0.95    0.06 
   5  -4   7    0.81    0.06 
  -6   4  -7    0.06    0.04 
  -6   4  -7    0.09    0.03 
   6  -4   7    0.09    0.03 
   6  -4   7    0.05    0.03 
   8   3  -7    6.36    0.21 
   8   3  -7    5.95    0.20 
  -8  -3   7    6.50    0.20 
  -8  -3   7    6.47    0.21 
   7   3  -7    7.48    0.24 
   7   3  -7    7.78    0.25 
  -7  -3   7    7.67    0.24 
  -7  -3   7    7.42    0.25 
  -7  -3   7    7.54    0.24 
   6   3  -7    5.55    0.19 
   6   3  -7    5.77    0.20 
   6   3  -7    5.90    0.20 
   6   3  -7    5.62    0.21 
  -6  -3   7    5.79    0.22 
  -6  -3   7    5.62    0.19 
   5   3  -7    5.75    0.21 
   5   3  -7    5.95    0.19 
  -5  -3   7    5.83    0.21 
  -5  -3   7    5.88    0.20 
  -5  -3   7    5.48    0.19 
  -5  -3   7    5.82    0.19 
   4   3  -7    0.66    0.05 
   4   3  -7    0.81    0.08 
   4   3  -7    0.69    0.06 
   4   3  -7    0.76    0.06 
  -4  -3   7    0.76    0.04 
  -4  -3   7    0.76    0.05 
  -4  -3   7    0.71    0.07 
  -4  -3   7    0.61    0.06 
   3   3  -7    0.51    0.04 
   3   3  -7    0.49    0.06 
   3   3  -7    0.51    0.04 
   3   3  -7    0.53    0.05 
   3   3  -7    0.44    0.05 
  -3  -3   7    0.49    0.04 
  -3  -3   7    0.51    0.06 
  -3  -3   7    0.54    0.04 
   2   3  -7    8.95    0.29 
   2   3  -7    9.00    0.28 
   2   3  -7    8.97    0.29 
   2   3  -7    8.88    0.29 
   2   3  -7    8.93    0.29 
   2   3  -7    9.33    0.29 
  -2  -3   7    9.39    0.28 
  -2  -3   7    8.82    0.28 
  -2  -3   7    9.29    0.29 
   1   3  -7    5.92    0.20 
   1   3  -7    6.34    0.20 
   1   3  -7    5.93    0.19 
   1   3  -7    6.03    0.20 
   1   3  -7    6.30    0.20 
   0   3  -7   26.15    0.79 
   0   3  -7   26.26    0.79 
   0   3  -7   26.89    0.79 
   0   3  -7   26.40    0.79 
   0   3  -7   24.53    0.78 
   0  -3   7   25.44    0.79 
   0  -3   7   26.86    0.78 
   0  -3   7   21.60    0.78 
  -1   3  -7   19.15    0.58 
  -1   3  -7   18.93    0.58 
  -1   3  -7   19.66    0.59 
  -1   3  -7   19.23    0.59 
   1  -3   7   18.20    0.58 
   1  -3   7   19.02    0.58 
   1  -3   7   18.12    0.59 
  -2   3  -7   30.14    0.90 
  -2   3  -7   29.16    0.90 
  -2   3  -7   27.96    0.89 
   2  -3   7   29.99    0.90 
   2  -3   7   28.24    0.89 
   2  -3   7   27.82    0.89 
  -3   3  -7   13.09    0.43 
  -3   3  -7   14.01    0.43 
   3  -3   7   13.22    0.43 
  -4   3  -7   98.26    3.02 
   4  -3   7   98.75    3.02 
  -5   3  -7    3.91    0.14 
  -5   3  -7    3.82    0.14 
  -5   3  -7    4.05    0.14 
   5  -3   7    4.07    0.14 
   5  -3   7    3.78    0.14 
   5  -3   7    4.13    0.14 
  -6   3  -7    6.78    0.22 
  -6   3  -7    6.81    0.22 
  -6   3  -7    6.57    0.22 
   6  -3   7    7.06    0.22 
   6  -3   7    6.83    0.22 
   6  -3   7    6.78    0.22 
   8   2  -7    1.29    0.06 
   8   2  -7    1.28    0.07 
   8   2  -7    1.23    0.06 
  -8  -2   7    1.22    0.07 
  -8  -2   7    1.19    0.06 
   7   2  -7    4.86    0.16 
   7   2  -7    5.02    0.17 
   7   2  -7    5.12    0.17 
  -7  -2   7    5.06    0.19 
  -7  -2   7    5.31    0.17 
  -7  -2   7    4.82    0.18 
   6   2  -7    7.44    0.25 
   6   2  -7    7.44    0.24 
  -6  -2   7    7.01    0.26 
   5   2  -7   17.76    0.57 
   5   2  -7   17.07    0.56 
  -5  -2   7   18.66    0.57 
  -5  -2   7   18.28    0.57 
  -5  -2   7   18.19    0.57 
   4   2  -7    7.51    0.24 
   4   2  -7    7.47    0.25 
   4   2  -7    7.55    0.25 
  -4  -2   7    7.90    0.25 
  -4  -2   7    7.50    0.24 
  -4  -2   7    8.20    0.25 
  -4  -2   7    6.76    0.24 
   3   2  -7    0.33    0.05 
   3   2  -7    0.41    0.06 
   3   2  -7    0.40    0.03 
   3   2  -7    0.27    0.04 
   3   2  -7    0.30    0.04 
  -3  -2   7    0.32    0.05 
  -3  -2   7    0.34    0.03 
  -3  -2   7    0.41    0.04 
  -3  -2   7    0.36    0.04 
   2   2  -7   98.04    3.00 
   2   2  -7   99.79    3.00 
   2   2  -7   98.13    2.99 
   2   2  -7   95.52    3.00 
   2   2  -7   99.17    3.00 
   2   2  -7  100.91    3.00 
  -2  -2   7   96.32    3.00 
  -2  -2   7   98.42    2.99 
  -2  -2   7   96.56    3.00 
   1   2  -7   29.62    0.94 
   1   2  -7   29.99    0.94 
   1   2  -7   30.27    0.93 
   1   2  -7   30.48    0.93 
   1   2  -7   29.84    0.93 
  -1  -2   7   32.47    0.94 
   0   2  -7   60.88    1.89 
   0   2  -7   61.56    1.90 
   0   2  -7   62.05    1.90 
   0   2  -7   63.34    1.90 
   0   2  -7   61.23    1.90 
   0  -2   7   63.12    1.90 
   0  -2   7   61.96    1.90 
  -1   2  -7   20.23    0.62 
  -1   2  -7   20.47    0.62 
   1  -2   7   19.31    0.62 
   1  -2   7   20.54    0.62 
  -2   2  -7    4.06    0.14 
  -2   2  -7    4.25    0.15 
   2  -2   7    3.85    0.15 
  -3   2  -7   24.19    0.74 
  -3   2  -7   23.59    0.75 
   3  -2   7   24.49    0.76 
   4  -2   7    9.21    0.31 
  -5   2  -7    0.91    0.06 
   5  -2   7    0.91    0.06 
   5  -2   7    1.07    0.06 
   5  -2   7    1.01    0.06 
  -6   2  -7    0.07    0.03 
  -6   2  -7    0.07    0.03 
   6  -2   7    0.07    0.03 
   6  -2   7    0.09    0.03 
   6  -2   7    0.03    0.03 
   9   1  -7    0.75    0.04 
  -9  -1   7    0.70    0.05 
  -9  -1   7    0.69    0.04 
   8   1  -7    5.48    0.18 
   8   1  -7    5.59    0.18 
   8   1  -7    5.31    0.17 
  -8  -1   7    5.59    0.18 
  -8  -1   7    5.07    0.19 
  -8  -1   7    5.46    0.18 
   7   1  -7    0.62    0.06 
   7   1  -7    0.66    0.07 
   7   1  -7    0.70    0.05 
  -7  -1   7    0.66    0.08 
  -7  -1   7    0.70    0.05 
  -7  -1   7    0.68    0.08 
   6   1  -7    2.85    0.11 
   6   1  -7    2.77    0.13 
  -6  -1   7    2.68    0.12 
  -6  -1   7    2.75    0.13 
   5   1  -7    1.86    0.07 
   5   1  -7    1.67    0.09 
  -5  -1   7    1.78    0.09 
  -5  -1   7    1.73    0.10 
   4   1  -7    2.22    0.11 
   4   1  -7    2.47    0.10 
   4   1  -7    2.42    0.08 
  -4  -1   7    2.44    0.10 
  -4  -1   7    2.20    0.10 
   3   1  -7    1.35    0.05 
   3   1  -7    1.30    0.07 
  -3  -1   7    1.18    0.07 
  -3  -1   7    1.53    0.07 
   2   1  -7   19.48    0.62 
   2   1  -7   20.07    0.61 
   2   1  -7   19.99    0.61 
   2   1  -7   19.96    0.61 
  -2  -1   7   20.35    0.62 
  -2  -1   7   19.83    0.62 
  -2  -1   7   18.95    0.61 
   1   1  -7    1.37    0.05 
  -1  -1   7    1.26    0.06 
  -1  -1   7    1.19    0.06 
   0  -1   7    0.21    0.04 
  -1   1  -7    0.80    0.05 
  -2   1  -7   18.72    0.58 
   2  -1   7   19.35    0.59 
   2  -1   7   17.82    0.58 
  -3   1  -7    1.51    0.07 
   3  -1   7    1.49    0.09 
   3  -1   7    1.45    0.07 
  -4   1  -7    0.18    0.04 
  -4   1  -7    0.17    0.04 
   4  -1   7    0.18    0.05 
   4  -1   7    0.17    0.04 
   4  -1   7    0.15    0.09 
   4  -1   7    0.22    0.04 
   4  -1   7    0.16    0.05 
  -5   1  -7   58.68    1.73 
   5  -1   7   55.92    1.75 
   5  -1   7   55.62    1.73 
   5  -1   7   56.33    1.73 
   5  -1   7   56.50    1.73 
  -6   1  -7    1.40    0.06 
  -6   1  -7    1.37    0.06 
   6  -1   7    1.39    0.07 
   6  -1   7    1.39    0.06 
   6  -1   7    1.50    0.06 
   9   0  -7    1.23    0.05 
  -9   0   7    1.24    0.06 
  -9   0   7    1.15    0.07 
  -9   0   7    1.15    0.05 
   8   0  -7    3.15    0.11 
   8   0  -7    3.34    0.11 
   8   0  -7    3.20    0.12 
  -8   0   7    3.01    0.13 
  -8   0   7    3.09    0.12 
  -8   0   7    3.29    0.11 
   7   0  -7    9.40    0.30 
   7   0  -7    8.89    0.30 
   7   0  -7    9.36    0.29 
  -7   0   7    9.18    0.30 
  -7   0   7    8.98    0.30 
  -7   0   7    9.95    0.30 
   6   0  -7   21.18    0.64 
   6   0  -7   20.95    0.65 
  -6   0   7   20.94    0.65 
  -6   0   7   20.34    0.65 
  -6   0   7   19.59    0.64 
   5   0  -7    5.89    0.20 
   5   0  -7    5.80    0.19 
  -5   0   7    5.64    0.20 
  -5   0   7    5.66    0.19 
  -5   0   7    5.37    0.20 
   4   0  -7   27.10    0.87 
   4   0  -7   29.37    0.88 
   4   0  -7   29.89    0.89 
  -4   0   7   27.60    0.88 
  -4   0   7   29.74    0.89 
  -4   0   7   27.43    0.88 
   3   0  -7   17.03    0.52 
   3   0  -7   16.95    0.51 
   3   0  -7   17.35    0.51 
  -3   0   7   15.95    0.52 
  -3   0   7   16.17    0.52 
   2   0  -7   69.80    2.25 
   2   0  -7   74.85    2.25 
   2   0  -7   74.76    2.25 
   2   0  -7   74.59    2.25 
  -2   0   7   74.04    2.26 
  -2   0   7   73.44    2.25 
   1   0  -7    0.34    0.03 
   1   0  -7    0.29    0.03 
   1   0  -7    0.32    0.03 
  -1   0   7    0.37    0.05 
  -1   0   7    0.35    0.03 
   0   0  -7    1.14    0.05 
   0   0  -7    1.24    0.05 
   0   0  -7    1.16    0.05 
   0   0   7    1.20    0.05 
   0   0   7    1.38    0.07 
  -1   0  -7    5.73    0.18 
  -1   0  -7    5.44    0.19 
  -1   0  -7    5.75    0.18 
   1   0   7    5.76    0.18 
   1   0   7    5.67    0.20 
  -2   0  -7   24.54    0.77 
  -2   0  -7   24.19    0.76 
   2   0   7   24.87    0.76 
   2   0   7   25.65    0.78 
  -3   0  -7    0.18    0.04 
  -3   0  -7    0.20    0.05 
   3   0   7    0.17    0.05 
   3   0   7    0.22    0.04 
  -4   0  -7    5.67    0.19 
  -4   0  -7    5.53    0.18 
   4   0   7    5.40    0.18 
   4   0   7    5.23    0.18 
   4   0   7    5.36    0.18 
  -5   0  -7   17.19    0.51 
   5   0   7   15.92    0.50 
   5   0   7   15.64    0.50 
   5   0   7   16.12    0.50 
  -6   0  -7    4.23    0.14 
  -6   0  -7    4.34    0.14 
   6   0   7    4.24    0.14 
   6   0   7    4.16    0.14 
   9  -1  -7    3.62    0.12 
  -9   1   7    3.59    0.12 
  -9   1   7    3.54    0.12 
  -9   1   7    3.31    0.11 
   8  -1  -7    3.99    0.14 
   8  -1  -7    4.37    0.15 
   8  -1  -7    4.27    0.15 
  -8   1   7    4.31    0.15 
  -8   1   7    4.29    0.14 
  -8   1   7    4.28    0.15 
   7  -1  -7    9.69    0.30 
   7  -1  -7    9.06    0.30 
  -7   1   7    9.47    0.30 
  -7   1   7    9.08    0.30 
   6  -1  -7    0.32    0.04 
   6  -1  -7    0.41    0.06 
   6  -1  -7    0.32    0.08 
  -6   1   7    0.34    0.08 
  -6   1   7    0.38    0.05 
   5  -1  -7    0.14    0.04 
   5  -1  -7    0.19    0.04 
   5  -1  -7    0.16    0.04 
  -5   1   7    0.19    0.04 
  -5   1   7    0.11    0.04 
   4  -1  -7    0.40    0.05 
  -4   1   7    0.49    0.06 
  -4   1   7    0.58    0.04 
   3  -1  -7    5.85    0.19 
   3  -1  -7    5.57    0.18 
   3  -1  -7    6.00    0.18 
  -3   1   7    5.23    0.19 
  -3   1   7    5.68    0.18 
   2  -1  -7    5.77    0.18 
   2  -1  -7    5.69    0.18 
  -2   1   7    5.86    0.19 
  -2   1   7    5.74    0.20 
   1  -1  -7    1.09    0.04 
   1  -1  -7    0.92    0.04 
   1  -1  -7    0.96    0.05 
  -1   1   7    0.99    0.07 
  -1   1   7    1.02    0.05 
   0  -1  -7   14.20    0.44 
   0  -1  -7   14.51    0.44 
   0   1   7   14.10    0.44 
   0   1   7   13.92    0.45 
  -1  -1  -7    2.93    0.10 
  -1  -1  -7    2.69    0.10 
   1   1   7    2.86    0.12 
   1   1   7    2.67    0.10 
  -2  -1  -7    1.15    0.07 
  -2  -1  -7    1.23    0.06 
   2   1   7    1.14    0.06 
  -3  -1  -7    2.19    0.09 
  -3  -1  -7    2.19    0.09 
   3   1   7    2.27    0.09 
   3   1   7    2.14    0.12 
  -4  -1  -7    0.28    0.04 
   4   1   7    0.25    0.05 
   4   1   7    0.26    0.06 
  -5  -1  -7    7.12    0.23 
   5   1   7    6.84    0.23 
   5   1   7    7.08    0.23 
   5   1   7    7.14    0.24 
  -6  -1  -7    4.57    0.14 
  -6  -1  -7    4.39    0.15 
   6   1   7    4.20    0.14 
   6   1   7    4.66    0.15 
   6   1   7    4.45    0.14 
   9  -2  -7    6.50    0.21 
  -9   2   7    6.74    0.21 
   8  -2  -7    0.15    0.03 
  -8   2   7    0.18    0.04 
   7  -2  -7    7.65    0.25 
  -7   2   7    7.24    0.25 
  -7   2   7    7.65    0.25 
   6  -2  -7    0.11    0.03 
   6  -2  -7    0.20    0.06 
   6  -2  -7    0.17    0.04 
  -6   2   7    0.17    0.04 
  -6   2   7    0.19    0.05 
   5  -2  -7    6.28    0.21 
   5  -2  -7    6.17    0.20 
  -5   2   7    6.07    0.21 
  -5   2   7    5.88    0.20 
  -5   2   7    6.03    0.22 
   4  -2  -7   56.46    1.68 
   4  -2  -7   55.40    1.69 
  -4   2   7   53.26    1.69 
  -4   2   7   54.19    1.68 
   3  -2  -7    0.18    0.03 
   3  -2  -7    0.10    0.02 
  -3   2   7    0.16    0.03 
  -3   2   7    0.15    0.04 
   2  -2  -7    6.29    0.20 
   2  -2  -7    6.46    0.20 
  -2   2   7    6.30    0.20 
  -2   2   7    6.39    0.22 
   1  -2  -7    8.64    0.29 
   1  -2  -7    8.64    0.27 
  -1   2   7    8.46    0.29 
  -1   2   7    8.89    0.27 
   0  -2  -7   45.41    1.41 
   0  -2  -7   45.07    1.42 
   0  -2  -7   47.77    1.41 
   0   2   7   47.17    1.41 
   0   2   7   44.50    1.42 
  -1  -2  -7    0.13    0.03 
  -1  -2  -7    0.14    0.04 
   1   2   7    0.19    0.03 
   1   2   7    0.23    0.07 
  -2  -2  -7    0.09    0.03 
  -2  -2  -7    0.14    0.04 
   2   2   7    0.12    0.03 
  -3  -2  -7    0.87    0.08 
  -3  -2  -7    0.76    0.07 
   3   2   7    0.79    0.07 
   3   2   7    0.93    0.07 
  -4  -2  -7    0.47    0.07 
   4   2   7    0.54    0.06 
   4   2   7    0.64    0.05 
   4   2   7    0.59    0.06 
  -5  -2  -7    1.34    0.07 
   5   2   7    1.33    0.06 
   5   2   7    1.40    0.06 
   5   2   7    1.26    0.06 
   8  -3  -7    0.17    0.03 
  -8   3   7    0.22    0.03 
  -8   3   7    0.20    0.04 
  -8   3   7    0.30    0.05 
   7  -3  -7    0.15    0.04 
  -7   3   7    0.20    0.05 
  -7   3   7    0.14    0.04 
  -7   3   7    0.16    0.04 
   6  -3  -7   15.30    0.50 
  -6   3   7   16.41    0.50 
  -6   3   7   16.19    0.50 
  -6   3   7   15.87    0.50 
   5  -3  -7   14.96    0.47 
   5  -3  -7   14.59    0.45 
  -5   3   7   14.16    0.46 
  -5   3   7   14.29    0.45 
   4  -3  -7    0.73    0.07 
   4  -3  -7    0.77    0.05 
  -4   3   7    0.88    0.05 
   3  -3  -7    0.79    0.05 
   3  -3  -7    0.71    0.05 
   3  -3  -7    0.73    0.07 
  -3   3   7    0.66    0.05 
   2  -3  -7    0.17    0.03 
   2  -3  -7    0.17    0.04 
  -2   3   7    0.23    0.03 
   1  -3  -7   10.18    0.35 
   1  -3  -7   10.65    0.33 
  -1   3   7   11.10    0.33 
   0  -3  -7    2.87    0.10 
   0  -3  -7    2.85    0.12 
   0   3   7    2.76    0.10 
  -1  -3  -7   22.06    0.68 
  -1  -3  -7   22.39    0.69 
  -1  -3  -7   22.15    0.68 
   1   3   7   20.83    0.68 
  -2  -3  -7   11.41    0.39 
  -2  -3  -7   12.19    0.38 
  -2  -3  -7   12.10    0.37 
   2   3   7   11.57    0.37 
   3   3   7    0.21    0.04 
   3   3   7    0.20    0.04 
   4   3   7    2.65    0.10 
   4   3   7    2.73    0.10 
   4   3   7    2.69    0.10 
   5   3   7    0.73    0.05 
   5   3   7    0.72    0.05 
   5   3   7    0.73    0.04 
   8  -4  -7    3.05    0.12 
  -8   4   7    3.30    0.12 
  -8   4   7    3.21    0.12 
  -8   4   7    3.39    0.11 
  -7   4   7    0.69    0.07 
  -7   4   7    0.66    0.06 
  -7   4   7    0.58    0.07 
  -6   4   7    9.93    0.31 
  -6   4   7    9.63    0.32 
   5  -4  -7    5.87    0.22 
   5  -4  -7    6.04    0.21 
   5  -4  -7    5.90    0.20 
  -5   4   7    5.75    0.21 
  -5   4   7    6.15    0.20 
   4  -4  -7    0.84    0.05 
   4  -4  -7    0.91    0.08 
  -4   4   7    0.86    0.06 
  -4   4   7    0.65    0.07 
   3  -4  -7    0.49    0.07 
   3  -4  -7    0.47    0.05 
  -3   4   7    0.52    0.06 
  -3   4   7    0.50    0.05 
   2  -4  -7    5.14    0.18 
   2  -4  -7    5.57    0.19 
  -2   4   7    5.43    0.18 
   1  -4  -7    8.16    0.27 
   1  -4  -7    8.68    0.28 
  -1   4   7    8.23    0.27 
   0  -4  -7    0.73    0.05 
   0  -4  -7    0.78    0.07 
   0   4   7    0.68    0.05 
  -1  -4  -7   10.07    0.32 
  -1  -4  -7    9.22    0.31 
  -1  -4  -7    9.94    0.31 
   1   4   7    9.36    0.31 
  -2  -4  -7    0.38    0.05 
   2   4   7    0.28    0.05 
  -3  -4  -7    1.52    0.07 
   3   4   7    1.47    0.07 
   3   4   7    1.56    0.07 
   3   4   7    1.55    0.07 
  -4  -4  -7    3.53    0.11 
   4   4   7    3.28    0.12 
   4   4   7    3.41    0.12 
   4   4   7    3.48    0.12 
  -8   5   7   20.39    0.62 
  -8   5   7   19.55    0.61 
   7  -5  -7    3.08    0.11 
  -7   5   7    3.04    0.11 
  -7   5   7    2.99    0.11 
  -7   5   7    3.04    0.12 
   6  -5  -7    0.10    0.03 
  -6   5   7    0.07    0.04 
  -6   5   7    0.09    0.04 
   5  -5  -7    2.75    0.10 
  -5   5   7    2.65    0.11 
  -5   5   7    2.56    0.11 
  -5   5   7    2.63    0.10 
  -5   5   7    2.73    0.10 
   4  -5  -7    5.66    0.20 
   4  -5  -7    6.05    0.22 
  -4   5   7    6.20    0.21 
   3  -5  -7    2.13    0.11 
   3  -5  -7    2.17    0.09 
  -3   5   7    2.27    0.10 
  -3   5   7    2.17    0.09 
   2  -5  -7    3.13    0.13 
   2  -5  -7    2.95    0.11 
   1  -5  -7   12.13    0.39 
   1  -5  -7   11.83    0.38 
   0  -5  -7   23.78    0.71 
   0  -5  -7   24.73    0.73 
   0   5   7   22.27    0.72 
   0   5   7   21.39    0.71 
   0   5   7   22.99    0.71 
  -1  -5  -7    0.35    0.05 
   1   5   7    0.40    0.05 
   1   5   7    0.45    0.05 
   1   5   7    0.35    0.06 
  -2  -5  -7   34.04    1.01 
   2   5   7   31.12    1.01 
   2   5   7   33.92    1.01 
   2   5   7   32.73    1.01 
  -3  -5  -7    2.60    0.09 
   3   5   7    2.49    0.09 
   3   5   7    2.35    0.09 
   3   5   7    2.59    0.09 
   3   5   7    2.49    0.09 
   4   5   7    3.22    0.11 
   4   5   7    3.26    0.11 
   7  -6  -7   39.27    1.21 
  -7   6   7   38.57    1.21 
  -7   6   7   39.19    1.21 
  -7   6   7   40.40    1.21 
  -7   6   7   39.59    1.21 
   6  -6  -7    1.06    0.05 
  -6   6   7    0.96    0.05 
  -6   6   7    0.86    0.07 
  -6   6   7    0.98    0.06 
  -6   6   7    0.92    0.07 
   5  -6  -7   14.39    0.43 
  -5   6   7   13.80    0.43 
  -5   6   7   14.05    0.43 
  -5   6   7   13.38    0.44 
  -5   6   7   13.39    0.44 
   4  -6  -7    0.32    0.05 
  -4   6   7    0.39    0.06 
  -4   6   7    0.49    0.05 
  -4   6   7    0.39    0.07 
   3  -6  -7    6.19    0.21 
  -3   6   7    6.32    0.20 
  -3   6   7    6.58    0.21 
  -3   6   7    6.64    0.22 
  -3   6   7    6.11    0.21 
   2  -6  -7    4.59    0.15 
  -2   6   7    4.83    0.15 
  -2   6   7    4.50    0.16 
  -2   6   7    4.44    0.16 
   1  -6  -7    0.70    0.05 
  -1   6   7    0.64    0.06 
  -1   6   7    0.69    0.06 
  -1   6   7    0.71    0.07 
  -1   6   7    0.74    0.05 
   0  -6  -7    0.96    0.05 
   0   6   7    0.80    0.06 
   0   6   7    0.83    0.06 
   0   6   7    0.91    0.07 
   0   6   7    0.83    0.06 
  -1  -6  -7    1.05    0.05 
   1   6   7    1.03    0.06 
   1   6   7    1.08    0.06 
   1   6   7    1.08    0.06 
  -2  -6  -7    2.02    0.07 
   2   6   7    2.04    0.08 
   2   6   7    1.92    0.08 
   2   6   7    1.88    0.08 
   2   6   7    1.97    0.08 
  -3  -6  -7   18.12    0.56 
   3   6   7   17.35    0.56 
   3   6   7   18.99    0.56 
   3   6   7   17.81    0.56 
  -7   7   7    2.46    0.08 
  -7   7   7    2.31    0.08 
  -7   7   7    2.24    0.09 
  -7   7   7    2.50    0.09 
   6  -7  -7    2.28    0.08 
  -6   7   7    2.14    0.08 
  -6   7   7    2.16    0.09 
  -6   7   7    2.23    0.09 
  -6   7   7    2.17    0.08 
   5  -7  -7    0.06    0.03 
  -5   7   7    0.07    0.02 
  -5   7   7    0.05    0.03 
  -5   7   7    0.04    0.02 
  -5   7   7    0.04    0.04 
   4  -7  -7    3.52    0.11 
  -4   7   7    3.31    0.11 
  -4   7   7    3.38    0.12 
  -4   7   7    3.13    0.11 
  -4   7   7    3.21    0.11 
  -4   7   7    2.97    0.12 
   3  -7  -7    0.19    0.03 
  -3   7   7    0.21    0.04 
  -3   7   7    0.21    0.04 
  -3   7   7    0.20    0.04 
  -3   7   7    0.18    0.03 
   2  -7  -7    8.97    0.29 
  -2   7   7    9.04    0.29 
  -2   7   7    9.26    0.29 
  -2   7   7    9.13    0.29 
  -2   7   7    9.07    0.29 
   1  -7  -7    0.03    0.03 
  -1   7   7    0.05    0.03 
  -1   7   7    0.06    0.04 
  -1   7   7    0.05    0.03 
  -1   7   7    0.03    0.02 
   0  -7  -7    4.26    0.14 
   0   7   7    3.82    0.14 
   0   7   7    4.25    0.14 
   0   7   7    4.25    0.14 
   0   7   7    4.12    0.14 
  -1  -7  -7    1.47    0.06 
   1   7   7    1.43    0.06 
   1   7   7    1.47    0.06 
   1   7   7    1.39    0.06 
  -2  -7  -7    0.73    0.04 
   2   7   7    0.63    0.04 
   2   7   7    0.64    0.04 
   2   7   7    0.70    0.04 
   5  -8  -7   12.66    0.39 
  -5   8   7   13.22    0.40 
  -5   8   7   12.37    0.39 
  -5   8   7   12.77    0.39 
  -5   8   7   12.14    0.39 
   4  -8  -7    5.95    0.18 
  -4   8   7    6.10    0.18 
  -4   8   7    5.68    0.19 
  -4   8   7    6.02    0.19 
  -4   8   7    4.85    0.19 
   3  -8  -7   11.82    0.36 
  -3   8   7   11.40    0.36 
  -3   8   7   11.75    0.37 
   2  -8  -7    0.23    0.04 
  -2   8   7    0.27    0.04 
  -2   8   7    0.20    0.03 
  -2   8   7    0.20    0.03 
   1  -8  -7   11.77    0.36 
  -1   8   7   11.63    0.36 
  -1   8   7   11.09    0.36 
  -1   8   7   11.62    0.36 
   0  -8  -7    1.55    0.06 
   0   8   7    1.47    0.06 
   0   8   7    1.54    0.06 
   3  10  -8    0.42    0.07 
  -1  10  -8    2.22    0.08 
  -1  10  -8    2.16    0.10 
  -2  10  -8    0.84    0.05 
  -2  10  -8    0.92    0.04 
  -2  10  -8    0.96    0.05 
  -3  10  -8    3.90    0.13 
  -3  10  -8    4.17    0.13 
  -3  10  -8    3.78    0.13 
  -3  10  -8    3.73    0.12 
   4   9  -8    3.81    0.13 
   4   9  -8    3.94    0.14 
   3   9  -8    0.05    0.04 
   3   9  -8    0.01    0.06 
   2   9  -8    1.25    0.11 
   2   9  -8    1.46    0.08 
   1   9  -8    7.88    0.27 
   0   9  -8    0.44    0.09 
   0   9  -8    0.57    0.06 
   0   9  -8    0.40    0.07 
  -1   9  -8   14.43    0.46 
  -1   9  -8   14.76    0.45 
  -2   9  -8    0.22    0.04 
  -2   9  -8    0.33    0.05 
  -2   9  -8    0.25    0.04 
  -3   9  -8    1.59    0.06 
  -3   9  -8    1.62    0.07 
  -3   9  -8    1.64    0.08 
  -3   9  -8    1.77    0.08 
  -3   9  -8    1.67    0.07 
  -4   9  -8    0.12    0.02 
  -4   9  -8    0.13    0.03 
  -4   9  -8    0.14    0.02 
  -4   9  -8    0.11    0.02 
   4  -9   8    0.14    0.03 
   5   8  -8    0.27    0.04 
   4   8  -8    1.13    0.08 
   4   8  -8    1.17    0.11 
   4   8  -8    1.22    0.06 
  -4  -8   8    1.09    0.06 
   3   8  -8   11.38    0.38 
   3   8  -8   11.57    0.36 
  -3  -8   8   11.32    0.35 
   2   8  -8    0.80    0.11 
   2   8  -8    0.83    0.07 
   2   8  -8    0.79    0.08 
   1   8  -8    0.27    0.05 
   1   8  -8    0.19    0.05 
   0   8  -8   15.17    0.47 
   0   8  -8   14.64    0.49 
   0   8  -8   15.28    0.47 
   0   8  -8   15.21    0.47 
  -1   8  -8    8.13    0.26 
  -1   8  -8    8.03    0.25 
  -1   8  -8    7.83    0.26 
  -1   8  -8    7.56    0.26 
   1  -8   8    7.96    0.25 
  -2   8  -8    0.13    0.04 
  -2   8  -8    0.22    0.05 
  -2   8  -8    0.17    0.04 
  -2   8  -8    0.10    0.03 
  -2   8  -8    0.16    0.03 
  -2   8  -8    0.12    0.04 
   2  -8   8    0.14    0.03 
  -3   8  -8    0.82    0.07 
  -3   8  -8    0.84    0.06 
  -3   8  -8    0.70    0.05 
  -3   8  -8    0.73    0.07 
  -3   8  -8    0.80    0.05 
  -3   8  -8    0.84    0.07 
  -3   8  -8    0.76    0.06 
   3  -8   8    0.80    0.06 
  -4   8  -8    0.33    0.04 
  -4   8  -8    0.29    0.04 
  -4   8  -8    0.25    0.05 
  -4   8  -8    0.36    0.05 
  -4   8  -8    0.33    0.04 
  -4   8  -8    0.38    0.05 
   6   7  -8    7.10    0.23 
   6   7  -8    7.49    0.24 
  -6  -7   8    7.35    0.23 
   5   7  -8    0.09    0.03 
   5   7  -8    0.04    0.05 
  -5  -7   8    0.08    0.03 
   4   7  -8   22.01    0.67 
   4   7  -8   21.22    0.69 
   4   7  -8   21.83    0.68 
   4   7  -8   21.23    0.67 
  -4  -7   8   22.15    0.67 
   3   7  -8    2.14    0.12 
   3   7  -8    1.71    0.10 
   3   7  -8    1.79    0.09 
  -3  -7   8    1.97    0.08 
   2   7  -8    0.17    0.06 
   2   7  -8    0.04    0.04 
   2   7  -8    0.29    0.08 
   2   7  -8    0.11    0.07 
   1   7  -8    4.33    0.15 
   1   7  -8    4.17    0.16 
   1   7  -8    4.22    0.18 
   1   7  -8    4.17    0.17 
  -1  -7   8    4.26    0.18 
   0   7  -8    6.36    0.23 
   0   7  -8    6.85    0.24 
   0   7  -8    6.95    0.23 
   0   7  -8    7.39    0.25 
  -1   7  -8    0.00    0.05 
  -1   7  -8    0.03    0.04 
  -1   7  -8    0.01    0.04 
  -1   7  -8    0.05    0.06 
  -1   7  -8    0.06    0.05 
  -1   7  -8    0.05    0.06 
  -1   7  -8    0.01    0.04 
  -1   7  -8    0.06    0.06 
  -1   7  -8    0.09    0.05 
  -1   7  -8    0.06    0.05 
  -1   7  -8    0.06    0.06 
  -2   7  -8   13.16    0.41 
  -2   7  -8   12.86    0.42 
  -2   7  -8   13.69    0.41 
  -2   7  -8   13.11    0.42 
  -2   7  -8   13.17    0.42 
  -2   7  -8   13.17    0.41 
  -2   7  -8   12.90    0.42 
   2  -7   8   13.29    0.41 
  -3   7  -8    3.17    0.11 
  -3   7  -8    3.26    0.11 
  -3   7  -8    3.26    0.12 
  -3   7  -8    3.16    0.12 
  -3   7  -8    3.36    0.12 
  -3   7  -8    3.03    0.12 
  -3   7  -8    2.87    0.12 
   3  -7   8    2.98    0.11 
  -4   7  -8    0.02    0.03 
  -4   7  -8    0.04    0.03 
  -4   7  -8    0.03    0.03 
  -4   7  -8    0.12    0.04 
  -4   7  -8    0.09    0.04 
   4  -7   8    0.07    0.03 
  -5   7  -8    0.75    0.04 
  -5   7  -8    0.76    0.05 
  -5   7  -8    0.85    0.06 
  -5   7  -8    0.78    0.06 
  -5   7  -8    0.78    0.06 
   5  -7   8    0.81    0.05 
   5  -7   8    0.79    0.05 
   7   6  -8    1.56    0.08 
   7   6  -8    1.56    0.06 
  -7  -6   8    1.54    0.06 
   6   6  -8    1.08    0.09 
   6   6  -8    1.19    0.10 
   6   6  -8    1.34    0.06 
  -6  -6   8    1.22    0.07 
  -6  -6   8    1.11    0.08 
   5   6  -8   41.04    1.25 
   5   6  -8   40.96    1.24 
   5   6  -8   38.96    1.25 
  -5  -6   8   41.32    1.24 
   4   6  -8   29.25    0.91 
   4   6  -8   29.25    0.92 
   4   6  -8   30.06    0.92 
  -4  -6   8   30.25    0.91 
   3   6  -8   11.44    0.36 
   3   6  -8   10.32    0.35 
   3   6  -8   10.97    0.35 
   3   6  -8   10.76    0.36 
   3   6  -8   11.05    0.37 
  -3  -6   8   11.40    0.36 
   2   6  -8    3.50    0.13 
   2   6  -8    3.59    0.14 
   2   6  -8    3.63    0.16 
   2   6  -8    3.79    0.13 
   2   6  -8    3.89    0.15 
  -2  -6   8    3.58    0.13 
  -2  -6   8    3.66    0.12 
  -2  -6   8    3.78    0.15 
   1   6  -8   13.58    0.44 
   1   6  -8   14.68    0.44 
   1   6  -8   13.24    0.43 
   1   6  -8   13.41    0.43 
  -1  -6   8   13.26    0.42 
  -1  -6   8   12.90    0.42 
   0   6  -8    0.18    0.06 
   0   6  -8    0.12    0.06 
   0   6  -8    0.22    0.04 
   0   6  -8    0.16    0.05 
   0   6  -8    0.15    0.04 
   0  -6   8    0.18    0.04 
  -1   6  -8    1.01    0.07 
  -1   6  -8    0.88    0.07 
  -1   6  -8    0.98    0.09 
   1  -6   8    0.99    0.05 
  -2   6  -8    9.65    0.32 
  -2   6  -8    9.92    0.32 
  -2   6  -8    9.55    0.33 
   2  -6   8   10.34    0.31 
  -3   6  -8    0.24    0.05 
  -3   6  -8    0.24    0.05 
  -3   6  -8    0.17    0.04 
  -3   6  -8    0.11    0.04 
  -3   6  -8    0.13    0.04 
  -3   6  -8    0.26    0.05 
  -3   6  -8    0.14    0.04 
  -4   6  -8    2.49    0.10 
  -4   6  -8    2.52    0.09 
  -4   6  -8    2.47    0.10 
  -4   6  -8    2.38    0.10 
  -4   6  -8    2.35    0.10 
   4  -6   8    2.45    0.09 
   4  -6   8    2.59    0.10 
   4  -6   8    2.52    0.10 
  -5   6  -8   14.74    0.46 
  -5   6  -8   14.50    0.46 
  -5   6  -8   15.48    0.46 
  -5   6  -8   14.29    0.46 
   5  -6   8   14.78    0.45 
   5  -6   8   14.41    0.46 
   7   5  -8    5.54    0.18 
   7   5  -8    5.52    0.18 
  -7  -5   8    5.68    0.19 
  -7  -5   8    5.53    0.18 
   6   5  -8    1.89    0.07 
   6   5  -8    1.70    0.10 
   6   5  -8    1.90    0.09 
  -6  -5   8    1.82    0.08 
  -6  -5   8    1.63    0.09 
  -6  -5   8    1.78    0.08 
   5   5  -8    4.63    0.16 
   5   5  -8    4.76    0.17 
   5   5  -8    4.74    0.18 
  -5  -5   8    4.63    0.16 
   4   5  -8    1.00    0.09 
   4   5  -8    0.93    0.10 
   4   5  -8    0.81    0.06 
   4   5  -8    0.83    0.09 
  -4  -5   8    0.94    0.06 
  -4  -5   8    1.01    0.10 
   3   5  -8    4.03    0.15 
   3   5  -8    3.97    0.16 
   3   5  -8    3.83    0.16 
   3   5  -8    3.88    0.13 
   3   5  -8    3.74    0.14 
  -3  -5   8    3.65    0.13 
  -3  -5   8    3.93    0.13 
  -3  -5   8    3.82    0.15 
   2   5  -8    9.87    0.32 
   2   5  -8    9.96    0.31 
   2   5  -8   10.01    0.32 
   2   5  -8    9.68    0.32 
   2   5  -8    9.68    0.31 
  -2  -5   8    9.76    0.31 
  -2  -5   8    9.87    0.32 
  -2  -5   8    9.68    0.31 
   1   5  -8   15.93    0.51 
   1   5  -8   15.65    0.50 
   1   5  -8   15.79    0.50 
   1   5  -8   15.71    0.50 
   1   5  -8   15.62    0.49 
  -1  -5   8   16.52    0.49 
  -1  -5   8   16.01    0.49 
   0   5  -8    6.92    0.22 
   0   5  -8    6.85    0.22 
   0   5  -8    6.75    0.24 
   0   5  -8    6.57    0.23 
   0   5  -8    6.48    0.22 
   0  -5   8    6.79    0.21 
   0  -5   8    6.82    0.22 
  -1   5  -8    5.13    0.17 
  -1   5  -8    5.28    0.19 
  -1   5  -8    4.98    0.17 
  -1   5  -8    5.06    0.18 
   1  -5   8    5.06    0.16 
   1  -5   8    4.88    0.17 
  -2   5  -8    1.43    0.08 
  -2   5  -8    1.30    0.08 
  -2   5  -8    1.28    0.10 
   2  -5   8    1.53    0.07 
  -3   5  -8    0.21    0.04 
  -3   5  -8    0.35    0.07 
  -3   5  -8    0.18    0.04 
  -3   5  -8    0.18    0.04 
  -3   5  -8    0.19    0.05 
  -3   5  -8    0.10    0.05 
   3  -5   8    0.18    0.04 
   3  -5   8    0.20    0.04 
  -4   5  -8    0.09    0.04 
  -4   5  -8    0.09    0.03 
  -4   5  -8    0.10    0.05 
  -4   5  -8    0.14    0.04 
  -4   5  -8    0.13    0.04 
   4  -5   8    0.07    0.04 
   4  -5   8    0.15    0.03 
   4  -5   8    0.12    0.04 
  -5   5  -8    2.74    0.11 
  -5   5  -8    2.74    0.10 
  -5   5  -8    2.71    0.10 
  -5   5  -8    2.67    0.10 
   5  -5   8    2.69    0.10 
   5  -5   8    2.76    0.10 
   5  -5   8    2.66    0.10 
   8   4  -8    6.74    0.21 
   8   4  -8    6.67    0.21 
  -8  -4   8    6.42    0.21 
  -8  -4   8    6.74    0.21 
   7   4  -8    0.16    0.04 
   7   4  -8    0.22    0.04 
  -7  -4   8    0.12    0.03 
  -7  -4   8    0.22    0.05 
  -7  -4   8    0.13    0.04 
   6   4  -8    7.09    0.22 
   6   4  -8    7.03    0.23 
  -6  -4   8    7.01    0.23 
   5   4  -8    0.23    0.04 
   5   4  -8    0.25    0.08 
  -5  -4   8    0.30    0.05 
  -5  -4   8    0.37    0.10 
   4   4  -8   22.66    0.71 
   4   4  -8   22.86    0.71 
   4   4  -8   22.71    0.70 
   4   4  -8   21.98    0.70 
  -4  -4   8   22.65    0.71 
  -4  -4   8   22.93    0.70 
  -4  -4   8   22.33    0.70 
   3   4  -8   33.47    1.02 
   3   4  -8   32.96    1.01 
   3   4  -8   31.19    1.02 
   3   4  -8   31.65    1.01 
   3   4  -8   34.42    1.00 
  -3  -4   8   33.11    1.01 
  -3  -4   8   32.44    1.00 
  -3  -4   8   32.15    1.00 
   2   4  -8    5.49    0.18 
   2   4  -8    5.33    0.19 
   2   4  -8    5.51    0.18 
   2   4  -8    5.28    0.18 
   2   4  -8    5.47    0.17 
  -2  -4   8    5.55    0.17 
  -2  -4   8    5.06    0.17 
  -2  -4   8    5.36    0.19 
   1   4  -8   11.33    0.35 
   1   4  -8   11.05    0.35 
   1   4  -8   11.75    0.35 
   1   4  -8   11.20    0.36 
   1   4  -8   11.16    0.35 
  -1  -4   8   10.26    0.35 
  -1  -4   8   11.11    0.35 
   0   4  -8    1.52    0.09 
   0   4  -8    1.65    0.07 
   0   4  -8    1.39    0.07 
   0   4  -8    1.47    0.07 
   0  -4   8    1.40    0.07 
   0  -4   8    1.53    0.06 
  -1   4  -8    0.32    0.07 
  -1   4  -8    0.48    0.05 
  -1   4  -8    0.37    0.06 
  -1   4  -8    0.39    0.05 
   1  -4   8    0.43    0.04 
   1  -4   8    0.45    0.05 
  -2   4  -8    0.22    0.06 
  -2   4  -8    0.17    0.05 
   2  -4   8    0.21    0.04 
   2  -4   8    0.27    0.05 
  -3   4  -8    6.12    0.22 
   3  -4   8    6.12    0.20 
  -4   4  -8    4.91    0.17 
  -4   4  -8    4.80    0.16 
  -4   4  -8    4.76    0.16 
   4  -4   8    4.92    0.16 
   4  -4   8    4.91    0.16 
   4  -4   8    4.78    0.17 
  -5   4  -8    0.65    0.05 
  -5   4  -8    0.76    0.06 
  -5   4  -8    0.59    0.05 
   5  -4   8    0.64    0.05 
   5  -4   8    0.57    0.05 
   5  -4   8    0.63    0.06 
  -6   4  -8    2.64    0.10 
  -6   4  -8    2.52    0.09 
   6  -4   8    2.73    0.09 
   6  -4   8    2.67    0.09 
   8   3  -8    0.84    0.06 
   8   3  -8    0.88    0.04 
  -8  -3   8    0.78    0.04 
  -8  -3   8    0.83    0.06 
   7   3  -8    6.34    0.20 
   7   3  -8    6.10    0.21 
  -7  -3   8    6.01    0.21 
  -7  -3   8    6.45    0.21 
  -7  -3   8    6.58    0.20 
   6   3  -8    3.24    0.11 
   6   3  -8    3.00    0.12 
  -6  -3   8    3.09    0.11 
  -6  -3   8    2.76    0.13 
  -6  -3   8    2.95    0.12 
   5   3  -8   12.03    0.38 
   5   3  -8   11.37    0.36 
  -5  -3   8   11.11    0.36 
  -5  -3   8   11.85    0.38 
   4   3  -8   14.59    0.46 
   4   3  -8   14.18    0.45 
   4   3  -8   14.61    0.46 
  -4  -3   8   14.31    0.45 
  -4  -3   8   14.22    0.45 
  -4  -3   8   14.79    0.46 
   3   3  -8   65.85    2.03 
   3   3  -8   65.68    2.02 
   3   3  -8   65.96    2.02 
   3   3  -8   65.38    2.02 
   3   3  -8   66.71    2.03 
  -3  -3   8   67.53    2.02 
  -3  -3   8   65.42    2.03 
  -3  -3   8   65.21    2.02 
   2   3  -8    3.01    0.11 
   2   3  -8    3.21    0.10 
   2   3  -8    2.98    0.11 
   2   3  -8    3.03    0.12 
   2   3  -8    2.91    0.11 
  -2  -3   8    3.12    0.11 
  -2  -3   8    3.06    0.12 
  -2  -3   8    3.08    0.11 
   1   3  -8    9.17    0.28 
   1   3  -8    8.89    0.29 
   1   3  -8    9.17    0.29 
   1   3  -8    9.36    0.29 
   1   3  -8    9.08    0.29 
  -1  -3   8    8.72    0.28 
  -1  -3   8    8.71    0.28 
   0   3  -8   66.58    1.95 
   0   3  -8   61.96    1.96 
   0   3  -8   62.53    1.95 
   0   3  -8   66.07    1.95 
   0  -3   8   66.11    1.95 
   0  -3   8   60.58    1.96 
   0  -3   8   62.51    1.95 
  -1   3  -8    4.24    0.14 
  -1   3  -8    4.31    0.14 
  -1   3  -8    3.65    0.17 
   1  -3   8    3.99    0.14 
   1  -3   8    3.91    0.15 
   1  -3   8    4.09    0.14 
  -2   3  -8    2.50    0.10 
   2  -3   8    2.71    0.12 
   2  -3   8    2.36    0.10 
  -3   3  -8   47.50    1.47 
  -4   3  -8    3.67    0.14 
  -4   3  -8    3.73    0.13 
  -4   3  -8    4.04    0.14 
  -4   3  -8    3.63    0.13 
   4  -3   8    4.10    0.14 
   4  -3   8    3.89    0.14 
   4  -3   8    3.83    0.14 
  -5   3  -8    1.20    0.06 
  -5   3  -8    1.36    0.06 
  -5   3  -8    1.35    0.06 
  -5   3  -8    1.21    0.07 
   5  -3   8    1.32    0.07 
   5  -3   8    1.25    0.06 
  -6   3  -8    1.19    0.05 
   6  -3   8    1.44    0.06 
   6  -3   8    1.26    0.06 
   6  -3   8    1.28    0.06 
   8   2  -8    3.61    0.13 
   8   2  -8    3.80    0.12 
  -8  -2   8    3.44    0.12 
  -8  -2   8    3.86    0.13 
   7   2  -8   14.09    0.43 
   7   2  -8   13.25    0.43 
   7   2  -8   13.96    0.43 
  -7  -2   8   13.84    0.43 
  -7  -2   8   12.80    0.43 
  -7  -2   8   14.41    0.43 
   6   2  -8    1.01    0.07 
   6   2  -8    1.06    0.09 
   6   2  -8    0.95    0.06 
  -6  -2   8    1.05    0.06 
  -6  -2   8    0.90    0.09 
   5   2  -8    0.24    0.07 
   4   2  -8    2.89    0.12 
   4   2  -8    3.12    0.10 
   4   2  -8    3.05    0.13 
  -4  -2   8    2.96    0.12 
  -4  -2   8    2.86    0.11 
  -4  -2   8    2.87    0.12 
   3   2  -8    0.99    0.08 
   3   2  -8    1.09    0.06 
   3   2  -8    1.07    0.06 
   3   2  -8    1.13    0.05 
   3   2  -8    0.88    0.07 
  -3  -2   8    1.15    0.07 
  -3  -2   8    1.06    0.06 
  -3  -2   8    1.05    0.06 
  -3  -2   8    1.14    0.07 
   2   2  -8   49.51    1.45 
   2   2  -8   48.29    1.45 
   2   2  -8   47.30    1.45 
  -2  -2   8   46.34    1.45 
  -2  -2   8   46.21    1.45 
  -2  -2   8   46.34    1.46 
  -2  -2   8   47.17    1.46 
   1   2  -8    2.83    0.10 
   1   2  -8    2.80    0.10 
   1   2  -8    2.76    0.10 
   1   2  -8    2.85    0.10 
  -1  -2   8    3.04    0.10 
  -1  -2   8    2.83    0.11 
  -1  -2   8    2.65    0.10 
   0   2  -8   11.47    0.34 
   0   2  -8   10.52    0.34 
   0   2  -8   11.15    0.35 
   0  -2   8   10.68    0.34 
   0  -2   8   10.79    0.35 
   0  -2   8   10.84    0.35 
  -1   2  -8    0.26    0.05 
   1  -2   8    0.38    0.06 
  -2   2  -8    4.78    0.16 
   2  -2   8    4.84    0.18 
  -3   2  -8    7.36    0.24 
  -4   2  -8    0.77    0.06 
  -4   2  -8    0.68    0.06 
  -4   2  -8    0.73    0.06 
   4  -2   8    0.72    0.07 
   4  -2   8    0.89    0.06 
   4  -2   8    0.75    0.06 
  -5   2  -8    0.05    0.03 
  -5   2  -8    0.10    0.03 
   5  -2   8    0.11    0.03 
   5  -2   8    0.08    0.03 
  -6   2  -8    2.63    0.09 
  -6   2  -8    2.41    0.09 
   6  -2   8    2.57    0.09 
   6  -2   8    2.51    0.09 
   6  -2   8    2.57    0.09 
   8   1  -8    0.43    0.04 
   8   1  -8    0.47    0.04 
   8   1  -8    0.43    0.06 
  -8  -1   8    0.42    0.06 
  -8  -1   8    0.41    0.04 
  -8  -1   8    0.37    0.07 
   7   1  -8    0.33    0.04 
   7   1  -8    0.35    0.06 
   7   1  -8    0.37    0.05 
  -7  -1   8    0.26    0.05 
  -7  -1   8    0.31    0.05 
  -7  -1   8    0.24    0.05 
   6   1  -8    0.15    0.04 
   6   1  -8    0.10    0.04 
   6   1  -8    0.05    0.04 
   6   1  -8    0.14    0.06 
   6   1  -8    0.10    0.06 
  -6  -1   8    0.13    0.07 
  -6  -1   8    0.15    0.03 
  -6  -1   8    0.12    0.06 
  -6  -1   8    0.10    0.05 
   5   1  -8    8.35    0.29 
  -5  -1   8    8.58    0.29 
  -5  -1   8    8.47    0.28 
   4   1  -8    0.32    0.06 
   4   1  -8    0.29    0.04 
  -4  -1   8    0.29    0.07 
  -4  -1   8    0.24    0.06 
   3   1  -8    6.94    0.22 
   3   1  -8    7.05    0.23 
  -3  -1   8    7.09    0.23 
  -3  -1   8    6.87    0.23 
   2   1  -8   26.74    0.82 
   2   1  -8   26.23    0.82 
   2   1  -8   26.59    0.82 
  -2  -1   8   26.79    0.83 
  -2  -1   8   27.05    0.82 
   1   1  -8   42.36    1.28 
   1   1  -8   41.67    1.28 
  -1  -1   8   41.33    1.29 
   0   1  -8   25.56    0.80 
   0   1  -8   25.70    0.79 
   0  -1   8   26.30    0.81 
  -1   1  -8   15.68    0.49 
   1  -1   8   15.53    0.50 
  -2   1  -8    1.30    0.07 
   2  -1   8    1.27    0.09 
  -3   1  -8    0.47    0.06 
   3  -1   8    0.38    0.06 
  -4   1  -8    4.86    0.16 
  -4   1  -8    4.93    0.16 
  -4   1  -8    5.00    0.16 
   4  -1   8    4.62    0.16 
   4  -1   8    4.72    0.16 
  -5   1  -8    3.77    0.13 
  -5   1  -8    3.96    0.13 
   5  -1   8    4.09    0.13 
   5  -1   8    3.77    0.13 
   5  -1   8    3.67    0.13 
   8   0  -8    0.47    0.06 
   8   0  -8    0.50    0.04 
   8   0  -8    0.52    0.05 
  -8   0   8    0.48    0.06 
  -8   0   8    0.45    0.04 
  -8   0   8    0.53    0.07 
   7   0  -8    0.56    0.07 
   7   0  -8    0.66    0.05 
   7   0  -8    0.73    0.06 
  -7   0   8    0.55    0.08 
  -7   0   8    0.62    0.05 
  -7   0   8    0.66    0.07 
   6   0  -8   19.33    0.59 
   6   0  -8   18.72    0.58 
   6   0  -8   18.85    0.59 
  -6   0   8   19.16    0.58 
  -6   0   8   17.06    0.58 
  -6   0   8   17.60    0.60 
  -6   0   8   19.08    0.59 
   5   0  -8    7.79    0.26 
  -5   0   8    7.30    0.25 
  -5   0   8    7.98    0.26 
   4   0  -8    3.96    0.13 
   4   0  -8    3.91    0.14 
  -4   0   8    3.48    0.13 
  -4   0   8    3.73    0.14 
   3   0  -8    0.38    0.05 
   3   0  -8    0.37    0.04 
   3   0  -8    0.48    0.04 
  -3   0   8    0.44    0.04 
  -3   0   8    0.54    0.06 
   2   0  -8    0.69    0.04 
   2   0  -8    0.83    0.06 
   2   0  -8    0.75    0.04 
  -2   0   8    0.69    0.06 
  -2   0   8    0.78    0.05 
   1   0  -8   53.92    1.64 
   1   0  -8   54.16    1.64 
   1   0  -8   53.93    1.64 
  -1   0   8   50.61    1.64 
  -1   0   8   55.08    1.65 
   0   0  -8    0.74    0.05 
   0   0  -8    0.73    0.04 
   0   0  -8    0.62    0.04 
   0   0   8    0.82    0.05 
   0   0   8    0.86    0.07 
  -1   0  -8   12.84    0.39 
  -1   0  -8   12.59    0.40 
   1   0   8   12.90    0.39 
   1   0   8   12.02    0.41 
  -2   0  -8    9.69    0.30 
  -2   0  -8    9.32    0.30 
   2   0   8    9.54    0.32 
   2   0   8    8.88    0.30 
  -3   0  -8    7.06    0.23 
  -3   0  -8    6.86    0.23 
   3   0   8    7.30    0.23 
   3   0   8    6.87    0.23 
   3   0   8    6.90    0.23 
  -4   0  -8   51.86    1.56 
  -4   0  -8   51.20    1.56 
   4   0   8   51.10    1.56 
   4   0   8   49.59    1.56 
  -5   0  -8    0.94    0.05 
  -5   0  -8    0.92    0.05 
   5   0   8    0.85    0.05 
   5   0   8    0.92    0.06 
   5   0   8    0.89    0.06 
   8  -1  -8    0.35    0.04 
   8  -1  -8    0.42    0.05 
   8  -1  -8    0.32    0.05 
  -8   1   8    0.35    0.04 
  -8   1   8    0.33    0.07 
   7  -1  -8   20.96    0.66 
   7  -1  -8   21.73    0.66 
  -7   1   8   22.24    0.66 
  -7   1   8   20.55    0.65 
  -7   1   8   20.20    0.67 
   6  -1  -8    1.47    0.08 
  -6   1   8    1.31    0.10 
  -6   1   8    1.58    0.07 
  -6   1   8    1.49    0.09 
   5  -1  -8   13.66    0.44 
   5  -1  -8   14.39    0.45 
  -5   1   8   14.42    0.44 
  -5   1   8   14.03    0.46 
   4  -1  -8    0.87    0.05 
   4  -1  -8    0.91    0.06 
   4  -1  -8    0.96    0.07 
  -4   1   8    0.98    0.07 
  -4   1   8    0.92    0.06 
   3  -1  -8   22.87    0.70 
   3  -1  -8   22.68    0.70 
   3  -1  -8   22.42    0.71 
  -3   1   8   22.42    0.70 
  -3   1   8   23.09    0.71 
   2  -1  -8   48.85    1.58 
   2  -1  -8   51.90    1.57 
   2  -1  -8   51.12    1.57 
  -2   1   8   51.92    1.58 
  -2   1   8   52.37    1.57 
   1  -1  -8    2.33    0.10 
   1  -1  -8    2.59    0.09 
   1  -1  -8    2.72    0.09 
  -1   1   8    2.60    0.09 
  -1   1   8    2.67    0.11 
   0  -1  -8   16.32    0.53 
   0  -1  -8   16.95    0.52 
   0  -1  -8   16.58    0.52 
   0   1   8   16.55    0.52 
   0   1   8   18.09    0.54 
  -1  -1  -8   11.30    0.35 
  -1  -1  -8   11.33    0.34 
  -1  -1  -8   10.72    0.34 
   1   1   8   10.71    0.36 
   1   1   8   10.31    0.34 
  -2  -1  -8    3.76    0.13 
  -2  -1  -8    3.54    0.14 
   2   1   8    3.70    0.16 
   2   1   8    3.78    0.13 
  -3  -1  -8    0.16    0.04 
  -3  -1  -8    0.06    0.03 
   3   1   8    0.09    0.06 
   3   1   8    0.12    0.04 
   3   1   8    0.11    0.04 
  -4  -1  -8    1.38    0.07 
   4   1   8    1.31    0.07 
  -5  -1  -8   14.39    0.45 
  -5  -1  -8   14.91    0.45 
   5   1   8   14.52    0.45 
   5   1   8   14.25    0.45 
   8  -2  -8    3.86    0.13 
   8  -2  -8    3.78    0.12 
  -8   2   8    3.74    0.14 
   7  -2  -8    0.06    0.04 
  -7   2   8    0.12    0.05 
  -7   2   8    0.12    0.04 
  -7   2   8    0.06    0.03 
   6  -2  -8    0.46    0.07 
  -6   2   8    0.65    0.08 
  -6   2   8    0.48    0.09 
  -6   2   8    0.60    0.06 
   5  -2  -8    5.61    0.20 
   5  -2  -8    5.28    0.18 
  -5   2   8    5.28    0.19 
  -5   2   8    5.52    0.20 
  -5   2   8    5.43    0.18 
   4  -2  -8    3.91    0.15 
   4  -2  -8    4.09    0.14 
  -4   2   8    4.10    0.14 
  -4   2   8    4.00    0.15 
   3  -2  -8   70.59    2.11 
   3  -2  -8   67.97    2.10 
  -3   2   8   66.02    2.11 
  -3   2   8   70.79    2.12 
   2  -2  -8    0.36    0.04 
   2  -2  -8    0.44    0.04 
  -2   2   8    0.43    0.04 
  -2   2   8    0.45    0.07 
   1  -2  -8    0.57    0.04 
   1  -2  -8    0.66    0.04 
  -1   2   8    0.56    0.08 
  -1   2   8    0.64    0.05 
   0  -2  -8    1.22    0.07 
   0  -2  -8    1.28    0.06 
   0   2   8    1.16    0.09 
   0   2   8    1.44    0.06 
  -1  -2  -8    0.74    0.05 
  -1  -2  -8    0.83    0.06 
   1   2   8    0.65    0.05 
   1   2   8    0.74    0.09 
  -2  -2  -8   32.24    1.00 
  -2  -2  -8   33.61    1.00 
   2   2   8   33.41    1.00 
   2   2   8   30.76    1.00 
  -3  -2  -8    9.91    0.32 
   3   2   8   10.17    0.32 
   3   2   8    9.94    0.32 
  -4  -2  -8    7.40    0.24 
   4   2   8    7.32    0.24 
   4   2   8    7.59    0.24 
   8  -3  -8    0.46    0.05 
  -8   3   8    0.50    0.06 
  -8   3   8    0.51    0.07 
  -8   3   8    0.52    0.05 
   7  -3  -8    7.27    0.24 
  -7   3   8    6.83    0.24 
  -7   3   8    7.39    0.24 
  -7   3   8    7.48    0.24 
   6  -3  -8   16.59    0.52 
  -6   3   8   15.77    0.51 
  -6   3   8   16.96    0.52 
   5  -3  -8   21.40    0.66 
   5  -3  -8   21.20    0.68 
  -5   3   8   21.34    0.67 
  -5   3   8   21.89    0.67 
   4  -3  -8   70.57    2.12 
   4  -3  -8   68.41    2.13 
  -4   3   8   66.44    2.12 
  -4   3   8   71.57    2.13 
   3  -3  -8    4.30    0.15 
   3  -3  -8    4.49    0.15 
  -3   3   8    4.48    0.15 
   2  -3  -8   39.37    1.17 
   2  -3  -8   38.37    1.18 
   2  -3  -8   37.90    1.17 
  -2   3   8   36.73    1.17 
   1  -3  -8    0.49    0.05 
  -1   3   8    0.56    0.05 
   0  -3  -8    1.16    0.09 
   0  -3  -8    1.23    0.06 
   0   3   8    1.18    0.06 
  -1  -3  -8    2.23    0.10 
  -1  -3  -8    2.49    0.13 
  -1  -3  -8    2.35    0.10 
   1   3   8    2.28    0.10 
   1   3   8    2.36    0.10 
   1   3   8    2.37    0.11 
   1   3   8    2.03    0.11 
   2   3   8    0.97    0.07 
   2   3   8    1.01    0.07 
   2   3   8    0.92    0.08 
  -3  -3  -8    0.32    0.05 
   3   3   8    0.37    0.05 
   3   3   8    0.35    0.05 
  -4  -3  -8    1.41    0.07 
   4   3   8    1.30    0.06 
   4   3   8    1.37    0.06 
   4   3   8    1.42    0.06 
   8  -4  -8    2.48    0.10 
  -8   4   8    2.36    0.10 
  -8   4   8    2.65    0.10 
  -8   4   8    2.49    0.09 
   7  -4  -8    0.05    0.04 
  -7   4   8    0.05    0.03 
  -7   4   8    0.09    0.04 
  -6   4   8   22.91    0.72 
  -6   4   8   24.05    0.72 
  -6   4   8   22.96    0.72 
  -5   4   8   22.86    0.71 
  -5   4   8   22.54    0.71 
  -5   4   8   23.84    0.71 
  -5   4   8   22.68    0.71 
   4  -4  -8    1.53    0.11 
   4  -4  -8    1.86    0.08 
  -4   4   8    1.84    0.10 
  -4   4   8    2.09    0.16 
  -4   4   8    1.78    0.08 
   3  -4  -8   18.87    0.61 
   3  -4  -8   19.47    0.60 
  -3   4   8   19.07    0.60 
  -3   4   8   19.52    0.60 
   2  -4  -8    7.00    0.25 
   2  -4  -8    7.58    0.24 
   2  -4  -8    7.45    0.24 
  -2   4   8    7.35    0.24 
   1  -4  -8    0.24    0.08 
   1  -4  -8    0.23    0.05 
  -1   4   8    0.15    0.03 
   0  -4  -8    0.53    0.05 
   0   4   8    0.46    0.07 
   0   4   8    0.45    0.06 
   0   4   8    0.32    0.06 
  -1  -4  -8    6.06    0.20 
   1   4   8    6.20    0.20 
   1   4   8    6.15    0.20 
   1   4   8    5.63    0.20 
  -2  -4  -8    0.42    0.05 
   2   4   8    0.42    0.05 
   3   4   8    0.50    0.04 
   3   4   8    0.38    0.04 
  -7   5   8   15.15    0.46 
  -7   5   8   13.99    0.45 
  -7   5   8   14.79    0.46 
   6  -5  -8   17.46    0.56 
  -6   5   8   17.84    0.56 
  -6   5   8   18.58    0.56 
  -6   5   8   17.85    0.56 
   5  -5  -8   29.76    0.90 
  -5   5   8   29.47    0.90 
  -5   5   8   28.71    0.91 
  -5   5   8   29.73    0.91 
  -5   5   8   29.08    0.91 
   4  -5  -8   29.42    0.92 
  -4   5   8   30.62    0.93 
  -4   5   8   29.91    0.92 
  -4   5   8   29.96    0.92 
   3  -5  -8   23.39    0.71 
  -3   5   8   23.71    0.71 
  -3   5   8   22.02    0.71 
  -3   5   8   22.84    0.72 
   2  -5  -8   14.14    0.44 
  -2   5   8   13.15    0.45 
  -2   5   8   14.72    0.44 
  -2   5   8   14.63    0.45 
   1  -5  -8   10.88    0.34 
  -1   5   8   10.40    0.34 
  -1   5   8   11.18    0.34 
  -1   5   8   10.45    0.34 
   0  -5  -8    6.18    0.20 
   0   5   8    6.36    0.21 
   0   5   8    6.15    0.20 
   0   5   8    6.13    0.20 
  -1  -5  -8    1.17    0.06 
   1   5   8    1.38    0.07 
   1   5   8    1.59    0.07 
   1   5   8    1.39    0.08 
  -2  -5  -8    8.14    0.26 
   2   5   8    8.56    0.26 
   2   5   8    8.37    0.26 
  -3  -5  -8    3.28    0.11 
   3   5   8    3.49    0.11 
   3   5   8    3.35    0.11 
   3   5   8    3.31    0.11 
   7  -6  -8    0.14    0.02 
  -7   6   8    0.15    0.04 
  -7   6   8    0.19    0.04 
  -7   6   8    0.13    0.02 
  -7   6   8    0.13    0.02 
   6  -6  -8    4.06    0.15 
  -6   6   8    4.40    0.14 
  -6   6   8    4.73    0.16 
  -6   6   8    4.49    0.15 
  -6   6   8    4.45    0.15 
   5  -6  -8    8.68    0.27 
  -5   6   8    8.75    0.28 
  -5   6   8    8.89    0.27 
  -5   6   8    8.46    0.28 
   4  -6  -8    3.11    0.11 
  -4   6   8    3.00    0.11 
  -4   6   8    3.29    0.11 
  -4   6   8    3.18    0.12 
  -4   6   8    3.00    0.12 
   3  -6  -8    0.35    0.05 
  -3   6   8    0.40    0.05 
  -3   6   8    0.42    0.06 
  -3   6   8    0.31    0.06 
  -3   6   8    0.36    0.06 
   2  -6  -8    0.28    0.04 
  -2   6   8    0.39    0.06 
  -2   6   8    0.27    0.04 
  -2   6   8    0.22    0.05 
   1  -6  -8    0.44    0.05 
  -1   6   8    0.51    0.05 
  -1   6   8    0.45    0.06 
  -1   6   8    0.50    0.05 
  -1   6   8    0.49    0.06 
   0  -6  -8    2.57    0.09 
   0   6   8    2.66    0.10 
   0   6   8    2.59    0.10 
   0   6   8    2.58    0.10 
   0   6   8    2.65    0.10 
  -1  -6  -8    0.65    0.04 
   1   6   8    0.68    0.05 
   1   6   8    0.75    0.05 
   1   6   8    0.72    0.05 
  -2  -6  -8    3.71    0.12 
   2   6   8    3.61    0.12 
   2   6   8    3.65    0.12 
   2   6   8    3.64    0.12 
   6  -7  -8    2.79    0.10 
  -6   7   8    2.79    0.09 
  -6   7   8    2.83    0.10 
  -6   7   8    2.84    0.10 
   5  -7  -8    1.39    0.06 
  -5   7   8    1.42    0.06 
  -5   7   8    1.39    0.07 
  -5   7   8    1.35    0.05 
  -5   7   8    1.35    0.06 
   4  -7  -8   12.73    0.39 
  -4   7   8   12.55    0.39 
  -4   7   8   12.05    0.39 
  -4   7   8   12.58    0.39 
  -4   7   8   12.88    0.39 
   3  -7  -8   13.16    0.40 
  -3   7   8   12.44    0.40 
  -3   7   8   12.31    0.40 
  -3   7   8   13.37    0.41 
  -3   7   8   13.24    0.40 
   2  -7  -8    5.82    0.18 
  -2   7   8    5.43    0.18 
  -2   7   8    5.60    0.18 
  -2   7   8    5.58    0.18 
   1  -7  -8    6.28    0.20 
  -1   7   8    6.08    0.20 
  -1   7   8    6.23    0.20 
  -1   7   8    6.13    0.20 
  -1   7   8    6.20    0.20 
   0  -7  -8    0.44    0.04 
   0   7   8    0.42    0.04 
   0   7   8    0.41    0.04 
   0   7   8    0.38    0.04 
   0   7   8    0.38    0.05 
   4  -8  -8    4.79    0.15 
  -4   8   8    4.68    0.16 
  -4   8   8    4.70    0.15 
  -4   8   8    4.72    0.16 
   3  -8  -8    1.16    0.05 
  -3   8   8    1.22    0.06 
   2  -8  -8    1.02    0.05 
  -2   8   8    0.90    0.06 
  -2   8   8    1.13    0.05 
   0  10  -9    0.31    0.05 
  -1  10  -9    0.02    0.03 
  -1  10  -9    0.00    0.02 
  -2  10  -9    0.43    0.04 
  -2  10  -9    0.42    0.03 
  -2  10  -9    0.44    0.04 
   4   9  -9    3.86    0.14 
   3   9  -9    0.25    0.04 
   2   9  -9   10.71    0.33 
   2   9  -9   10.49    0.33 
   2   9  -9   10.15    0.36 
   1   9  -9   35.06    1.05 
   1   9  -9   32.21    1.06 
   1   9  -9   35.04    1.05 
   0   9  -9    1.47    0.06 
   0   9  -9    1.52    0.07 
  -1   9  -9   19.38    0.59 
  -1   9  -9   18.69    0.59 
  -2   9  -9    0.17    0.03 
  -2   9  -9    0.19    0.04 
  -2   9  -9    0.17    0.04 
  -2   9  -9    0.21    0.03 
  -3   9  -9   11.83    0.37 
  -3   9  -9   12.26    0.37 
  -3   9  -9   11.88    0.37 
  -3   9  -9   11.97    0.38 
  -3   9  -9   12.22    0.38 
   5   8  -9   22.29    0.68 
   5   8  -9   22.31    0.69 
   4   8  -9    1.53    0.08 
   4   8  -9    1.32    0.07 
   3   8  -9    2.33    0.10 
   3   8  -9    2.28    0.13 
   3   8  -9    2.32    0.10 
  -3  -8   9    2.35    0.09 
   2   8  -9    0.22    0.04 
   2   8  -9    0.21    0.07 
   1   8  -9    0.50    0.07 
   1   8  -9    0.42    0.06 
   1   8  -9    0.49    0.10 
   0   8  -9    0.12    0.05 
   0   8  -9    0.07    0.05 
   0   8  -9    0.08    0.03 
   0   8  -9    0.10    0.04 
   0  -8   9    0.09    0.04 
  -1   8  -9    2.55    0.11 
  -1   8  -9    2.43    0.09 
  -1   8  -9    2.54    0.11 
  -1   8  -9    2.56    0.10 
  -1   8  -9    2.46    0.10 
  -1   8  -9    2.41    0.11 
   1  -8   9    2.40    0.10 
  -2   8  -9    7.16    0.23 
  -2   8  -9    7.08    0.22 
  -2   8  -9    7.23    0.23 
  -2   8  -9    6.80    0.23 
  -2   8  -9    7.29    0.23 
  -2   8  -9    7.03    0.23 
   2  -8   9    6.91    0.23 
  -3   8  -9    2.29    0.08 
  -3   8  -9    2.46    0.10 
  -3   8  -9    2.31    0.09 
  -3   8  -9    2.24    0.09 
  -3   8  -9    2.32    0.09 
  -3   8  -9    2.26    0.09 
   3  -8   9    2.15    0.09 
  -4   8  -9    3.88    0.13 
  -4   8  -9    3.81    0.13 
  -4   8  -9    3.92    0.13 
  -4   8  -9    3.87    0.13 
  -4   8  -9    4.09    0.13 
   4  -8   9    3.82    0.13 
   4  -8   9    3.63    0.13 
   6   7  -9    0.25    0.04 
   6   7  -9    0.20    0.04 
  -6  -7   9    0.17    0.03 
   5   7  -9    7.09    0.23 
   5   7  -9    7.21    0.23 
   5   7  -9    6.90    0.23 
   4   7  -9    0.40    0.06 
   4   7  -9    0.36    0.08 
   4   7  -9    0.42    0.06 
   3   7  -9   23.82    0.72 
   3   7  -9   23.36    0.73 
  -3  -7   9   22.92    0.72 
   2   7  -9    0.08    0.04 
   2   7  -9    0.06    0.05 
   2   7  -9    0.05    0.05 
   2   7  -9    0.08    0.07 
  -2  -7   9    0.12    0.04 
   1   7  -9   43.53    1.38 
   1   7  -9   43.84    1.38 
   1   7  -9   45.38    1.38 
   1   7  -9   44.59    1.38 
   1   7  -9   44.68    1.38 
   1   7  -9   45.67    1.39 
  -1  -7   9   46.55    1.37 
   0   7  -9    6.22    0.20 
   0   7  -9    5.82    0.20 
   0   7  -9    6.09    0.21 
   0   7  -9    5.97    0.21 
   0   7  -9    6.05    0.21 
   0   7  -9    6.00    0.21 
   0  -7   9    6.28    0.20 
  -1   7  -9   11.01    0.35 
  -1   7  -9   10.23    0.34 
  -1   7  -9   11.02    0.35 
  -1   7  -9   10.26    0.34 
  -1   7  -9   11.02    0.34 
  -1   7  -9   10.78    0.34 
   1  -7   9   10.96    0.34 
  -2   7  -9    3.84    0.12 
  -2   7  -9    3.52    0.14 
  -2   7  -9    3.74    0.13 
  -2   7  -9    3.58    0.14 
  -2   7  -9    3.30    0.14 
  -2   7  -9    3.67    0.13 
  -2   7  -9    3.65    0.13 
   2  -7   9    3.84    0.13 
  -3   7  -9    5.77    0.20 
  -3   7  -9    6.24    0.20 
  -3   7  -9    6.02    0.20 
  -3   7  -9    5.94    0.20 
  -3   7  -9    6.11    0.19 
  -3   7  -9    6.06    0.19 
  -3   7  -9    5.53    0.19 
   3  -7   9    5.95    0.20 
   3  -7   9    5.64    0.19 
  -4   7  -9    0.49    0.04 
  -4   7  -9    0.42    0.05 
  -4   7  -9    0.38    0.05 
  -4   7  -9    0.42    0.05 
  -4   7  -9    0.45    0.04 
   4  -7   9    0.49    0.05 
   4  -7   9    0.50    0.05 
   6   6  -9    1.61    0.07 
   6   6  -9    1.60    0.08 
   6   6  -9    1.84    0.09 
  -6  -6   9    1.77    0.08 
  -6  -6   9    1.76    0.07 
   5   6  -9    0.45    0.05 
   5   6  -9    0.46    0.08 
   5   6  -9    0.44    0.06 
  -5  -6   9    0.41    0.05 
   4   6  -9   19.66    0.62 
   4   6  -9   20.40    0.62 
  -4  -6   9   19.75    0.62 
   3   6  -9    0.88    0.08 
   3   6  -9    0.76    0.09 
   2   6  -9    0.12    0.05 
   2   6  -9    0.15    0.07 
   2   6  -9    0.12    0.04 
   2   6  -9    0.03    0.04 
  -2  -6   9    0.11    0.07 
   1   6  -9    8.18    0.27 
   1   6  -9    8.10    0.27 
   1   6  -9    8.12    0.28 
   1   6  -9    8.26    0.27 
  -1  -6   9    8.35    0.28 
  -1  -6   9    8.35    0.26 
   0   6  -9    7.78    0.26 
   0   6  -9    7.86    0.27 
   0   6  -9    7.86    0.26 
   0   6  -9    7.87    0.26 
   0  -6   9    7.86    0.25 
  -1   6  -9    2.42    0.11 
  -1   6  -9    2.22    0.11 
  -1   6  -9    2.38    0.10 
  -1   6  -9    2.68    0.11 
  -1   6  -9    2.31    0.11 
  -1   6  -9    2.66    0.11 
  -1   6  -9    2.46    0.09 
   1  -6   9    2.50    0.10 
  -2   6  -9   10.23    0.31 
  -2   6  -9    9.54    0.31 
  -2   6  -9    9.77    0.31 
  -2   6  -9    9.62    0.31 
  -2   6  -9    9.40    0.30 
  -2   6  -9    9.41    0.31 
  -2   6  -9    9.40    0.31 
   2  -6   9    9.88    0.31 
  -3   6  -9    2.16    0.10 
  -3   6  -9    2.08    0.10 
  -3   6  -9    2.09    0.09 
  -3   6  -9    2.19    0.09 
  -3   6  -9    2.11    0.10 
  -3   6  -9    2.15    0.08 
   3  -6   9    2.10    0.10 
   3  -6   9    2.07    0.09 
  -4   6  -9    6.50    0.21 
  -4   6  -9    6.55    0.21 
  -4   6  -9    6.19    0.20 
  -4   6  -9    6.01    0.20 
  -4   6  -9    6.25    0.20 
  -4   6  -9    6.01    0.21 
   4  -6   9    6.30    0.20 
   4  -6   9    6.30    0.20 
  -5   6  -9    7.00    0.21 
  -5   6  -9    6.60    0.22 
  -5   6  -9    6.96    0.22 
   5  -6   9    6.81    0.22 
   5  -6   9    6.79    0.22 
   7   5  -9    0.50    0.04 
   7   5  -9    0.45    0.05 
  -7  -5   9    0.57    0.06 
  -7  -5   9    0.46    0.05 
   6   5  -9    0.65    0.05 
   6   5  -9    0.57    0.07 
   5   5  -9    0.99    0.05 
   5   5  -9    0.83    0.09 
   5   5  -9    0.76    0.08 
  -5  -5   9    0.75    0.08 
  -5  -5   9    0.80    0.06 
   4   5  -9   26.50    0.84 
   4   5  -9   26.04    0.84 
  -4  -5   9   28.66    0.83 
   3   5  -9    1.09    0.08 
   3   5  -9    1.05    0.10 
   3   5  -9    1.03    0.09 
   3   5  -9    1.09    0.07 
  -3  -5   9    0.88    0.10 
  -3  -5   9    1.12    0.07 
   2   5  -9   11.69    0.38 
   2   5  -9   12.02    0.38 
   2   5  -9   11.74    0.39 
   2   5  -9   11.50    0.37 
   2   5  -9   11.87    0.37 
  -2  -5   9   11.87    0.37 
  -2  -5   9   11.73    0.38 
   1   5  -9    9.64    0.34 
   1   5  -9   10.20    0.33 
   1   5  -9   10.45    0.33 
   1   5  -9   10.80    0.33 
  -1  -5   9    9.94    0.32 
  -1  -5   9   10.82    0.32 
   0   5  -9    3.76    0.14 
   0   5  -9    3.69    0.15 
   0   5  -9    3.81    0.14 
   0   5  -9    3.70    0.14 
   0  -5   9    3.95    0.13 
  -1   5  -9   33.45    1.06 
  -1   5  -9   35.03    1.06 
  -1   5  -9   33.52    1.07 
  -1   5  -9   34.25    1.06 
   1  -5   9   35.62    1.06 
  -2   5  -9    9.98    0.33 
  -2   5  -9   10.49    0.33 
  -2   5  -9   10.01    0.32 
  -2   5  -9   10.15    0.33 
  -2   5  -9   10.31    0.32 
  -2   5  -9    9.57    0.32 
  -2   5  -9   10.14    0.32 
   2  -5   9   10.66    0.32 
   2  -5   9   10.32    0.32 
  -3   5  -9    1.98    0.08 
  -3   5  -9    1.89    0.10 
  -3   5  -9    1.93    0.09 
  -3   5  -9    2.06    0.09 
  -3   5  -9    1.81    0.10 
   3  -5   9    2.09    0.10 
   3  -5   9    2.02    0.08 
   3  -5   9    2.06    0.09 
  -4   5  -9   11.41    0.38 
  -4   5  -9   12.32    0.38 
  -4   5  -9   12.29    0.38 
  -4   5  -9   12.34    0.38 
   4  -5   9   12.42    0.38 
   4  -5   9   11.71    0.38 
   4  -5   9   12.17    0.38 
  -5   5  -9    0.22    0.04 
  -5   5  -9    0.25    0.04 
  -5   5  -9    0.31    0.05 
   5  -5   9    0.26    0.04 
   5  -5   9    0.25    0.05 
   5  -5   9    0.24    0.04 
   7   4  -9    2.25    0.08 
   7   4  -9    2.30    0.09 
  -7  -4   9    2.29    0.09 
  -7  -4   9    2.11    0.08 
  -7  -4   9    2.22    0.09 
   6   4  -9    9.69    0.30 
   6   4  -9    9.26    0.30 
   5   4  -9    1.43    0.07 
   5   4  -9    1.44    0.09 
  -5  -4   9    1.39    0.08 
  -5  -4   9    1.39    0.07 
   4   4  -9   51.25    1.63 
   4   4  -9   52.77    1.64 
   4   4  -9   53.71    1.63 
   4   4  -9   52.24    1.64 
  -4  -4   9   54.52    1.64 
  -4  -4   9   54.26    1.63 
   3   4  -9   13.18    0.41 
   3   4  -9   12.41    0.42 
   3   4  -9   12.87    0.41 
   3   4  -9   12.48    0.42 
  -3  -4   9   12.83    0.40 
  -3  -4   9   13.33    0.40 
  -3  -4   9   13.07    0.42 
   2   4  -9    0.08    0.04 
   2   4  -9    0.14    0.04 
   2   4  -9    0.11    0.04 
   2   4  -9    0.11    0.03 
   2   4  -9    0.17    0.06 
  -2  -4   9    0.08    0.03 
  -2  -4   9    0.12    0.06 
  -2  -4   9    0.15    0.03 
   1   4  -9    0.19    0.04 
   1   4  -9    0.17    0.04 
   1   4  -9    0.19    0.04 
  -1  -4   9    0.28    0.05 
  -1  -4   9    0.23    0.05 
   0   4  -9    0.73    0.08 
   0   4  -9    0.65    0.06 
   0   4  -9    0.66    0.06 
   0   4  -9    0.66    0.07 
   0  -4   9    0.61    0.06 
  -1   4  -9    2.68    0.11 
  -1   4  -9    2.67    0.11 
  -1   4  -9    2.58    0.13 
   1  -4   9    2.69    0.10 
  -2   4  -9   19.66    0.63 
  -2   4  -9   19.58    0.63 
  -2   4  -9   20.86    0.62 
  -2   4  -9   20.57    0.63 
  -2   4  -9   19.75    0.62 
   2  -4   9   19.87    0.62 
   2  -4   9   19.60    0.62 
  -3   4  -9    1.47    0.09 
  -3   4  -9    1.53    0.07 
  -3   4  -9    1.51    0.07 
   3  -4   9    1.48    0.08 
   3  -4   9    1.54    0.08 
  -4   4  -9    2.76    0.11 
  -4   4  -9    2.87    0.11 
  -4   4  -9    2.97    0.11 
   4  -4   9    3.07    0.11 
   4  -4   9    2.87    0.11 
   4  -4   9    3.02    0.11 
   4  -4   9    3.00    0.11 
  -5   4  -9    2.55    0.09 
  -5   4  -9    2.62    0.09 
  -5   4  -9    2.68    0.10 
   5  -4   9    2.60    0.09 
   5  -4   9    2.60    0.10 
   5  -4   9    2.59    0.09 
   8   3  -9    1.05    0.06 
   8   3  -9    1.01    0.05 
  -8  -3   9    0.98    0.05 
  -8  -3   9    1.01    0.06 
   7   3  -9    1.04    0.07 
   7   3  -9    1.09    0.05 
  -7  -3   9    1.08    0.06 
  -7  -3   9    1.16    0.08 
  -7  -3   9    1.14    0.06 
  -7  -3   9    1.17    0.07 
   6   3  -9    1.81    0.07 
   6   3  -9    1.83    0.09 
  -6  -3   9    1.86    0.08 
  -6  -3   9    1.92    0.09 
  -6  -3   9    1.81    0.10 
   5   3  -9    0.52    0.05 
   5   3  -9    0.57    0.08 
  -5  -3   9    0.57    0.06 
  -5  -3   9    0.56    0.07 
  -5  -3   9    0.61    0.06 
   4   3  -9   22.04    0.68 
   4   3  -9   21.22    0.68 
   4   3  -9   21.10    0.66 
  -4  -3   9   20.54    0.67 
  -4  -3   9   22.17    0.66 
   3   3  -9    0.10    0.06 
   3   3  -9    0.16    0.04 
   3   3  -9    0.12    0.05 
   3   3  -9    0.16    0.04 
  -3  -3   9    0.10    0.04 
  -3  -3   9    0.19    0.06 
  -3  -3   9    0.12    0.03 
   2   3  -9    2.04    0.09 
   2   3  -9    2.06    0.08 
   2   3  -9    2.10    0.09 
   2   3  -9    2.03    0.11 
  -2  -3   9    2.12    0.11 
  -2  -3   9    2.12    0.09 
  -2  -3   9    2.00    0.08 
   1   3  -9    4.64    0.16 
   1   3  -9    4.83    0.16 
   1   3  -9    4.31    0.15 
   1   3  -9    4.60    0.16 
  -1  -3   9    4.45    0.15 
  -1  -3   9    4.50    0.15 
   0   3  -9   34.98    1.05 
   0   3  -9   33.47    1.05 
   0  -3   9   34.30    1.05 
   0  -3   9   33.87    1.05 
  -1   3  -9    1.17    0.08 
  -1   3  -9    1.10    0.07 
   1  -3   9    1.03    0.09 
   1  -3   9    1.27    0.07 
  -2   3  -9   70.32    2.14 
   2  -3   9   69.50    2.15 
  -3   3  -9    1.13    0.06 
  -3   3  -9    0.97    0.08 
  -3   3  -9    1.10    0.07 
   3  -3   9    1.01    0.07 
   3  -3   9    1.00    0.07 
   3  -3   9    1.12    0.07 
   3  -3   9    1.02    0.07 
  -4   3  -9   16.27    0.50 
  -4   3  -9   16.44    0.50 
   4  -3   9   15.68    0.51 
   4  -3   9   16.53    0.50 
   4  -3   9   16.30    0.50 
  -5   3  -9    2.12    0.08 
  -5   3  -9    1.92    0.08 
   5  -3   9    2.04    0.08 
   5  -3   9    2.18    0.08 
   8   2  -9    4.13    0.13 
   8   2  -9    4.09    0.14 
  -8  -2   9    4.14    0.15 
  -8  -2   9    4.11    0.14 
  -8  -2   9    4.10    0.13 
   7   2  -9   24.65    0.74 
   7   2  -9   23.81    0.74 
  -7  -2   9   24.44    0.75 
  -7  -2   9   23.36    0.75 
  -7  -2   9   24.31    0.74 
   6   2  -9    0.39    0.07 
   6   2  -9    0.38    0.05 
  -6  -2   9    0.37    0.05 
  -6  -2   9    0.40    0.05 
   5   2  -9   14.36    0.46 
  -5  -2   9   14.84    0.46 
  -5  -2   9   13.15    0.45 
   4   2  -9    0.79    0.08 
   4   2  -9    0.74    0.05 
  -4  -2   9    0.81    0.09 
  -4  -2   9    0.77    0.08 
  -4  -2   9    0.88    0.08 
   3   2  -9    6.85    0.22 
   3   2  -9    6.59    0.23 
   3   2  -9    7.06    0.23 
  -3  -2   9    6.93    0.23 
  -3  -2   9    6.74    0.23 
  -3  -2   9    6.82    0.22 
   2   2  -9    0.66    0.06 
   2   2  -9    0.69    0.06 
   2   2  -9    0.68    0.04 
  -2  -2   9    0.57    0.07 
  -2  -2   9    0.50    0.08 
  -2  -2   9    0.57    0.06 
   1   2  -9    4.03    0.15 
   1   2  -9    4.31    0.14 
  -1  -2   9    4.60    0.15 
  -1  -2   9    4.48    0.16 
   0   2  -9    6.64    0.22 
   0  -2   9    6.91    0.23 
   0  -2   9    6.64    0.23 
  -1   2  -9   17.98    0.56 
   1  -2   9   17.98    0.57 
  -2   2  -9    2.47    0.11 
   2  -2   9    2.79    0.13 
  -3   2  -9    0.53    0.05 
  -3   2  -9    0.50    0.06 
  -3   2  -9    0.55    0.06 
   3  -2   9    0.58    0.07 
   3  -2   9    0.45    0.06 
   3  -2   9    0.56    0.06 
  -4   2  -9    0.20    0.04 
  -4   2  -9    0.25    0.05 
  -4   2  -9    0.22    0.03 
   4  -2   9    0.29    0.05 
   4  -2   9    0.27    0.06 
   4  -2   9    0.21    0.05 
  -5   2  -9    2.04    0.07 
  -5   2  -9    1.89    0.07 
  -5   2  -9    1.80    0.07 
   5  -2   9    1.97    0.07 
   5  -2   9    1.92    0.08 
   8   1  -9    0.06    0.03 
   8   1  -9    0.08    0.02 
   8   1  -9    0.06    0.02 
  -8  -1   9    0.04    0.04 
  -8  -1   9    0.04    0.02 
  -8  -1   9    0.08    0.04 
   7   1  -9    6.78    0.22 
   7   1  -9    6.72    0.23 
   7   1  -9    6.66    0.22 
  -7  -1   9    7.44    0.22 
  -7  -1   9    7.04    0.23 
  -7  -1   9    6.77    0.23 
   6   1  -9    1.93    0.09 
   6   1  -9    2.00    0.10 
   6   1  -9    1.91    0.08 
  -6  -1   9    1.88    0.10 
  -6  -1   9    1.92    0.08 
   5   1  -9    0.30    0.08 
  -5  -1   9    0.50    0.11 
  -5  -1   9    0.37    0.08 
   4   1  -9   27.74    0.85 
   4   1  -9   26.79    0.84 
  -4  -1   9   27.08    0.85 
   3   1  -9   20.61    0.63 
   3   1  -9   20.06    0.64 
  -3  -1   9   20.48    0.64 
   2   1  -9    4.06    0.13 
   2   1  -9    3.96    0.14 
  -2  -1   9    4.08    0.15 
   1   1  -9    0.68    0.05 
   1   1  -9    0.84    0.06 
  -1  -1   9    0.75    0.07 
   0   1  -9   55.79    1.71 
   0   1  -9   56.30    1.71 
   0  -1   9   55.22    1.72 
  -1   1  -9   34.59    1.05 
   1  -1   9   33.83    1.07 
  -2   1  -9    1.06    0.08 
  -2   1  -9    1.14    0.08 
  -2   1  -9    1.27    0.07 
  -2   1  -9    1.16    0.07 
   2  -1   9    1.32    0.09 
   2  -1   9    1.23    0.08 
   2  -1   9    1.14    0.10 
   2  -1   9    1.18    0.07 
  -3   1  -9    0.86    0.07 
  -3   1  -9    0.94    0.06 
  -3   1  -9    0.96    0.06 
   3  -1   9    0.97    0.07 
   3  -1   9    1.00    0.07 
   3  -1   9    0.89    0.06 
  -4   1  -9    6.19    0.20 
  -4   1  -9    6.58    0.20 
  -4   1  -9    6.45    0.20 
   4  -1   9    6.08    0.20 
   4  -1   9    5.85    0.20 
   4  -1   9    6.17    0.20 
  -5   1  -9    9.62    0.29 
  -5   1  -9    9.09    0.29 
   5  -1   9    9.15    0.29 
   5  -1   9    9.04    0.29 
   8   0  -9    0.44    0.04 
   8   0  -9    0.42    0.04 
   8   0  -9    0.45    0.05 
  -8   0   9    0.40    0.04 
  -8   0   9    0.43    0.06 
   7   0  -9   24.34    0.74 
   7   0  -9   23.53    0.74 
   7   0  -9   24.55    0.74 
  -7   0   9   24.01    0.74 
  -7   0   9   23.69    0.74 
   6   0  -9    1.87    0.09 
  -6   0   9    1.64    0.10 
  -6   0   9    1.87    0.08 
  -6   0   9    1.67    0.10 
   5   0  -9   17.50    0.56 
  -5   0   9   17.65    0.56 
   4   0  -9    0.72    0.05 
   4   0  -9    0.60    0.07 
  -4   0   9    0.80    0.08 
   3   0  -9   66.88    2.08 
   3   0  -9   68.32    2.07 
  -3   0   9   68.21    2.09 
   2   0  -9    0.18    0.03 
  -2   0   9    0.15    0.04 
  -2   0   9    0.15    0.05 
   1   0  -9   27.17    0.83 
   1   0  -9   26.30    0.83 
  -1   0   9   27.40    0.84 
  -1   0   9   26.86    0.83 
   0   0  -9   41.35    1.27 
   0   0  -9   40.75    1.27 
   0   0   9   43.01    1.28 
   0   0   9   40.37    1.27 
  -1   0  -9    1.53    0.08 
   1   0   9    1.53    0.07 
   1   0   9    1.47    0.10 
  -2   0  -9    7.48    0.24 
  -2   0  -9    7.49    0.24 
   2   0   9    6.87    0.24 
   2   0   9    7.29    0.24 
   2   0   9    7.54    0.24 
  -3   0  -9    3.47    0.12 
  -3   0  -9    3.45    0.13 
  -3   0  -9    3.51    0.13 
   3   0   9    3.57    0.13 
   3   0   9    3.76    0.13 
   3   0   9    3.60    0.13 
  -4   0  -9    4.79    0.16 
  -4   0  -9    4.87    0.16 
  -4   0  -9    4.78    0.16 
   4   0   9    4.79    0.16 
   4   0   9    5.08    0.16 
   8  -1  -9    0.06    0.02 
   8  -1  -9    0.07    0.03 
  -8   1   9    0.06    0.04 
  -8   1   9    0.05    0.02 
   7  -1  -9    7.68    0.24 
  -7   1   9    7.21    0.24 
  -7   1   9    7.35    0.24 
  -7   1   9    7.26    0.25 
   6  -1  -9    0.87    0.07 
  -6   1   9    0.97    0.08 
  -6   1   9    0.91    0.06 
  -6   1   9    0.84    0.09 
   5  -1  -9    3.46    0.14 
   5  -1  -9    3.00    0.13 
   5  -1  -9    3.06    0.15 
  -5   1   9    3.14    0.12 
  -5   1   9    2.98    0.17 
  -5   1   9    2.96    0.12 
  -5   1   9    2.86    0.14 
   4  -1  -9    3.32    0.14 
   4  -1  -9    2.92    0.13 
   4  -1  -9    3.45    0.12 
  -4   1   9    3.44    0.14 
  -4   1   9    3.43    0.12 
   3  -1  -9    2.39    0.09 
   3  -1  -9    2.18    0.09 
   3  -1  -9    2.06    0.11 
  -3   1   9    2.64    0.10 
  -3   1   9    2.38    0.11 
   2  -1  -9   35.39    1.06 
   2  -1  -9   35.07    1.06 
  -2   1   9   33.51    1.06 
  -2   1   9   34.03    1.07 
   1  -1  -9   56.83    1.80 
   1  -1  -9   61.07    1.80 
  -1   1   9   59.85    1.80 
  -1   1   9   57.29    1.81 
   0  -1  -9    7.34    0.23 
   0  -1  -9    7.18    0.23 
   0  -1  -9    7.28    0.23 
   0   1   9    6.69    0.25 
   0   1   9    6.88    0.23 
  -1  -1  -9    0.24    0.04 
  -1  -1  -9    0.32    0.06 
   1   1   9    0.32    0.05 
  -2  -1  -9    2.07    0.10 
  -2  -1  -9    2.19    0.09 
   2   1   9    2.10    0.09 
   2   1   9    2.02    0.09 
   2   1   9    2.28    0.10 
  -3  -1  -9    0.62    0.06 
   3   1   9    0.55    0.06 
   3   1   9    0.65    0.07 
   3   1   9    0.62    0.05 
  -4  -1  -9    2.87    0.10 
  -4  -1  -9    2.65    0.10 
   4   1   9    2.86    0.10 
   8  -2  -9    3.97    0.13 
   8  -2  -9    3.97    0.13 
  -8   2   9    4.07    0.14 
  -8   2   9    3.87    0.14 
   7  -2  -9    0.56    0.06 
  -7   2   9    0.54    0.07 
  -7   2   9    0.59    0.07 
  -7   2   9    0.61    0.05 
   6  -2  -9    0.91    0.07 
  -6   2   9    0.92    0.08 
  -6   2   9    0.89    0.08 
  -6   2   9    0.79    0.06 
   5  -2  -9    2.64    0.10 
   5  -2  -9    2.44    0.10 
  -5   2   9    2.17    0.10 
  -5   2   9    2.36    0.12 
   4  -2  -9   16.66    0.52 
   4  -2  -9   16.60    0.53 
  -4   2   9   16.44    0.53 
  -4   2   9   16.92    0.52 
   3  -2  -9   15.45    0.50 
   3  -2  -9   15.96    0.49 
   3  -2  -9   15.48    0.48 
  -3   2   9   15.46    0.49 
  -3   2   9   15.53    0.50 
   2  -2  -9   98.89    2.93 
   2  -2  -9   94.20    2.93 
  -2   2   9   91.26    2.93 
  -2   2   9   99.02    2.94 
   1  -2  -9    4.94    0.16 
   1  -2  -9    5.01    0.16 
  -1   2   9    4.56    0.19 
  -1   2   9    4.61    0.16 
   0  -2  -9   36.39    1.12 
   0  -2  -9   36.97    1.12 
   0  -2  -9   36.81    1.12 
   0   2   9   36.43    1.13 
   0   2   9   35.04    1.12 
  -1  -2  -9    1.34    0.08 
   1   2   9    1.44    0.08 
   1   2   9    1.42    0.08 
  -2  -2  -9   11.53    0.36 
   2   2   9   10.55    0.36 
   2   2   9   11.60    0.35 
  -3  -2  -9    1.62    0.08 
   3   2   9    1.63    0.08 
   3   2   9    1.62    0.07 
  -4  -2  -9    3.11    0.11 
   4   2   9    3.23    0.11 
   4   2   9    3.05    0.11 
   8  -3  -9    7.95    0.25 
   8  -3  -9    8.33    0.25 
  -8   3   9    8.24    0.26 
  -8   3   9    7.47    0.25 
  -8   3   9    8.29    0.26 
   7  -3  -9    0.36    0.05 
  -7   3   9    0.38    0.07 
  -7   3   9    0.46    0.09 
  -7   3   9    0.47    0.06 
   6  -3  -9    3.74    0.14 
  -6   3   9    3.64    0.14 
   5  -3  -9   19.61    0.60 
  -5   3   9   19.22    0.60 
  -5   3   9   19.13    0.60 
   4  -3  -9   10.43    0.32 
  -4   3   9   10.31    0.33 
  -4   3   9   10.11    0.33 
   3  -3  -9   13.04    0.42 
   3  -3  -9   13.00    0.40 
   3  -3  -9   13.09    0.40 
  -3   3   9   12.19    0.40 
   2  -3  -9    0.66    0.06 
   2  -3  -9    0.67    0.05 
  -2   3   9    0.74    0.06 
   1  -3  -9   38.47    1.16 
  -1   3   9   39.45    1.16 
  -1   3   9   36.73    1.16 
  -1   3   9   35.97    1.16 
   0  -3  -9    1.84    0.10 
   0   3   9    1.96    0.09 
   0   3   9    2.03    0.09 
  -1  -3  -9    4.46    0.16 
   1   3   9    4.69    0.16 
   1   3   9    4.75    0.16 
   1   3   9    4.74    0.16 
  -2  -3  -9    0.77    0.06 
   2   3   9    0.66    0.06 
   2   3   9    0.66    0.06 
   2   3   9    0.71    0.06 
  -3  -3  -9    4.64    0.15 
   3   3   9    4.37    0.15 
   3   3   9    4.33    0.15 
   7  -4  -9    3.47    0.12 
  -7   4   9    3.48    0.12 
  -7   4   9    3.47    0.13 
   6  -4  -9    1.05    0.07 
  -6   4   9    1.25    0.07 
  -6   4   9    1.31    0.08 
  -6   4   9    1.14    0.08 
   5  -4  -9    0.19    0.04 
  -5   4   9    0.14    0.05 
  -5   4   9    0.12    0.04 
  -5   4   9    0.16    0.04 
  -4   4   9    1.26    0.09 
  -4   4   9    1.24    0.07 
  -4   4   9    1.10    0.06 
  -3   4   9    0.23    0.05 
  -3   4   9    0.26    0.05 
  -2   4   9    8.17    0.27 
  -2   4   9    8.23    0.26 
  -2   4   9    7.76    0.26 
  -1   4   9   12.12    0.38 
  -1   4   9   11.70    0.38 
   0   4   9   19.59    0.59 
   0   4   9   18.72    0.59 
   0   4   9   18.70    0.59 
   1   4   9    5.27    0.18 
   1   4   9    5.12    0.17 
   1   4   9    5.28    0.17 
   2   4   9    0.29    0.04 
   2   4   9    0.31    0.04 
  -7   5   9    8.08    0.25 
  -7   5   9    7.66    0.25 
  -7   5   9    7.65    0.24 
  -6   5   9    9.53    0.31 
  -6   5   9    9.89    0.31 
  -6   5   9    9.79    0.31 
  -5   5   9    4.19    0.14 
  -5   5   9    3.83    0.15 
  -5   5   9    4.07    0.14 
   4  -5  -9    5.41    0.19 
  -4   5   9    5.73    0.20 
  -4   5   9    6.26    0.19 
  -4   5   9    5.66    0.18 
   3  -5  -9   17.14    0.54 
  -3   5   9   17.74    0.54 
  -3   5   9   17.43    0.54 
  -3   5   9   16.95    0.54 
   2  -5  -9    1.10    0.06 
  -2   5   9    1.10    0.07 
  -2   5   9    1.10    0.06 
  -2   5   9    1.15    0.08 
   1  -5  -9    0.14    0.03 
  -1   5   9    0.17    0.04 
  -1   5   9    0.14    0.03 
  -1   5   9    0.18    0.03 
   0  -5  -9    3.55    0.11 
   0   5   9    3.19    0.12 
   0   5   9    3.25    0.12 
   0   5   9    3.28    0.12 
  -1  -5  -9    4.69    0.16 
   1   5   9    4.92    0.16 
   1   5   9    5.00    0.16 
   1   5   9    4.99    0.16 
   1   5   9    4.62    0.16 
   2   5   9    3.84    0.13 
   2   5   9    4.03    0.13 
   2   5   9    3.91    0.13 
   6  -6  -9    2.21    0.09 
  -6   6   9    2.52    0.10 
  -6   6   9    2.38    0.09 
  -6   6   9    2.42    0.08 
  -6   6   9    2.25    0.09 
   5  -6  -9    1.66    0.07 
  -5   6   9    1.59    0.07 
  -5   6   9    1.80    0.08 
  -5   6   9    1.89    0.07 
   4  -6  -9    0.11    0.03 
  -4   6   9    0.13    0.03 
  -4   6   9    0.14    0.04 
  -4   6   9    0.19    0.04 
   3  -6  -9    4.05    0.13 
  -3   6   9    4.17    0.14 
  -3   6   9    3.97    0.14 
  -3   6   9    3.92    0.14 
   2  -6  -9    6.16    0.20 
  -2   6   9    5.93    0.20 
  -2   6   9    6.25    0.20 
   1  -6  -9    0.50    0.04 
  -1   6   9    0.51    0.05 
  -1   6   9    0.54    0.05 
  -1   6   9    0.64    0.06 
   0  -6  -9    1.44    0.06 
   0   6   9    1.62    0.06 
   0   6   9    1.54    0.07 
   0   6   9    1.51    0.06 
   0   6   9    1.55    0.07 
   4  -7  -9    0.66    0.04 
  -4   7   9    0.69    0.04 
  -4   7   9    0.63    0.05 
  -4   7   9    0.70    0.06 
   3  -7  -9    3.44    0.11 
  -3   7   9    3.12    0.11 
  -3   7   9    3.12    0.11 
  -3   7   9    3.33    0.12 
   2  -7  -9    0.11    0.02 
  -2   7   9    0.14    0.03 
  -2   7   9    0.12    0.03 
  -2   7   9    0.17    0.03 
   1  -7  -9    6.95    0.21 
  -1   7   9    6.83    0.22 
  -1   7   9    6.84    0.21 
  -1   7   9    6.59    0.21 
   3   9 -10    0.18    0.04 
   3   9 -10    0.18    0.03 
   2   9 -10    0.32    0.06 
   2   9 -10    0.40    0.05 
   1   9 -10    5.74    0.19 
   1   9 -10    5.72    0.19 
   0   9 -10    2.81    0.11 
   0   9 -10    2.88    0.10 
   0   9 -10    2.87    0.10 
  -1   9 -10    2.40    0.09 
  -1   9 -10    2.57    0.10 
  -1   9 -10    2.52    0.09 
  -2   9 -10    1.27    0.06 
  -2   9 -10    1.22    0.05 
  -2   9 -10    1.32    0.05 
  -2   9 -10    1.25    0.06 
   4   8 -10    3.80    0.13 
   4   8 -10    3.43    0.13 
   3   8 -10    1.10    0.06 
   3   8 -10    1.03    0.07 
   2   8 -10    2.68    0.11 
   2   8 -10    2.59    0.10 
   1   8 -10    0.24    0.05 
   1   8 -10    0.35    0.05 
   1   8 -10    0.23    0.05 
   1   8 -10    0.30    0.04 
  -1  -8  10    0.26    0.06 
   0   8 -10    0.54    0.07 
   0   8 -10    0.54    0.07 
   0   8 -10    0.57    0.04 
   0   8 -10    0.51    0.06 
   0   8 -10    0.51    0.06 
   0  -8  10    0.57    0.08 
  -1   8 -10   16.69    0.54 
  -1   8 -10   17.82    0.54 
  -1   8 -10   17.42    0.54 
  -1   8 -10   17.27    0.54 
  -1   8 -10   17.20    0.53 
  -2   8 -10    1.70    0.07 
  -2   8 -10    1.68    0.06 
  -2   8 -10    1.59    0.08 
  -2   8 -10    1.75    0.08 
  -2   8 -10    1.71    0.07 
  -2   8 -10    1.65    0.08 
  -3   8 -10    3.51    0.12 
  -3   8 -10    3.45    0.11 
  -3   8 -10    3.56    0.11 
  -3   8 -10    3.51    0.12 
  -3   8 -10    3.43    0.12 
   3  -8  10    3.35    0.12 
   5   7 -10    0.24    0.04 
   5   7 -10    0.25    0.04 
   5   7 -10    0.33    0.06 
   4   7 -10    0.91    0.06 
   4   7 -10    0.83    0.08 
   3   7 -10    1.90    0.10 
   3   7 -10    2.01    0.09 
  -3  -7  10    1.86    0.08 
   2   7 -10    0.36    0.07 
   2   7 -10    0.31    0.06 
   2   7 -10    0.37    0.07 
  -2  -7  10    0.31    0.06 
   1   7 -10   12.41    0.40 
   1   7 -10   12.88    0.41 
   1   7 -10   13.34    0.41 
   1   7 -10   12.99    0.41 
  -1  -7  10   12.77    0.40 
   0   7 -10    6.45    0.22 
   0   7 -10    6.34    0.22 
   0   7 -10    6.67    0.22 
   0   7 -10    6.67    0.21 
   0   7 -10    6.42    0.21 
   0  -7  10    6.27    0.21 
  -1   7 -10    1.18    0.06 
  -1   7 -10    1.20    0.07 
  -1   7 -10    1.28    0.07 
  -1   7 -10    1.11    0.08 
  -1   7 -10    1.28    0.08 
   1  -7  10    1.24    0.07 
  -2   7 -10    1.37    0.08 
  -2   7 -10    1.35    0.08 
  -2   7 -10    1.40    0.06 
  -2   7 -10    1.36    0.07 
  -2   7 -10    1.45    0.07 
  -2   7 -10    1.42    0.06 
   2  -7  10    1.29    0.07 
  -3   7 -10    7.37    0.24 
  -3   7 -10    7.74    0.24 
  -3   7 -10    7.41    0.24 
  -3   7 -10    7.57    0.24 
  -3   7 -10    7.85    0.24 
  -3   7 -10    7.27    0.24 
   3  -7  10    7.56    0.24 
   6   6 -10    2.59    0.10 
   6   6 -10    2.68    0.11 
   6   6 -10    2.72    0.09 
  -6  -6  10    2.63    0.10 
  -6  -6  10    2.65    0.10 
   5   6 -10   17.73    0.55 
   5   6 -10   18.28    0.55 
   5   6 -10   17.64    0.55 
  -5  -6  10   17.35    0.55 
   4   6 -10    8.26    0.26 
   4   6 -10    8.25    0.27 
  -4  -6  10    7.86    0.26 
   3   6 -10    0.15    0.04 
   3   6 -10    0.17    0.05 
  -3  -6  10    0.13    0.04 
   2   6 -10    0.30    0.05 
   2   6 -10    0.30    0.05 
   2   6 -10    0.35    0.08 
   2   6 -10    0.31    0.05 
  -2  -6  10    0.27    0.06 
   1   6 -10    6.76    0.23 
   1   6 -10    7.13    0.23 
   1   6 -10    7.08    0.23 
   1   6 -10    6.96    0.22 
   1   6 -10    6.69    0.23 
  -1  -6  10    6.92    0.23 
   0   6 -10    0.50    0.08 
   0   6 -10    0.41    0.06 
   0   6 -10    0.55    0.07 
   0   6 -10    0.41    0.05 
   0   6 -10    0.41    0.06 
   0  -6  10    0.44    0.06 
  -1   6 -10   17.64    0.56 
  -1   6 -10   17.78    0.56 
  -1   6 -10   17.86    0.56 
  -1   6 -10   18.03    0.56 
  -1   6 -10   18.33    0.55 
   1  -6  10   17.88    0.56 
  -2   6 -10    3.14    0.11 
  -2   6 -10    3.24    0.12 
  -2   6 -10    3.15    0.12 
  -2   6 -10    3.06    0.11 
  -2   6 -10    3.03    0.11 
  -2   6 -10    3.04    0.11 
   2  -6  10    2.95    0.12 
   2  -6  10    2.98    0.11 
  -3   6 -10   11.88    0.37 
  -3   6 -10   12.05    0.37 
  -3   6 -10   11.95    0.37 
  -3   6 -10   11.70    0.37 
   3  -6  10   11.79    0.37 
  -4   6 -10    5.51    0.19 
  -4   6 -10    5.55    0.18 
  -4   6 -10    5.73    0.18 
  -4   6 -10    5.72    0.18 
   4  -6  10    5.84    0.18 
   4  -6  10    5.46    0.18 
   4  -6  10    5.80    0.18 
   7   5 -10    0.04    0.02 
   7   5 -10    0.06    0.03 
  -7  -5  10    0.08    0.03 
  -7  -5  10    0.04    0.02 
   6   5 -10    1.76    0.08 
   6   5 -10    1.64    0.07 
   5   5 -10   21.83    0.69 
   5   5 -10   21.66    0.67 
   5   5 -10   23.03    0.68 
  -5  -5  10   21.44    0.67 
  -5  -5  10   21.29    0.68 
  -5  -5  10   21.90    0.68 
   4   5 -10    6.23    0.22 
   4   5 -10    6.67    0.22 
  -4  -5  10    6.57    0.21 
   3   5 -10    2.14    0.10 
   3   5 -10    1.98    0.11 
   2   5 -10    0.09    0.03 
   2   5 -10    0.09    0.05 
   2   5 -10    0.20    0.05 
   2   5 -10    0.17    0.05 
  -2  -5  10    0.08    0.04 
   1   5 -10    4.05    0.15 
   1   5 -10    4.37    0.16 
   1   5 -10    4.22    0.16 
   1   5 -10    4.03    0.15 
   1   5 -10    4.14    0.21 
   1   5 -10    4.04    0.14 
  -1  -5  10    4.14    0.15 
   0   5 -10   15.25    0.49 
   0   5 -10   15.68    0.48 
   0   5 -10   15.84    0.48 
   0   5 -10   15.05    0.49 
   0   5 -10   15.24    0.48 
   0  -5  10   15.51    0.48 
  -1   5 -10    2.01    0.09 
  -1   5 -10    1.96    0.09 
  -1   5 -10    2.04    0.10 
  -1   5 -10    2.10    0.11 
  -1   5 -10    2.22    0.12 
  -1   5 -10    2.04    0.08 
   1  -5  10    2.02    0.09 
   1  -5  10    2.03    0.09 
  -2   5 -10    0.00    0.03 
  -2   5 -10    0.00    0.03 
  -2   5 -10    0.04    0.04 
  -2   5 -10    0.05    0.04 
  -2   5 -10   -0.01    0.04 
   2  -5  10   -0.01    0.04 
   2  -5  10    0.02    0.05 
  -3   5 -10    0.17    0.04 
  -3   5 -10    0.12    0.04 
  -3   5 -10    0.13    0.03 
  -3   5 -10    0.15    0.04 
   3  -5  10    0.20    0.04 
   3  -5  10    0.14    0.04 
  -4   5 -10    1.95    0.08 
  -4   5 -10    2.06    0.08 
  -4   5 -10    1.91    0.07 
   4  -5  10    1.99    0.08 
   4  -5  10    1.93    0.08 
   4  -5  10    1.87    0.08 
   4  -5  10    1.98    0.08 
   7   4 -10    7.42    0.24 
   7   4 -10    7.42    0.23 
  -7  -4  10    7.34    0.24 
  -7  -4  10    7.41    0.23 
   6   4 -10    8.27    0.26 
   6   4 -10    7.93    0.26 
  -6  -4  10    8.18    0.27 
   5   4 -10    0.21    0.03 
   5   4 -10    0.10    0.05 
  -5  -4  10    0.25    0.05 
  -5  -4  10    0.17    0.04 
  -5  -4  10    0.17    0.04 
   4   4 -10    0.28    0.05 
  -4  -4  10    0.36    0.05 
  -4  -4  10    0.45    0.07 
   3   4 -10   11.10    0.36 
   3   4 -10   10.87    0.38 
   3   4 -10   12.20    0.38 
   3   4 -10   11.52    0.38 
   3   4 -10   10.88    0.37 
   3   4 -10   11.36    0.36 
   3   4 -10   11.07    0.36 
  -3  -4  10   11.21    0.37 
  -3  -4  10   11.78    0.36 
   2   4 -10    0.13    0.04 
   2   4 -10    0.15    0.07 
   2   4 -10    0.17    0.05 
   2   4 -10    0.17    0.04 
  -2  -4  10    0.16    0.07 
  -2  -4  10    0.16    0.04 
   1   4 -10   28.40    0.90 
   1   4 -10   29.34    0.90 
  -1  -4  10   29.66    0.90 
  -1  -4  10   29.15    0.91 
   0   4 -10    6.92    0.24 
   0   4 -10    6.97    0.24 
   0  -4  10    7.33    0.23 
  -1   4 -10    0.54    0.09 
  -1   4 -10    0.41    0.06 
  -1   4 -10    0.65    0.06 
  -1   4 -10    0.45    0.07 
  -1   4 -10    0.51    0.08 
   1  -4  10    0.57    0.06 
   1  -4  10    0.54    0.07 
   1  -4  10    0.57    0.07 
  -2   4 -10    7.42    0.26 
  -2   4 -10    8.06    0.26 
  -2   4 -10    7.77    0.25 
  -2   4 -10    8.10    0.25 
   2  -4  10    7.68    0.25 
   2  -4  10    8.00    0.26 
   2  -4  10    8.00    0.25 
  -3   4 -10   12.75    0.40 
  -3   4 -10   12.89    0.40 
  -3   4 -10   13.32    0.40 
   3  -4  10   12.59    0.40 
   3  -4  10   12.50    0.40 
   3  -4  10   13.22    0.40 
   3  -4  10   12.58    0.40 
  -4   4 -10   44.56    1.31 
  -4   4 -10   40.86    1.31 
  -4   4 -10   43.21    1.31 
   4  -4  10   42.59    1.31 
   4  -4  10   43.40    1.31 
   4  -4  10   42.25    1.31 
   7   3 -10    9.60    0.31 
   7   3 -10    9.88    0.31 
  -7  -3  10    9.47    0.31 
  -7  -3  10    9.39    0.31 
  -7  -3  10   10.77    0.31 
   6   3 -10    0.12    0.04 
   6   3 -10    0.10    0.03 
  -6  -3  10    0.05    0.04 
  -6  -3  10    0.09    0.03 
   5   3 -10   10.49    0.33 
   5   3 -10   10.83    0.34 
  -5  -3  10   10.15    0.33 
  -5  -3  10   10.55    0.34 
  -5  -3  10   10.41    0.33 
   4   3 -10   17.14    0.53 
  -4  -3  10   17.85    0.53 
  -4  -3  10   16.20    0.54 
  -4  -3  10   16.94    0.53 
   3   3 -10   51.26    1.54 
   3   3 -10   47.78    1.54 
  -3  -3  10   51.51    1.54 
  -3  -3  10   50.13    1.55 
   2   3 -10    4.98    0.17 
   2   3 -10    4.96    0.16 
   2   3 -10    4.54    0.17 
  -2  -3  10    4.84    0.19 
  -2  -3  10    4.86    0.17 
   1   3 -10   20.27    0.66 
   1   3 -10   21.83    0.67 
  -1  -3  10   21.83    0.68 
  -1  -3  10   21.91    0.67 
   0   3 -10    0.74    0.07 
   0  -3  10    0.68    0.07 
  -1   3 -10    0.04    0.04 
  -1   3 -10    0.10    0.04 
  -1   3 -10    0.09    0.06 
   1  -3  10    0.08    0.04 
   1  -3  10    0.05    0.04 
   1  -3  10    0.10    0.05 
  -2   3 -10   10.83    0.35 
  -2   3 -10   11.54    0.35 
   2  -3  10   11.02    0.35 
   2  -3  10   11.01    0.35 
   2  -3  10   11.16    0.35 
  -3   3 -10    9.08    0.29 
  -3   3 -10    8.67    0.29 
   3  -3  10    9.23    0.29 
   3  -3  10    8.95    0.29 
   3  -3  10    9.11    0.29 
  -4   3 -10    0.22    0.04 
  -4   3 -10    0.23    0.04 
   4  -3  10    0.26    0.04 
   4  -3  10    0.34    0.05 
   7   2 -10    4.90    0.16 
   7   2 -10    5.19    0.17 
  -7  -2  10    4.91    0.16 
  -7  -2  10    5.23    0.17 
  -7  -2  10    4.91    0.17 
   6   2 -10    0.77    0.05 
   6   2 -10    0.63    0.07 
  -6  -2  10    0.69    0.05 
  -6  -2  10    0.78    0.08 
   5   2 -10    0.15    0.05 
   5   2 -10    0.11    0.03 
  -5  -2  10    0.14    0.03 
  -5  -2  10    0.25    0.06 
  -5  -2  10    0.12    0.05 
   4   2 -10   15.42    0.50 
   4   2 -10   16.63    0.52 
   4   2 -10   16.40    0.50 
  -4  -2  10   15.97    0.51 
  -4  -2  10   16.11    0.50 
  -4  -2  10   15.90    0.51 
  -4  -2  10   15.14    0.51 
   3   2 -10    0.19    0.03 
  -3  -2  10    0.27    0.08 
   2   2 -10   14.46    0.46 
   2   2 -10   15.11    0.46 
  -2  -2  10   14.52    0.47 
   1   2 -10    0.15    0.03 
   1   2 -10    0.08    0.04 
  -1  -2  10    0.18    0.06 
   0   2 -10    3.35    0.13 
   0  -2  10    3.56    0.15 
  -1   2 -10   22.28    0.69 
  -1   2 -10   20.85    0.68 
  -1   2 -10   22.19    0.69 
   1  -2  10   22.51    0.69 
   1  -2  10   22.96    0.69 
   1  -2  10   22.28    0.69 
  -2   2 -10   21.12    0.61 
  -2   2 -10   19.07    0.61 
  -2   2 -10   19.51    0.61 
   2  -2  10   20.23    0.61 
   2  -2  10   19.08    0.62 
  -3   2 -10    4.47    0.15 
  -3   2 -10    4.18    0.15 
  -3   2 -10    4.57    0.15 
   3  -2  10    4.41    0.15 
   3  -2  10    4.51    0.15 
   3  -2  10    4.50    0.15 
  -4   2 -10    4.14    0.14 
  -4   2 -10    4.38    0.14 
  -4   2 -10    4.08    0.14 
   4  -2  10    4.24    0.14 
   4  -2  10    4.09    0.14 
   4  -2  10    4.21    0.14 
   8   1 -10    0.33    0.03 
   8   1 -10    0.28    0.05 
  -8  -1  10    0.33    0.03 
  -8  -1  10    0.40    0.06 
  -8  -1  10    0.28    0.05 
   7   1 -10    0.25    0.04 
   7   1 -10    0.20    0.04 
   7   1 -10    0.29    0.06 
  -7  -1  10    0.28    0.06 
  -7  -1  10    0.30    0.06 
  -7  -1  10    0.22    0.04 
   6   1 -10    4.38    0.14 
   6   1 -10    4.44    0.15 
   6   1 -10    4.22    0.15 
  -6  -1  10    3.79    0.16 
  -6  -1  10    4.35    0.16 
  -6  -1  10    4.47    0.14 
   5   1 -10   28.06    0.90 
   5   1 -10   28.78    0.90 
  -5  -1  10   28.32    0.90 
  -5  -1  10   29.29    0.90 
  -5  -1  10   31.65    0.90 
  -5  -1  10   29.20    0.90 
   4   1 -10   27.17    0.84 
   4   1 -10   28.74    0.86 
  -4  -1  10   26.33    0.86 
   3   1 -10   19.28    0.58 
  -3  -1  10   18.38    0.60 
   2   1 -10    2.17    0.09 
   2   1 -10    2.19    0.10 
  -2  -1  10    2.32    0.11 
   1   1 -10    1.95    0.10 
   1   1 -10    2.14    0.08 
  -1  -1  10    2.05    0.11 
   0   1 -10   12.62    0.42 
   0  -1  10   13.95    0.43 
  -1   1 -10    8.19    0.27 
  -1   1 -10    8.84    0.27 
   1  -1  10    9.09    0.28 
   1  -1  10    8.27    0.28 
   1  -1  10    8.45    0.28 
  -2   1 -10    4.74    0.16 
  -2   1 -10    4.50    0.16 
  -2   1 -10    4.77    0.16 
   2  -1  10    4.80    0.16 
   2  -1  10    4.29    0.16 
   2  -1  10    4.80    0.16 
  -3   1 -10    0.21    0.03 
  -3   1 -10    0.31    0.05 
  -3   1 -10    0.19    0.04 
   3  -1  10    0.18    0.04 
   3  -1  10    0.26    0.05 
   3  -1  10    0.21    0.03 
  -4   1 -10    2.60    0.09 
  -4   1 -10    2.75    0.09 
  -4   1 -10    2.60    0.09 
   4  -1  10    2.48    0.09 
   4  -1  10    2.49    0.10 
   4  -1  10    2.62    0.09 
   8   0 -10    0.94    0.05 
   8   0 -10    1.07    0.05 
  -8   0  10    1.01    0.07 
  -8   0  10    0.97    0.05 
   7   0 -10    2.88    0.10 
   7   0 -10    2.78    0.10 
  -7   0  10    2.74    0.10 
  -7   0  10    2.64    0.11 
   6   0 -10    3.85    0.13 
   6   0 -10    3.89    0.14 
  -6   0  10    3.96    0.15 
  -6   0  10    4.11    0.15 
   5   0 -10    0.07    0.04 
   5   0 -10    0.17    0.03 
  -5   0  10    0.15    0.04 
  -5   0  10    0.15    0.06 
  -5   0  10    0.13    0.05 
   4   0 -10    0.16    0.06 
   4   0 -10    0.11    0.04 
   4   0 -10    0.05    0.03 
  -4   0  10    0.05    0.04 
  -4   0  10    0.01    0.05 
  -4   0  10    0.04    0.06 
  -4   0  10    0.02    0.06 
   3   0 -10    0.78    0.05 
  -3   0  10    0.75    0.09 
   2   0 -10   65.13    1.98 
  -2   0  10   64.07    1.99 
   1   0 -10    1.22    0.07 
   1   0 -10    1.37    0.08 
   0   0 -10    6.55    0.21 
   0   0 -10    6.53    0.23 
   0   0 -10    6.27    0.21 
   0   0  10    5.79    0.26 
   0   0  10    5.80    0.23 
   0   0  10    6.75    0.21 
   0   0  10    6.43    0.22 
   0   0  10    6.17    0.21 
  -1   0 -10    3.42    0.12 
  -1   0 -10    3.48    0.12 
   1   0  10    3.17    0.14 
   1   0  10    3.46    0.12 
   1   0  10    3.37    0.13 
  -2   0 -10   35.34    1.06 
  -2   0 -10   34.94    1.06 
   2   0  10   32.99    1.06 
   2   0  10   33.79    1.06 
   2   0  10   34.67    1.06 
  -3   0 -10    0.54    0.05 
  -3   0 -10    0.68    0.05 
   3   0  10    0.73    0.05 
   3   0  10    0.69    0.06 
   3   0  10    0.72    0.05 
  -4   0 -10    6.08    0.19 
  -4   0 -10    5.78    0.19 
   4   0  10    5.69    0.19 
   4   0  10    6.18    0.19 
   8  -1 -10    0.38    0.03 
   8  -1 -10    0.41    0.04 
  -8   1  10    0.35    0.03 
  -8   1  10    0.48    0.05 
   7  -1 -10   25.60    0.80 
   7  -1 -10   26.97    0.80 
  -7   1  10   25.98    0.80 
  -7   1  10   25.43    0.80 
  -7   1  10   25.79    0.80 
   6  -1 -10    1.04    0.07 
  -6   1  10    0.90    0.08 
  -6   1  10    1.06    0.06 
  -6   1  10    0.99    0.08 
   5  -1 -10    0.41    0.06 
   5  -1 -10    0.54    0.05 
  -5   1  10    0.50    0.05 
  -5   1  10    0.55    0.08 
   4  -1 -10    0.90    0.07 
   4  -1 -10    0.96    0.06 
  -4   1  10    0.85    0.09 
  -4   1  10    1.15    0.06 
  -4   1  10    0.93    0.09 
   3  -1 -10   48.55    1.40 
   3  -1 -10   45.99    1.41 
   3  -1 -10   43.41    1.40 
  -3   1  10   44.54    1.40 
  -3   1  10   45.05    1.40 
  -3   1  10   45.78    1.41 
  -3   1  10   45.70    1.41 
   2  -1 -10    2.63    0.10 
  -2   1  10    2.71    0.13 
  -2   1  10    2.82    0.11 
   1  -1 -10    0.10    0.04 
  -1   1  10    0.09    0.04 
  -1   1  10    0.10    0.05 
  -1   1  10    0.03    0.08 
  -1   1  10    0.09    0.05 
   0  -1 -10    2.58    0.10 
   0  -1 -10    2.29    0.10 
   0   1  10    2.25    0.12 
   0   1  10    2.26    0.11 
   0   1  10    2.40    0.10 
  -1  -1 -10    4.11    0.15 
  -1  -1 -10    4.57    0.14 
   1   1  10    3.83    0.14 
   1   1  10    4.13    0.15 
  -2  -1 -10   16.46    0.49 
   2   1  10   15.65    0.49 
   2   1  10   15.66    0.49 
   2   1  10   15.87    0.50 
  -3  -1 -10    0.07    0.03 
   3   1  10    0.09    0.03 
   3   1  10    0.05    0.03 
   3   1  10    0.09    0.03 
   7  -2 -10    0.76    0.05 
  -7   2  10    0.67    0.05 
  -7   2  10    0.84    0.07 
  -7   2  10    0.72    0.07 
   6  -2 -10    1.42    0.07 
  -6   2  10    1.16    0.08 
  -6   2  10    1.26    0.06 
   5  -2 -10    1.68    0.08 
  -5   2  10    1.65    0.09 
  -5   2  10    1.76    0.08 
  -5   2  10    1.35    0.10 
   4  -2 -10    3.15    0.12 
   4  -2 -10    3.40    0.11 
  -4   2  10    3.15    0.12 
  -4   2  10    3.04    0.13 
  -4   2  10    3.22    0.13 
   3  -2 -10    0.14    0.03 
   3  -2 -10    0.14    0.04 
  -3   2  10    0.13    0.05 
  -3   2  10    0.03    0.05 
   2  -2 -10    0.14    0.04 
   2  -2 -10    0.22    0.05 
  -2   2  10    0.14    0.04 
  -2   2  10    0.16    0.05 
  -2   2  10    0.25    0.05 
   1  -2 -10    3.07    0.12 
  -1   2  10    3.05    0.12 
  -1   2  10    3.05    0.12 
  -1   2  10    3.11    0.13 
   0  -2 -10   14.29    0.45 
   0   2  10   13.93    0.45 
   0   2  10   14.66    0.45 
  -1  -2 -10    8.43    0.27 
   1   2  10    7.97    0.27 
   1   2  10    8.29    0.26 
  -2  -2 -10    0.08    0.03 
   2   2  10    0.14    0.03 
   2   2  10    0.17    0.03 
  -3  -2 -10    8.82    0.28 
   3   2  10    8.78    0.28 
   3   2  10    8.89    0.28 
   7  -3 -10    0.04    0.03 
  -7   3  10    0.08    0.04 
   6  -3 -10    9.66    0.30 
  -6   3  10    9.15    0.30 
   5  -3 -10   12.27    0.39 
  -5   3  10   12.96    0.40 
  -5   3  10   12.35    0.40 
   4  -3 -10    3.70    0.14 
  -4   3  10    3.78    0.14 
  -4   3  10    3.73    0.14 
   3  -3 -10    0.39    0.06 
   3  -3 -10    0.34    0.04 
  -3   3  10    0.40    0.07 
   2  -3 -10    5.43    0.19 
  -2   3  10    5.10    0.18 
  -2   3  10    5.48    0.19 
   1  -3 -10   36.86    1.15 
  -1   3  10   35.90    1.14 
  -1   3  10   36.75    1.15 
  -1   3  10   39.42    1.15 
   0  -3 -10    3.92    0.14 
   0   3  10    3.81    0.14 
   0   3  10    3.97    0.14 
  -1  -3 -10    1.51    0.08 
   1   3  10    1.49    0.08 
   1   3  10    1.52    0.07 
   1   3  10    1.55    0.07 
  -2  -3 -10    1.49    0.07 
   2   3  10    1.65    0.07 
   2   3  10    1.46    0.07 
   2   3  10    1.56    0.07 
   7  -4 -10    2.64    0.10 
  -7   4  10    2.83    0.10 
  -7   4  10    2.68    0.09 
  -7   4  10    2.66    0.10 
   6  -4 -10    0.34    0.05 
  -6   4  10    0.29    0.06 
  -6   4  10    0.28    0.06 
  -6   4  10    0.30    0.05 
   5  -4 -10    0.56    0.06 
  -5   4  10    0.64    0.07 
  -5   4  10    0.55    0.06 
  -5   4  10    0.48    0.07 
  -4   4  10    0.18    0.04 
  -4   4  10    0.13    0.04 
   3  -4 -10    0.84    0.07 
  -3   4  10    0.88    0.07 
  -3   4  10    0.93    0.07 
  -3   4  10    0.87    0.06 
   2  -4 -10    8.54    0.28 
  -2   4  10    8.79    0.28 
  -2   4  10    8.93    0.28 
  -2   4  10    9.02    0.29 
   1  -4 -10   20.14    0.64 
  -1   4  10   21.04    0.64 
  -1   4  10   21.22    0.65 
   0  -4 -10    0.49    0.06 
   0   4  10    0.49    0.05 
   0   4  10    0.53    0.06 
  -1  -4 -10    4.29    0.15 
   1   4  10    4.26    0.14 
   1   4  10    4.29    0.15 
   1   4  10    4.44    0.14 
   6  -5 -10    0.11    0.03 
  -6   5  10    0.21    0.04 
  -6   5  10    0.19    0.04 
  -6   5  10    0.19    0.04 
  -6   5  10    0.18    0.03 
  -5   5  10   11.51    0.37 
  -5   5  10   11.99    0.37 
  -4   5  10    7.24    0.23 
  -4   5  10    7.19    0.23 
  -3   5  10    1.65    0.07 
  -3   5  10    1.68    0.08 
  -3   5  10    1.85    0.08 
  -2   5  10    9.42    0.30 
  -2   5  10   10.07    0.31 
  -2   5  10    9.54    0.31 
  -1   5  10    2.66    0.09 
  -1   5  10    2.52    0.09 
  -1   5  10    2.42    0.10 
   0   5  10    0.07    0.03 
   0   5  10    0.08    0.03 
   0   5  10    0.06    0.03 
   0   5  10    0.04    0.03 
  -4   6  10    0.23    0.04 
  -4   6  10    0.28    0.05 
   3  -6 -10    1.80    0.07 
  -3   6  10    1.92    0.08 
  -3   6  10    1.91    0.07 
   2  -6 -10    0.13    0.02 
  -2   6  10    0.17    0.04 
  -2   6  10    0.19    0.03 
   2   9 -11   12.51    0.39 
   1   9 -11    2.68    0.10 
   1   9 -11    2.61    0.09 
   0   9 -11    0.09    0.03 
   0   9 -11    0.04    0.02 
   0   9 -11    0.03    0.02 
   4   8 -11    0.14    0.03 
   4   8 -11    0.26    0.06 
   3   8 -11    0.15    0.04 
   3   8 -11    0.10    0.03 
   2   8 -11    6.82    0.22 
   2   8 -11    7.21    0.23 
   1   8 -11    1.46    0.06 
   1   8 -11    1.45    0.08 
   1   8 -11    1.53    0.07 
   1   8 -11    1.48    0.08 
   0   8 -11    0.85    0.05 
   0   8 -11    1.00    0.06 
   0   8 -11    1.04    0.05 
   0   8 -11    0.87    0.06 
  -1   8 -11    1.38    0.06 
  -1   8 -11    1.37    0.07 
  -1   8 -11    1.33    0.06 
  -1   8 -11    1.42    0.07 
   5   7 -11   10.44    0.33 
   5   7 -11   10.61    0.33 
   4   7 -11   12.69    0.39 
   4   7 -11   13.00    0.40 
  -4  -7  11   12.26    0.40 
   3   7 -11    3.79    0.13 
   3   7 -11    3.88    0.14 
   2   7 -11    9.56    0.29 
   2   7 -11    8.86    0.29 
   2   7 -11    8.87    0.28 
   1   7 -11    2.20    0.09 
   1   7 -11    2.43    0.10 
   1   7 -11    2.34    0.10 
   1   7 -11    2.44    0.10 
  -1  -7  11    2.40    0.10 
   0   7 -11    0.81    0.05 
   0   7 -11    0.84    0.07 
   0   7 -11    0.80    0.06 
   0   7 -11    0.69    0.07 
   0   7 -11    0.74    0.06 
  -1   7 -11    1.88    0.07 
  -1   7 -11    1.75    0.08 
  -1   7 -11    1.87    0.08 
  -1   7 -11    1.83    0.08 
  -1   7 -11    1.70    0.08 
   1  -7  11    1.71    0.08 
  -2   7 -11    1.73    0.07 
  -2   7 -11    1.75    0.08 
  -2   7 -11    1.96    0.08 
  -2   7 -11    1.78    0.08 
  -2   7 -11    1.95    0.07 
  -2   7 -11    1.97    0.07 
   2  -7  11    1.92    0.08 
   2  -7  11    1.81    0.08 
   5   6 -11    3.31    0.12 
   5   6 -11    3.31    0.13 
  -5  -6  11    3.29    0.12 
   4   6 -11    4.22    0.15 
   4   6 -11    4.29    0.15 
  -4  -6  11    4.17    0.15 
   3   6 -11    1.54    0.09 
   3   6 -11    1.45    0.08 
  -3  -6  11    1.47    0.07 
   2   6 -11    3.68    0.14 
   2   6 -11    3.99    0.14 
   2   6 -11    4.17    0.15 
   2   6 -11    3.86    0.13 
  -2  -6  11    3.91    0.14 
   1   6 -11   14.10    0.43 
   1   6 -11   14.07    0.43 
   1   6 -11   13.76    0.43 
   1   6 -11   13.26    0.43 
  -1  -6  11   13.60    0.43 
   0   6 -11    0.19    0.05 
   0   6 -11    0.25    0.04 
   0   6 -11    0.23    0.04 
   0   6 -11    0.20    0.04 
   0   6 -11    0.25    0.04 
   0  -6  11    0.35    0.07 
  -1   6 -11    0.03    0.04 
  -1   6 -11    0.05    0.04 
  -1   6 -11   -0.01    0.04 
  -1   6 -11    0.05    0.04 
  -1   6 -11    0.06    0.03 
  -2   6 -11    0.07    0.03 
  -2   6 -11    0.04    0.03 
  -2   6 -11    0.08    0.02 
  -2   6 -11    0.08    0.03 
  -2   6 -11    0.10    0.04 
   2  -6  11    0.05    0.04 
   2  -6  11    0.06    0.04 
  -3   6 -11    0.39    0.05 
  -3   6 -11    0.41    0.04 
  -3   6 -11    0.45    0.04 
  -3   6 -11    0.37    0.05 
   3  -6  11    0.48    0.04 
   3  -6  11    0.39    0.05 
   6   5 -11    2.22    0.09 
   6   5 -11    2.14    0.08 
  -6  -5  11    2.20    0.09 
  -6  -5  11    2.33    0.08 
   5   5 -11    7.80    0.25 
  -5  -5  11    7.64    0.25 
  -5  -5  11    7.58    0.25 
   4   5 -11    4.84    0.16 
   4   5 -11    4.04    0.18 
  -4  -5  11    4.83    0.16 
  -4  -5  11    4.73    0.16 
   3   5 -11   11.87    0.37 
   3   5 -11   11.59    0.37 
   3   5 -11   11.25    0.36 
  -3  -5  11   11.74    0.37 
  -3  -5  11   11.74    0.37 
   2   5 -11    4.22    0.14 
   2   5 -11    4.16    0.16 
   2   5 -11    4.49    0.15 
   2   5 -11    4.03    0.16 
  -2  -5  11    4.45    0.15 
   1   5 -11    0.08    0.04 
   1   5 -11    0.04    0.03 
   1   5 -11    0.08    0.04 
   1   5 -11    0.05    0.05 
  -1  -5  11    0.12    0.06 
  -1  -5  11    0.08    0.04 
   0   5 -11    0.94    0.06 
   0   5 -11    0.99    0.07 
   0   5 -11    0.93    0.08 
   0   5 -11    0.99    0.08 
   0  -5  11    0.93    0.08 
   0  -5  11    0.81    0.07 
  -1   5 -11   15.98    0.48 
  -1   5 -11   15.77    0.49 
  -1   5 -11   14.65    0.48 
  -1   5 -11   15.96    0.48 
  -1   5 -11   15.38    0.48 
   1  -5  11   15.14    0.49 
   1  -5  11   15.27    0.48 
   1  -5  11   15.82    0.49 
  -2   5 -11    2.06    0.09 
  -2   5 -11    1.94    0.08 
  -2   5 -11    2.07    0.09 
  -2   5 -11    1.90    0.08 
   2  -5  11    2.08    0.08 
   2  -5  11    1.96    0.09 
  -3   5 -11    1.18    0.06 
  -3   5 -11    1.06    0.05 
  -3   5 -11    1.12    0.06 
   3  -5  11    1.21    0.06 
   3  -5  11    0.98    0.06 
   6   4 -11    0.02    0.02 
   6   4 -11   -0.01    0.04 
  -6  -4  11    0.07    0.04 
  -6  -4  11    0.03    0.03 
   5   4 -11    0.31    0.06 
  -5  -4  11    0.13    0.04 
  -5  -4  11    0.20    0.04 
   4   4 -11    5.97    0.20 
  -4  -4  11    6.06    0.19 
  -4  -4  11    5.51    0.19 
   3   4 -11    7.14    0.24 
   3   4 -11    7.41    0.24 
  -3  -4  11    7.46    0.24 
  -3  -4  11    7.52    0.24 
   2   4 -11    0.76    0.08 
   2   4 -11    0.71    0.08 
   2   4 -11    0.67    0.05 
  -2  -4  11    0.65    0.07 
  -2  -4  11    0.60    0.07 
   1   4 -11    0.19    0.05 
   1   4 -11    0.19    0.03 
   1   4 -11    0.13    0.05 
  -1  -4  11    0.17    0.05 
  -1  -4  11    0.19    0.05 
   0   4 -11    0.18    0.03 
   0   4 -11    0.22    0.05 
   0   4 -11    0.18    0.05 
   0   4 -11    0.15    0.04 
   0  -4  11    0.29    0.06 
   0  -4  11    0.18    0.05 
  -1   4 -11    4.55    0.16 
  -1   4 -11    4.76    0.16 
  -1   4 -11    4.64    0.15 
  -1   4 -11    4.45    0.17 
  -1   4 -11    4.52    0.15 
   1  -4  11    4.45    0.16 
   1  -4  11    4.54    0.16 
  -2   4 -11    8.21    0.27 
  -2   4 -11    8.37    0.26 
  -2   4 -11    8.34    0.26 
   2  -4  11    8.23    0.26 
   2  -4  11    8.33    0.26 
   2  -4  11    8.38    0.27 
  -3   4 -11    3.41    0.11 
  -3   4 -11    3.48    0.12 
  -3   4 -11    3.26    0.13 
   3  -4  11    3.37    0.13 
   3  -4  11    3.43    0.12 
   3  -4  11    3.49    0.12 
   7   3 -11    2.69    0.10 
   7   3 -11    2.49    0.09 
  -7  -3  11    2.80    0.10 
  -7  -3  11    2.65    0.09 
  -7  -3  11    2.80    0.10 
   6   3 -11    2.41    0.09 
   6   3 -11    2.58    0.10 
  -6  -3  11    2.50    0.09 
  -6  -3  11    2.33    0.09 
  -6  -3  11    2.46    0.10 
   5   3 -11   21.06    0.63 
  -5  -3  11   20.61    0.63 
  -5  -3  11   19.28    0.63 
  -5  -3  11   20.44    0.63 
   4   3 -11    5.38    0.18 
   4   3 -11    5.60    0.18 
  -4  -3  11    5.61    0.18 
  -4  -3  11    5.17    0.18 
  -4  -3  11    5.21    0.19 
   3   3 -11    0.14    0.03 
  -3  -3  11    0.19    0.04 
  -3  -3  11    0.13    0.04 
   2   3 -11    0.56    0.05 
   2   3 -11    0.53    0.08 
  -2  -3  11    0.45    0.08 
  -2  -3  11    0.57    0.08 
  -2  -3  11    0.58    0.06 
  -2  -3  11    0.57    0.07 
   1   3 -11    2.19    0.11 
   1   3 -11    2.48    0.09 
  -1  -3  11    2.39    0.10 
  -1  -3  11    2.34    0.11 
  -1  -3  11    2.37    0.10 
   0   3 -11    4.03    0.15 
   0   3 -11    4.07    0.14 
   0  -3  11    4.08    0.17 
   0  -3  11    4.13    0.14 
   0  -3  11    4.26    0.15 
  -1   3 -11    0.10    0.03 
  -1   3 -11    0.06    0.04 
   1  -3  11    0.12    0.04 
   1  -3  11    0.02    0.04 
   1  -3  11    0.05    0.04 
  -2   3 -11    0.90    0.06 
  -2   3 -11    0.89    0.05 
   2  -3  11    0.91    0.08 
   2  -3  11    1.02    0.10 
   2  -3  11    0.87    0.06 
   2  -3  11    0.82    0.07 
  -3   3 -11    3.75    0.13 
  -3   3 -11    3.80    0.12 
   3  -3  11    3.67    0.12 
   3  -3  11    3.49    0.13 
   7   2 -11    0.05    0.03 
  -7  -2  11    0.02    0.02 
  -7  -2  11    0.04    0.03 
  -7  -2  11    0.07    0.04 
   6   2 -11    0.63    0.06 
   6   2 -11    0.40    0.04 
  -6  -2  11    0.59    0.07 
  -6  -2  11    0.44    0.05 
  -6  -2  11    0.57    0.06 
  -5  -2  11    0.17    0.04 
  -5  -2  11    0.24    0.05 
  -5  -2  11    0.24    0.04 
  -5  -2  11    0.26    0.05 
   4   2 -11    2.00    0.08 
  -4  -2  11    2.02    0.11 
  -4  -2  11    2.00    0.09 
  -4  -2  11    1.98    0.09 
   3   2 -11    0.00    0.03 
  -3  -2  11    0.08    0.05 
  -3  -2  11    0.07    0.04 
   2   2 -11   10.91    0.33 
  -2  -2  11   10.28    0.34 
  -2  -2  11   10.40    0.34 
  -2  -2  11   10.64    0.33 
   1   2 -11    0.12    0.03 
  -1  -2  11    0.15    0.04 
  -1  -2  11    0.13    0.05 
   0   2 -11   36.32    1.11 
   0  -2  11   36.24    1.12 
   0  -2  11   37.90    1.11 
   0  -2  11   35.67    1.11 
   0  -2  11   34.87    1.11 
  -1   2 -11    1.24    0.08 
  -1   2 -11    1.54    0.07 
   1  -2  11    1.43    0.09 
   1  -2  11    1.43    0.07 
   1  -2  11    1.43    0.08 
  -2   2 -11    0.97    0.06 
  -2   2 -11    1.06    0.06 
   2  -2  11    1.17    0.07 
   2  -2  11    1.18    0.08 
   2  -2  11    1.03    0.06 
  -3   2 -11    9.76    0.31 
  -3   2 -11   10.12    0.31 
   3  -2  11    9.94    0.31 
   3  -2  11    9.68    0.31 
   3  -2  11    9.46    0.31 
   7   1 -11    7.64    0.24 
  -7  -1  11    7.58    0.24 
  -7  -1  11    7.97    0.25 
   6   1 -11    5.90    0.18 
   6   1 -11    5.26    0.19 
  -6  -1  11    5.66    0.18 
  -6  -1  11    5.61    0.20 
  -6  -1  11    5.96    0.19 
   5   1 -11    7.74    0.25 
   5   1 -11    7.48    0.25 
  -5  -1  11    7.94    0.26 
  -5  -1  11    8.17    0.25 
  -5  -1  11    7.96    0.26 
   4   1 -11    2.79    0.11 
   4   1 -11    2.84    0.10 
  -4  -1  11    2.93    0.11 
  -4  -1  11    2.96    0.13 
   3   1 -11   37.53    1.09 
   3   1 -11   35.30    1.09 
  -3  -1  11   36.01    1.10 
  -3  -1  11   33.92    1.09 
  -3  -1  11   34.86    1.10 
   2   1 -11    0.57    0.06 
  -2  -1  11    0.69    0.07 
  -2  -1  11    0.67    0.08 
  -2  -1  11    0.66    0.08 
  -2  -1  11    0.58    0.06 
   1   1 -11   14.49    0.44 
   1   1 -11   13.60    0.44 
  -1  -1  11   14.14    0.45 
  -1  -1  11   13.93    0.44 
   0   1 -11    5.02    0.17 
   0  -1  11    4.87    0.17 
   0  -1  11    5.14    0.17 
   0  -1  11    4.88    0.18 
  -1   1 -11    0.13    0.03 
  -1   1 -11    0.14    0.04 
   1  -1  11    0.17    0.05 
   1  -1  11    0.10    0.03 
   1  -1  11    0.06    0.04 
  -2   1 -11    0.46    0.04 
  -2   1 -11    0.46    0.05 
   2  -1  11    0.44    0.05 
   2  -1  11    0.45    0.06 
  -3   1 -11    5.80    0.18 
  -3   1 -11    5.63    0.18 
   3  -1  11    5.66    0.19 
   3  -1  11    5.96    0.19 
   3  -1  11    5.85    0.19 
   7   0 -11    0.05    0.02 
   7   0 -11    0.06    0.03 
  -7   0  11    0.14    0.04 
  -7   0  11    0.14    0.04 
  -7   0  11    0.06    0.02 
   6   0 -11    0.16    0.02 
   6   0 -11    0.14    0.03 
  -6   0  11    0.16    0.04 
  -6   0  11    0.15    0.05 
  -6   0  11    0.25    0.04 
   5   0 -11    6.12    0.21 
   5   0 -11    6.74    0.21 
  -5   0  11    6.57    0.22 
  -5   0  11    6.51    0.22 
  -5   0  11    6.63    0.21 
   4   0 -11    3.36    0.12 
   4   0 -11    3.40    0.12 
  -4   0  11    3.33    0.13 
  -4   0  11    3.10    0.14 
  -4   0  11    3.50    0.12 
   3   0 -11   10.91    0.35 
   3   0 -11   11.22    0.35 
  -3   0  11   10.58    0.35 
  -3   0  11   11.40    0.35 
   2   0 -11   16.16    0.51 
   2   0 -11   17.02    0.51 
  -2   0  11   16.21    0.51 
  -2   0  11   15.69    0.51 
  -2   0  11   16.43    0.51 
   1   0 -11    0.76    0.07 
  -1   0  11    0.67    0.08 
  -1   0  11    0.75    0.06 
  -1   0  11    0.73    0.08 
   0   0 -11    4.17    0.16 
   0   0 -11    4.76    0.16 
   0   0  11    4.51    0.17 
   0   0  11    4.45    0.16 
   0   0  11    4.78    0.15 
  -1   0 -11   35.12    1.05 
  -1   0 -11   35.25    1.05 
   1   0  11   33.60    1.05 
   1   0  11   31.80    1.07 
   1   0  11   35.40    1.05 
  -2   0 -11    1.02    0.06 
   2   0  11    0.98    0.06 
   2   0  11    1.15    0.06 
   2   0  11    0.96    0.06 
  -3   0 -11    1.50    0.06 
   3   0  11    1.49    0.06 
   3   0  11    1.54    0.07 
   3   0  11    1.63    0.06 
   7  -1 -11    8.47    0.27 
   7  -1 -11    8.73    0.27 
  -7   1  11    8.65    0.27 
  -7   1  11    8.65    0.27 
  -7   1  11    8.66    0.27 
   6  -1 -11    8.38    0.26 
   6  -1 -11    8.39    0.27 
  -6   1  11    8.24    0.26 
  -6   1  11    8.42    0.27 
  -6   1  11    8.36    0.27 
   5  -1 -11   15.68    0.48 
   5  -1 -11   15.25    0.48 
  -5   1  11   15.03    0.48 
  -5   1  11   15.75    0.48 
   4  -1 -11    2.64    0.11 
   4  -1 -11    2.71    0.10 
  -4   1  11    2.62    0.11 
  -4   1  11    2.74    0.10 
  -4   1  11    2.53    0.12 
   3  -1 -11    2.88    0.10 
   3  -1 -11    2.77    0.11 
  -3   1  11    2.76    0.12 
  -3   1  11    2.88    0.12 
   2  -1 -11   18.16    0.56 
   2  -1 -11   17.76    0.56 
  -2   1  11   17.95    0.56 
  -2   1  11   18.64    0.57 
   1  -1 -11    0.39    0.06 
  -1   1  11    0.45    0.05 
  -1   1  11    0.41    0.07 
  -1   1  11    0.40    0.07 
   0  -1 -11    2.54    0.10 
   0   1  11    2.61    0.11 
   0   1  11    2.62    0.10 
   0   1  11    2.86    0.11 
  -1  -1 -11    3.56    0.13 
   1   1  11    3.63    0.12 
   1   1  11    3.65    0.13 
  -2  -1 -11    7.28    0.22 
   2   1  11    6.95    0.22 
   2   1  11    6.90    0.22 
   2   1  11    6.72    0.22 
   7  -2 -11    1.40    0.05 
   7  -2 -11    1.36    0.06 
  -7   2  11    1.25    0.06 
  -7   2  11    1.47    0.07 
   6  -2 -11   11.46    0.35 
  -6   2  11   11.32    0.35 
  -6   2  11   10.92    0.35 
   5  -2 -11    3.93    0.13 
  -5   2  11    3.53    0.14 
  -5   2  11    3.78    0.13 
  -5   2  11    3.86    0.14 
   4  -2 -11    0.08    0.04 
   4  -2 -11    0.06    0.03 
  -4   2  11    0.10    0.04 
  -4   2  11    0.03    0.05 
  -4   2  11    0.09    0.03 
   3  -2 -11    0.43    0.05 
   3  -2 -11    0.52    0.06 
  -3   2  11    0.46    0.05 
  -3   2  11    0.51    0.07 
   2  -2 -11   58.07    1.72 
  -2   2  11   56.25    1.71 
  -2   2  11   55.15    1.72 
  -2   2  11   54.44    1.72 
   1  -2 -11    1.84    0.09 
  -1   2  11    1.80    0.09 
  -1   2  11    1.89    0.08 
  -1   2  11    2.08    0.09 
   0  -2 -11    1.77    0.08 
   0   2  11    1.74    0.10 
   0   2  11    1.60    0.08 
  -1  -2 -11    4.83    0.16 
   1   2  11    4.98    0.16 
  -2  -2 -11    0.23    0.04 
   2   2  11    0.20    0.04 
   2   2  11    0.22    0.04 
   6  -3 -11   11.71    0.37 
  -6   3  11   12.20    0.37 
   5  -3 -11    2.09    0.09 
  -5   3  11    2.13    0.09 
  -5   3  11    2.20    0.10 
   4  -3 -11    5.75    0.19 
  -4   3  11    5.46    0.21 
  -4   3  11    5.68    0.19 
   3  -3 -11    1.43    0.08 
  -3   3  11    1.41    0.08 
   2  -3 -11    3.74    0.13 
  -2   3  11    3.72    0.14 
  -2   3  11    3.76    0.14 
   1  -3 -11    9.89    0.30 
  -1   3  11    9.38    0.30 
  -1   3  11   10.15    0.30 
  -1   3  11    8.36    0.30 
   0  -3 -11    1.67    0.08 
   0   3  11    1.75    0.08 
   0   3  11    1.72    0.08 
  -1  -3 -11    0.36    0.05 
   1   3  11    0.43    0.05 
   1   3  11    0.41    0.05 
   5  -4 -11    0.82    0.06 
  -5   4  11    0.85    0.06 
  -5   4  11    0.70    0.07 
  -5   4  11    0.83    0.05 
   4  -4 -11    6.49    0.21 
  -4   4  11    6.62    0.21 
  -4   4  11    6.38    0.21 
   3  -4 -11    0.37    0.06 
  -3   4  11    0.39    0.06 
  -3   4  11    0.37    0.05 
  -3   4  11    0.48    0.06 
   2  -4 -11    1.80    0.08 
  -2   4  11    1.80    0.08 
  -2   4  11    1.84    0.09 
  -2   4  11    1.86    0.08 
   1  -4 -11    2.17    0.09 
  -1   4  11    2.10    0.08 
  -1   4  11    2.15    0.09 
  -1   4  11    2.04    0.08 
   0  -4 -11    3.64    0.12 
   0   4  11    3.57    0.12 
   0   4  11    3.65    0.12 
   0   4  11    3.54    0.12 
   4  -5 -11    3.11    0.11 
  -4   5  11    3.25    0.11 
  -4   5  11    3.17    0.11 
   3  -5 -11    3.36    0.12 
  -3   5  11    3.44    0.12 
  -3   5  11    3.68    0.12 
  -3   5  11    3.43    0.12 
   2  -5 -11    0.69    0.06 
  -2   5  11    0.73    0.05 
  -2   5  11    0.68    0.05 
   1   8 -12    2.86    0.10 
   1   8 -12    2.71    0.10 
   1   8 -12    2.74    0.09 
   3   7 -12    3.03    0.11 
   3   7 -12    3.39    0.12 
  -3  -7  12    3.17    0.11 
   2   7 -12    0.66    0.04 
   2   7 -12    0.67    0.05 
   2   7 -12    0.63    0.06 
  -2  -7  12    0.58    0.06 
   1   7 -12    5.92    0.19 
   1   7 -12    5.71    0.19 
   1   7 -12    5.85    0.18 
   1   7 -12    5.79    0.19 
  -1  -7  12    5.75    0.19 
   0   7 -12    0.13    0.03 
   0   7 -12    0.22    0.05 
   0  -7  12    0.15    0.04 
  -1   7 -12    1.48    0.06 
  -1   7 -12    1.62    0.07 
  -1   7 -12    1.47    0.06 
  -1   7 -12    1.47    0.07 
   1  -7  12    1.46    0.07 
   4   6 -12    0.15    0.04 
  -4  -6  12    0.18    0.04 
   3   6 -12    7.45    0.25 
   3   6 -12    8.36    0.25 
  -3  -6  12    7.58    0.25 
   2   6 -12    7.54    0.24 
   2   6 -12    8.09    0.24 
   2   6 -12    7.19    0.24 
  -2  -6  12    7.19    0.24 
   1   6 -12    5.52    0.19 
   1   6 -12    5.75    0.18 
   1   6 -12    5.56    0.19 
   1   6 -12    5.93    0.19 
  -1  -6  12    5.67    0.19 
   0   6 -12    2.67    0.09 
   0   6 -12    2.52    0.10 
   0   6 -12    2.79    0.10 
   0   6 -12    2.64    0.10 
   0  -6  12    2.73    0.10 
  -1   6 -12    5.34    0.16 
  -1   6 -12    5.00    0.17 
  -1   6 -12    5.23    0.16 
   1  -6  12    4.45    0.16 
   5   5 -12    0.02    0.03 
  -5  -5  12    0.02    0.04 
  -5  -5  12    0.04    0.03 
   4   5 -12    0.61    0.06 
  -4  -5  12    0.73    0.06 
   3   5 -12    2.11    0.08 
   3   5 -12    2.22    0.09 
   3   5 -12    1.92    0.10 
  -3  -5  12    2.08    0.09 
  -3  -5  12    2.05    0.10 
   2   5 -12    1.30    0.07 
   2   5 -12    1.39    0.06 
   2   5 -12    1.26    0.08 
   2   5 -12    1.24    0.08 
  -2  -5  12    1.39    0.07 
   1   5 -12    1.57    0.08 
   1   5 -12    1.58    0.07 
   1   5 -12    1.69    0.08 
  -1  -5  12    1.64    0.08 
  -1  -5  12    1.57    0.09 
   0   5 -12    2.56    0.10 
   0   5 -12    2.46    0.09 
   0   5 -12    2.49    0.10 
   0  -5  12    2.63    0.10 
   0  -5  12    2.44    0.11 
  -1   5 -12    3.56    0.13 
  -1   5 -12    3.53    0.12 
  -1   5 -12    3.55    0.12 
   1  -5  12    3.55    0.12 
   1  -5  12    3.40    0.13 
  -2   5 -12    8.61    0.27 
  -2   5 -12    8.74    0.27 
  -2   5 -12    8.80    0.27 
   2  -5  12    8.77    0.27 
   2  -5  12    8.74    0.27 
   2  -5  12    7.62    0.27 
   6   4 -12    0.11    0.03 
  -6  -4  12    0.12    0.03 
  -6  -4  12    0.13    0.03 
  -6  -4  12    0.09    0.03 
   5   4 -12   14.91    0.47 
  -5  -4  12   15.03    0.46 
  -5  -4  12   15.04    0.47 
   4   4 -12    2.26    0.10 
   4   4 -12    2.27    0.09 
  -4  -4  12    2.31    0.09 
  -4  -4  12    2.37    0.11 
   3   4 -12   14.51    0.45 
  -3  -4  12   14.10    0.45 
  -3  -4  12   14.14    0.45 
  -3  -4  12   15.16    0.46 
   2   4 -12    2.07    0.10 
   2   4 -12    2.17    0.08 
  -2  -4  12    1.91    0.11 
  -2  -4  12    2.11    0.09 
   1   4 -12   17.10    0.53 
   1   4 -12   16.59    0.53 
   1   4 -12   16.87    0.53 
  -1  -4  12   16.90    0.53 
  -1  -4  12   17.52    0.53 
   0   4 -12    0.27    0.04 
   0   4 -12    0.36    0.06 
   0   4 -12    0.43    0.06 
   0  -4  12    0.28    0.06 
   0  -4  12    0.34    0.07 
  -1   4 -12    4.83    0.17 
  -1   4 -12    4.80    0.17 
  -1   4 -12    5.23    0.17 
   1  -4  12    5.01    0.17 
   1  -4  12    5.30    0.18 
   1  -4  12    5.02    0.17 
   1  -4  12    5.29    0.17 
  -2   4 -12    0.30    0.04 
  -2   4 -12    0.29    0.04 
   2  -4  12    0.31    0.06 
   2  -4  12    0.28    0.04 
   2  -4  12    0.34    0.05 
   6   3 -12    4.08    0.14 
  -6  -3  12    4.09    0.14 
  -6  -3  12    4.27    0.15 
  -6  -3  12    4.43    0.14 
  -5  -3  12    0.54    0.05 
  -5  -3  12    0.61    0.06 
  -5  -3  12    0.62    0.08 
  -5  -3  12    0.49    0.04 
   4   3 -12    0.76    0.05 
  -4  -3  12    0.66    0.08 
  -4  -3  12    0.68    0.06 
   3   3 -12    4.31    0.14 
  -3  -3  12    3.99    0.14 
  -3  -3  12    4.01    0.14 
  -3  -3  12    3.94    0.15 
   2   3 -12    1.24    0.06 
  -2  -3  12    1.35    0.07 
  -2  -3  12    1.26    0.07 
  -2  -3  12    1.34    0.09 
   1   3 -12    2.04    0.08 
  -1  -3  12    2.25    0.09 
  -1  -3  12    2.22    0.10 
  -1  -3  12    2.19    0.09 
   0   3 -12    2.91    0.10 
   0  -3  12    2.97    0.12 
   0  -3  12    3.14    0.11 
   0  -3  12    2.91    0.11 
  -1   3 -12    8.75    0.28 
  -1   3 -12    9.13    0.28 
   1  -3  12    9.22    0.28 
   1  -3  12    9.15    0.29 
   1  -3  12    8.67    0.29 
  -2   3 -12    1.55    0.06 
  -2   3 -12    1.65    0.07 
   2  -3  12    1.44    0.08 
   2  -3  12    1.50    0.07 
   2  -3  12    1.62    0.07 
  -6  -2  12    0.77    0.11 
  -6  -2  12    0.75    0.04 
  -6  -2  12    0.54    0.06 
   5   2 -12    6.33    0.21 
  -5  -2  12    6.75    0.22 
  -5  -2  12    6.62    0.21 
  -5  -2  12    6.91    0.22 
   4   2 -12    5.90    0.18 
  -4  -2  12    5.68    0.19 
  -4  -2  12    5.51    0.19 
  -4  -2  12    5.63    0.20 
   3   2 -12   27.43    0.82 
  -3  -2  12   27.69    0.83 
  -3  -2  12   26.14    0.82 
  -3  -2  12   26.85    0.82 
  -3  -2  12   25.81    0.83 
   2   2 -12    0.38    0.05 
  -2  -2  12    0.53    0.07 
  -2  -2  12    0.37    0.05 
  -2  -2  12    0.54    0.06 
  -2  -2  12    0.56    0.07 
   1   2 -12   11.34    0.36 
  -1  -2  12   11.20    0.36 
  -1  -2  12   11.65    0.37 
  -1  -2  12   11.62    0.36 
   0  -2  12    2.66    0.11 
   0  -2  12    2.56    0.10 
   0  -2  12    2.41    0.11 
  -1   2 -12   17.60    0.55 
   1  -2  12   17.82    0.55 
   1  -2  12   17.97    0.55 
   1  -2  12   17.64    0.55 
  -2   2 -12    0.65    0.06 
  -2   2 -12    0.62    0.04 
   2  -2  12    0.63    0.05 
   2  -2  12    0.59    0.05 
  -6  -1  12    0.52    0.04 
  -6  -1  12    0.66    0.07 
  -6  -1  12    0.63    0.06 
   5   1 -12    2.48    0.09 
  -5  -1  12    2.55    0.11 
  -5  -1  12    2.56    0.11 
  -5  -1  12    2.57    0.09 
   4   1 -12    0.51    0.04 
  -4  -1  12    0.49    0.07 
  -4  -1  12    0.43    0.07 
  -4  -1  12    0.50    0.05 
  -3  -1  12    0.63    0.08 
  -3  -1  12    0.62    0.08 
   2   1 -12    2.15    0.09 
   2   1 -12    2.00    0.08 
  -2  -1  12    2.25    0.09 
  -2  -1  12    2.18    0.10 
  -2  -1  12    2.27    0.10 
   1   1 -12    2.06    0.09 
   1   1 -12    2.17    0.08 
  -1  -1  12    2.20    0.10 
  -1  -1  12    2.11    0.09 
   0   1 -12    1.54    0.08 
   0  -1  12    1.82    0.09 
   0  -1  12    1.75    0.09 
   0  -1  12    1.71    0.07 
  -1   1 -12    2.50    0.09 
   1  -1  12    2.30    0.10 
   1  -1  12    2.33    0.10 
   1  -1  12    2.59    0.09 
   2  -1  12    0.90    0.05 
   2  -1  12    0.85    0.05 
   6   0 -12    0.91    0.05 
  -6   0  12    0.96    0.07 
  -6   0  12    0.96    0.06 
  -6   0  12    1.02    0.05 
   5   0 -12   12.07    0.38 
   5   0 -12   12.10    0.38 
  -5   0  12   12.03    0.38 
  -5   0  12   12.87    0.39 
   4   0 -12    5.12    0.16 
   4   0 -12    5.04    0.17 
  -4   0  12    4.94    0.18 
  -4   0  12    5.11    0.17 
  -4   0  12    4.99    0.18 
   3   0 -12    3.52    0.12 
   3   0 -12    3.51    0.12 
  -3   0  12    3.28    0.13 
  -3   0  12    3.23    0.13 
  -3   0  12    3.46    0.12 
   2   0 -12    9.41    0.30 
   2   0 -12    9.65    0.30 
  -2   0  12    9.37    0.31 
  -2   0  12    9.82    0.31 
  -2   0  12    9.62    0.30 
   1   0 -12    0.48    0.06 
  -1   0  12    0.57    0.05 
  -1   0  12    0.60    0.07 
  -1   0  12    0.57    0.07 
   0   0 -12    4.55    0.15 
   0   0  12    4.38    0.16 
   0   0  12    4.28    0.15 
   0   0  12    4.50    0.15 
  -1   0 -12    0.16    0.03 
   1   0  12    0.25    0.05 
   1   0  12    0.26    0.04 
   6  -1 -12    0.79    0.05 
  -6   1  12    0.99    0.06 
  -6   1  12    0.81    0.04 
   5  -1 -12    7.90    0.24 
  -5   1  12    7.72    0.25 
  -5   1  12    7.27    0.24 
   4  -1 -12    3.79    0.13 
   4  -1 -12    4.10    0.14 
  -4   1  12    3.80    0.14 
  -4   1  12    3.94    0.13 
  -4   1  12    4.01    0.14 
   3  -1 -12    4.73    0.16 
   3  -1 -12    4.69    0.15 
  -3   1  12    4.49    0.16 
  -3   1  12    4.53    0.15 
  -3   1  12    4.72    0.17 
   2  -1 -12    0.72    0.05 
   2  -1 -12    0.79    0.06 
  -2   1  12    0.86    0.07 
   1  -1 -12    0.47    0.06 
  -1   1  12    0.57    0.06 
  -1   1  12    0.58    0.07 
  -1   1  12    0.61    0.05 
   0   1  12    0.54    0.05 
   0   1  12    0.48    0.06 
   0   1  12    0.46    0.05 
  -1  -1 -12    0.07    0.03 
   1   1  12    0.11    0.03 
   1   1  12    0.06    0.03 
   5  -2 -12    0.09    0.03 
  -5   2  12    0.09    0.04 
  -5   2  12    0.13    0.04 
  -5   2  12    0.09    0.03 
   4  -2 -12   17.31    0.55 
  -4   2  12   18.12    0.55 
  -4   2  12   18.14    0.55 
  -4   2  12   17.77    0.55 
   3  -2 -12    1.09    0.06 
  -3   2  12    0.97    0.06 
  -3   2  12    1.01    0.07 
   2  -2 -12    6.73    0.21 
  -2   2  12    6.51    0.21 
  -2   2  12    6.58    0.22 
  -2   2  12    6.45    0.21 
   1  -2 -12    5.36    0.17 
  -1   2  12    5.12    0.18 
  -1   2  12    5.39    0.18 
   0  -2 -12    7.62    0.24 
   0   2  12    7.38    0.24 
   5  -3 -12    0.54    0.05 
  -5   3  12    0.47    0.06 
  -5   3  12    0.47    0.06 
   4  -3 -12    1.22    0.06 
  -4   3  12    1.40    0.07 
   3  -3 -12    4.94    0.16 
  -3   3  12    5.08    0.17 
   2  -3 -12    4.39    0.14 
  -2   3  12    4.21    0.15 
  -2   3  12    4.18    0.15 
   1  -3 -12    2.96    0.10 
  -1   3  12    2.94    0.11 
   3   6 -13    0.42    0.05 
   3   6 -13    0.45    0.06 
   3   6 -13    0.44    0.04 
  -3  -6  13    0.54    0.05 
   2   6 -13    0.34    0.06 
   2   6 -13    0.35    0.04 
   2   6 -13    0.32    0.03 
  -2  -6  13    0.41    0.05 
   1   6 -13    7.24    0.23 
   1   6 -13    7.19    0.23 
  -1  -6  13    7.28    0.23 
   4   5 -13    2.26    0.09 
  -4  -5  13    2.55    0.10 
  -4  -5  13    2.56    0.09 
   3   5 -13   10.67    0.34 
  -3  -5  13   11.34    0.35 
  -3  -5  13   10.87    0.34 
   2   5 -13    2.30    0.08 
   2   5 -13    2.20    0.10 
  -2  -5  13    2.29    0.09 
  -2  -5  13    2.31    0.10 
   1   5 -13   13.01    0.41 
   1   5 -13   13.31    0.40 
   1   5 -13   13.17    0.41 
  -1  -5  13   12.95    0.41 
  -1  -5  13   12.76    0.41 
   0   5 -13    1.85    0.08 
   0   5 -13    2.12    0.07 
   0   5 -13    2.04    0.08 
   0  -5  13    2.08    0.09 
   0  -5  13    1.95    0.08 
   4   4 -13    3.47    0.12 
  -4  -4  13    4.02    0.13 
  -4  -4  13    3.91    0.14 
  -4  -4  13    3.90    0.14 
   3   4 -13    2.17    0.08 
  -3  -4  13    2.02    0.08 
  -3  -4  13    2.14    0.10 
   2   4 -13    2.07    0.08 
  -2  -4  13    2.01    0.11 
  -2  -4  13    2.01    0.08 
  -2  -4  13    2.17    0.09 
   1   4 -13    3.04    0.10 
  -1  -4  13    2.93    0.11 
  -1  -4  13    2.86    0.11 
   0   4 -13    0.17    0.03 
   0   4 -13    0.25    0.03 
   0  -4  13    0.23    0.05 
   0  -4  13    0.27    0.06 
  -5  -3  13    0.68    0.07 
  -5  -3  13    0.66    0.04 
  -5  -3  13    0.73    0.06 
   4   3 -13    0.89    0.05 
  -4  -3  13    0.95    0.05 
  -4  -3  13    0.82    0.07 
  -4  -3  13    0.92    0.07 
  -4  -3  13    0.93    0.08 
   3   3 -13    2.92    0.10 
  -3  -3  13    3.05    0.10 
  -3  -3  13    2.95    0.12 
  -3  -3  13    2.96    0.11 
   2   3 -13    6.94    0.22 
  -2  -3  13    6.88    0.23 
  -2  -3  13    7.32    0.23 
  -2  -3  13    7.17    0.23 
  -2  -3  13    7.22    0.23 
   1   3 -13    7.90    0.25 
  -1  -3  13    7.88    0.25 
  -1  -3  13    7.72    0.25 
  -1  -3  13    7.96    0.25 
   0  -3  13    0.44    0.06 
   0  -3  13    0.43    0.06 
   0  -3  13    0.39    0.04 
   5   2 -13    0.70    0.04 
  -5  -2  13    0.73    0.04 
  -5  -2  13    0.80    0.06 
  -5  -2  13    0.82    0.06 
   4   2 -13    0.33    0.04 
  -4  -2  13    0.27    0.04 
  -4  -2  13    0.39    0.06 
  -4  -2  13    0.35    0.06 
   3   2 -13    3.71    0.12 
  -3  -2  13    3.61    0.13 
  -3  -2  13    3.42    0.12 
  -3  -2  13    3.46    0.13 
   2   2 -13    1.60    0.07 
  -2  -2  13    1.71    0.09 
  -2  -2  13    1.65    0.07 
  -2  -2  13    1.70    0.09 
   1   2 -13    4.16    0.14 
  -1  -2  13    4.50    0.15 
  -1  -2  13    4.21    0.14 
  -1  -2  13    4.03    0.15 
   0  -2  13    0.11    0.04 
   0  -2  13    0.13    0.03 
   0  -2  13    0.15    0.04 
   5   1 -13   12.75    0.39 
  -5  -1  13   13.60    0.40 
  -5  -1  13   12.28    0.40 
  -5  -1  13   12.53    0.40 
   4   1 -13    0.18    0.04 
  -4  -1  13    0.15    0.04 
  -4  -1  13    0.19    0.04 
   3   1 -13    4.17    0.14 
  -3  -1  13    4.33    0.15 
  -3  -1  13    4.49    0.15 
  -3  -1  13    4.21    0.14 
  -2  -1  13    0.28    0.04 
  -1  -1  13    7.48    0.24 
  -1  -1  13    7.61    0.24 
   0  -1  13    0.71    0.06 
   0  -1  13    0.79    0.06 
   0  -1  13    0.84    0.05 
  -5   0  13    0.71    0.06 
   4   0 -13    3.64    0.11 
   4   0 -13    3.31    0.12 
  -4   0  13    3.50    0.12 
  -4   0  13    3.38    0.13 
  -4   0  13    3.56    0.13 
   3   0 -13    9.10    0.29 
   3   0 -13    9.05    0.29 
  -3   0  13    9.51    0.30 
  -3   0  13    9.26    0.29 
  -3   0  13    9.46    0.30 
   2   0 -13    0.05    0.03 
   2   0 -13    0.06    0.02 
  -2   0  13    0.08    0.04 
  -2   0  13    0.08    0.03 
   1   0 -13    0.60    0.05 
  -1   0  13    0.65    0.05 
  -1   0  13    0.68    0.06 
  -1   0  13    0.66    0.06 
   4  -1 -13   10.52    0.33 
  -4   1  13   10.27    0.33 
  -4   1  13   10.91    0.33 
  -4   1  13   10.30    0.33 
   3  -1 -13    0.63    0.05 
  -3   1  13    0.61    0.06 
  -3   1  13    0.60    0.04 
   2  -1 -13    4.24    0.14 
  -2   1  13    4.31    0.15 
  -2   1  13    4.19    0.14 
   1  -1 -13    1.76    0.07 
  -1   1  13    1.68    0.07 
  -1   1  13    1.74    0.07 
   0   0   0    0.00    0.00 
;
_shelx_hkl_checksum              92948
loop_
_space_group_symop_operation_xyz
'x, y, z'
'-x, -y, -z'
loop_
_atom_site_label
_atom_site_type_symbol
_atom_site_fract_x
_atom_site_fract_y
_atom_site_fract_z
_atom_site_U_iso_or_equiv
_atom_site_adp_type
_atom_site_occupancy
_atom_site_site_symmetry_order
_atom_site_calc_flag
_atom_site_refinement_flags_posn
_atom_site_refinement_flags_adp
_atom_site_refinement_flags_occupancy
_atom_site_disorder_assembly
_atom_site_disorder_group
N1 N 0.3695(2) 0.54365(17) 0.74347(15) 0.0144(4) Uani 1 1 d . . . . .
C2 C 0.2647(3) 0.5627(2) 0.82175(19) 0.0153(4) Uani 1 1 d . . . . .
O2 O 0.29871(19) 0.53250(15) 0.92105(13) 0.0186(3) Uani 1 1 d . . . . .
C3 C 0.1110(3) 0.6205(2) 0.77487(19) 0.0161(4) Uani 1 1 d . . . . .
O3 O -0.00269(19) 0.63329(15) 0.84673(13) 0.0182(3) Uani 1 1 d . . . . .
C4 C 0.0756(3) 0.6536(2) 0.66545(19) 0.0172(4) Uani 1 1 d . . . . .
C4A C -0.0826(3) 0.7170(2) 0.6244(2) 0.0243(5) Uani 1 1 d . . . . .
F4A F -0.23231(17) 0.64165(16) 0.62456(13) 0.0317(3) Uani 1 1 d . . . . .
F4B F -0.0655(2) 0.84069(16) 0.69749(16) 0.0486(5) Uani 1 1 d . . . . .
F4C F -0.10735(19) 0.73244(16) 0.51029(14) 0.0332(4) Uani 1 1 d . . . . .
C5 C 0.1920(3) 0.6332(2) 0.5923(2) 0.0183(4) Uani 1 1 d . . . . .
H5A H 0.1699 0.6567 0.5157 0.022 Uiso 1 1 calc R U . . .
C6 C 0.3352(3) 0.5794(2) 0.63409(19) 0.0163(4) Uani 1 1 d . . . . .
H6A H 0.4143 0.5661 0.5860 0.020 Uiso 1 1 calc R U . . .
C7 C 0.5318(3) 0.4883(2) 0.78341(19) 0.0159(4) Uani 1 1 d . . . . .
H7A H 0.5528 0.4853 0.8703 0.019 Uiso 1 1 calc R U . . .
H7B H 0.6340 0.5499 0.7770 0.019 Uiso 1 1 calc R U . . .
C8 C 0.5156(3) 0.3467(2) 0.70616(19) 0.0156(4) Uani 1 1 d . . . . .
N9 N 0.5596(2) 0.32260(18) 0.60487(17) 0.0180(4) Uani 1 1 d . . . . .
N10 N 0.5162(2) 0.18124(18) 0.56183(16) 0.0186(4) Uani 1 1 d . . . . .
H10A H 0.5301 0.1364 0.4927 0.022 Uiso 1 1 calc R U . . .
C11 C 0.4498(3) 0.1191(2) 0.6376(2) 0.0181(4) Uani 1 1 d . . . . .
O11 O 0.4049(2) -0.00513(15) 0.62883(15) 0.0234(4) Uani 1 1 d . . . . .
N12 N 0.4465(2) 0.22772(18) 0.73067(16) 0.0168(4) Uani 1 1 d . . . . .
C12A C 0.3992(3) 0.2111(2) 0.8404(2) 0.0220(5) Uani 1 1 d . . . . .
H12A H 0.3303 0.1185 0.8247 0.033 Uiso 1 1 calc R U . . .
H12B H 0.3287 0.2794 0.8622 0.033 Uiso 1 1 calc R U . . .
H12C H 0.5066 0.2241 0.9081 0.033 Uiso 1 1 calc R U . . .
C1' C 0.0651(3) 0.7281(2) 0.96012(19) 0.0170(4) Uani 1 1 d . . . . .
C2' C 0.0140(3) 0.6941(2) 1.0569(2) 0.0182(4) Uani 1 1 d . . . . .
H2'A H -0.0622 0.6095 1.0460 0.022 Uiso 1 1 calc R U . . .
C3' C 0.0777(3) 0.7880(2) 1.1705(2) 0.0190(4) Uani 1 1 d . . . . .
Cl3' Cl 0.01893(7) 0.74769(6) 1.29585(5) 0.02901(18) Uani 1 1 d . . . . .
C4' C 0.1869(3) 0.9126(2) 1.1891(2) 0.0195(5) Uani 1 1 d . . . . .
H4'A H 0.2295 0.9749 1.2678 0.023 Uiso 1 1 calc R U . . .
C5' C 0.2322(3) 0.9439(2) 1.0890(2) 0.0207(5) Uani 1 1 d . . . . .
C5A' C 0.3496(3) 1.0795(3) 1.1044(2) 0.0247(5) Uani 1 1 d . . . . .
N5A' N 0.4298(4) 1.1705(3) 1.1140(2) 0.0485(7) Uani 1 1 d . . . . .
C6' C 0.1725(3) 0.8522(2) 0.9731(2) 0.0197(5) Uani 1 1 d . . . . .
H6'A H 0.2047 0.8744 0.9053 0.024 Uiso 1 1 calc R U . . .
loop_
_atom_site_aniso_label
_atom_site_aniso_U_11
_atom_site_aniso_U_22
_atom_site_aniso_U_33
_atom_site_aniso_U_23
_atom_site_aniso_U_13
_atom_site_aniso_U_12
N1 0.0149(8) 0.0130(8) 0.0140(8) 0.0011(7) 0.0036(7) 0.0034(7)
C2 0.0161(10) 0.0113(9) 0.0166(10) -0.0001(8) 0.0055(8) 0.0003(8)
O2 0.0210(8) 0.0212(8) 0.0148(7) 0.0047(6) 0.0068(6) 0.0050(6)
C3 0.0157(10) 0.0127(10) 0.0184(10) -0.0015(8) 0.0069(8) 0.0017(8)
O3 0.0163(7) 0.0188(7) 0.0178(7) -0.0018(6) 0.0080(6) 0.0020(6)
C4 0.0166(10) 0.0135(10) 0.0191(11) 0.0017(8) 0.0032(8) 0.0019(8)
C4A 0.0212(11) 0.0256(12) 0.0256(12) 0.0040(10) 0.0056(9) 0.0090(9)
F4A 0.0176(7) 0.0528(9) 0.0281(7) 0.0149(7) 0.0071(6) 0.0092(6)
F4B 0.0453(10) 0.0325(9) 0.0537(10) -0.0085(7) -0.0045(8) 0.0264(7)
F4C 0.0291(7) 0.0485(9) 0.0337(8) 0.0257(7) 0.0118(6) 0.0186(7)
C5 0.0202(10) 0.0182(11) 0.0165(10) 0.0048(8) 0.0046(8) 0.0039(8)
C6 0.0184(10) 0.0153(10) 0.0150(10) 0.0018(8) 0.0065(8) 0.0024(8)
C7 0.0140(10) 0.0170(10) 0.0157(10) 0.0020(8) 0.0031(8) 0.0049(8)
C8 0.0133(10) 0.0165(10) 0.0161(10) 0.0032(8) 0.0025(8) 0.0047(8)
N9 0.0185(9) 0.0154(9) 0.0199(9) 0.0016(7) 0.0067(7) 0.0050(7)
N10 0.0228(9) 0.0150(9) 0.0176(9) -0.0003(7) 0.0084(7) 0.0045(7)
C11 0.0179(10) 0.0185(11) 0.0173(10) 0.0025(8) 0.0045(8) 0.0057(8)
O11 0.0300(9) 0.0159(8) 0.0253(8) 0.0018(6) 0.0130(7) 0.0035(6)
N12 0.0186(9) 0.0163(9) 0.0161(9) 0.0031(7) 0.0059(7) 0.0053(7)
C12A 0.0303(12) 0.0209(11) 0.0190(11) 0.0063(9) 0.0122(9) 0.0074(9)
C1' 0.0146(10) 0.0173(10) 0.0178(10) -0.0006(8) 0.0049(8) 0.0068(8)
C2' 0.0148(10) 0.0178(10) 0.0222(11) 0.0036(9) 0.0059(8) 0.0048(8)
C3' 0.0172(10) 0.0237(11) 0.0194(11) 0.0069(9) 0.0072(8) 0.0094(9)
Cl3' 0.0273(3) 0.0360(3) 0.0231(3) 0.0077(2) 0.0068(2) 0.0042(2)
C4' 0.0195(11) 0.0196(11) 0.0183(11) -0.0001(9) 0.0050(9) 0.0087(9)
C5' 0.0214(11) 0.0149(10) 0.0248(11) 0.0013(9) 0.0081(9) 0.0035(8)
C5A' 0.0301(12) 0.0264(14) 0.0123(11) -0.0063(9) 0.0058(9) 0.0048(11)
N5A' 0.075(2) 0.0434(16) 0.0269(13) 0.0039(11) 0.0216(13) 0.0044(15)
C6' 0.0214(11) 0.0192(11) 0.0197(11) 0.0030(9) 0.0091(9) 0.0046(9)
loop_
_atom_type_symbol
_atom_type_description
_atom_type_scat_dispersion_real
_atom_type_scat_dispersion_imag
_atom_type_scat_source
C C 0.0181 0.0091 'International Tables Vol C Tables 4.2.6.8 and 6.1.1.4'
H H 0.0000 0.0000 'International Tables Vol C Tables 4.2.6.8 and 6.1.1.4'
N N 0.0311 0.0180 'International Tables Vol C Tables 4.2.6.8 and 6.1.1.4'
O O 0.0492 0.0322 'International Tables Vol C Tables 4.2.6.8 and 6.1.1.4'
F F 0.0727 0.0534 'International Tables Vol C Tables 4.2.6.8 and 6.1.1.4'
Cl Cl 0.3639 0.7018 'International Tables Vol C Tables 4.2.6.8 and 6.1.1.4'
loop_
_geom_angle_atom_site_label_1
_geom_angle_atom_site_label_2
_geom_angle_atom_site_label_3
_geom_angle
_geom_angle_site_symmetry_1
_geom_angle_site_symmetry_3
_geom_angle_publ_flag
C6 N1 C2 123.29(18) . . ?
C6 N1 C7 118.29(17) . . ?
C2 N1 C7 118.34(17) . . ?
O2 C2 N1 122.69(19) . . ?
O2 C2 C3 123.48(19) . . ?
N1 C2 C3 113.82(18) . . ?
C4 C3 O3 121.52(19) . . ?
C4 C3 C2 122.78(19) . . ?
O3 C3 C2 115.63(18) . . ?
C3 O3 C1' 115.48(16) . . ?
C3 C4 C5 119.6(2) . . ?
C3 C4 C4A 119.9(2) . . ?
C5 C4 C4A 120.4(2) . . ?
F4B C4A F4A 107.02(19) . . ?
F4B C4A F4C 107.3(2) . . ?
F4A C4A F4C 106.04(18) . . ?
F4B C4A C4 110.96(19) . . ?
F4A C4A C4 112.77(19) . . ?
F4C C4A C4 112.40(19) . . ?
C6 C5 C4 118.5(2) . . ?
C6 C5 H5A 120.7 . . ?
C4 C5 H5A 120.7 . . ?
C5 C6 N1 121.96(19) . . ?
C5 C6 H6A 119.0 . . ?
N1 C6 H6A 119.0 . . ?
N1 C7 C8 110.89(16) . . ?
N1 C7 H7A 109.5 . . ?
C8 C7 H7A 109.5 . . ?
N1 C7 H7B 109.5 . . ?
C8 C7 H7B 109.5 . . ?
H7A C7 H7B 108.0 . . ?
N9 C8 N12 111.99(18) . . ?
N9 C8 C7 123.53(19) . . ?
N12 C8 C7 124.43(19) . . ?
C8 N9 N10 104.20(17) . . ?
C11 N10 N9 112.68(17) . . ?
C11 N10 H10A 123.7 . . ?
N9 N10 H10A 123.7 . . ?
O11 C11 N10 129.1(2) . . ?
O11 C11 N12 127.2(2) . . ?
N10 C11 N12 103.71(18) . . ?
C8 N12 C11 107.39(17) . . ?
C8 N12 C12A 128.26(18) . . ?
C11 N12 C12A 123.87(18) . . ?
N12 C12A H12A 109.5 . . ?
N12 C12A H12B 109.5 . . ?
H12A C12A H12B 109.5 . . ?
N12 C12A H12C 109.5 . . ?
H12A C12A H12C 109.5 . . ?
H12B C12A H12C 109.5 . . ?
C2' C1' C6' 122.1(2) . . ?
C2' C1' O3 116.66(19) . . ?
C6' C1' O3 121.15(19) . . ?
C1' C2' C3' 117.7(2) . . ?
C1' C2' H2'A 121.1 . . ?
C3' C2' H2'A 121.1 . . ?
C4' C3' C2' 122.6(2) . . ?
C4' C3' Cl3' 118.27(17) . . ?
C2' C3' Cl3' 119.15(17) . . ?
C3' C4' C5' 117.9(2) . . ?
C3' C4' H4'A 121.1 . . ?
C5' C4' H4'A 121.1 . . ?
C4' C5' C6' 121.6(2) . . ?
C4' C5' C5A' 119.8(2) . . ?
C6' C5' C5A' 118.6(2) . . ?
N5A' C5A' C5' 179.2(3) . . ?
C1' C6' C5' 118.1(2) . . ?
C1' C6' H6'A 121.0 . . ?
C5' C6' H6'A 121.0 . . ?
loop_
_geom_bond_atom_site_label_1
_geom_bond_atom_site_label_2
_geom_bond_distance
_geom_bond_site_symmetry_2
_geom_bond_publ_flag
N1 C6 1.366(3) . ?
N1 C2 1.388(3) . ?
N1 C7 1.483(3) . ?
C2 O2 1.230(3) . ?
C2 C3 1.457(3) . ?
C3 C4 1.354(3) . ?
C3 O3 1.384(2) . ?
O3 C1' 1.392(3) . ?
C4 C5 1.419(3) . ?
C4 C4A 1.505(3) . ?
C4A F4B 1.330(3) . ?
C4A F4A 1.334(3) . ?
C4A F4C 1.338(3) . ?
C5 C6 1.351(3) . ?
C5 H5A 0.9500 . ?
C6 H6A 0.9500 . ?
C7 C8 1.497(3) . ?
C7 H7A 0.9900 . ?
C7 H7B 0.9900 . ?
C8 N9 1.299(3) . ?
C8 N12 1.374(3) . ?
N9 N10 1.381(3) . ?
N10 C11 1.354(3) . ?
N10 H10A 0.8800 . ?
C11 O11 1.239(3) . ?
C11 N12 1.384(3) . ?
N12 C12A 1.457(3) . ?
C12A H12A 0.9800 . ?
C12A H12B 0.9800 . ?
C12A H12C 0.9800 . ?
C1' C2' 1.382(3) . ?
C1' C6' 1.384(3) . ?
C2' C3' 1.389(3) . ?
C2' H2'A 0.9500 . ?
C3' C4' 1.381(3) . ?
C3' Cl3' 1.750(2) . ?
C4' C5' 1.388(3) . ?
C4' H4'A 0.9500 . ?
C5' C6' 1.397(3) . ?
C5' C5A' 1.509(3) . ?
C5A' N5A' 1.021(4) . ?
C6' H6'A 0.9500 . ?
loop_
_geom_hbond_atom_site_label_D
_geom_hbond_atom_site_label_H
_geom_hbond_atom_site_label_A
_geom_hbond_distance_DH
_geom_hbond_distance_HA
_geom_hbond_distance_DA
_geom_hbond_angle_DHA
_geom_hbond_site_symmetry_A
N10 H10A O11 0.88 1.95 2.806(2) 162.9 2_656
loop_
_geom_torsion_atom_site_label_1
_geom_torsion_atom_site_label_2
_geom_torsion_atom_site_label_3
_geom_torsion_atom_site_label_4
_geom_torsion
_geom_torsion_site_symmetry_1
_geom_torsion_site_symmetry_2
_geom_torsion_site_symmetry_3
_geom_torsion_site_symmetry_4
_geom_torsion_publ_flag
C6 N1 C2 O2 -178.60(19) . . . . ?
C7 N1 C2 O2 -1.8(3) . . . . ?
C6 N1 C2 C3 1.9(3) . . . . ?
C7 N1 C2 C3 178.64(17) . . . . ?
O2 C2 C3 C4 179.8(2) . . . . ?
N1 C2 C3 C4 -0.7(3) . . . . ?
O2 C2 C3 O3 -3.3(3) . . . . ?
N1 C2 C3 O3 176.20(16) . . . . ?
C4 C3 O3 C1' -116.5(2) . . . . ?
C2 C3 O3 C1' 66.6(2) . . . . ?
O3 C3 C4 C5 -177.24(18) . . . . ?
C2 C3 C4 C5 -0.6(3) . . . . ?
O3 C3 C4 C4A 5.2(3) . . . . ?
C2 C3 C4 C4A -178.13(19) . . . . ?
C3 C4 C4A F4B 65.2(3) . . . . ?
C5 C4 C4A F4B -112.3(2) . . . . ?
C3 C4 C4A F4A -54.8(3) . . . . ?
C5 C4 C4A F4A 127.6(2) . . . . ?
C3 C4 C4A F4C -174.62(19) . . . . ?
C5 C4 C4A F4C 7.8(3) . . . . ?
C3 C4 C5 C6 0.7(3) . . . . ?
C4A C4 C5 C6 178.2(2) . . . . ?
C4 C5 C6 N1 0.5(3) . . . . ?
C2 N1 C6 C5 -1.9(3) . . . . ?
C7 N1 C6 C5 -178.65(19) . . . . ?
C6 N1 C7 C8 -70.9(2) . . . . ?
C2 N1 C7 C8 112.2(2) . . . . ?
N1 C7 C8 N9 88.7(2) . . . . ?
N1 C7 C8 N12 -88.6(2) . . . . ?
N12 C8 N9 N10 0.2(2) . . . . ?
C7 C8 N9 N10 -177.33(18) . . . . ?
C8 N9 N10 C11 -1.4(2) . . . . ?
N9 N10 C11 O11 -176.9(2) . . . . ?
N9 N10 C11 N12 2.0(2) . . . . ?
N9 C8 N12 C11 1.0(2) . . . . ?
C7 C8 N12 C11 178.50(18) . . . . ?
N9 C8 N12 C12A 173.17(19) . . . . ?
C7 C8 N12 C12A -9.3(3) . . . . ?
O11 C11 N12 C8 177.1(2) . . . . ?
N10 C11 N12 C8 -1.7(2) . . . . ?
O11 C11 N12 C12A 4.5(3) . . . . ?
N10 C11 N12 C12A -174.34(18) . . . . ?
C3 O3 C1' C2' -143.66(19) . . . . ?
C3 O3 C1' C6' 38.9(3) . . . . ?
C6' C1' C2' C3' -1.6(3) . . . . ?
O3 C1' C2' C3' -179.02(18) . . . . ?
C1' C2' C3' C4' 0.8(3) . . . . ?
C1' C2' C3' Cl3' -178.98(15) . . . . ?
C2' C3' C4' C5' 0.4(3) . . . . ?
Cl3' C3' C4' C5' -179.75(16) . . . . ?
C3' C4' C5' C6' -1.0(3) . . . . ?
C3' C4' C5' C5A' 179.4(2) . . . . ?
C2' C1' C6' C5' 1.1(3) . . . . ?
O3 C1' C6' C5' 178.38(18) . . . . ?
C4' C5' C6' C1' 0.3(3) . . . . ?
C5A' C5' C6' C1' 179.9(2) . . . . ?
