#------------------------------------------------------------------------------
#$Date: 2020-06-05 14:36:05 +0300 (Fri, 05 Jun 2020) $
#$Revision: 252934 $
#$URL: file:///home/coder/svn-repositories/cod/cif/1/55/78/1557835.cif $
#------------------------------------------------------------------------------
#
# This file is available in the Crystallography Open Database (COD),
# http://www.crystallography.net/
#
# All data on this site have been placed in the public domain by the
# contributors.
#
data_1557835
loop_
_publ_author_name
'Afra, Salar'
'Samouei, Hamidreza'
'Truong, Phuc'
'Nasr-El-Din, Hisham'
_publ_section_title
;
 Micellar growth and network formation in acidic solutions of a
 sulfobetaine zwitterionic surfactant triggered by an inorganic salt.
;
_journal_issue                   18
_journal_name_full               'Soft matter'
_journal_page_first              4494
_journal_page_last               4501
_journal_paper_doi               10.1039/d0sm00399a
_journal_volume                  16
_journal_year                    2020
_chemical_formula_moiety         '0.5(Cl2 Fe H8 O4), 0.5(Cl), 0.5(H4 O2)'
_chemical_formula_sum            'Cl1.5 Fe0.5 H6 O3'
_chemical_formula_weight         135.15
_space_group_crystal_system      monoclinic
_space_group_IT_number           12
_space_group_name_Hall           '-C 2y'
_space_group_name_H-M_alt        'C 1 2/m 1'
_atom_sites_solution_hydrogens   difmap
_atom_sites_solution_primary     direct
_audit_creation_date             2019-07-30
_audit_creation_method
;
Olex2 1.2
(compiled 2018.05.29 svn.r3508 for OlexSys, GUI svn.r5506)
;
_audit_update_record
;
2019-09-11 deposited with the CCDC.	2020-04-20 downloaded from the CCDC.
;
_cell_angle_alpha                90
_cell_angle_beta                 100.159(2)
_cell_angle_gamma                90
_cell_formula_units_Z            4
_cell_length_a                   11.7058(7)
_cell_length_b                   6.9904(4)
_cell_length_c                   5.9153(4)
_cell_measurement_reflns_used    4451
_cell_measurement_temperature    120(2)
_cell_measurement_theta_max      30.01
_cell_measurement_theta_min      5.40
_cell_volume                     476.45(5)
_computing_molecular_graphics    'Olex2 (Dolomanov et al., 2009)'
_computing_publication_material  'Olex2 (Dolomanov et al., 2009)'
_computing_structure_refinement  'XL (Sheldrick, 2008)'
_computing_structure_solution    'XT (Sheldrick, 2015)'
_diffrn_ambient_temperature      119.99
_diffrn_detector                 'Bruker CMOS area detector'
_diffrn_detector_area_resol_mean 10.5
_diffrn_detector_type            'CMOS area detector'
_diffrn_measured_fraction_theta_full 0.959
_diffrn_measured_fraction_theta_max 0.971
_diffrn_measurement_device       'three-circle diffractometer'
_diffrn_measurement_device_type  'Bruker APEX-II CCD'
_diffrn_measurement_method       '\w and \f scans'
_diffrn_radiation_monochromator  'mirror optics'
_diffrn_radiation_probe          x-ray
_diffrn_radiation_type           MoK\a
_diffrn_radiation_wavelength     0.71073
_diffrn_reflns_av_R_equivalents  0.0238
_diffrn_reflns_av_unetI/netI     0.0151
_diffrn_reflns_Laue_measured_fraction_full 0.959
_diffrn_reflns_Laue_measured_fraction_max 0.971
_diffrn_reflns_limit_h_max       16
_diffrn_reflns_limit_h_min       -16
_diffrn_reflns_limit_k_max       9
_diffrn_reflns_limit_k_min       -9
_diffrn_reflns_limit_l_max       8
_diffrn_reflns_limit_l_min       -8
_diffrn_reflns_number            5047
_diffrn_reflns_point_group_measured_fraction_full 0.959
_diffrn_reflns_point_group_measured_fraction_max 0.971
_diffrn_reflns_theta_full        26.000
_diffrn_reflns_theta_max         30.029
_diffrn_reflns_theta_min         3.536
_diffrn_source                   'microfocus sealed X-ray tube'
_diffrn_source_type              'Incoatec I\ms'
_diffrn_standards_number         0
_exptl_absorpt_coefficient_mu    2.404
_exptl_absorpt_correction_type   none
_exptl_crystal_colour            Yellow
_exptl_crystal_density_diffrn    1.884
_exptl_crystal_F_000             274
_exptl_crystal_size_max          0.1
_exptl_crystal_size_mid          0.1
_exptl_crystal_size_min          0.1
_refine_diff_density_max         0.785
_refine_diff_density_min         -0.721
_refine_diff_density_rms         0.184
_refine_ls_extinction_method     none
_refine_ls_goodness_of_fit_ref   1.248
_refine_ls_hydrogen_treatment    constr
_refine_ls_matrix_type           full
_refine_ls_number_parameters     34
_refine_ls_number_reflns         731
_refine_ls_number_restraints     0
_refine_ls_restrained_S_all      1.248
_refine_ls_R_factor_all          0.0306
_refine_ls_R_factor_gt           0.0297
_refine_ls_shift/su_max          0.008
_refine_ls_shift/su_mean         0.000
_refine_ls_structure_factor_coef Fsqd
_refine_ls_weighting_details
'w=1/[\s^2^(Fo^2^)+(0.0696P)^2^+0.9883P] where P=(Fo^2^+2Fc^2^)/3'
_refine_ls_weighting_scheme      calc
_refine_ls_wR_factor_gt          0.1156
_refine_ls_wR_factor_ref         0.1170
_reflns_Friedel_coverage         0.000
_reflns_number_gt                713
_reflns_number_total             731
_reflns_threshold_expression     'I > 2\s(I)'
_cod_data_source_file            d0sm00399a1.cif
_cod_data_source_block           hs_sma_fe2_0m
_cod_depositor_comments          'Adding full bibliography for 1557835.cif.'
_cod_original_formula_sum        'Cl1.50 H6 Fe0.50 O3'
_cod_database_code               1557835
_shelx_shelxl_version_number     2018/3
_shelx_space_group_comment
;
The symmetry employed for this shelxl refinement is uniquely defined
by the following loop, which should always be used as a source of
symmetry information in preference to the above space-group names.
They are only intended as comments.
;
_olex2_refinement_description
;
1. Others
 Fixed Sof: H2A(0.5) H2B(0.5)
 Fixed U12: Fe1(0) Cl3(0) Cl2(0) O2(0)
 Fixed U23: Fe1(0) Cl3(0) Cl2(0) O2(0)
 Fixed Uiso: H1A(0.023) H1B(0.023) H2A(0.025) H2B(0.025)
 Fixed X: Fe1(0.5) Cl3(0.5) H1A(0.568876) H1B(0.670178) H2A(0.669419)
 H2B(0.749717)
 Fixed Y: Fe1(0.5) Cl3(1) Cl2(0.5) H1A(0.733337) H1B(0.661497) O2(1)
 H2A(0.887589) H2B(1.025753)
 Fixed Z: Fe1(0.5) Cl3(0) H1A(0.233022) H1B(0.380142) H2A(0.588901)
 H2B(0.697863)
;
_shelx_res_file
;
TITL hs_sma_fe2_0m_a.res in C2/m
    hs_sma_fe2_0m.res
    created by SHELXL-2018/3 at 21:41:21 on 30-Jul-2019
REM Old TITL HS_SMA_Fe2_0m in C2/m #12
REM SHELXT solution in C2/m
REM R1 0.086, Rweak 0.014, Alpha 0.058, Orientation as input
REM Formula found by SHELXT: C4 O2 Cl3 Fe
CELL 0.71073 11.7058 6.9904 5.9153 90 100.159 90
ZERR 4 0.0007 0.0004 0.0004 0 0.002 0
LATT 7
SYMM -X,+Y,-Z
SFAC Cl Fe H O
UNIT 6 2 24 12

L.S. 10
PLAN  20
TEMP -153.16
BOND $H
LIST 6
MORE -1
CONF
fmap 2
acta 52
REM <olex2.extras>
REM <HklSrc "%.\\HS_SMA_Fe2_0m.hkl">
REM </olex2.extras>

WGHT    0.069600    0.988300
FVAR       1.20841
FE1   2    0.500000    0.500000    0.500000    10.25000    0.01266    0.01013 =
         0.00960    0.00000    0.00056    0.00000
CL3   1    0.500000    1.000000    0.000000    10.25000    0.01854    0.01258 =
         0.01202    0.00000    0.00185    0.00000
CL2   1    0.369887    0.500000    0.163818    10.50000    0.01814    0.01904 =
         0.01166    0.00000   -0.00254    0.00000
O1    4    0.599076    0.704444    0.376153    11.00000    0.01715    0.01411 =
         0.01445    0.00233    0.00147   -0.00107
AFIX   7
H1A   3    0.568876    0.733337    0.233022    11.00000   -1.50000
H1B   3    0.670178    0.661497    0.380142    11.00000   -1.50000
AFIX   6
O2    4    0.676519    1.000000    0.652943    10.50000    0.01564    0.01723 =
         0.01730    0.00000    0.00239    0.00000
H2A   3    0.669419    0.887589    0.588901    10.50000   -1.50000
H2B   3    0.749717    1.025753    0.697863    10.50000   -1.50000
AFIX   0
HKLF 4




REM  hs_sma_fe2_0m_a.res in C2/m
REM wR2 = 0.116987, GooF = S = 1.24763, Restrained GooF = 1.24763 for all data
REM R1 = 0.029655 for 713 Fo > 4sig(Fo) and 0.030565 for all 731 data
REM 34 parameters refined using 0 restraints

END

WGHT      0.0697      1.0091

REM Highest difference peak  0.785,  deepest hole -0.721,  1-sigma level  0.184
Q1    1   0.6322  0.7859  0.4719  11.00000  0.05    0.79
Q2    1   0.6447  1.0000  0.7734  10.50000  0.05    0.70
Q3    1   0.7269  1.1477  0.9582  11.00000  0.05    0.40
Q4    1   0.7439  1.0865  0.7366  11.00000  0.05    0.40
Q5    1   0.7634  1.0000  0.6268  10.50000  0.05    0.39
Q6    1   0.7548  1.0591  0.9022  11.00000  0.05    0.38
Q7    1   0.7018  0.6494  0.5518  11.00000  0.05    0.37
Q8    1   0.7413  0.8612  0.5990  11.00000  0.05    0.36
Q9    1   0.7333  0.7972  0.4380  11.00000  0.05    0.35
Q10   1   0.6715  0.8686  0.9789  11.00000  0.05    0.34
Q11   1   0.7014  1.0000  0.9276  10.50000  0.05    0.33
Q12   1   0.7330  0.8296  0.2901  11.00000  0.05    0.32
Q13   1   0.7598  0.7377  0.4240  11.00000  0.05    0.32
Q14   1   0.1977  0.5000  0.0561  10.50000  0.05    0.32
Q15   1   0.6962  1.0000  0.2754  10.50000  0.05    0.31
Q16   1   0.2681  0.5000  0.3265  10.50000  0.05    0.30
Q17   1   0.7042  1.0000  0.6381  10.50000  0.05    0.30
Q18   1   0.7700  1.0000  0.4960  10.50000  0.05    0.28
Q19   1   0.3290  0.5000  0.4149  10.50000  0.05    0.27
Q20   1   0.6702  0.5442  0.5973  11.00000  0.05    0.27
;
_shelx_res_checksum              94762
_shelx_hkl_file
;
  -2   0   0  637.54   18.40
   4   0   0 1545.55   45.20
  -4   0   0 1657.03   44.90
   4   0   0 1564.64   45.30
  -4   0   0 1516.55   45.10
  -4   0   0 1557.04   45.10
  -6   0   0 3169.18   87.39
  -6   0   0 3119.59   87.79
   6   0   0 3068.79   88.09
   6   0   0 3056.49   87.99
  -6   0   0 3085.29   87.89
  -8   0   0 6778.62  191.58
  -8   0   0 6932.91  190.68
   8   0   0 7045.40  192.28
   8   0   0 6849.61  191.98
  -8   0   0 6880.51  191.78
  10   0   0 2763.12   81.69
 -10   0   0 2736.43   79.39
 -10   0   0 2693.13   81.39
 -10   0   0 2693.33   80.89
  10   0   0 2794.12   81.89
 -12   0   0  595.54   23.20
  12   0   0  552.24   23.10
  12   0   0  531.25   22.80
 -12   0   0  511.15   21.90
 -12   0   0  514.85   22.00
  14   0   0  445.76   21.40
 -14   0   0  440.96   20.50
  14   0   0  450.65   21.60
 -14   0   0  449.56   20.90
  16   0   0  854.81   34.80
  16   0   0  859.11   36.20
   3  -1   0    6.30    1.00
  -3  -1   0   11.20    1.60
   3  -1   0    6.20    1.30
  -3  -1   0   11.40    1.10
  -3   1   0   12.90    1.70
  -3   1   0   10.90    1.90
   3   1   0    8.90    1.60
  -3   1   0    6.20    1.20
   5  -1   0 1727.03   50.69
  -5  -1   0 1742.33   51.39
  -5  -1   0 1789.92   51.59
  -5  -1   0 1761.92   50.49
   5  -1   0 1766.12   52.19
  -5   1   0 1809.72   51.99
   5   1   0 1821.32   50.59
  -5   1   0 1740.63   50.59
   5   1   0 1744.53   50.49
   5   1   0 1735.23   51.69
   7  -1   0 1997.10   60.19
  -7  -1   0 2016.00   59.09
  -7  -1   0 1999.60   59.29
  -7  -1   0 1995.20   58.39
   7  -1   0 1981.80   63.59
   7   1   0 2058.19   57.79
   7   1   0 1992.90   58.49
  -7   1   0 1997.70   58.39
  -7   1   0 1994.90   59.69
  -7   1   0 2003.40   58.49
   7   1   0 1967.00   59.69
  -9  -1   0 2042.60   62.19
   9  -1   0 2098.89   61.89
  -9  -1   0 2129.79   61.39
  -9  -1   0 2024.60   61.29
   9  -1   0 2032.30   63.09
  -9   1   0 2058.99   61.29
  -9   1   0 2018.50   62.59
  -9   1   0 1995.60   60.59
   9   1   0 2087.69   62.99
  -9   1   0 2028.00   60.99
   9   1   0 2065.39   61.59
  11  -1   0  311.97   14.90
  11  -1   0  305.07   15.70
 -11  -1   0  319.67   13.50
 -11  -1   0  311.37   14.90
 -11  -1   0  312.37   15.00
 -11   1   0  297.27   14.10
  11   1   0  300.77   15.30
 -11   1   0  297.17   13.40
  11   1   0  305.77   14.60
 -11   1   0  300.87   15.00
 -11   1   0  261.57   13.40
  13  -1   0    1.90    2.80
 -13  -1   0    7.80    3.00
 -13  -1   0    2.30    1.90
  13  -1   0    0.80    2.30
 -13   1   0    3.40    2.40
  13   1   0    6.40    2.90
 -13   1   0    1.00    2.30
 -13   1   0    3.60    1.70
 -13   1   0    3.30    2.60
  13   1   0   -2.00    2.00
  15  -1   0  563.14   25.10
 -15  -1   0  516.15   23.50
  15  -1   0  550.04   25.80
 -15   1   0  540.95   24.90
  15   1   0  549.74   24.50
  15   1   0  553.74   25.70
   2  -2   0 1447.86   42.10
  -2  -2   0 1485.15   41.50
  -2  -2   0 1405.56   42.80
   2  -2   0 1444.06   42.90
  -2   2   0 1449.26   42.00
  -2   2   0 1429.96   43.30
   2   2   0 1464.75   41.50
   2   2   0 1440.36   42.50
   4  -2   0 2338.87   65.39
  -4  -2   0 2397.76   67.49
   4  -2   0 2376.96   68.29
  -4  -2   0 2362.36   68.19
  -4  -2   0 2392.76   64.89
  -4   2   0 2387.76   65.49
  -4   2   0 2357.36   67.99
   4   2   0 2336.17   64.69
  -4   2   0 2346.87   69.49
   4   2   0 2272.27   67.49
  -8  -2   0 4255.07  122.79
   8  -2   0 4395.26  121.49
  -8  -2   0 4549.14  126.39
  -8  -2   0 4400.96  120.99
   8  -2   0 4321.67  124.39
  -8   2   0 4359.46  123.89
  -8   2   0 4403.56  121.29
   8   2   0 4260.37  120.69
  -8   2   0 4097.99  122.99
   8   2   0 4251.67  123.69
   8   2   0 4157.78  120.69
  10  -2   0  228.38   13.40
 -10  -2   0  239.38   12.70
  10  -2   0  249.58   12.00
 -10  -2   0  262.97   12.30
 -10  -2   0  244.48   11.40
 -10   2   0  240.48   11.80
 -10   2   0  248.28   13.30
  10   2   0  233.98   13.10
  10   2   0  237.98   11.40
 -10   2   0  230.28   12.10
  10   2   0  233.08   10.60
 -10   2   0  259.47   11.80
 -12  -2   0  148.59   10.40
 -12  -2   0  149.69    9.50
  12  -2   0  152.98   10.10
  12  -2   0  125.69   13.80
  12   2   0  136.49   10.70
 -12   2   0  142.59    9.00
  12   2   0  148.79    9.40
 -12   2   0  157.68    9.60
 -12   2   0  148.89   10.50
 -12   2   0  154.68    9.60
 -14  -2   0 1167.58   40.80
  14  -2   0 1186.78   42.10
  14  -2   0 1184.38   44.30
 -14   2   0 1191.58   48.20
 -14   2   0 1181.08   41.40
  14   2   0 1183.88   44.00
 -14   2   0 1142.09   38.90
 -14   2   0 1152.18   39.70
  14   2   0 1200.68   41.00
   1  -3   0  198.88    6.20
   1  -3   0  210.18    8.30
  -1  -3   0  208.58   10.10
  -1  -3   0  194.38    7.50
  -1  -3   0  199.98    7.00
   1  -3   0  208.68   10.10
  -1   3   0  214.68   10.30
   1   3   0  208.38    9.90
  -1   3   0  208.98    8.30
   1   3   0  216.98    7.00
   1   3   0  202.88    7.50
  -3  -3   0  175.98    9.40
  -3  -3   0  186.28    8.00
   3  -3   0  174.88    8.60
   3  -3   0  185.48    9.40
  -3   3   0  185.98    8.60
   3   3   0  182.58    9.00
  -3   3   0  176.48    9.70
   3   3   0  171.98    7.90
   5  -3   0   38.90    2.40
   5  -3   0   33.00    4.00
  -5  -3   0   33.00    4.00
   5   3   0   34.50    3.70
   5   3   0   31.60    3.70
  -5   3   0   33.70    4.30
  -5   3   0   43.40    4.20
   7  -3   0 2409.46   67.69
  -7  -3   0 2390.66   70.49
  -7  -3   0 2343.17   66.69
   7  -3   0 2425.86   72.19
  -7  -3   0 2365.26   71.59
   7   3   0 2402.86   71.29
   7   3   0 2320.87   69.19
   7   3   0 2373.76   66.19
  -7   3   0 2281.57   72.09
   9  -3   0  520.05   19.00
   9  -3   0  528.25   22.40
  -9  -3   0  511.65   21.00
  -9   3   0  519.35   21.90
   9   3   0  508.05   19.10
   9   3   0  498.65   17.70
  -9   3   0  531.85   21.80
  -9   3   0  519.75   18.90
 -11  -3   0  870.71   32.40
  11  -3   0  863.11   30.30
 -11  -3   0  889.51   31.20
 -11  -3   0  842.52   29.40
  11   3   0  871.11   29.30
  11   3   0  868.71   37.30
 -11   3   0  880.81   31.30
 -11   3   0  866.41   30.00
 -11   3   0  869.01   33.10
  11   3   0  856.01   29.00
 -11   3   0  870.31   32.50
  13  -3   0   20.50    5.50
 -13  -3   0   13.90    3.00
 -13  -3   0   18.00    3.50
  13  -3   0   11.50    3.70
  13   3   0   15.50    3.50
 -13   3   0   17.20    4.30
 -13   3   0   14.30    3.70
 -13   3   0   11.90    3.60
  13   3   0   14.60    4.60
 -15   3   0  430.26   19.20
   2  -4   0 2737.83   77.39
  -2  -4   0 2578.94   75.79
   2  -4   0 2673.93   79.99
  -2  -4   0 2727.53   73.69
  -2  -4   0 2700.23   80.49
  -2   4   0 2714.53   77.19
   2   4   0 2629.24   79.49
   2   4   0 2662.43   75.89
  -2   4   0 2702.43   80.89
   2   4   0 2711.43   73.49
   4  -4   0    8.60    2.50
   4  -4   0    8.60    2.50
  -4  -4   0    9.10    2.70
   4   4   0    9.70    2.30
  -4   4   0    8.50    2.80
   4   4   0   18.40    3.70
   6  -4   0 3174.98   87.09
   6  -4   0 3162.78   93.89
  -6  -4   0 3119.59   94.69
  -6  -4   0 3193.28   92.09
  -6   4   0 2970.00   95.19
  -6   4   0 3576.74  100.49
   6   4   0 3088.79   92.39
   6   4   0 3060.29   92.29
   8  -4   0 3891.91  113.29
   8  -4   0 3847.52  106.59
  -8  -4   0 3734.83  110.79
  -8  -4   0 3764.52  112.59
  -8   4   0 3811.32  115.69
   8   4   0 3776.62  111.69
   8   4   0 3705.73  109.59
  -8   4   0 3930.61  112.39
 -10  -4   0 1103.69   38.80
 -10  -4   0 1105.19   39.00
  10  -4   0 1092.19   35.40
  10   4   0 1133.09   42.60
 -10   4   0 1107.69   40.60
  10   4   0 1039.90   36.10
 -10   4   0 1117.09   39.90
 -12  -4   0  286.07   14.90
  12  -4   0  282.47   14.00
  12  -4   0  300.27   17.70
 -12  -4   0  281.97   16.00
 -12   4   0  284.67   16.20
  12   4   0  297.57   17.30
 -12   4   0  284.47   15.50
  12   4   0  280.07   13.30
  14  -4   0  510.85   21.90
  14  -4   0  580.04   38.30
  14   4   0  464.95   19.00
 -14   4   0  506.35   23.50
 -14   4   0  469.35   22.30
  -1  -5   0 2826.52   81.89
  -1  -5   0 2962.50   81.69
   1  -5   0 2953.00   83.59
  -1  -5   0 2921.61   88.89
   1  -5   0 2986.70   88.79
  -1   5   0 2944.71   83.49
   1   5   0 2805.62   87.89
   1   5   0 2994.60   82.09
  -1   5   0 2870.21   88.79
   1   5   0 2934.81   81.49
  -3  -5   0   35.80    5.20
  -3  -5   0   36.30    3.60
   3  -5   0   35.80    4.30
   3  -5   0   40.70    5.60
   3   5   0   36.00    3.70
   3   5   0   32.80    4.90
  -3   5   0   33.70    6.40
  -3   5   0   42.90    4.40
  -5  -5   0 1169.88   39.30
  -5  -5   0 1252.27   43.90
   5  -5   0 1256.67   41.70
   5   5   0 1259.07   40.10
  -5   5   0 1211.28   41.70
  -5   5   0 1231.98   44.50
   5   5   0 1234.08   41.60
   7  -5   0  708.83   28.00
  -7  -5   0  659.03   28.40
  -7  -5   0  689.23   25.90
   7   5   0  754.42   30.20
   7   5   0  655.13   26.20
  -7   5   0  708.13   27.20
  -7   5   0  632.54   28.70
   9  -5   0 1377.56   41.70
   9  -5   0 1545.45   54.89
  -9  -5   0 1468.45   48.60
  -9  -5   0 1435.56   50.49
   9   5   0 1416.76   47.30
   9   5   0 1426.66   49.60
  -9   5   0 1415.46   51.79
  -9   5   0 1513.85   50.19
  11  -5   0   24.60    5.50
 -11  -5   0   29.80    5.40
 -11  -5   0   35.60    6.30
  11  -5   0   27.00    3.70
  11   5   0   33.10    5.30
 -11   5   0   38.20    6.30
 -11   5   0   34.40    5.70
  11   5   0   27.30    5.80
  13  -5   0    4.90    5.60
 -13  -5   0   -2.90    2.30
  13  -5   0    1.50    1.70
 -13   5   0   -2.90    3.10
  13   5   0   -3.00    2.60
 -13   5   0   -3.00    2.70
  13   5   0    2.20    2.90
   0  -6   0 7830.22  212.48
   0  -6   0 7822.22  220.58
   0   6   0 7705.63  212.18
   0   6   0 7446.75  219.68
   0   6   0 7736.13  210.48
   2  -6   0 1291.57   46.00
  -2  -6   0 1242.08   39.30
   2  -6   0 1296.87   41.50
  -2  -6   0 1287.07   46.80
  -2   6   0 1289.37   47.00
   2   6   0 1235.18   45.20
  -2   6   0 1336.57   41.40
   2   6   0 1406.56   44.60
   2   6   0 1303.87   37.20
  -4  -6   0   79.69    6.10
   4  -6   0   85.99    8.40
  -4  -6   0   75.99    8.50
   4  -6   0   98.99    7.80
   4   6   0   80.79    8.00
   4   6   0   72.99    6.00
  -4   6   0   77.79    6.70
  -4   6   0   68.39    8.20
  -6  -6   0 2276.37   75.59
   6  -6   0 2265.17   72.69
  -6  -6   0 2265.07   69.99
   6   6   0 2303.57   70.59
   6   6   0 2264.57   72.49
  -6   6   0 2285.67   76.49
  -6   6   0 2384.66   72.09
  -8  -6   0 2479.35   80.59
   8  -6   0 2467.15   79.29
  -8  -6   0 2477.15   76.29
   8   6   0 2391.86   76.49
  -8   6   0 2375.06   81.39
   8   6   0 2424.16   77.09
  -8   6   0 2557.84   78.19
  10  -6   0  590.14   28.10
 -10  -6   0  634.94   28.10
 -10  -6   0  581.44   25.40
  10   6   0  551.24   26.40
 -10   6   0  599.34   28.90
  10   6   0  572.44   24.60
 -12  -6   0  124.59   11.30
 -12   6   0  140.39   12.80
  12   6   0  126.79   10.00
  12   6   0  146.69   12.50
   1  -7   0  120.09    7.50
  -1  -7   0  113.19    6.10
   1  -7   0  116.99   10.70
  -1  -7   0  113.69   10.90
   1   7   0  109.89   10.60
   1   7   0  122.89    6.10
  -1   7   0  104.99    7.00
   1   7   0  112.69    6.00
  -1   7   0   99.99   10.20
  -3  -7   0    5.90    2.00
   3  -7   0    7.80    3.90
   3  -7   0    8.70    2.80
  -3  -7   0    1.60    2.80
   3   7   0    3.60    1.80
  -3   7   0    4.50    2.20
   3   7   0    5.80    3.50
  -3   7   0    5.40    3.30
  -5  -7   0    9.50    3.00
  -5  -7   0   15.10    4.90
   5  -7   0    9.90    3.50
   5   7   0   11.60    3.30
  -5   7   0    8.80    4.00
  -5   7   0   11.00    2.90
   5   7   0   14.80    4.20
   7  -7   0  795.42   33.70
  -7  -7   0  817.32   31.10
  -7  -7   0  781.22   46.20
   7   7   0  781.62   31.30
  -7   7   0  852.01   34.10
  -7   7   0  861.51   39.30
   7   7   0  766.82   32.60
  -9  -7   0  145.69   13.20
   9  -7   0  133.19   12.30
  -9  -7   0  143.49   11.20
   9   7   0  125.19   11.20
   9   7   0  140.19   11.40
  -9   7   0  140.39   13.10
 -11  -7   0  374.06   21.40
  11  -7   0  384.36   24.30
  11   7   0  358.86   21.60
  11   7   0  290.17   19.10
   0  -8   0 2537.45   73.89
   0  -8   0 2560.94   84.99
   0   8   0 2499.05   73.49
   0   8   0 2489.15   84.39
   2  -8   0  584.64   28.40
   2  -8   0  565.94   22.60
  -2  -8   0  593.74   29.60
   2   8   0  557.54   27.80
  -2   8   0  555.94   22.20
   2   8   0  561.54   20.20
  -2   8   0  544.65   28.70
  -4  -8   0  262.77   13.10
   4  -8   0  281.47   15.50
  -4  -8   0  272.87   19.40
   4  -8   0  264.17   17.90
  -4   8   0  260.57   14.60
   4   8   0  256.47   13.20
   4   8   0  256.47   17.30
  -4   8   0  265.67   19.10
  -6  -8   0 1775.62   65.89
  -6  -8   0 1747.83   57.29
   6  -8   0 1747.23   60.69
   6   8   0 1750.62   57.39
   6   8   0 1730.73   61.69
  -6   8   0 1772.92   59.69
  -8  -8   0 1123.79   41.70
  -8  -8   0 1126.79   47.50
   8  -8   0 1117.39   45.10
   8   8   0 1113.09   42.10
   1  -9   0  401.86   24.10
  -1  -9   0  400.36   24.80
   1  -9   0  418.26   17.30
  -1   9   0  392.56   18.10
  -3  -9   0   10.10    3.40
   3  -9   0   12.30    3.40
   3  -9   0   17.00    5.10
  -3   9   0    7.00    3.30
   3   9   0   13.00    2.70
  -5  -9   0  155.38   15.20
   5  -9   0  142.19   11.70
   5   9   0  132.59    9.70
  -5   9   0  127.19   10.70
 -16   0   1    0.80    1.80
  16   0  -1   -1.90    2.90
 -16   0   1   -2.60    1.60
  16   0  -1    3.00    2.40
 -14   0   1  582.34   25.10
  14   0  -1  624.74   27.60
  14   0  -1  681.63   31.40
 -14   0   1  643.94   25.20
 -14   0   1  607.94   25.40
  12   0  -1  224.08   13.70
  12   0  -1  250.37   14.10
 -12   0   1  238.58   13.00
 -12   0   1  233.78   12.50
 -12   0   1  237.18   12.70
  10   0  -1 2328.47   71.09
 -10   0   1 2205.28   69.29
  10   0  -1 2290.97   71.09
 -10   0   1 2396.66   69.69
 -10   0   1 2406.26   70.69
   8   0  -1 1056.89   35.00
   8   0  -1 1033.00   34.90
  -8   0   1 1132.69   36.10
  -8   0   1 1088.69   34.10
  -8   0   1 1012.50   33.80
   6   0  -1  297.77   12.10
  -6   0   1  286.57   11.40
  -6   0   1  294.17   12.60
   6   0  -1  293.97   12.20
  -6   0   1  283.67   11.30
   6   0  -1  287.67   11.90
   4   0  -1 2360.26   69.29
  -4   0   1 2438.76   68.99
  -4   0   1 2459.95   68.89
  -4   0   1 2502.95   70.59
   4   0  -1 2439.76   69.39
   4   0  -1 2512.45   70.39
  -2   0  -1  113.99    3.80
   2   0   1  118.09    5.10
  -2   0  -1  119.59    5.30
   2   0   1  110.69    4.90
   4   0   1 4073.59  112.79
  -4   0  -1 4052.99  113.39
  -6   0  -1  356.86   14.50
   6   0   1  400.66   14.90
  -6   0  -1  387.46   11.50
  -6   0  -1  361.46   14.70
   6   0   1  360.06   14.10
  -8   0  -1 1314.27   42.10
   8   0   1 1295.77   41.60
   8   0   1 1307.17   41.50
  -8   0  -1 1295.47   42.40
  -8   0  -1 1369.86   37.80
 -10   0  -1  168.38   10.40
  10   0   1  161.38   10.00
  10   0   1  167.28   10.00
 -10   0  -1  164.08   10.40
 -12   0  -1 1616.64   54.59
  12   0   1 1698.93   54.19
  12   0   1 1606.74   53.49
 -12   0  -1 1657.23   54.49
 -14   0  -1  159.18   12.10
  14   0   1  159.38   11.70
 -14   0  -1  176.78   12.90
  14   0   1  160.38   11.70
  15  -1  -1  201.78   14.20
  15  -1  -1  216.48   15.30
 -15  -1   1  220.78   12.70
 -15  -1   1  202.88   12.30
 -15   1   1  213.48   12.50
 -15   1   1  238.68   17.40
 -15   1   1  211.58   13.00
  15   1  -1  234.58   15.40
  15   1  -1  212.48   14.10
 -15   1   1  217.68   13.10
 -13  -1   1   90.49    7.30
 -13  -1   1   97.79    8.10
  13  -1  -1   78.99   12.70
  13  -1  -1   85.49    8.60
 -13  -1   1   78.59    7.50
 -13   1   1   91.29    7.80
 -13   1   1   83.29    7.60
  13   1  -1   79.09    8.70
  13   1  -1   92.69    8.30
 -13   1   1   79.89    6.90
  11  -1  -1 3529.15  103.99
  11  -1  -1 3477.85  102.59
 -11  -1   1 3588.44  102.69
 -11  -1   1 3476.45  101.59
 -11  -1   1 3317.17   99.99
 -11   1   1 3470.65  101.79
  11   1  -1 3411.26  103.49
 -11   1   1 3414.76  101.89
 -11   1   1 3435.46  100.39
  11   1  -1 3520.25  102.19
  -9  -1   1 6417.26  175.48
  -9  -1   1 6259.07  176.18
   9  -1  -1 6233.98  174.28
  -9  -1   1 6111.59  172.38
   9  -1  -1 6228.18  175.58
  -9   1   1 6260.27  174.48
  -9   1   1 5997.70  173.88
   9   1  -1 6203.88  173.38
  -9   1   1 6291.57  172.68
   9   1  -1 6045.50  175.08
   9   1  -1 6109.29  173.68
  -7  -1   1  124.39    7.10
  -7  -1   1  127.69    6.50
  -7  -1   1  124.09    8.10
   7  -1  -1  121.29    7.40
   7  -1  -1  111.79    7.60
   7   1  -1  123.99    7.00
   7   1  -1  129.19    7.40
   7   1  -1  130.69    7.80
  -7   1   1  134.89    7.90
  -7   1   1  129.29    7.40
  -7   1   1  125.99    6.50
   5  -1  -1 1889.91   56.69
  -5  -1   1 1951.30   54.79
  -5  -1   1 1765.82   57.29
  -5  -1   1 1940.61   55.79
   5  -1  -1 1972.70   55.59
  -5   1   1 1936.61   56.19
   5   1  -1 1933.41   56.49
  -5   1   1 2026.60   57.19
   5   1  -1 1880.71   55.19
  -5   1   1 1962.60   54.89
   5   1   1 9131.29  256.47
   7  -1   1 3207.38   92.19
   7  -1   1 3228.48   93.69
  -7  -1  -1 3064.69   88.79
  -7  -1  -1 3262.07   93.29
  -7  -1  -1 3294.57   93.89
  -7   1  -1 3145.49   90.79
  -7   1  -1 3277.57   90.29
  -7   1  -1 3217.18   93.09
   7   1   1 3431.16   92.99
   7   1   1 3252.17   93.39
  -7   1  -1 3246.88   94.29
  -9  -1  -1  203.18   11.40
  -9  -1  -1  202.08   11.10
   9  -1   1  208.98   11.40
   9  -1   1  208.18   10.50
  -9   1  -1  203.78    8.60
   9   1   1  203.28   11.20
   9   1   1  215.18   10.60
  -9   1  -1  216.88   11.30
  -9   1  -1  209.28   11.70
  -9   1  -1  215.58    9.00
  11  -1   1 1271.87   42.90
 -11  -1  -1 1264.27   43.00
 -11  -1  -1 1227.28   42.50
  11  -1   1 1231.28   41.30
  11   1   1 1258.47   41.30
 -11   1  -1 1268.97   37.60
  11   1   1 1258.07   42.60
 -11   1  -1 1255.37   42.30
 -11   1  -1 1244.38   43.30
 -11   1  -1 1184.88   37.00
  13  -1   1 3304.37  100.39
 -13  -1  -1 3301.87  101.79
 -13  -1  -1 3413.06  102.79
  13  -1   1 3334.17  101.99
  13   1   1 3332.67  101.79
 -13   1  -1 3550.84  112.79
  13   1   1 3270.87   99.89
  15  -1   1  232.08   14.90
  15  -1   1  197.48   13.40
 -15  -1  -1  197.28   14.10
  15   1   1  227.98   15.20
  15   1   1  237.98   14.20
 -16  -2   1   21.70    4.00
  16  -2  -1   21.60    5.00
  16   2  -1   22.20    6.50
  16   2  -1   20.50    4.90
 -16   2   1   12.50    4.70
 -14  -2   1   12.70    3.70
 -14  -2   1   15.30    3.30
  14  -2  -1   21.70    7.50
  14  -2  -1   12.40    4.30
 -14   2   1    8.00    3.40
 -14   2   1   13.00    4.30
  14   2  -1   17.70    4.30
 -14   2   1   10.00    2.90
 -14   2   1   17.20    3.50
  14   2  -1   14.90    5.40
 -12  -2   1  647.64   25.30
 -12  -2   1  589.34   22.10
  12  -2  -1  621.14   27.70
 -12  -2   1  576.14   24.00
  12  -2  -1  590.64   24.40
  12   2  -1  581.64   23.30
 -12   2   1  590.14   24.10
  12   2  -1  567.94   22.50
 -12   2   1  573.14   24.20
  12   2  -1  608.34   26.60
 -12   2   1  576.64   22.30
 -12   2   1  601.54   24.80
  10  -2  -1  332.17   15.20
 -10  -2   1  330.27   13.50
  10  -2  -1  342.57   17.10
 -10  -2   1  355.86   16.90
 -10  -2   1  338.67   15.40
 -10   2   1  329.07   16.00
 -10   2   1  332.27   15.70
  10   2  -1  334.87   14.50
 -10   2   1  336.07   13.80
  10   2  -1  322.67   14.70
 -10   2   1  329.57   15.70
  10   2  -1  314.57   16.30
  -8  -2   1  241.48    9.80
  -8  -2   1  254.17   13.40
   8  -2  -1  259.37   12.10
   8  -2  -1  241.88   12.80
  -8  -2   1  241.98   11.70
  -8   2   1  244.98   12.20
  -8   2   1  235.08   11.90
   8   2  -1  232.18   12.30
  -8   2   1  231.08   10.00
   8   2  -1  243.68   11.50
   8   2  -1  228.08   10.40
   6  -2  -1    0.70    1.10
  -6  -2   1    0.20    1.60
  -6  -2   1    1.90    0.80
   6  -2  -1    0.20    1.40
  -6   2   1    0.80    1.20
   6   2  -1    0.30    0.90
   6   2  -1    0.90    1.40
   6   2  -1    2.20    1.40
  -6   2   1    0.80    0.80
   4  -2  -1 3614.04  105.09
  -4  -2   1 3794.32  104.19
   4  -2  -1 3773.42  102.69
  -4  -2   1 3679.03  106.69
  -4  -2   1 3634.74  102.79
  -4   2   1 3753.92  104.79
   4   2  -1 3729.43  104.79
  -4   2   1 3804.32  102.19
   0  -2   1 1264.67   36.20
   0  -2   1 1262.47   38.30
   0  -2   1 1282.87   36.50
   0  -2  -1 1283.97   38.00
   0   2   1 1242.28   37.90
   0   2  -1 1282.87   38.30
   0   2   1 1244.98   35.80
   0   2  -1 1276.77   36.60
   0   2   1 1249.88   36.30
   0   2  -1 1236.88   36.20
   4  -2   1 4528.05  126.19
   4  -2   1 4334.77  124.39
  -4  -2  -1 4304.07  125.39
  -4  -2  -1 4621.84  126.79
  -4  -2  -1 4457.55  125.09
   4  -2   1 4828.02  128.99
   4   2   1 4634.84  126.49
  -4   2  -1 4541.15  127.49
   6  -2   1 5652.03  157.08
  -6  -2  -1 5647.64  156.88
  -6  -2  -1 5717.93  157.98
  -6  -2  -1 5592.64  159.48
  -6   2  -1 5672.63  160.38
   6   2   1 5839.32  156.78
   6   2   1 5869.41  159.58
  -6   2  -1 5541.65  161.58
   8  -2   1  174.28   10.10
  -8  -2  -1  146.09    9.20
  -8  -2  -1  143.09    6.70
   8  -2   1  155.58    8.00
  -8  -2  -1  141.89    8.30
   8   2   1  147.19    6.30
   8   2   1  157.48    7.80
   8   2   1  144.49    9.00
  -8   2  -1  147.69    8.20
  -8   2  -1  153.78    9.70
  10  -2   1   83.69    6.40
 -10  -2  -1   66.59    6.20
 -10  -2  -1   71.99    6.90
  10  -2   1   75.89    7.40
 -10  -2  -1   75.79    4.10
 -10   2  -1   80.29    7.40
  10   2   1   81.29    6.20
 -10   2  -1   69.89    5.60
  10   2   1   74.99    7.00
 -10   2  -1   74.59    5.50
  12  -2   1  259.77   15.60
 -12  -2  -1  297.87   15.30
 -12  -2  -1  289.77   17.80
  12  -2   1  276.17   14.10
 -12   2  -1  291.97   16.30
  12   2   1  297.37   14.00
  12   2   1  281.27   15.80
 -12   2  -1  272.77   12.10
  14  -2   1  189.58   12.20
 -14  -2  -1  191.48   12.30
  14  -2   1  164.18   12.40
  14   2   1  180.98   12.80
  14   2   1  180.48   11.40
  15  -3  -1  421.36   21.20
  15  -3  -1  424.26   26.70
 -15  -3   1  433.36   19.90
 -15   3   1  420.66   21.00
  15   3  -1  416.36   33.70
 -15   3   1  410.66   19.00
 -15   3   1  437.96   24.30
  15   3  -1  413.06   19.10
 -13  -3   1  402.46   19.30
 -13  -3   1  378.46   18.80
 -13  -3   1  398.56   16.10
  13  -3  -1  390.96   18.70
  13  -3  -1  348.17   20.30
  13   3  -1  385.96   20.90
  13   3  -1  386.56   17.00
  13   3  -1  356.86   16.80
 -13   3   1  365.56   19.10
 -13   3   1  384.66   16.60
 -13   3   1  362.66   18.70
 -13   3   1  394.06   19.60
  11  -3  -1 2494.35   75.79
 -11  -3   1 2446.46   72.59
 -11  -3   1 2599.14   79.09
 -11  -3   1 2372.16   76.39
  11  -3  -1 2632.64   81.39
 -11   3   1 2462.65   78.49
  11   3  -1 2529.85   85.69
 -11   3   1 2488.65   77.69
  11   3  -1 2458.75   75.49
 -11   3   1 2496.25   77.39
  11   3  -1 2543.85   77.39
 -11   3   1 2513.95   73.39
   9  -3  -1 2581.24   73.09
  -9  -3   1 2497.05   77.49
   9  -3  -1 2433.86   76.79
  -9  -3   1 2452.15   74.29
   9   3  -1 2433.66   76.09
   9   3  -1 2456.65   73.89
  -9   3   1 2476.45   75.29
  -9   3   1 2508.25   71.09
   9   3  -1 2521.85   71.19
  -9   3   1 2422.06   75.09
  -9   3   1 2384.26   76.59
   7  -3  -1    3.20    1.60
  -7  -3   1    1.20    1.30
  -7  -3   1    4.60    1.10
  -7  -3   1    5.80    2.60
   7  -3  -1    5.60    2.40
  -7   3   1    6.20    2.50
   7   3  -1    5.20    2.10
  -7   3   1    4.10    1.30
  -7   3   1    1.80    1.40
   7   3  -1    0.00    1.50
  -5  -3   1 3882.01  113.19
  -5  -3   1 3920.21  105.59
   5  -3  -1 3924.91  111.19
  -5  -3   1 3790.52  105.99
   5  -3  -1 3955.10  106.69
  -5  -3   1 3882.11  109.49
  -5   3   1 3868.81  106.19
   5   3  -1 3934.81  110.39
  -5   3   1 3764.32  112.59
  -5   3   1 3912.41  110.29
   5   3  -1 3772.52  110.69
  -1  -3   1 2832.12   80.49
  -1  -3   1 2855.91   80.69
   1  -3  -1 2975.80   84.09
   1  -3  -1 2889.81   81.59
  -1  -3   1 2922.61   84.59
  -1   3   1 2912.71   79.49
   1   3  -1 2885.51   84.09
   1   3  -1 2893.81   80.59
   1   3  -1 2888.41   81.09
  -1   3   1 2879.31   84.29
  -1   3   1 2909.01   81.29
   1  -3   1    4.20    1.60
  -1  -3  -1    6.80    1.90
   1  -3   1    8.00    1.20
   1  -3   1    4.90    1.40
   1   3   1    5.00    1.00
   1   3   1    3.90    1.60
   3  -3   1 2417.16   66.99
  -3  -3  -1 2412.66   68.79
   3  -3   1 2353.66   70.39
  -3  -3  -1 2383.36   70.09
   3   3   1 2382.66   66.29
  -3   3  -1 2370.96   69.69
   3   3   1 2358.16   69.39
   3   3   1 2440.56   66.19
   3   3   1 2456.15   68.89
  -3   3  -1 2336.87   70.99
   5  -3   1 8738.33  235.78
  -5   3  -1 8573.24  240.58
  -7  -3  -1 5325.47  153.68
   7  -3   1 5548.25  154.68
  -7  -3  -1 5226.48  151.58
  -7  -3  -1 5096.19  150.48
   7  -3   1 5405.56  150.08
   7   3   1 5552.74  154.18
   7   3   1 5631.94  149.39
  -7   3  -1 5609.54  155.08
   7   3   1 5621.44  153.88
  -7   3  -1 5196.68  153.78
   9  -3   1  119.39    9.20
   9  -3   1  132.19    7.30
  -9  -3  -1  111.69    7.30
  -9  -3  -1  115.19    6.80
  -9  -3  -1  111.59    8.50
  -9   3  -1  118.59    8.30
   9   3   1  122.79    6.60
   9   3   1  111.79    8.50
  -9   3  -1  113.59    9.00
 -11  -3  -1  322.77   16.80
 -11  -3  -1  308.37   11.90
  11  -3   1  323.57   17.30
 -11  -3  -1  264.57   14.20
  11  -3   1  303.97   14.10
 -11   3  -1  313.87   14.10
  11   3   1  282.57   11.40
  11   3   1  330.27   13.50
 -11   3  -1  315.87   15.00
  11   3   1  312.97   16.60
 -11   3  -1  320.57   17.30
  13  -3   1 2127.29   71.89
 -13  -3  -1 2375.26   80.69
  13  -3   1 2146.69   67.59
  13   3   1 2119.89   71.09
 -13   3  -1 2152.48   65.69
  13   3   1 2228.18   66.49
  14  -4  -1  195.18   12.90
  14  -4  -1  211.38   15.80
 -14  -4   1  220.98   14.10
  14   4  -1  252.07   18.50
 -14   4   1  216.48   14.80
  14   4  -1  199.18   12.20
 -14   4   1  220.18   15.10
 -12  -4   1  267.27   15.90
 -12  -4   1  239.28   14.20
  12  -4  -1  230.48   12.70
 -12   4   1  217.68   14.40
 -12   4   1  243.58   11.60
 -12   4   1  256.57   14.90
  12   4  -1  256.97   16.20
  12   4  -1  229.58   13.30
 -12   4   1  226.88   15.00
  10  -4  -1 1124.29   42.60
 -10  -4   1 1041.50   36.10
 -10  -4   1 1051.79   39.20
  10  -4  -1  833.12   37.50
 -10   4   1 1051.49   31.80
 -10   4   1  981.00   38.70
 -10   4   1  999.40   36.70
 -10   4   1  978.20   36.80
  10   4  -1 1015.50   38.00
  10   4  -1 1005.40   35.30
  -8  -4   1  122.49   10.30
  -8  -4   1  128.39    8.30
   8  -4  -1  119.49    6.20
   8  -4  -1  114.19    9.20
   8   4  -1  118.09    9.10
  -8   4   1  103.99    9.30
  -8   4   1  130.69    9.10
   8   4  -1  126.49    8.90
  -8   4   1  134.49    5.90
   6  -4  -1  101.99    7.90
   6  -4  -1   98.89    4.20
  -6  -4   1   98.69    6.90
  -6  -4   1   95.19    8.60
  -6   4   1  118.49    9.30
  -6   4   1   93.59    8.40
  -6   4   1  101.19    3.90
   6   4  -1  101.69    7.70
   6   4  -1   97.59    7.30
  -4  -4   1    5.60    1.70
   4   4  -1    7.20    2.90
   4   4  -1   12.40    2.40
   2  -4  -1 2603.94   74.89
  -2  -4   1 2595.84   78.69
   2  -4  -1 2703.33   78.09
  -2  -4   1 2445.46   71.99
  -2  -4   1 2603.84   73.59
   2   4  -1 2648.33   74.09
   2   4  -1 2580.44   72.29
  -2   4   1 2543.75   78.29
  -2   4   1 2603.94   74.59
   2   4  -1 2565.94   77.59
   0  -4   1  319.97   10.80
   0  -4  -1  327.97   11.90
   0  -4  -1  327.37   14.80
   0  -4   1  309.57   14.80
   0  -4   1  310.57   12.00
   0   4  -1  313.07   11.20
   0   4   1  309.57   10.80
   0   4  -1  303.77   14.60
   0   4   1  310.77   11.50
   0   4   1  308.57   14.60
   0   4  -1  286.47   14.80
   2  -4   1  419.36   17.80
   2  -4   1  392.56   17.90
  -2  -4  -1  406.96   14.80
  -2  -4  -1  402.56   17.40
   2   4   1  398.96   14.80
   2   4   1  416.46   13.20
  -2   4  -1  473.95   18.90
   2   4   1  399.96   17.00
  -2   4  -1  409.76   15.80
   4  -4   1 2185.78   66.49
   4  -4   1 2275.77   66.09
   4  -4   1 2353.86   61.49
  -4  -4  -1 2045.70   64.09
   4  -4   1 2167.98   60.29
  -4  -4  -1 2148.89   66.29
  -4   4  -1 2201.18   65.69
   4   4   1 2155.88   65.19
   4   4   1 2149.88   64.39
  -4   4  -1 2085.09   67.39
  -6  -4  -1  920.11   32.70
   6  -4   1  953.80   28.30
   6  -4   1  971.30   33.10
   6  -4   1 1018.70   34.10
   6  -4   1  955.80   29.20
   6   4   1  942.51   31.60
  -6   4  -1  892.61   34.10
  -6   4  -1  950.30   33.70
   6   4   1  949.90   32.50
   8  -4   1  505.35   21.70
  -8  -4  -1  492.05   20.70
   8  -4   1  487.75   16.90
  -8  -4  -1  472.35   19.40
  -8   4  -1  477.65   21.40
   8   4   1  477.55   15.00
   8   4   1  469.85   20.50
   8   4   1  484.65   18.20
  -8   4  -1  449.66   21.00
 -10  -4  -1    7.80    2.80
 -10  -4  -1    9.00    3.10
  10  -4   1   11.90    2.70
  10  -4   1   11.60    4.00
  10   4   1    9.50    3.80
  10   4   1    8.90    2.70
 -10   4  -1   10.90    3.70
  10   4   1    8.60    1.90
  12  -4   1  734.03   31.20
  12  -4   1  704.53   25.90
 -12   4  -1  691.03   26.80
  12   4   1  710.53   29.90
  12   4   1  685.53   25.30
 -12   4  -1  734.43   28.50
  12   4   1  691.43   23.10
  14  -4   1  134.39   12.40
  14  -4   1  131.99    9.90
  14   4   1  142.99    7.80
  14   4   1  129.09   11.50
  13  -5  -1    5.10    3.10
 -13  -5   1   10.90    4.10
  13  -5  -1    1.50    1.40
  13   5  -1    4.30    3.50
 -13   5   1   10.20    3.80
 -13   5   1    3.50    3.70
  13   5  -1    0.70    3.50
  11  -5  -1 2113.29   70.89
 -11  -5   1 2048.50   66.79
  11  -5  -1 2003.40   60.89
 -11  -5   1 2173.88   71.19
  11   5  -1 2034.90   65.89
 -11   5   1 2096.99   71.29
  11   5  -1 2070.19   69.69
 -11   5   1 2111.69   68.39
  -9  -5   1 4368.56  129.39
  -9  -5   1 4491.95  135.19
  -9   5   1 4592.04  131.19
   9   5  -1 4432.36  130.09
  -9   5   1 4364.36  134.79
   9   5  -1 4446.46  131.79
  -7  -5   1  243.28   12.60
   7  -5  -1  247.78   14.30
  -7  -5   1  244.68   15.90
  -7   5   1  262.87   16.20
  -7   5   1  261.77   13.70
   7   5  -1  233.38   13.50
   7   5  -1  247.28   13.50
  -5  -5   1  350.76   19.20
   5  -5  -1  369.86   17.00
  -5  -5   1  373.96   15.40
  -5   5   1  352.46   18.90
  -5   5   1  369.76   17.60
   5   5  -1  365.76   15.90
   5   5  -1  367.86   17.70
  -3  -5   1 4466.45  128.19
   3  -5  -1 4657.23  130.09
  -3  -5   1 4614.04  135.09
  -3  -5   1 4483.35  124.29
  -3   5   1 4542.25  129.49
  -3   5   1 4511.05  136.39
   3   5  -1 4725.33  138.49
   3   5  -1 4532.35  128.69
   1  -5  -1 2579.14   74.19
  -1  -5   1 2503.55   72.69
  -1  -5   1 2532.65   72.69
   1  -5  -1 2613.74   78.89
  -1  -5   1 2564.84   79.59
  -1   5   1 2493.55   70.59
  -1   5   1 2552.64   79.29
  -1   5   1 2533.05   73.89
   1   5  -1 2638.04   73.19
   1   5  -1 2603.44   79.19
   1   5  -1 2545.95   73.09
   1  -5   1 2522.75   76.99
   1  -5   1 2300.77   72.99
  -1  -5  -1 2545.15   76.79
   1  -5   1 2445.76   69.09
   1   5   1 2516.35   76.39
   1   5   1 2523.45   70.59
  -1   5  -1 2399.36   69.19
  -1   5  -1 2540.55   72.29
   1   5   1 2439.36   70.19
  -1   5  -1 2577.64   77.49
   3  -5   1 3602.54  103.89
  -3  -5  -1 3530.65  106.19
  -3  -5  -1 3446.46  101.59
   3  -5   1 3639.04  106.49
  -3   5  -1 3729.43  103.69
   3   5   1 3502.25  104.99
   3   5   1 3531.45  101.69
   5  -5   1 2450.95   73.79
   5  -5   1 2421.66   74.19
  -5  -5  -1 2385.36   74.49
  -5  -5  -1 2344.37   71.69
   5   5   1 2391.46   72.69
  -5   5  -1 2356.86   75.99
  -5   5  -1 2413.86   73.29
   5   5   1 2341.87   71.49
   7  -5   1  837.32   31.90
   7  -5   1  802.82   24.40
  -7  -5  -1  845.02   30.60
   7  -5   1  809.12   24.70
  -7  -5  -1  803.92   31.00
  -7   5  -1  821.62   33.00
  -7   5  -1  826.82   31.60
   7   5   1  823.22   30.40
   7   5   1  812.92   29.50
  -9  -5  -1  134.49    9.60
   9  -5   1  132.79   10.90
  -9  -5  -1  123.49    9.90
   9  -5   1  130.69    6.70
   9  -5   1  126.49    7.00
  -9   5  -1  130.29   10.80
   9   5   1  119.79    9.10
   9   5   1  133.39   10.70
  -9   5  -1  137.69   10.80
  11  -5   1 1292.67   40.40
  11  -5   1 1266.87   47.50
 -11  -5  -1 1314.57   42.80
  11   5   1 1312.07   46.70
  11   5   1 1212.58   40.70
 -11   5  -1 1307.37   46.90
  13  -5   1 2268.77   75.49
 -13   5  -1 2133.19   69.39
  13   5   1 2278.97   77.59
  13   5   1 2196.88   64.29
 -13   5  -1 2111.99   70.99
 -12  -6   1  140.99   13.30
  12  -6  -1  157.88   17.40
  12   6  -1  155.28   15.20
 -12   6   1  110.69   11.50
  12   6  -1  136.79   12.20
 -10  -6   1  464.85   27.00
 -10  -6   1  453.15   21.10
  10  -6  -1  489.75   24.90
  10   6  -1  442.06   21.90
 -10   6   1  488.25   23.70
  10   6  -1  457.25   23.30
 -10   6   1  474.75   26.30
  -8  -6   1   15.60    5.10
  -8  -6   1   19.10    4.40
   8  -6  -1   19.20    5.30
   8   6  -1   14.80    4.60
  -8   6   1   12.30    4.00
  -8   6   1   18.70    4.10
   8   6  -1   20.20    5.10
   6  -6  -1   46.60    6.40
  -6  -6   1   45.10    7.50
  -6  -6   1   45.30    5.20
   6   6  -1   43.20    5.30
   6   6  -1   34.40    6.10
  -6   6   1   48.60    7.20
  -6   6   1   46.50    5.60
   4  -6  -1  127.99    8.90
  -4  -6   1  119.59    7.60
  -4  -6   1  123.39   11.20
   4   6  -1  117.19   10.00
  -4   6   1  116.89    8.20
  -4   6   1  113.79   10.50
   4   6  -1  117.09    7.90
  -2  -6   1 1439.86   45.30
   2  -6  -1 1539.75   47.40
   2  -6  -1 1552.64   52.19
  -2  -6   1 1553.94   53.59
  -2  -6   1 1498.45   43.50
   2   6  -1 1473.25   51.69
   2   6  -1 1526.15   44.00
  -2   6   1 1481.65   52.89
   2   6  -1 1513.25   46.00
  -2   6   1 1489.15   47.00
   0  -6   1   21.70    5.10
   0  -6   1   20.70    2.40
   0  -6  -1   18.20    4.50
   0  -6  -1   22.20    2.90
   0  -6   1   18.50    3.80
   0   6   1   19.50    4.20
   0   6   1   18.40    2.80
   0   6  -1   23.20    3.10
   0   6   1   25.20    2.30
   0   6  -1   22.10    5.00
   0   6  -1   19.50    2.50
   2  -6   1  416.76   17.70
  -2  -6  -1  409.86   20.60
  -2   6  -1  414.46   21.20
   2   6   1  401.26   19.80
  -2   6  -1  410.46   17.30
   2   6   1  461.45   13.90
   2   6   1  418.36   15.70
  -4  -6  -1  976.20   33.70
   4  -6   1 1033.80   38.20
   4  -6   1 1026.10   36.30
  -4  -6  -1  987.10   38.20
   4   6   1  997.70   36.80
  -4   6  -1 1003.60   39.40
   4   6   1  990.50   33.70
  -4   6  -1 1046.30   35.90
   6  -6   1  728.33   29.40
   6  -6   1  712.63   29.10
  -6  -6  -1  685.63   29.60
  -6  -6  -1  711.33   27.30
   6   6   1  687.03   26.80
  -6   6  -1  719.63   31.40
   6   6   1  698.93   28.00
  -6   6  -1  712.73   28.60
  -8  -6  -1  198.78   13.00
  -8  -6  -1  206.48   13.70
   8  -6   1  215.98   14.40
   8   6   1  224.18   15.30
   8   6   1  204.58   12.50
  -8   6  -1  206.58   14.90
 -10  -6  -1    5.00    2.70
 -10  -6  -1    2.50    4.40
  10  -6   1   -2.00    2.60
  10   6   1    4.40    2.50
 -10   6  -1    7.40    3.30
  12  -6   1  346.37   21.10
  12   6   1  398.06   24.30
  12   6   1  342.87   15.90
 -12   6  -1  364.26   20.60
 -11  -7   1 1018.10   44.00
  11   7  -1 1029.90   41.00
  11   7  -1  986.50   41.40
   9  -7  -1  934.91   39.00
  -9  -7   1  932.01   35.00
  -9  -7   1  914.01   40.90
   9   7  -1  877.61   36.20
   9   7  -1  879.61   36.40
  -7  -7   1    7.10    2.80
   7  -7  -1    7.70    3.50
  -7  -7   1   15.30    4.90
  -7   7   1   12.00    4.40
   7   7  -1    5.40    3.20
  -7   7   1    7.70    3.10
   7   7  -1    7.80    4.00
  -5  -7   1 1199.28   57.89
  -5  -7   1 1271.17   41.90
   5  -7  -1 1284.87   44.90
  -5   7   1 1251.37   50.09
   5   7  -1 1255.37   46.90
   5   7  -1 1269.57   42.60
  -5   7   1 1322.97   43.90
  -3  -7   1 5799.62  171.78
  -3  -7   1 5531.55  159.18
   3  -7  -1 5821.92  162.18
   3   7  -1 5626.04  167.28
  -3   7   1 5542.95  169.38
   3   7  -1 5655.13  159.88
  -3   7   1 5761.82  161.58
  -1  -7   1 1142.29   44.20
  -1  -7   1 1083.69   34.30
  -1  -7   1 1085.59   33.90
   1  -7  -1 1158.38   36.70
   1  -7  -1 1168.98   43.30
   1   7  -1 1102.89   34.60
   1   7  -1 1089.79   34.60
   1   7  -1 1074.59   42.60
  -1   7   1 1120.49   36.10
  -1   7   1 1112.69   43.40
   1  -7   1    3.60    2.90
   1  -7   1    6.20    2.00
  -1  -7  -1    7.20    3.40
   1   7   1    8.90    2.00
   1   7   1   16.60    5.00
  -1   7  -1   12.00    2.90
   1   7   1   10.60    2.10
  -1   7  -1   14.70    4.90
  -3  -7  -1  772.92   33.40
   3  -7   1  797.82   29.80
   3   7   1  776.62   32.10
  -3   7  -1  760.32   34.00
  -3   7  -1  776.02   29.10
   3   7   1  766.12   26.80
   5  -7   1 3317.57  101.59
   5  -7   1 3247.18   99.49
  -5  -7  -1 3209.38  102.19
  -5   7  -1 3267.47  104.29
  -5   7  -1 3268.37   98.79
   5   7   1 3216.68   95.99
   5   7   1 3138.29   99.59
  -7  -7  -1 2041.20   68.99
  -7  -7  -1 1992.10   65.59
   7  -7   1 2081.19   68.59
  -7   7  -1 2061.89   76.99
  -7   7  -1 1998.70   67.39
   7   7   1 1958.20   70.69
   7   7   1 2017.40   66.39
   9  -7   1   60.99    8.10
  -9  -7  -1   61.39    8.10
   9   7   1   56.09    8.10
   9   7   1   46.10    7.10
  -9   7  -1   77.29    9.10
  -8  -8   1   15.40    4.10
   8  -8  -1   18.00    4.50
  -8  -8   1   13.90    5.30
   8   8  -1   29.20    6.30
  -6  -8   1   18.80    4.50
   6  -8  -1   24.50    5.50
  -6  -8   1   15.40    5.50
  -6   8   1   26.60    5.60
   6   8  -1   38.00   10.90
   6   8  -1   15.30    4.00
   4  -8  -1  327.37   17.00
  -4  -8   1  320.67   14.70
  -4  -8   1  323.87   21.90
   4   8  -1  292.97   19.00
  -4   8   1  292.47   15.80
   4   8  -1  287.67   14.60
  -4   8   1  369.26   27.80
  -2  -8   1  947.71   30.80
   2  -8  -1 1001.20   34.10
  -2  -8   1  985.20   42.40
  -2  -8   1  971.00   28.80
  -2   8   1  891.71   40.60
   2   8  -1  935.01   40.00
  -2   8   1  982.80   33.50
   2   8  -1  949.51   31.50
   0  -8  -1   44.40    7.60
   0  -8   1   47.70    4.50
   0  -8   1   39.30    7.30
   0   8   1   42.80    8.70
   0   8   1   37.80    4.00
   0   8  -1   48.00    8.30
   0   8  -1   38.90    4.30
   2  -8   1  561.74   22.60
   2  -8   1  543.25   27.50
  -2  -8  -1  564.64   28.20
  -2   8  -1  525.25   28.10
   2   8   1  550.54   19.60
  -2   8  -1  534.25   22.20
   2   8   1  499.05   26.20
   4  -8   1  608.54   26.20
   4  -8   1  602.74   28.90
  -4  -8  -1  569.94   29.40
  -4   8  -1  546.75   24.80
   4   8   1  568.14   27.60
   4   8   1  576.74   22.90
  -4   8  -1  639.14   32.70
  -6  -8  -1  795.52   36.10
   6  -8   1  819.52   34.20
  -6   8  -1  749.92   32.50
   6   8   1  780.62   33.50
   8  -8   1   35.50    7.20
  -8  -8  -1   44.50    8.20
   8   8   1   48.70    8.30
   8   8   1   51.39    8.60
  -5  -9   1  189.38   12.20
   5  -9  -1  196.08   13.80
  -5  -9   1  257.47   24.00
   5   9  -1  205.78   12.50
  -5   9   1  217.68   13.80
  -3  -9   1 1593.44   63.39
   3  -9  -1 1591.04   52.89
   3   9  -1 1567.44   49.50
  -3   9   1 1576.54   52.09
  -1  -9   1  785.02   37.40
   1   9  -1  742.53   24.70
  -1   9   1  715.73   27.50
  -1  -9  -1  345.97   22.20
   1  -9   1  334.07   15.50
   1  -9   1  333.07   21.90
  -1   9  -1  322.57   15.30
   3  -9   1  725.03   33.70
  -3  -9  -1  814.72   37.90
   3  -9   1  862.01   39.10
   3   9   1  786.72   27.30
  -3   9  -1  727.03   30.30
   5  -9   1  976.30   38.90
  -5  -9  -1  966.40   42.90
  -5   9  -1  873.81   37.50
   5   9   1  972.00   34.60
  16   0  -2   68.69    8.40
 -16   0   2   57.39   10.30
  16   0  -2   55.79    9.30
 -14   0   2 1106.99   39.50
  14   0  -2 1124.69   43.10
 -14   0   2 1123.89   39.70
 -14   0   2 1147.59   41.50
  14   0  -2 1098.59   42.40
 -12   0   2 1501.05   50.49
  12   0  -2 1568.04   53.39
  12   0  -2 1560.24   53.69
 -12   0   2 1622.94   50.89
 -12   0   2 1618.94   53.29
  10   0  -2  172.08   11.20
 -10   0   2  193.98   11.90
 -10   0   2  179.48    9.90
 -10   0   2  163.28   11.30
  10   0  -2  178.48   11.20
   8   0  -2 4360.36  124.19
  -8   0   2 4362.66  122.09
   8   0  -2 4196.38  123.69
  -8   0   2 4358.16  125.29
  -8   0   2 4141.79  122.09
   8   0  -2 4477.85  124.69
  -4   0   2 2293.37   69.99
  -4   0   2 2431.76   67.89
   4   0  -2 2356.16   68.29
   4   0  -2 2383.66   69.89
  -4   0   2 2362.96   67.89
   2   0  -2    4.30    1.20
  -2   0   2    5.40    1.90
  -2   0   2    5.00    1.50
   2   0  -2    7.20    2.00
   0   0  -2 1490.95   44.00
   0   0  -2 1338.27   43.70
   0   0   2 1653.13   44.20
   0   0   2 1475.25   44.10
   0   0   2 1520.05   44.40
   6   0   2  153.58    8.80
  -6   0  -2  112.29    7.90
   6   0   2  119.29    7.20
   8   0   2  215.38   10.90
  -8   0  -2  207.28   12.30
   8   0   2  228.58   11.30
  10   0   2 5064.59  145.99
  10   0   2 5107.29  145.89
 -10   0  -2 5116.29  149.09
  12   0   2 1397.76   49.80
  12   0   2 1393.66   46.80
 -12   0  -2 1342.57   49.30
 -14   0  -2  134.09   12.10
  14   0   2  152.28   11.30
  14   0   2  142.79   11.10
 -15  -1   2   40.00    7.10
  15  -1  -2   33.10    6.30
  15  -1  -2   36.10    7.10
 -15  -1   2   55.49    5.60
 -15   1   2   38.30    7.40
 -15   1   2   35.50    5.60
  15   1  -2   42.40    7.10
  15   1  -2   40.90    7.40
  13  -1  -2  331.67   19.70
  13  -1  -2  322.07   18.10
 -13  -1   2  342.47   18.80
 -13  -1   2  330.37   15.60
 -13  -1   2  338.07   18.10
 -13   1   2  334.07   17.70
 -13   1   2  313.17   15.40
 -13   1   2  327.77   16.50
  13   1  -2  313.67   17.30
  13   1  -2  324.87   18.50
  11  -1  -2  221.58   14.00
 -11  -1   2  226.88   12.30
  11  -1  -2  217.28   13.40
 -11  -1   2  245.88   14.40
 -11  -1   2  228.88   13.30
  11   1  -2  232.38   13.20
  11   1  -2  228.38   14.00
 -11   1   2  264.67   14.40
 -11   1   2  225.78   12.50
  11   1  -2  225.98   12.90
 -11   1   2  225.48   11.60
  -9  -1   2  129.69    8.20
  -9  -1   2  144.39   10.30
   9  -1  -2  125.29    9.30
  -9  -1   2  132.79    7.70
   9  -1  -2  130.79    8.90
  -9   1   2  140.49    9.70
  -9   1   2  139.59    7.80
   9   1  -2  119.89    9.20
   9   1  -2  147.19    9.40
  -9   1   2  110.19    9.70
   9   1  -2  128.49    8.60
   7  -1  -2  166.78    9.10
   7  -1  -2  176.98    9.90
  -7  -1   2  168.18    8.20
  -7  -1   2  165.28   10.70
  -7  -1   2  166.28    8.70
  -7   1   2  174.08    9.10
  -7   1   2  172.98   10.30
   7   1  -2  143.99    9.70
   7   1  -2  165.88    9.60
  -7   1   2  190.18    8.50
   7   1  -2  182.78   10.10
   5  -1  -2 6132.29  180.38
  -5  -1   2 6462.45  182.98
  -5  -1   2 6201.28  175.48
   5  -1  -2 6438.96  176.38
  -5  -1   2 6410.16  176.28
  -5   1   2 6373.96  175.48
   5   1  -2 6552.24  177.68
   3  -1  -2   83.59    5.00
   3  -1  -2   79.99    5.30
  -3  -1   2   93.49    5.30
  -3  -1   2  100.89    6.80
  -3   1   2   87.59    6.10
  -3   1   2   86.59    4.90
  -3   1   2   84.39    5.20
   3   1  -2   88.29    5.50
   3   1  -2   94.89    6.20
  -1   1   2 4583.74  127.09
   1   1  -2 4579.84  127.49
   1  -1   2 5716.73  158.28
   3  -1   2 4094.09  113.49
  -3  -1  -2 4178.88  115.89
   3  -1   2 4064.69  115.19
   3   1   2 4026.80  112.29
   3   1   2 4069.99  114.79
  -3   1  -2 4193.58  116.39
  -3   1  -2 4163.58  114.09
   3   1   2 4061.79  114.69
   5  -1   2   56.19    4.70
   5  -1   2   63.29    3.20
   5  -1   2   51.19    4.10
  -5  -1  -2   58.79    5.00
   5   1   2   72.89    4.70
  -5   1  -2   50.29    4.10
   5   1   2   69.29    5.70
  -5   1  -2   54.79    5.20
   7  -1   2  125.89    7.20
   7  -1   2  120.19    7.80
  -7  -1  -2  112.49    8.00
  -7   1  -2  118.99    8.60
   7   1   2  136.29    8.00
   7   1   2  127.09    7.30
   9  -1   2  312.27   14.10
   9  -1   2  307.67   15.00
  -9  -1  -2  299.97   16.20
  -9   1  -2  290.17   15.90
   9   1   2  308.47   14.80
   9   1   2  314.77   14.00
  11  -1   2  952.70   34.20
 -11  -1  -2 1010.10   37.50
  11  -1   2  974.10   35.60
  11   1   2  990.90   35.50
  11   1   2  984.40   34.30
 -11   1  -2  965.00   37.80
 -13  -1  -2    1.70    3.10
  13  -1   2    8.40    3.60
  13  -1   2    3.20    2.50
  13   1   2    4.90    3.00
  13   1   2    1.10    2.70
 -13   1  -2   -1.70    2.40
 -16  -2   2    3.80    3.60
  16  -2  -2   -4.90    3.00
 -16  -2   2   -0.70    2.70
  16   2  -2   -2.20    2.50
  16   2  -2   -6.40    3.00
 -16   2   2   -1.20    3.40
 -14  -2   2 2124.69   67.59
  14  -2  -2 2075.69   69.89
  14  -2  -2 2126.79   80.89
 -14  -2   2 1946.71   62.19
  14   2  -2 1949.20   65.39
 -14   2   2 1957.10   66.29
  14   2  -2 1966.40   69.09
 -14   2   2 2051.99   66.89
 -14   2   2 1963.00   66.29
 -14   2   2 2037.50   63.09
 -12  -2   2 3778.92  112.79
 -12  -2   2 4035.70  116.59
  12  -2  -2 3822.42  114.19
 -12   2   2 3738.53  113.39
  12   2  -2 3804.62  116.29
 -12   2   2 3789.52  110.19
 -12   2   2 3857.61  114.49
  12   2  -2 3826.42  112.69
  12   2  -2 3742.03  112.59
 -10  -2   2  116.59    7.10
 -10  -2   2  131.39    8.70
  10  -2  -2  131.09    9.00
 -10  -2   2  135.99   10.80
  10  -2  -2  125.79   10.00
  10   2  -2  127.89    8.40
  10   2  -2  118.99    9.50
 -10   2   2  127.29    9.80
 -10   2   2  115.89    8.60
 -10   2   2  117.89    7.30
  10   2  -2  104.49   12.60
  -8  -2   2  180.88    9.80
   8  -2  -2  170.18   10.80
  -8  -2   2  192.48    8.50
  -8  -2   2  172.08   12.00
   8  -2  -2  179.08    9.50
  -8   2   2  167.58    8.20
   8   2  -2  179.78   10.50
  -8   2   2  182.08   11.20
   8   2  -2  168.18   10.60
  -8   2   2  156.48   10.50
   6  -2  -2 4781.32  133.59
   6  -2  -2 4750.82  136.19
  -6  -2   2 4467.55  138.19
  -6  -2   2 4749.92  132.39
  -6  -2   2 4829.12  134.29
  -6   2   2 4925.41  132.49
  -6   2   2 4974.60  136.99
   6   2  -2 4763.72  135.79
   6   2  -2 4722.03  135.89
  -6   2   2 4788.02  134.89
   0  -2   2 1375.66   40.20
   0  -2   2 1410.36   41.00
   0  -2   2 1334.07   41.30
   0   2   2 1319.17   40.50
   0   2   2 1337.17   40.10
   0   2  -2 1324.97   41.50
   0   2  -2 1286.57   39.80
   0   2  -2 1313.37   40.40
   2  -2   2 4298.77  123.99
   2  -2   2 4412.86  123.99
   2  -2   2 4602.94  125.79
   2   2   2 4354.36  123.29
  -2   2  -2 4477.45  124.89
  -4  -2  -2 5334.37  154.88
   4  -2   2 5593.34  153.48
   4  -2   2 5568.64  153.98
   4  -2   2 5493.65  155.28
  -4   2  -2 5646.44  156.78
  -4   2  -2 5583.64  154.68
   4   2   2 5638.74  154.58
  -6  -2  -2  338.27   14.90
   6  -2   2  341.47   13.40
   6  -2   2  351.56   12.90
   6  -2   2  345.07   15.10
   6   2   2  358.76   13.40
  -6   2  -2  343.07   16.10
   6   2   2  356.76   14.80
  -6   2  -2  366.06   13.80
  -8  -2  -2 2261.57   70.69
   8  -2   2 2312.47   67.99
   8  -2   2 2349.46   70.79
  -8   2  -2 2277.57   66.59
   8   2   2 2292.27   69.89
  -8   2  -2 2247.78   72.19
   8   2   2 2395.46   67.79
 -10  -2  -2 4416.56  139.09
  10  -2   2 4792.02  138.09
  10  -2   2 4731.83  135.09
 -10   2  -2 4704.33  131.09
  10   2   2 4889.61  134.79
 -10   2  -2 4516.35  130.39
 -10   2  -2 4949.70  140.79
  10   2   2 4886.11  138.49
 -12  -2  -2  263.27   15.70
  12  -2   2  251.67   15.30
  12  -2   2  253.57   14.10
 -12   2  -2  257.57   16.30
  12   2   2  266.17   15.20
  12   2   2  260.17   13.30
 -14  -2  -2   -1.50    2.40
  14  -2   2   -0.30    2.40
  14   2   2    0.40    2.50
  15  -3  -2   24.40    5.90
  15  -3  -2   30.10    7.70
 -15  -3   2   36.80    7.20
 -15   3   2   22.80    4.50
  15   3  -2    6.20    5.90
 -13  -3   2  789.62   32.40
 -13  -3   2  756.62   26.60
 -13  -3   2  802.52   33.50
  13  -3  -2  787.02   31.10
  13  -3  -2  781.62   34.20
  13   3  -2  744.03   30.10
 -13   3   2  844.52   37.70
 -13   3   2  777.42   27.60
 -13   3   2  749.33   32.30
  13   3  -2  757.72   33.60
 -13   3   2  755.42   31.20
 -11  -3   2  476.45   23.50
  11  -3  -2  451.55   19.70
  11  -3  -2  367.16   26.90
 -11  -3   2  455.85   16.70
 -11  -3   2  428.16   19.80
 -11   3   2  461.15   21.60
  11   3  -2  460.35   25.70
 -11   3   2  447.26   20.50
  11   3  -2  436.86   20.00
 -11   3   2  458.35   22.10
 -11   3   2  459.65   17.40
  -9  -3   2  489.85   20.20
   9  -3  -2  499.35   22.70
   9  -3  -2  505.95   19.50
  -9  -3   2  520.05   24.20
  -9  -3   2  499.85   17.20
   9   3  -2  471.55   21.80
   9   3  -2  502.65   21.30
  -9   3   2  501.05   17.80
  -9   3   2  515.85   22.30
  -9   3   2  500.25   22.90
  -9   3   2  482.95   20.70
  -7  -3   2  101.59    9.40
  -7  -3   2  112.59    9.80
   7  -3  -2  119.99    6.80
  -7  -3   2  128.09    6.50
   7  -3  -2  121.79    8.90
   7   3  -2  123.19    8.80
   7   3  -2  119.99    8.60
  -7   3   2  121.79    9.50
  -7   3   2  130.39    6.20
  -7   3   2  126.19    8.30
  -7   3   2  115.59    8.90
  -5  -3   2 4122.69  126.99
  -5  -3   2 4380.96  122.19
   5  -3  -2 4446.96  120.59
  -5  -3   2 4435.76  120.79
  -5  -3   2 4369.26  119.79
   5  -3  -2 4241.78  123.99
   5   3  -2 4304.17  124.49
  -5   3   2 4297.87  122.89
   5   3  -2 4305.57  123.59
  -5   3   2 4525.45  119.79
  -5   3   2 4185.28  125.89
  -3  -3   2  958.40   31.00
   3  -3  -2  993.20   32.40
  -3  -3   2  997.80   34.90
  -3  -3   2  955.30   30.10
   3   3  -2 1015.80   37.00
  -3   3   2  961.10   33.90
  -3   3   2 1025.00   29.60
   3   3  -2  996.00   33.60
  -3   3   2  976.40   31.50
  -1  -3   2  433.36   15.20
  -1  -3   2  433.16   17.90
  -1  -3   2  421.86   15.30
   1   3  -2  409.06   17.40
  -1   3   2  423.46   15.50
   1   3  -2  416.36   15.50
  -1   3   2  428.86   17.40
  -1   3   2  448.76   15.00
   1   3  -2  414.66   15.50
   1  -3   2 1206.88   37.10
  -1   3  -2 1165.88   37.50
   1   3   2 1202.68   38.10
   1   3   2 1221.98   36.10
  -1   3  -2 1213.48   39.10
  -1   3  -2 1199.18   36.30
   3  -3   2  344.87   15.80
   3  -3   2  326.57   12.90
   3  -3   2  339.17   14.00
  -3   3  -2  318.57   14.40
  -3   3  -2  332.77   14.60
   3   3   2  316.07   13.10
   3   3   2  327.47   12.20
   3   3   2  340.97   13.20
   5  -3   2   50.79    3.80
   5  -3   2   51.49    5.10
   5  -3   2   54.29    4.50
   5  -3   2   55.69    5.70
   5   3   2   48.40    4.00
   5   3   2   57.89    5.10
  -5   3  -2   61.09    5.40
   5   3   2   63.89    4.10
  -5   3  -2   56.39    5.70
  -7  -3  -2  125.89    8.20
   7  -3   2  151.18    7.40
   7  -3   2  141.49    9.50
   7   3   2  121.19    8.50
   7   3   2  130.29    6.20
  -7   3  -2  140.79   10.00
  -7   3  -2  124.59    8.10
   7   3   2  148.39    7.10
   9  -3   2  718.53   28.40
   9  -3   2  699.13   24.90
  -9  -3  -2  701.73   27.30
  -9   3  -2  719.53   25.70
   9   3   2  719.83   24.40
  -9   3  -2  712.33   29.60
   9   3   2  738.33   27.80
  11  -3   2  395.76   17.20
 -11  -3  -2  350.86   18.70
  11  -3   2  438.96   20.80
 -11   3  -2  433.26   16.30
 -11   3  -2  366.16   20.00
 -11   3  -2  403.16   21.50
  11   3   2  420.76   19.90
  11   3   2  421.76   16.70
  13  -3   2   67.99    7.10
  13  -3   2   80.49    8.80
 -13  -3  -2   65.39    8.20
  13   3   2   63.99    6.20
  13   3   2   73.39    8.20
  14  -4  -2  903.61   36.00
  14  -4  -2 1099.49   46.80
 -14  -4   2 1003.40   40.10
  14   4  -2  963.10   37.00
  14   4  -2  973.10   49.10
 -14   4   2  937.01   38.50
 -14   4   2  954.00   32.80
 -14   4   2  947.91   39.80
 -12  -4   2 1783.82   59.19
  12  -4  -2 1616.74   52.09
  12  -4  -2 1628.34   58.19
 -12  -4   2 1515.35   53.19
  12   4  -2 1574.94   53.59
  12   4  -2 1481.15   56.49
 -12   4   2 1631.54   48.80
 -12   4   2 1560.34   56.99
 -12   4   2 1570.94   54.59
 -12   4   2 1626.04   56.29
 -10  -4   2  143.39   10.00
  10  -4  -2  147.09   14.20
 -10  -4   2  132.29    7.00
 -10  -4   2  191.08   14.30
  10  -4  -2  152.48    8.90
  10   4  -2  129.69   14.20
 -10   4   2  156.38    7.50
 -10   4   2  157.58   12.40
 -10   4   2  153.08   10.80
  10   4  -2  140.19   10.50
 -10   4   2  166.68   11.90
  -8  -4   2 1417.56   40.00
  -8  -4   2 1382.96   50.89
   8  -4  -2 1417.86   48.40
   8  -4  -2 1386.56   42.10
  -8  -4   2 1391.06   41.20
  -8  -4   2 1351.56   45.00
  -8   4   2 1446.56   40.90
   8   4  -2 1349.56   46.40
  -8   4   2 1346.47   49.50
  -8   4   2 1382.06   46.10
   8   4  -2 1430.26   47.60
   6  -4  -2 5824.92  153.68
  -6  -4   2 5571.84  153.38
  -6  -4   2 4980.00  161.68
  -6  -4   2 5769.92  152.58
   6  -4  -2 5693.93  159.98
  -6  -4   2 5584.24  163.78
   6   4  -2 5632.54  158.78
  -6   4   2 5687.43  152.58
  -6   4   2 5592.34  158.08
  -6   4   2 5395.26  162.18
  -4  -4   2 2665.53   79.29
  -4  -4   2 2766.22   77.49
  -4  -4   2 2747.43   85.39
   4  -4  -2 2796.72   81.69
   4   4  -2 2801.12   80.89
  -4   4   2 2779.32   80.59
   4   4  -2 2635.34   82.69
  -4   4   2 2881.11   76.49
  -4   4   2 2651.43   84.19
   2  -4  -2  622.84   22.60
  -2  -4   2  639.44   25.60
  -2  -4   2  624.74   20.80
  -2  -4   2  605.84   21.10
  -2   4   2  624.24   19.60
  -2   4   2  639.44   21.90
   2   4  -2  619.04   24.60
   2   4  -2  659.83   22.60
  -2   4   2  625.84   20.00
  -2   4   2  631.84   25.10
   0  -4   2  947.01   33.60
   0  -4   2  951.40   29.20
   0  -4   2  963.10   30.40
   0   4   2  944.01   28.70
   0   4  -2  923.81   33.20
   0   4  -2  906.21   29.40
   0   4  -2  930.61   30.40
   0   4   2  937.71   29.50
   0   4   2  913.11   32.60
   2  -4   2 8510.35  227.98
   2  -4   2 8196.98  230.48
   2  -4   2 8338.47  228.28
  -2   4  -2 8126.89  228.68
  -2   4  -2 7981.70  230.68
   4  -4   2 6146.08  170.68
   4  -4   2 6220.28  174.48
  -4  -4  -2 6110.69  173.28
   4  -4   2 6195.28  173.78
   4   4   2 6259.37  172.28
   4   4   2 6259.47  169.28
  -4   4  -2 6048.29  174.48
   4   4   2 6168.68  172.68
  -4   4  -2 6012.90  175.18
   6  -4   2   10.00    3.10
   6  -4   2   13.50    2.00
   6  -4   2    9.80    2.50
   6  -4   2   13.90    3.00
  -6   4  -2    7.90    2.50
   6   4   2   11.10    3.00
   6   4   2   11.70    1.90
  -6   4  -2   10.80    2.90
   6   4   2   12.60    2.80
   8  -4   2  525.25   20.70
   8  -4   2  538.85   18.80
   8  -4   2  529.05   23.10
   8   4   2  525.35   18.50
   8   4   2  535.95   22.30
   8   4   2  530.95   17.80
  -8   4  -2  514.35   22.00
  -8   4  -2  526.15   24.10
  10  -4   2 3458.05  105.89
  10  -4   2 3457.35   99.79
  10   4   2 3495.55   96.19
 -10   4  -2 3445.56  107.79
  10   4   2 3539.25  104.89
  10   4   2 3455.45   99.49
 -10   4  -2 3443.46  102.79
  12  -4   2  655.73   24.50
  12  -4   2  658.33   29.30
  12   4   2  678.43   28.70
 -12   4  -2  563.04   23.20
  12   4   2  690.13   22.90
 -13  -5   2   50.29    8.80
  13  -5  -2   39.70    8.70
  13   5  -2   36.90    7.20
 -13   5   2   48.20    8.40
  13   5  -2   44.60    7.90
  11  -5  -2   25.60    5.60
 -11  -5   2   33.80    5.90
  11  -5  -2   38.40    4.00
 -11   5   2   43.30    6.50
  11   5  -2   27.10    5.60
 -11   5   2   38.40    7.30
 -11   5   2   38.80    3.30
 -11   5   2   24.60    8.30
  11   5  -2   29.50    6.30
   9  -5  -2    8.20    1.70
  -9  -5   2    3.40    3.20
   9  -5  -2   11.40    4.80
  -9  -5   2   11.50    3.40
  -9   5   2    4.70    2.80
  -9   5   2   14.10    4.40
   9   5  -2   19.50    4.70
   9   5  -2    7.30    3.90
   7  -5  -2  418.86   20.30
  -7  -5   2  409.76   17.80
  -7  -5   2  424.36   23.20
  -7   5   2  402.46   18.50
  -7   5   2  392.66   21.80
   7   5  -2  437.96   20.40
   7   5  -2  424.46   19.50
  -5  -5   2 2497.55   65.99
   5  -5  -2 2336.77   71.89
  -5  -5   2 2306.57   76.59
  -5  -5   2 2101.79   64.39
  -5  -5   2 2503.65   73.69
   5   5  -2 2310.17   70.59
  -5   5   2 2332.97   70.49
   5   5  -2 2302.17   73.09
  -5   5   2 2199.78   75.19
  -3  -5   2  268.27   11.00
   3  -5  -2  294.37   13.90
  -3  -5   2  283.67   12.30
  -3  -5   2  299.97   17.10
   3   5  -2  272.47   12.90
  -3   5   2  295.27   16.50
  -3   5   2  283.47    9.80
  -3   5   2  288.27    9.60
   3   5  -2  304.87   16.00
  -3   5   2  290.87   13.20
  -1  -5   2 1604.64   48.30
  -1  -5   2 1618.44   54.79
  -1  -5   2 1598.74   49.10
   1   5  -2 1692.43   49.50
   1   5  -2 1620.34   53.99
   1   5  -2 1587.84   51.09
  -1   5   2 1651.03   47.20
  -1   5   2 1601.34   52.09
  -1   5   2 1652.73   61.79
  -1   5   2 1636.14   49.40
   1  -5   2 2386.96   74.19
   1  -5   2 2333.97   67.29
   1  -5   2 2395.96   70.49
   1   5   2 2401.56   73.29
   1   5   2 2320.57   67.89
  -1   5  -2 2328.57   74.19
  -1   5  -2 2301.57   67.49
  -1   5  -2 2349.67   70.29
   1   5   2 2382.86   68.69
   3  -5   2 3269.47   94.59
  -3  -5  -2 3163.68   95.69
   3  -5   2 3171.08   96.39
   3  -5   2 3262.47   91.19
  -3   5  -2 3455.75   98.39
   3   5   2 3072.89   89.59
   3   5   2 3105.69   89.49
   3   5   2 3238.98   92.49
  -3   5  -2 3041.50   96.99
   3   5   2 3156.18   94.89
  -5  -5  -2   23.10    4.40
   5  -5   2   16.80    3.70
   5  -5   2   30.40    4.70
   5  -5   2   15.60    3.10
   5  -5   2   18.40    2.10
  -5   5  -2   25.60    4.60
   5   5   2   18.30    3.80
  -5   5  -2   23.10    4.80
   5   5   2   14.10    1.90
   5   5   2   23.90    4.50
   7  -5   2  417.06   15.00
   7  -5   2  451.25   20.80
   7  -5   2  426.06   16.40
  -7  -5  -2  449.16   18.80
   7  -5   2  443.76   19.70
  -7   5  -2  438.96   21.40
   7   5   2  454.35   19.80
  -7   5  -2  415.06   20.80
   7   5   2  425.16   17.70
   9  -5   2   37.30    6.60
   9  -5   2   33.10    4.50
   9  -5   2   46.70    4.10
  -9   5  -2   52.59    6.20
   9   5   2   45.60    6.50
  -9   5  -2   47.30    7.00
   9   5   2   41.60    4.70
  11  -5   2  753.82   26.30
  11  -5   2  747.43   32.60
  11   5   2  783.82   25.70
  11   5   2  776.72   31.80
 -11   5  -2  751.32   30.50
 -12  -6   2 1245.48   50.19
  12   6  -2 1271.57   46.90
  12   6  -2 1154.38   47.60
 -12   6   2 1145.39   46.30
  10  -6  -2   79.49    9.60
 -10  -6   2   74.79    7.40
 -10  -6   2   86.19   11.30
  10   6  -2   73.79   10.60
  10   6  -2   80.19    9.30
 -10   6   2   75.39   10.00
  -8  -6   2  556.14   23.50
  -8  -6   2  478.65   38.30
   8  -6  -2  596.14   27.30
  -8   6   2  625.34   25.50
  -8   6   2  622.54   33.90
   8   6  -2  566.64   26.20
   8   6  -2  574.34   27.60
  -6  -6   2 3041.50  100.79
  -6  -6   2 3077.59   91.49
   6  -6  -2 3173.58   95.19
  -6   6   2 3154.48   93.19
   6   6  -2 2988.00   95.59
   6   6  -2 3096.49   93.19
  -4  -6   2 2011.20   58.49
   4  -6  -2 2119.19   65.79
  -4  -6   2 2186.58   64.49
  -4  -6   2 2093.89   71.79
   4   6  -2 2034.70   68.59
  -4   6   2 2104.19   70.99
  -4   6   2 2100.79   64.59
   4   6  -2 2078.09   64.29
  -2  -6   2  563.24   20.10
  -2  -6   2  594.14   20.80
   2  -6  -2  609.04   22.80
  -2  -6   2  593.44   27.60
   2   6  -2  553.34   25.70
   2   6  -2  578.34   20.40
  -2   6   2  589.44   21.90
   2   6  -2  563.94   21.40
  -2   6   2  573.64   17.90
  -2   6   2  572.64   17.50
  -2   6   2  562.34   26.40
   0  -6   2  625.74   23.10
   0  -6   2  622.54   27.70
   0  -6   2  626.14   20.80
   0   6   2  605.14   26.80
   0   6   2  633.04   20.70
   0   6  -2  604.74   21.10
   0   6  -2  614.24   27.40
   0   6   2  602.04   21.70
   0   6  -2  610.54   22.70
   2  -6   2 4061.89  116.69
   2  -6   2 3993.50  120.29
   2  -6   2 4259.37  112.09
   2   6   2 3893.41  111.59
  -2   6  -2 3801.92  122.59
   2   6   2 3991.60  118.99
   2   6   2 3987.30  113.59
  -2   6  -2 3918.61  120.99
   4  -6   2 3017.30   85.39
   4  -6   2 3189.38   94.39
   4  -6   2 3165.98   96.19
   4  -6   2 3045.30   86.09
  -4  -6  -2 3177.08   95.59
   4   6   2 3151.68   85.59
   4   6   2 3061.99   93.99
  -4   6  -2 3052.09   94.09
  -4   6  -2 3075.89   97.49
   4   6   2 3078.29   91.29
   6  -6   2   19.20    5.40
   6  -6   2   25.70    5.00
  -6  -6  -2   24.40    5.00
   6   6   2   17.40    4.00
   6   6   2   31.70    5.60
  -6   6  -2   19.70    4.40
  -6   6  -2   26.20    5.90
   8  -6   2  487.85   23.30
   8   6   2  452.75   21.30
  -8   6  -2  447.96   23.00
   8   6   2  432.76   19.40
  -8   6  -2  443.76   23.20
  10  -6   2 2266.97   75.09
  10   6   2 2063.09   73.79
  10   6   2 2350.06   73.49
 -10   6  -2 2233.68   74.09
  11  -7  -2  189.88   16.90
 -11  -7   2  162.08   15.10
  11   7  -2  192.38   15.80
   9  -7  -2  226.98   16.70
  -9  -7   2  211.38   13.60
  -9  -7   2  236.58   19.60
   9   7  -2  272.57   20.40
   9   7  -2  245.18   16.30
  -7  -7   2   29.30    6.70
   7  -7  -2   45.20    7.20
  -7  -7   2   28.00    5.10
  -7   7   2   49.00    8.20
   7   7  -2   38.50    7.20
   7   7  -2   41.60    9.00
  -5  -7   2 1208.88   40.80
  -5  -7   2 1233.38   50.49
   5  -7  -2 1283.87   44.10
   5   7  -2 1169.18   60.29
   5   7  -2 1201.58   41.70
  -5   7   2 1183.78   49.00
  -5   7   2 1200.58   42.10
   3  -7  -2  238.68   13.40
  -3  -7   2  237.48   12.00
  -3  -7   2  241.28   17.50
  -3  -7   2  239.38    9.30
   3   7  -2  245.28   12.50
  -3   7   2  237.38   16.90
   3   7  -2  252.27   16.60
  -3   7   2  231.68   12.70
  -1  -7   2  107.59    6.80
  -1  -7   2  122.69   12.20
  -1  -7   2  120.19    7.50
   1   7  -2  110.49   10.90
  -1   7   2  130.69    5.40
  -1   7   2  114.59   11.00
   1   7  -2  115.49    7.10
  -1   7   2  117.69    5.70
  -1   7   2  104.09    7.50
   1   7  -2  117.79    7.40
   1  -7   2  228.38   16.50
   1  -7   2  219.38   12.30
   1  -7   2  212.98   11.80
   1   7   2  215.68   14.80
  -1   7  -2  199.18   15.30
   1   7   2  230.28   10.20
   1   7   2  210.98    9.90
  -1   7  -2  235.18   12.80
   3  -7   2  155.88   11.20
   3  -7   2  152.68   12.70
  -3   7  -2  157.28   13.30
  -3   7  -2  158.38   10.80
   3   7   2  157.78    6.30
   3   7   2  137.89    8.90
   3   7   2  135.99   11.40
  -5  -7  -2   23.40    5.80
   5  -7   2   20.10    4.70
   5  -7   2   25.20    5.50
  -5   7  -2   22.80    5.10
   5   7   2   20.60    5.20
  -5   7  -2   17.50    5.80
   5   7   2   31.50    5.50
   7  -7   2   35.80    6.70
   7  -7   2   29.30    6.30
  -7   7  -2   30.40    6.50
  -7   7  -2   38.30    6.80
   7   7   2   21.90    5.20
   7   7   2   30.50    5.70
   9  -7   2  332.47   20.40
   9   7   2  314.37   17.90
  -9   7  -2  333.97   20.50
   9   7   2  296.07   15.90
   8  -8  -2  116.49   11.40
  -8  -8   2  106.49   10.10
  -8  -8   2  123.29   14.40
   8   8  -2  114.39   10.60
  -6  -8   2 1230.58   53.59
  -6  -8   2 1213.48   42.70
   6  -8  -2 1250.67   46.40
  -6   8   2 1222.78   44.50
   6   8  -2 1267.27   53.99
  -4  -8   2 1548.55   61.19
  -4  -8   2 1497.65   49.40
   4  -8  -2 1537.65   52.59
  -4   8   2 1582.94   51.79
   4   8  -2 1518.55   50.29
  -2  -8   2  705.73   25.40
  -2  -8   2  740.83   35.60
  -2   8   2  726.43   34.70
   2   8  -2  729.13   26.00
  -2   8   2  730.13   27.30
   0  -8   2  348.27   16.00
   0  -8   2  361.86   22.40
   0   8   2  364.36   12.90
   0   8   2  389.96   15.50
   0   8   2  355.86   21.60
   0   8  -2  388.86   24.00
   0   8   2  365.46   15.10
   2  -8   2 1302.17   50.39
   2  -8   2 1302.27   44.70
   2   8   2 1261.07   38.00
  -2   8  -2 1246.78   44.00
   2   8   2 1233.18   48.50
   2   8   2 1314.67   40.70
   4  -8   2 1145.39   44.20
   4  -8   2 1246.98   47.80
  -4   8  -2 1207.08   44.30
   4   8   2 1214.48   40.80
   4   8   2 1180.58   45.70
   6  -8   2  104.89   10.60
   6  -8   2   89.09   10.20
   6   8   2   99.79    9.40
   6   8   2   94.99   10.30
  -5  -9   2  408.36   19.70
  -5  -9   2  472.85   32.50
   5  -9  -2  491.35   23.70
  -5   9   2  517.75   22.80
   5   9  -2  436.96   21.70
  -3   9   2   11.10    3.20
   3   9  -2   13.70    3.50
   1  -9   2  305.57   31.80
   1  -9   2  352.16   16.60
  -1   9  -2  345.07   16.80
   1   9   2  331.97   12.50
   1   9   2  341.27   13.00
   3  -9   2  532.15   24.80
   3   9   2  517.35   20.60
  16   0  -3  504.15   29.50
 -16   0   3  501.65   25.30
  16   0  -3  464.45   25.50
 -14   0   3  402.26   21.90
  14   0  -3  393.76   22.30
  14   0  -3  410.86   22.30
 -14   0   3  394.56   19.00
 -12   0   3  801.42   29.70
 -12   0   3  778.32   29.60
 -12   0   3  831.32   33.60
  12   0  -3  784.22   32.60
  12   0  -3  800.12   32.90
  10   0  -3  160.78   11.00
 -10   0   3  136.29    8.90
 -10   0   3  149.39   11.50
 -10   0   3  140.39    9.00
  10   0  -3  142.69   10.60
   8   0  -3 4474.05  129.09
  -8   0   3 4458.55  131.29
   8   0  -3 4413.16  129.09
  -8   0   3 4303.17  126.79
  -8   0   3 4635.34  127.19
   6   0  -3 1669.43   52.59
  -6   0   3 1644.04   51.49
  -6   0   3 1769.62   51.69
  -6   0   3 1599.44   54.49
   6   0  -3 1768.32   54.69
  -4   0   3  489.95   18.10
   4   0  -3  472.55   19.70
  -4   0   3  481.85   17.80
   4   0  -3  482.85   18.30
  -4   0   3  427.16   19.20
   2   0  -3   23.70    3.70
  -2   0   3   24.00    3.60
  -2   0   3   21.80    3.10
   0   0  -3  285.27   12.80
   0   0   3  308.97   12.70
   0   0   3  330.17   16.50
   0   0   3  297.47   13.00
  -2   0  -3 1471.45   47.30
   2   0   3 1513.95   44.10
   2   0   3 1485.05   46.60
  -2   0  -3 1464.45   44.30
   2   0   3 1552.74   46.30
   4   0   3  133.99    7.90
  -4   0  -3  140.49    9.00
   4   0   3  134.39    5.40
   4   0   3  128.09    7.50
   6   0   3  214.18   10.70
   6   0   3  222.58   11.10
  -6   0  -3  211.38   12.60
  -8   0  -3  989.60   37.10
   8   0   3  960.70   33.10
   8   0   3  955.30   33.40
 -10   0  -3   97.29    9.30
  10   0   3   80.09    9.90
  10   0   3   94.59    7.70
  12   0   3  175.18   11.80
 -12   0  -3  159.88   13.50
  12   0   3  170.88   11.60
  14   0   3  766.32   40.80
  14   0   3  770.92   31.60
 -15  -1   3 1251.37   44.50
 -15  -1   3 1343.27   49.40
  15  -1  -3 1210.18   48.70
  15  -1  -3 1304.37   50.39
  15   1  -3 1295.87   50.49
 -15   1   3 1326.27   48.80
 -13  -1   3  237.08   16.40
  13  -1  -3  268.87   19.80
 -13  -1   3  235.28   12.90
  13  -1  -3  222.48   15.90
 -13  -1   3  237.18   13.90
  13   1  -3  257.87   15.70
 -13   1   3  300.57   22.20
 -13   1   3  273.97   15.70
 -13   1   3  241.68   13.40
  13   1  -3  218.28   15.80
  11  -1  -3  321.37   17.30
 -11  -1   3  331.87   18.90
 -11  -1   3  319.07   14.90
 -11  -1   3  314.87   15.50
  11  -1  -3  321.77   18.00
 -11   1   3  330.17   15.00
  11   1  -3  306.67   17.70
  11   1  -3  344.77   17.40
 -11   1   3  336.07   16.20
 -11   1   3  332.97   18.10
  -9  -1   3 2390.86   73.19
  -9  -1   3 2367.46   72.39
  -9  -1   3 2417.86   78.09
   9  -1  -3 2388.56   74.89
   9  -1  -3 2326.67   75.89
  -9   1   3 2401.26   73.79
   9   1  -3 2521.05   76.29
  -9   1   3 2528.65   77.49
  -9   1   3 2663.83   79.19
   9   1  -3 2447.56   76.19
   7  -1  -3 6326.07  176.78
  -7  -1   3 6033.10  180.08
  -7  -1   3 6135.99  174.98
   7  -1  -3 6062.19  177.78
  -7  -1   3 6414.86  175.98
   7   1  -3 6232.08  177.68
  -7   1   3 6367.86  179.58
   7   1  -3 6508.85  178.98
  -7   1   3 6275.67  176.28
  -7   1   3 6385.86  175.08
   5  -1  -3 2952.60   84.19
  -5  -1   3 2958.10   83.99
  -5  -1   3 2665.23   86.69
  -5  -1   3 2886.71   83.39
   5   1  -3 2864.01   84.89
   5   1  -3 3015.40   86.59
  -5   1   3 2871.21   86.59
  -5   1   3 2814.82   83.99
  -5   1   3 2918.41   83.19
  -3  -1   3   68.19    6.20
   3  -1  -3   70.29    6.30
  -3   1   3   64.69    5.30
   3   1  -3   66.79    6.00
  -3   1   3   68.69    5.10
   3   1  -3   65.29    5.40
   3  -1   3  302.17   11.50
   3  -1   3  290.37   13.40
   3  -1   3  301.87   13.10
  -3  -1  -3  296.67   13.90
  -3   1  -3  301.47   12.00
   3   1   3  297.07   10.70
   3   1   3  293.67   12.70
  -3   1  -3  273.67   13.80
   5  -1   3 1947.11   55.49
  -5  -1  -3 1895.71   61.29
   5  -1   3 2013.90   58.79
   5  -1   3 1955.90   59.59
  -5   1  -3 1954.90   55.79
  -5   1  -3 1935.61   61.89
   5   1   3 2026.70   59.09
   5   1   3 1948.91   58.99
   7  -1   3 5144.69  146.99
  -7  -1  -3 5143.79  153.68
   7  -1   3 5273.57  148.59
   7   1   3 5247.28  147.39
   7   1   3 5203.58  147.89
  -7   1  -3 5247.58  152.08
  -9  -1  -3 1164.58   44.30
   9  -1   3 1172.68   40.00
   9  -1   3 1234.28   41.70
   9   1   3 1242.48   40.50
  -9   1  -3 1201.28   44.90
   9   1   3 1272.67   41.40
 -11  -1  -3  154.78   12.30
  11  -1   3  148.79   10.20
  11  -1   3  148.09   10.90
  11   1   3  145.49   10.50
  11   1   3  149.19   10.20
 -11   1  -3  123.69   12.50
  13  -1   3  414.56   20.80
 -13  -1  -3  423.66   23.30
  13  -1   3  416.76   19.90
  13   1   3  396.96   19.40
  13   1   3  401.86   20.40
 -14  -2   3  341.17   20.40
  14  -2  -3  303.57   18.70
 -14  -2   3  324.17   15.30
  14  -2  -3  350.46   20.90
 -14   2   3  308.77   18.90
  14   2  -3  314.77   21.30
 -14   2   3  320.67   15.90
  14   2  -3  282.97   19.10
 -12  -2   3    8.90    4.70
  12  -2  -3   10.20    4.20
 -12  -2   3   16.40    3.30
 -12  -2   3   20.20    6.10
  12  -2  -3   18.70    4.80
 -12   2   3   19.70    4.20
  12   2  -3   16.40    4.50
  12   2  -3   10.60    5.00
 -12   2   3   13.40    3.10
 -12   2   3   12.90    4.10
 -10  -2   3  109.39    7.30
  10  -2  -3  111.59   10.00
  10  -2  -3  102.99    8.50
 -10  -2   3  108.09   10.80
 -10  -2   3  102.69    8.10
 -10   2   3  133.09   10.90
  10   2  -3  114.59    9.90
 -10   2   3  108.89    8.40
 -10   2   3  111.29    7.40
  10   2  -3  114.89    9.40
  -8  -2   3 1702.13   51.99
  -8  -2   3 1632.54   58.39
  -8  -2   3 1730.93   53.69
   8  -2  -3 1714.33   56.49
   8  -2  -3 1723.23   53.99
  -8   2   3 1758.12   57.09
  -8   2   3 1725.23   54.29
   8   2  -3 1713.63   55.99
   8   2  -3 1730.73   55.99
  -8   2   3 1769.32   52.09
  -6  -2   3  202.18   13.30
  -6  -2   3  219.58   10.90
   6  -2  -3  209.38   10.50
  -6  -2   3  202.58    9.80
   6  -2  -3  212.98   11.90
  -6   2   3  199.78   12.30
   6   2  -3  212.28   12.30
  -6   2   3  204.38    9.60
  -6   2   3  214.98   11.10
   6   2  -3  204.88   11.50
   4  -2  -3  769.32   25.60
  -4  -2   3  660.83   27.70
  -4  -2   3  753.72   25.40
  -4  -2   3  674.63   27.00
  -4   2   3  720.83   27.10
  -4   2   3  708.83   24.00
   4   2  -3  746.13   27.10
  -4   2   3  715.03   25.30
   4   2  -3  712.03   25.90
  -2  -2   3 3465.85   98.69
  -2  -2   3 3425.86  100.99
  -2   2   3 3481.15   98.09
   2   2  -3 3413.56   98.99
   2   2  -3 3459.35  100.49
  -2   2   3 3476.55   98.89
  -2   2   3 3322.77   99.79
   0  -2   3 3813.02  110.19
   0  -2   3 3915.01  110.59
   0   2  -3 3761.92  111.09
   0   2   3 3733.43  110.29
   0   2  -3 4030.20  111.99
   0   2  -3 3861.71  110.09
   0   2   3 3975.60  110.49
   2  -2   3   49.99    4.50
   2  -2   3   44.10    4.60
   2  -2   3   57.99    5.00
  -2   2  -3   46.10    4.90
   2   2   3   50.89    4.30
  -2   2  -3   62.39    5.40
   2   2   3   45.70    4.40
   4  -2   3 1393.26   42.10
   4  -2   3 1324.77   43.50
   4  -2   3 1351.46   43.90
   4   2   3 1364.06   42.60
  -4   2  -3 1388.26   42.90
   4   2   3 1387.96   40.30
  -4   2  -3 1386.06   45.70
   4   2   3 1372.36   40.20
   4   2   3 1380.26   42.90
  -6  -2  -3   59.79    6.30
   6  -2   3   67.19    6.30
   6  -2   3   67.09    5.30
   6  -2   3   74.89    4.80
  -6   2  -3   68.29    7.10
  -6   2  -3   72.39    5.20
   6   2   3   66.19    5.90
   6   2   3   76.09    5.60
   8  -2   3 3145.99   93.49
   8  -2   3 3102.19   90.89
  -8   2  -3 3099.59   86.99
   8   2   3 3216.78   90.99
  -8   2  -3 2959.80   96.29
   8   2   3 3173.48   92.79
  10  -2   3   81.79    7.10
  10  -2   3   83.79    8.40
 -10  -2  -3   70.99    8.60
  10   2   3   96.09    8.20
 -10   2  -3  100.59   13.00
  10   2   3   97.79    7.30
  12  -2   3  386.06   20.20
  12  -2   3  404.16   18.60
 -12  -2  -3  370.06   21.20
  12   2   3  390.76   19.80
  12   2   3  423.06   18.90
  15  -3  -3  684.93   32.20
  15  -3  -3  725.13   39.00
 -15  -3   3  777.32   34.80
  15   3  -3  730.63   35.50
 -15   3   3  739.73   28.40
  15   3  -3  786.42   35.80
 -15   3   3  762.22   33.20
  13  -3  -3  400.26   22.90
  13  -3  -3  389.86   20.20
 -13  -3   3  402.76   22.90
 -13  -3   3  374.16   16.10
  13   3  -3  382.66   20.70
 -13   3   3  401.76   21.70
 -13   3   3  397.76   16.90
  13   3  -3  369.76   21.90
 -13   3   3  403.26   22.00
 -11  -3   3  895.91   29.80
 -11  -3   3  880.11   33.40
  11  -3  -3  891.81   33.30
  11  -3  -3  920.01   37.20
 -11  -3   3  938.41   38.50
  11   3  -3  856.81   34.20
 -11   3   3  876.81   33.80
  11   3  -3  871.51   36.20
 -11   3   3  937.21   37.20
 -11   3   3  878.71   30.00
   9  -3  -3 2174.58   70.99
  -9  -3   3 2119.49   73.39
  -9  -3   3 2166.98   67.19
  -9  -3   3 2193.28   64.19
   9  -3  -3 2207.48   66.79
  -9   3   3 2195.78   70.89
   9   3  -3 2194.78   70.39
  -9   3   3 2198.28   64.29
   9   3  -3 2195.18   69.39
  -9   3   3 2180.68   68.29
  -7  -3   3 2609.64   78.09
  -7  -3   3 2656.53   75.79
   7  -3  -3 2696.13   77.29
  -7  -3   3 2365.46   83.39
   7  -3  -3 2666.73   81.29
  -7   3   3 2688.13   75.69
  -7   3   3 2675.23   79.09
   7   3  -3 2678.73   80.59
  -7   3   3 2618.04   81.49
   7   3  -3 2575.34   80.49
   5  -3  -3  737.53   24.60
   5  -3  -3  705.23   27.00
  -5  -3   3  726.93   25.40
  -5  -3   3  724.33   25.10
  -5  -3   3  670.53   23.80
   5   3  -3  705.13   26.60
  -5   3   3  727.93   23.70
  -5   3   3  696.63   25.70
  -3  -3   3  566.74   20.90
  -3  -3   3  605.34   26.30
  -3   3   3  573.74   19.90
  -3   3   3  536.95   20.90
   3   3  -3  553.74   22.90
   3   3  -3  569.54   21.60
   1  -3   3 8496.65  230.78
   1  -3   3 8226.58  230.58
  -1   3  -3 8422.66  230.08
  -1   3  -3 8284.17  232.78
  -1   3  -3 8180.98  231.88
   3  -3   3  107.09    7.30
   3  -3   3  116.69    7.80
   3  -3   3  116.49    7.70
   3   3   3  118.79    7.10
  -3   3  -3  114.29    8.20
   3   3   3  117.39    7.00
  -3   3  -3  108.99    8.30
   3   3   3  126.59    7.40
   5  -3   3  404.16   15.60
   5  -3   3  394.66   17.40
   5  -3   3  407.16   16.50
   5  -3   3  362.36   16.80
   5   3   3  388.06   14.70
   5   3   3  412.66   15.70
   5   3   3  411.76   16.80
  -5   3  -3  416.16   17.40
   7  -3   3 5175.98  164.08
   7  -3   3 5366.26  150.88
   7  -3   3 5231.68  154.28
  -7   3  -3 5617.34  152.38
  -7   3  -3 5351.46  157.78
   7   3   3 5514.95  150.78
   7   3   3 5359.06  153.38
   9  -3   3 2204.08   72.79
   9  -3   3 2231.18   69.19
  -9   3  -3 2358.26   67.99
   9   3   3 2323.67   68.89
   9   3   3 2264.37   72.09
  -9   3  -3 2499.95   80.79
 -11  -3  -3  179.88   13.70
  11  -3   3  192.78   13.20
  11  -3   3  176.88   12.10
  11   3   3  191.88   10.70
  11   3   3  215.98   13.40
 -13  -3  -3   70.19    9.70
  13  -3   3  106.49   10.00
  13  -3   3  108.89    8.90
  13   3   3  101.39    9.50
  13   3   3  100.59    8.50
  14  -4  -3  213.28   14.50
 -14  -4   3  244.68   17.80
 -14   4   3  232.58   11.70
  14   4  -3  216.78   19.10
 -14   4   3  230.98   16.80
  14   4  -3  282.07   24.80
  12  -4  -3  306.47   15.70
 -12  -4   3  309.67   20.50
  12  -4  -3  296.57   19.30
 -12   4   3  298.77   19.10
 -12   4   3  288.77   18.30
 -12   4   3  294.97   12.80
  12   4  -3  242.18   23.20
  12   4  -3  299.97   19.30
  10  -4  -3   14.40    3.30
 -10  -4   3   12.90    3.00
  10  -4  -3   11.90    4.10
 -10  -4   3   15.30    2.50
 -10  -4   3    7.00    2.30
 -10  -4   3    9.20    4.30
  10   4  -3    5.50    3.10
 -10   4   3   13.70    2.50
  10   4  -3   13.70    4.30
 -10   4   3    9.70    3.80
 -10   4   3   13.20    5.70
 -10   4   3    9.60    3.20
  -8  -4   3 2137.89   63.39
  -8  -4   3 2094.59   65.29
   8  -4  -3 2116.09   69.19
   8  -4  -3 2174.78   63.29
  -8  -4   3 2134.69   61.39
  -8  -4   3 1964.10   72.09
   8   4  -3 2127.69   68.09
  -8   4   3 2211.88   61.49
   8   4  -3 2116.79   68.19
  -8   4   3 2163.78   69.39
  -8   4   3 2043.30   70.69
  -8   4   3 2094.59   66.49
  -6  -4   3  289.47   12.50
  -6  -4   3  267.17   17.50
   6  -4  -3  286.27   15.40
   6  -4  -3  296.07   12.20
  -6  -4   3  281.47   11.50
  -6  -4   3  284.87   13.50
  -6   4   3  300.57   17.20
  -6   4   3  279.57   14.10
  -6   4   3  293.87   11.40
   6   4  -3  286.77   14.90
   6   4  -3  273.67   15.50
  -4  -4   3  314.57   13.90
  -4  -4   3  321.87   13.50
  -4  -4   3  314.47   17.80
   4  -4  -3  307.27   15.20
  -4   4   3  312.27   12.20
   4   4  -3  308.47   14.90
  -4   4   3  291.47   16.50
  -4   4   3  335.77   16.80
   4   4  -3  303.27   16.10
  -2  -4   3  184.88    9.70
  -2  -4   3  195.68    9.70
  -2  -4   3  186.78   12.40
  -2   4   3  194.38   10.20
  -2   4   3  203.68   12.20
   2   4  -3  175.48   10.00
  -2   4   3  182.08    9.10
   0  -4   3  870.51   32.10
   0  -4   3  869.01   29.10
   0  -4   3  799.72   28.40
   0   4   3  852.21   28.80
   0   4  -3  835.22   29.90
   0   4   3  868.71   27.80
   0   4  -3  877.21   28.90
   0   4   3  815.52   30.80
   0   4   3  863.61   28.90
   0   4  -3  853.11   32.10
   2  -4   3  335.87   14.40
   2  -4   3  354.56   15.40
   2  -4   3  349.17   16.50
   2   4   3  326.37   15.20
   2   4   3  339.87   14.00
  -2   4  -3  327.67   15.90
   2   4   3  337.37   14.20
   2   4   3  339.67   14.30
  -2   4  -3  343.77   16.90
   4  -4   3   61.39    5.50
   4  -4   3   57.99    6.00
   4  -4   3   65.39    6.40
  -4   4  -3   59.69    6.50
   4   4   3   60.09    5.30
   4   4   3   59.39    5.40
   4   4   3   65.39    5.00
  -4   4  -3   57.99    6.30
   6  -4   3  101.89    8.50
   6  -4   3   97.39    7.40
   6  -4   3  102.99    7.80
   6  -4   3   97.49    6.20
  -6   4  -3   98.19    9.10
  -6   4  -3  110.19    8.60
   6   4   3  103.59    6.20
   6   4   3  100.29    6.30
   6   4   3   94.29    7.70
   8  -4   3 1082.19   35.30
   8  -4   3 1057.69   39.70
   8  -4   3 1027.80   38.20
  -8   4  -3 1114.79   38.20
   8   4   3 1118.39   34.80
   8   4   3 1093.79   38.90
  -8   4  -3 1242.48   48.50
   8   4   3 1064.29   32.40
  10  -4   3    4.90    3.00
  10  -4   3   11.70    3.60
  10  -4   3   11.00    2.90
 -10   4  -3    8.40    2.60
  10   4   3   11.20    2.60
  10   4   3    9.60    3.30
  12  -4   3  137.69   11.50
  12  -4   3  146.59    9.80
  12  -4   3  160.18   13.90
  12   4   3  160.98    9.20
  12   4   3  154.28   12.50
 -13  -5   3   98.89   11.00
  13  -5  -3   80.89   13.30
 -13   5   3   64.39    9.90
 -13   5   3   82.69    6.00
  11  -5  -3   40.10    4.50
  11  -5  -3   49.50    8.00
 -11  -5   3   31.10    7.10
 -11   5   3   45.50    8.10
  11   5  -3   38.20    7.20
 -11   5   3   43.70    3.80
  11   5  -3   39.70    7.60
 -11   5   3   38.60    7.20
  -9  -5   3 1272.17   52.19
  -9  -5   3 1283.27   44.20
  -9  -5   3 1097.69   38.50
   9  -5  -3 1302.87   40.10
   9  -5  -3 1347.67   49.00
  -9  -5   3 1387.66   38.50
  -9   5   3 1357.06   48.60
  -9   5   3 1494.85   62.29
   9   5  -3 1247.88   46.60
  -9   5   3 1227.88   38.70
   9   5  -3 1296.77   47.30
   7  -5  -3 4583.34  130.89
  -7  -5   3 4122.59  121.99
  -7  -5   3 4218.18  135.19
  -7  -5   3 4434.26  126.19
  -7   5   3 4348.37  121.59
  -7   5   3 4387.96  127.59
   7   5  -3 4540.95  129.39
  -7   5   3 4130.59  132.99
   7   5  -3 4471.15  130.49
  -5  -5   3 2032.90   66.79
  -5  -5   3 1833.12   57.49
  -5  -5   3 1814.42   55.49
   5  -5  -3 1882.51   60.89
  -5   5   3 1855.61   58.79
  -5   5   3 1865.01   54.89
   5   5  -3 1869.51   61.99
  -5   5   3 1765.42   63.59
   5   5  -3 1907.41   59.89
  -3  -5   3   21.00    5.60
  -3  -5   3   18.30    2.80
  -3  -5   3   18.10    3.00
   3   5  -3   23.60    5.20
  -3   5   3   16.90    3.70
  -3   5   3   27.50    5.90
  -3   5   3   22.90    2.80
  -3   5   3   18.80    2.40
   3   5  -3   13.00    2.90
  -1  -5   3 2154.28   64.19
  -1  -5   3 2135.79   69.59
  -1  -5   3 2062.09   63.09
  -1   5   3 2145.89   61.99
   1   5  -3 2103.99   64.79
   1   5  -3 2139.19   69.09
  -1   5   3 2196.98   63.29
  -1   5   3 2082.39   63.79
  -1   5   3 2105.19   68.39
   1   5  -3 2097.19   64.09
   1  -5   3 4022.40  115.09
   1  -5   3 4115.69  117.29
   1  -5   3 4062.09  120.99
  -1   5  -3 4085.89  120.09
   1   5   3 3941.81  115.19
   1   5   3 4112.99  114.99
   1   5   3 4001.70  119.89
  -1   5  -3 4031.60  121.19
   3  -5   3  661.33   23.70
   3  -5   3  654.03   27.40
   3  -5   3  705.53   26.50
  -3   5  -3  652.63   28.10
   3   5   3  685.13   23.60
   3   5   3  664.33   23.30
   3   5   3  700.63   24.70
   3   5   3  649.64   26.00
  -3   5  -3  693.33   27.50
   5  -5   3 1577.84   52.09
   5  -5   3 1564.44   46.70
   5  -5   3 1597.14   52.39
   5  -5   3 1537.35   48.70
  -5   5  -3 1586.44   54.09
  -5   5  -3 1496.65   52.99
   5   5   3 1535.05   49.70
   5   5   3 1569.14   50.19
   5   5   3 1570.74   47.70
   7  -5   3 2374.06   70.09
   7  -5   3 2445.66   74.89
   7  -5   3 2461.25   77.09
   7  -5   3 2394.86   73.19
  -7   5  -3 2383.26   76.59
   7   5   3 2498.25   75.49
   7   5   3 2429.86   71.19
   7   5   3 2356.36   71.39
   9  -5   3  367.56   15.10
   9  -5   3  348.47   17.20
   9  -5   3  372.26   19.90
   9   5   3  378.76   18.90
   9   5   3  352.96   15.40
  -9   5  -3  384.46   18.60
  11  -5   3   61.19    6.10
  11  -5   3   83.59   10.00
  11   5   3   79.09    5.60
 -12  -6   3  106.59   12.60
  12  -6  -3  120.79   12.90
 -10  -6   3    4.40    3.80
  10  -6  -3    1.70    2.60
  10   6  -3   -3.00    3.30
 -10   6   3    2.20    3.60
  10   6  -3    2.40    3.30
   8  -6  -3 1024.80   40.30
  -8  -6   3  970.90   44.40
  -8  -6   3  954.70   35.50
  -8   6   3  941.01   42.60
   8   6  -3 1025.10   40.00
  -8   6   3  992.70   37.20
   8   6  -3 1025.80   38.80
  -6  -6   3   63.09    9.60
  -6  -6   3   66.19    4.20
  -6  -6   3   73.69    4.30
   6  -6  -3   71.69    7.80
  -6  -6   3   64.99    6.20
   6   6  -3   68.29    7.50
  -6   6   3   72.39    6.90
   6   6  -3   64.19    8.50
  -6   6   3   67.29    9.30
  -4  -6   3  184.68   10.50
  -4  -6   3  199.58   11.60
  -4  -6   3  212.28   17.10
  -4   6   3  205.78    8.00
  -4   6   3  210.68    7.90
  -4   6   3  193.18   11.50
   4   6  -3  187.18   13.80
   4   6  -3  199.78   11.90
  -4   6   3  177.88   14.30
  -2  -6   3  159.38    9.00
  -2  -6   3  165.68   13.50
  -2  -6   3  175.28    9.80
   2   6  -3  162.08    9.90
  -2   6   3  155.78   12.60
  -2   6   3  159.28    9.80
  -2   6   3  174.08    8.30
   2   6  -3  149.69   12.40
  -2   6   3  172.28    7.90
   0  -6   3  609.04   22.00
   0  -6   3  607.24   24.10
   0  -6   3  623.24   28.50
   0   6  -3  661.53   28.80
   0   6   3  623.64   21.90
   0   6   3  615.14   22.90
   0   6   3  640.54   22.90
   0   6  -3  605.34   31.80
   0   6  -3  609.64   22.50
   0   6   3  592.54   26.90
   2  -6   3  111.59   10.30
   2  -6   3  115.29    6.90
   2  -6   3  111.39    8.90
  -2   6  -3  107.29    8.90
   2   6   3  101.39    7.00
   2   6   3  119.39    9.80
   2   6   3  113.09    7.10
  -2   6  -3  118.89   10.70
   2   6   3  115.69    7.70
   4  -6   3   81.19    5.80
   4  -6   3   95.19    9.20
   4  -6   3   81.99    8.30
   4   6   3   94.69    6.20
   4   6   3   79.89    7.80
   4   6   3   95.39    7.70
  -4   6  -3   82.69    8.90
   4   6   3   86.49    5.70
  -4   6  -3   84.79    8.60
   6  -6   3   54.59    4.00
   6  -6   3   59.19    7.20
   6  -6   3   50.99    7.20
   6  -6   3   53.79    4.90
   6   6   3   52.19    6.20
   6   6   3   60.39    3.70
  -6   6  -3   53.89    7.60
  -6   6  -3   46.70    6.70
   6   6   3   54.89    6.50
   8  -6   3  692.03   31.60
  -8   6  -3  743.73   31.90
   8   6   3  821.32   31.20
   8   6   3  770.42   30.70
  10  -6   3   -0.20    3.10
  10  -6   3    0.10    2.80
 -10   6  -3    0.80    3.30
   9  -7  -3  897.31   38.90
  -9  -7   3  862.01   43.00
   9   7  -3  887.31   37.00
   7  -7  -3 1014.60   39.90
  -7  -7   3  993.80   37.70
  -7  -7   3  913.61   44.60
  -7   7   3  943.01   36.70
   7   7  -3  973.60   37.70
  -5  -7   3  241.58   13.00
   5  -7  -3  269.17   21.20
  -5  -7   3  222.98    8.80
  -5  -7   3  252.87   19.50
  -5   7   3  245.88   13.90
  -5   7   3  227.68   17.70
   5   7  -3  241.88   16.90
   5   7  -3  240.58   14.10
  -3  -7   3  297.57   13.00
  -3  -7   3  284.47   13.70
  -3  -7   3  293.77   20.40
  -3   7   3  299.37   10.20
  -3   7   3  290.87    9.90
  -3   7   3  290.67   19.30
  -3   7   3  299.07   15.00
   3   7  -3  272.87   18.40
   3   7  -3  287.47   14.70
  -1  -7   3 3987.90  111.19
  -1  -7   3 3747.12  112.79
  -1  -7   3 4081.89  122.79
  -1   7   3 3910.51  112.59
   1   7  -3 3763.92  125.69
   1   7  -3 3614.84  116.69
  -1   7   3 3980.50  110.09
  -1   7   3 3786.82  120.19
  -1   7   3 3959.40  109.19
   1   7  -3 3869.41  111.89
   1  -7   3 2699.73   83.29
   1  -7   3 2804.32   89.19
   1  -7   3 2567.34   77.99
   1   7   3 2713.33   80.29
   1   7   3 2755.92   79.49
  -1   7  -3 2693.63   83.19
   1   7   3 2675.43   79.39
   1   7   3 2669.63   86.89
   3  -7   3   15.70    2.70
   3  -7   3   14.20    4.50
   3  -7   3   15.90    4.30
   3   7   3   15.80    2.80
  -3   7  -3   13.80    4.50
   3   7   3   20.40    4.70
  -3   7  -3   12.80    3.20
   3   7   3   21.00    4.30
   5  -7   3  166.78   12.80
   5  -7   3  167.38   13.00
  -5   7  -3  152.78   13.70
   5   7   3  144.39   11.40
  -5   7  -3  138.99   12.30
   5   7   3  165.78   11.70
   7  -7   3 2195.88   73.99
   7  -7   3 2249.57   73.29
  -7   7  -3 2165.68   75.29
   7   7   3 2119.69   69.39
   7   7   3 2271.07   71.29
  -8  -8   3  356.76   31.50
   8  -8  -3  410.96   23.30
   8   8  -3  412.86   21.80
  -6  -8   3    8.20    5.70
  -6  -8   3    3.80    4.30
   6  -8  -3    9.20    3.70
   6   8  -3    5.90    3.60
  -6   8   3    1.50    3.00
  -4  -8   3  145.19   15.00
  -4  -8   3  152.98    9.90
   4   8  -3  150.48   10.60
  -4   8   3  151.88   10.90
  -2  -8   3  299.47   13.50
  -2  -8   3  286.07   13.70
  -2  -8   3  302.57   21.10
  -2   8   3  279.97   14.80
   2   8  -3  307.07   14.60
   0  -8   3  682.43   33.20
   0  -8   3  634.14   26.20
   0   8   3  687.43   40.30
   0   8   3  671.83   22.50
   0   8  -3  652.23   26.50
   0   8   3  618.64   24.20
   0   8   3  649.74   23.10
   2  -8   3    9.80    3.90
   2   8   3    9.90    2.00
   2   8   3   14.00    3.80
   2   8   3   12.10    4.50
  -2   8  -3    4.20    2.80
   2   8   3    8.80    2.10
   2   8   3   11.00    3.10
   4  -8   3  249.28   17.40
   4  -8   3  241.08   16.20
   4   8   3  254.67   16.60
  -4   8  -3  246.78   16.60
   6  -8   3   12.30    4.20
   6  -8   3    4.60    3.10
   6   8   3    7.40    4.40
   6   8   3   17.20    5.10
  -3  -9   3   33.30    7.60
   3   9  -3   31.20    5.20
  -3   9   3   33.00    6.70
  -1  -9   3  957.80   44.20
  -1   9   3  894.01   32.70
   1  -9   3 1283.87   52.69
   1  -9   3 1193.08   45.90
   1   9   3 1184.48   38.60
  -1   9  -3 1189.28   44.10
   1   9   3 1245.68   39.90
   1   9   3 1347.57   40.40
   1   9   3 1282.07   39.10
  14   0  -4  383.96   22.60
 -14   0   4  375.96   18.90
 -14   0   4  386.76   22.90
 -12   0   4  545.35   26.40
 -12   0   4  481.65   21.10
 -12   0   4  452.65   20.90
  12   0  -4  450.85   23.70
 -10   0   4 2096.39   65.49
 -10   0   4 2118.59   65.09
  10   0  -4 2096.59   68.69
 -10   0   4 2099.09   70.79
   8   0  -4 1011.60   37.70
  -8   0   4 1018.30   34.10
  -8   0   4  994.30   38.40
   8   0  -4  940.71   35.70
  -8   0   4  943.41   33.90
  -6   0   4  763.32   30.50
   6   0  -4  678.53   26.50
   6   0  -4  706.93   28.60
  -6   0   4  614.64   29.10
   4   0  -4 9999.00  269.67
  -4   0   4 9286.77  271.17
  -4   0   4 9893.51  268.87
   4   0  -4 9748.03  271.87
  -4   0   4 9516.45  268.97
  -2   0   4 5728.43  162.38
  -2   0   4 5774.12  162.68
  -2   0   4 5941.41  161.88
   2   0  -4 5374.46  162.58
   0   0  -4   47.70    5.10
   0   0   4   46.50    5.00
   0   0   4   70.29    7.70
   2   0   4  744.33   28.30
  -2   0  -4  755.72   25.90
   2   0   4  781.42   27.90
   2   0   4  790.82   25.80
   4   0   4 6931.21  192.68
  -4   0  -4 6911.51  196.08
   4   0   4 6769.52  194.38
   4   0   4 6777.22  188.08
   6   0   4 5509.75  155.58
  -6   0  -4 5316.17  159.98
   6   0   4 5532.05  155.08
   8   0   4  299.17   15.10
   8   0   4  264.17   15.80
  -8   0  -4  290.27   17.90
  10   0   4    6.50    3.30
  10   0   4    2.20    2.30
 -10   0  -4    8.60    3.60
  12   0   4 1270.47   45.50
  12   0   4 1251.37   45.10
  15  -1  -4   33.50    6.60
 -15  -1   4   43.20    8.30
 -15  -1   4   33.40    5.50
 -15   1   4   26.40    6.20
  15   1  -4   25.50    8.50
 -13  -1   4    1.40    2.20
  13  -1  -4    0.70    2.90
 -13  -1   4    2.30    1.90
 -13  -1   4    0.30    3.30
 -13   1   4   -1.60    3.30
  13   1  -4   -3.50    2.60
 -13   1   4    1.70    2.30
 -13   1   4    0.00    2.30
  11  -1  -4  692.53   30.50
 -11  -1   4  704.53   28.10
 -11  -1   4  815.12   41.70
 -11  -1   4  732.23   27.70
  11   1  -4  748.73   31.40
  11   1  -4  740.73   31.90
 -11   1   4  746.93   28.90
 -11   1   4  735.53   27.60
   9  -1  -4   84.29    8.00
  -9  -1   4   80.59    9.90
  -9  -1   4   80.19    7.00
  -9  -1   4   90.39    7.00
  -9   1   4   90.59    6.90
   9   1  -4   84.89    9.00
  -9   1   4   87.29    9.60
  -9   1   4   85.09    7.40
   9   1  -4   84.99    8.40
  -7  -1   4   39.00    4.80
  -7  -1   4   39.90    6.80
  -7  -1   4   41.30    6.30
   7  -1  -4   42.50    5.30
   7   1  -4   37.50    5.90
  -7   1   4   41.90    5.10
  -7   1   4   42.00    6.50
   7   1  -4   37.90    5.20
  -7   1   4   43.30    5.10
  -5  -1   4  156.08   11.60
  -5  -1   4  151.28    9.40
   5  -1  -4  157.48    9.90
  -5   1   4  153.98    9.20
  -5   1   4  171.78   14.40
  -5   1   4  158.48   11.30
   5   1  -4  165.58   10.30
  -3  -1   4 1618.14   50.49
   3  -1  -4 1633.04   50.39
  -3  -1   4 1573.54   52.29
  -3  -1   4 1555.54   50.99
   3   1  -4 1597.84   50.79
  -3   1   4 1563.64   49.90
  -3   1   4 1582.34   50.59
   3   1  -4 1605.94   52.49
  -3   1   4 1530.65   51.59
  -1  -1   4  913.71   31.60
  -1  -1   4  894.31   31.70
  -1  -1   4  877.41   31.40
  -1   1   4  877.01   31.20
  -1   1   4  888.31   31.40
   1   1  -4  861.61   32.10
   1   1  -4  924.31   31.50
  -1   1   4  906.11   32.20
   1  -1   4 1176.18   39.20
   1  -1   4 1252.17   38.80
   1  -1   4 1171.48   38.70
   1   1   4 1141.49   37.00
   1   1   4 1126.79   38.60
   1   1   4 1090.09   38.70
  -1   1  -4 1126.69   38.30
   3  -1   4   63.99    7.20
   3  -1   4   50.09    4.40
   3  -1   4   30.20    7.40
   3   1   4   37.50    4.60
  -3   1  -4   39.10    4.20
   3   1   4   58.59    6.00
  -3   1  -4   45.60    5.60
   3   1   4   41.40    3.90
   5  -1   4 3766.82  102.49
   5  -1   4 3574.04  108.89
   5  -1   4 3729.13  107.29
   5  -1   4 3643.24  106.09
  -5  -1  -4 3448.56  109.99
   5   1   4 3779.72  106.79
   5   1   4 3839.02  106.79
  -5   1  -4 3539.75  102.19
  -5   1  -4 3610.24  110.79
  -7  -1  -4   44.90    6.40
   7  -1   4   33.30    4.60
   7  -1   4   43.10    5.60
  -7   1  -4   41.10    6.40
   7   1   4   43.70    5.30
   7   1   4   44.10    5.20
  -9  -1  -4  493.95   25.50
   9  -1   4  491.35   22.10
   9  -1   4  474.55   20.80
   9   1   4  493.15   21.20
   9   1   4  494.25   21.60
  -9   1  -4  557.54   31.40
  11  -1   4  181.08   12.10
 -11  -1  -4  201.58   15.20
  11  -1   4  178.18   12.50
  11   1   4  186.58   12.60
  11   1   4  166.98   11.70
 -14  -2   4   33.20    5.50
 -14  -2   4   18.60    5.50
  14  -2  -4   47.20    9.00
  14  -2  -4   33.80    6.50
 -14   2   4   23.30    5.80
 -14   2   4   25.90    4.70
  14   2  -4   20.80    5.80
 -12  -2   4  836.72   31.00
  12  -2  -4  903.81   37.90
  12  -2  -4  912.31   35.80
 -12  -2   4  920.91   39.50
 -12   2   4  800.72   33.20
  12   2  -4  840.22   36.80
 -12   2   4  855.71   36.70
 -12   2   4  891.01   31.30
  10  -2  -4 4508.15  155.08
 -10  -2   4 4821.92  141.89
  10  -2  -4 5174.98  146.19
 -10  -2   4 5033.30  144.09
 -10  -2   4 5136.19  151.98
  10   2  -4 4973.50  147.49
 -10   2   4 5148.58  142.19
  10   2  -4 4656.83  156.68
 -10   2   4 5310.87  150.88
 -10   2   4 5025.10  144.99
  -8  -2   4 1329.77   51.89
  -8  -2   4 1437.66   47.00
  -8  -2   4 1447.46   49.60
   8  -2  -4 1444.96   47.50
  -8   2   4 1443.66   50.79
  -8   2   4 1484.85   45.50
   8   2  -4 1394.36   49.20
  -8   2   4 1417.76   47.40
   8   2  -4 1432.56   49.80
   6  -2  -4   85.69    7.00
  -6  -2   4  103.09   12.10
  -6  -2   4   91.89    7.30
  -6  -2   4   85.19    6.60
  -6   2   4   91.99    6.70
  -6   2   4   83.29    7.10
  -6   2   4   94.59    9.20
   6   2  -4   96.19    8.70
   6   2  -4   92.39    8.10
   4  -2  -4 3468.35   96.59
  -4  -2   4 3462.15   97.59
  -4  -2   4 2744.53   99.89
  -4  -2   4 3178.18  100.19
   4   2  -4 3377.26   97.79
  -4   2   4 3418.06   95.89
  -4   2   4 3331.57   99.99
  -2  -2   4 8230.38  223.08
  -2  -2   4 7787.82  222.48
  -2  -2   4 7903.51  224.78
   2   2  -4 8192.58  225.08
  -2   2   4 8041.90  222.18
   2   2  -4 7911.51  222.78
  -2   2   4 7647.13  223.58
   0  -2   4 1804.02   55.69
   0  -2   4 1749.92   55.49
   0  -2   4 1696.03   54.89
   0   2   4 1735.53   54.79
   0   2  -4 1765.62   54.99
   0   2   4 1784.62   55.49
   0   2  -4 1806.92   56.59
   0   2   4 1734.03   55.79
   2  -2   4 1313.27   42.60
   2  -2   4 1308.67   44.00
   2  -2   4 1337.37   43.60
   2   2   4 1336.67   45.20
   2   2   4 1316.87   43.40
  -2   2  -4 1305.07   45.40
  -2   2  -4 1344.27   43.90
   2   2   4 1372.46   41.90
   4  -2   4 2246.68   70.49
   4  -2   4 2236.98   69.59
   4  -2   4 2263.37   70.79
   4   2   4 2246.18   68.79
  -4   2  -4 2311.27   68.29
   4   2   4 2363.76   69.19
   4   2   4 2221.08   65.19
   4   2   4 2328.37   67.69
  -4   2  -4 2270.27   72.79
   6  -2   4 1850.61   63.19
   6  -2   4 2009.10   57.59
   6  -2   4 1955.90   60.29
   6  -2   4 1918.51   62.09
  -6   2  -4 1912.91   65.89
   6   2   4 2030.20   60.79
   6   2   4 1974.00   61.29
  -6   2  -4 2075.09   60.29
   8  -2   4  542.05   25.40
   8  -2   4  563.14   22.30
  -8  -2  -4  553.64   27.00
   8  -2   4  563.04   24.20
   8   2   4  595.04   22.70
   8   2   4  572.34   23.60
  10  -2   4  373.06   17.60
  10  -2   4  357.46   20.50
  10  -2   4  399.16   19.90
 -10  -2  -4  361.56   22.00
  10   2   4  376.76   20.30
  10   2   4  383.76   18.90
  12  -2   4 1563.54   53.59
 -12  -2  -4 1578.74   61.29
  12   2   4 1618.94   56.29
  12   2   4 1679.33   54.09
 -13  -3   4    0.90    2.30
  13  -3  -4   -0.40    5.70
 -13  -3   4    0.20    3.90
  13  -3  -4    8.00    4.10
  13   3  -4   -9.20    4.70
 -13   3   4   -1.40    3.40
 -13   3   4    5.40    2.30
  13   3  -4    7.60    4.30
  11  -3  -4 1198.68   46.70
 -11  -3   4 1185.28   38.80
 -11  -3   4 1227.68   49.10
  11  -3  -4 1196.78   42.60
 -11  -3   4 1135.79   41.50
 -11   3   4 1170.48   38.60
 -11   3   4 1183.28   45.60
  11   3  -4 1091.79   44.80
 -11   3   4 1181.68   42.70
  -9  -3   4  429.46   17.90
  -9  -3   4  426.36   19.10
  -9  -3   4  401.56   23.90
   9  -3  -4  424.76   19.00
   9   3  -4  422.06   21.30
  -9   3   4  427.46   17.10
  -9   3   4  419.46   19.70
   9   3  -4  349.17   24.80
  -7  -3   4  120.69   11.90
   7  -3  -4  147.49    9.30
  -7  -3   4  136.09    9.50
  -7  -3   4  148.59    9.70
  -7  -3   4  138.09    8.40
  -7   3   4  134.79    9.70
   7   3  -4  136.99   10.60
  -7   3   4  131.89    8.10
  -7   3   4  144.79   11.80
   7   3  -4  149.69   11.40
   5  -3  -4  160.28    9.50
  -5  -3   4  202.08   16.80
  -5  -3   4  151.08    9.80
  -5  -3   4  161.98   10.00
   5   3  -4  172.78   11.90
  -5   3   4  162.68   12.00
  -5   3   4  157.68   10.10
   5   3  -4  162.68   10.90
  -5   3   4  157.78    9.00
  -3  -3   4  795.42   28.60
  -3  -3   4  751.02   30.90
  -3  -3   4  762.42   27.60
   3   3  -4  740.13   28.30
   3   3  -4  762.52   30.10
  -3   3   4  789.42   30.20
  -3   3   4  724.53   26.70
  -3   3   4  732.23   27.80
  -1  -3   4 2179.08   68.89
  -1  -3   4 2198.58   66.99
  -1  -3   4 2182.38   66.59
   1   3  -4 2157.88   66.69
  -1   3   4 2248.97   66.79
  -1   3   4 2103.49   67.59
   1   3  -4 2187.48   69.79
  -1   3   4 2166.48   66.79
   1  -3   4   64.99    6.40
   1  -3   4   72.89    6.30
   1  -3   4   53.69    5.70
  -1   3  -4   60.49    6.40
   1   3   4   57.59    5.60
   1   3   4   60.39    6.00
  -1   3  -4   71.89    7.00
   1   3   4   64.59    9.10
   1   3   4   81.59    6.70
   3  -3   4    8.00    2.80
   3  -3   4    8.50    2.80
   3   3   4    7.60    2.60
   3   3   4    7.20    2.20
  -3   3  -4   17.60    4.10
   3   3   4    6.60    2.30
  -3   3  -4    6.00    2.70
   3   3   4   11.10    2.90
   5  -3   4 1075.39   38.60
   5  -3   4 1096.09   36.70
   5  -3   4 1078.29   39.10
   5   3   4 1184.18   37.10
   5   3   4 1110.79   36.90
  -5   3  -4 1143.19   37.90
   5   3   4 1090.79   33.90
   5   3   4 1102.79   37.60
  -5   3  -4 1085.59   41.70
   7  -3   4    4.50    2.40
   7  -3   4    4.90    2.30
   7  -3   4    1.70    1.60
   7  -3   4    4.30    2.00
  -7   3  -4    8.50    3.00
  -7   3  -4    4.00    1.90
   7   3   4    3.40    2.10
   7   3   4    1.30    2.40
   9  -3   4  103.79    9.50
   9  -3   4   86.89    9.00
   9  -3   4   83.89    8.90
   9   3   4   90.19    8.50
   9   3   4   95.79    7.40
  -9   3  -4  108.49   15.60
  11  -3   4  374.56   24.20
  11  -3   4  394.96   22.20
  11  -3   4  428.46   19.20
  11   3   4  483.75   21.80
  14  -4  -4  170.48   13.70
 -14  -4   4  169.48   15.40
  14  -4  -4  171.08   15.50
  14   4  -4  146.89   14.70
 -12  -4   4  398.16   16.70
  12  -4  -4  419.36   24.50
 -12  -4   4  374.46   19.20
  12  -4  -4  398.26   19.90
 -12  -4   4  431.66   26.20
 -12   4   4  423.26   23.50
 -12   4   4  442.36   17.30
  12   4  -4  407.26   23.60
  10  -4  -4 2137.19   66.19
 -10  -4   4 2122.49   76.39
 -10  -4   4 2033.30   66.09
 -10  -4   4 2113.39   63.09
  10  -4  -4 2078.69   72.39
 -10  -4   4 2083.29   67.29
  10   4  -4 2161.48   71.89
  10   4  -4 2082.79   71.29
 -10   4   4 2111.39   63.09
 -10   4   4 2130.09   68.69
 -10   4   4 2099.09   71.79
 -10   4   4 2141.89   73.99
  -8  -4   4  790.42   29.50
   8  -4  -4  774.72   35.60
  -8  -4   4  781.92   27.40
  -8  -4   4  763.22   29.90
   8  -4  -4  807.22   28.90
   8   4  -4  786.52   32.90
  -8   4   4  873.71   37.20
  -8   4   4  805.52   27.20
   8   4  -4  850.81   40.90
  -8   4   4  798.12   35.50
  -8   4   4  805.62   31.20
  -6  -4   4  164.58   10.30
  -6  -4   4  169.98   10.00
  -6  -4   4  152.38    9.00
   6   4  -4  160.28   11.40
   6   4  -4  158.68   12.10
  -6   4   4  169.78    9.00
  -6   4   4  161.08   13.10
  -6   4   4  166.68   12.80
  -6   4   4  161.78   10.70
  -4  -4   4 4348.06  132.79
  -4  -4   4 4434.66  125.99
  -4  -4   4 4509.25  126.69
  -4   4   4 4276.67  129.99
  -4   4   4 4388.86  126.99
  -4   4   4 4433.06  124.59
  -4   4   4 4143.89  130.49
   4   4  -4 4395.46  130.29
   4   4  -4 4427.66  128.19
  -2  -4   4 4311.57  121.49
  -2  -4   4 4208.58  126.29
  -2  -4   4 4115.49  121.49
   2   4  -4 4169.08  122.19
  -2   4   4 4324.37  124.89
  -2   4   4 4274.87  120.99
  -2   4   4 4149.78  121.79
  -2   4   4 4067.29  124.39
   2   4  -4 4197.78  125.29
   0  -4   4  137.39   10.60
   0  -4   4  142.59    9.30
   0  -4   4  153.78   11.00
   0   4  -4  128.69    9.70
   0   4   4  133.19    9.10
   0   4   4  158.08   10.90
   0   4  -4  133.39   10.60
   0   4   4  147.59    8.60
   0   4  -4  146.09    9.20
   2  -4   4  624.24   25.90
   2  -4   4  675.13   28.80
   2  -4   4  640.04   25.00
   2   4   4  625.24   25.20
   2   4   4  632.04   24.80
   2   4   4  665.23   25.10
   2   4   4  642.64   24.70
   2   4   4  594.74   24.00
  -2   4  -4  648.94   27.00
   2   4   4  657.53   23.90
  -2   4  -4  621.94   26.70
   4  -4   4 3320.97  100.39
   4  -4   4 3399.06  100.29
   4  -4   4 3407.76  100.39
  -4   4  -4 3198.08  103.19
   4   4   4 3311.17   97.89
   4   4   4 3486.55   97.79
   4   4   4 3396.76   98.89
   4   4   4 3367.26   97.89
   6  -4   4 2734.73   85.89
   6  -4   4 2802.32   84.09
   6  -4   4 2735.93   82.29
   6  -4   4 2773.62   86.39
   6   4   4 2837.32   82.49
   6   4   4 2833.52   80.39
   6   4   4 2775.52   84.69
   6   4   4 2848.92   80.79
  -6   4  -4 2862.61   85.79
   8  -4   4  259.67   15.60
   8  -4   4  252.57   12.80
   8  -4   4  263.27   15.80
   8   4   4  268.67   15.00
   8   4   4  264.47   12.70
  -8   4  -4  278.87   13.90
  -8   4  -4  318.97   26.10
  10  -4   4   21.70    5.70
  10  -4   4   24.10    4.40
  10  -4   4   24.90    5.80
  10   4   4   26.30    5.40
  10   4   4   23.70    4.20
  13  -5  -4    5.30    3.00
 -13  -5   4   -1.00    1.40
  13   5  -4   -4.10    2.70
  11  -5  -4  200.38   16.00
  11  -5  -4  198.48   11.10
 -11  -5   4  182.78   16.50
  11   5  -4  179.58   14.50
 -11   5   4  176.48   15.00
 -11   5   4  170.28   10.20
  -9  -5   4    8.50    3.20
  -9  -5   4    1.10    1.60
   9  -5  -4    4.90    3.40
  -9  -5   4    3.40    4.40
  -9  -5   4    3.10    2.00
   9   5  -4    4.80    3.30
  -9   5   4    0.40    1.60
   9   5  -4    0.50    3.70
  -9   5   4    0.30    2.80
  -9   5   4    0.20    2.90
  -9   5   4    1.30    2.20
  -7  -5   4    4.00    2.20
  -7  -5   4    4.70    1.70
  -7  -5   4    7.30    2.40
  -7  -5   4    8.30    4.00
  -7   5   4    8.30    2.30
  -7   5   4    7.20    3.50
   7   5  -4    3.70    4.30
  -7   5   4   10.20    5.90
   7   5  -4    5.30    3.60
  -7   5   4    5.60    2.80
  -5  -5   4  318.77   14.80
  -5  -5   4  357.16   32.10
  -5  -5   4  310.17   15.30
  -5   5   4  312.57   19.40
  -5   5   4  329.17   19.70
  -5   5   4  328.77   16.40
   5   5  -4  300.77   16.60
   5   5  -4  314.77   18.40
  -5   5   4  329.67   13.60
  -3  -5   4 1051.59   36.30
  -3  -5   4 1066.29   42.40
  -3  -5   4 1081.79   36.20
   3   5  -4 1069.59   37.80
  -3   5   4 1035.00   36.80
  -3   5   4 1082.09   35.20
  -3   5   4 1026.40   40.80
   3   5  -4 1044.00   40.50
  -1  -5   4   65.89    8.30
  -1  -5   4   64.99    6.30
  -1  -5   4   78.89    6.90
  -1   5   4   79.29    6.70
  -1   5   4   72.59    7.80
   1   5  -4   73.09    8.50
   1   5  -4   74.49    6.70
  -1   5   4   73.99    5.80
   1   5  -4   71.09    7.00
  -1   5   4   71.49    6.50
   1  -5   4 1162.38   42.50
   1  -5   4 1205.98   39.90
   1  -5   4 1164.88   39.60
   1   5   4 1024.80   40.70
   1   5   4 1154.98   39.40
   1   5   4 1177.48   37.60
  -1   5  -4 1132.79   41.20
   1   5   4 1113.29   39.10
  -1   5  -4 1112.59   42.40
   1   5   4 1128.29   40.90
   3  -5   4   52.69    6.00
   3  -5   4   61.89    7.30
   3  -5   4   52.59    6.30
   3   5   4   42.80    5.00
   3   5   4   54.19    5.40
  -3   5  -4   53.29    7.00
  -3   5  -4   52.19    7.10
   3   5   4   52.19    6.20
   3   5   4   53.69    5.60
   5  -5   4 2775.22   88.19
   5  -5   4 2809.82   86.49
   5  -5   4 2810.32   83.59
   5  -5   4 2873.81   88.29
   5   5   4 2790.12   85.49
   5   5   4 2813.72   85.19
   5   5   4 3009.20   88.19
   5   5   4 2843.12   83.79
  -5   5  -4 2786.62   89.39
  -5   5  -4 3116.69  104.89
   7  -5   4   48.00    5.10
   7  -5   4   62.29    7.40
   7  -5   4   50.89    6.30
   7  -5   4   58.39    6.50
  -7   5  -4   68.59    7.40
   7   5   4   53.09    8.10
   7   5   4   44.60    4.70
   7   5   4   59.29    5.20
   7   5   4   62.49    7.10
   9  -5   4  518.45   28.30
   9  -5   4  443.26   22.30
   9  -5   4  444.66   19.00
   9   5   4  500.95   18.50
   9   5   4  490.25   23.10
 -10  -6   4 1451.35   62.59
  10  -6  -4 1554.34   59.19
 -10   6   4 1577.34   58.89
 -10   6   4 1554.64   44.90
  10   6  -4 1574.94   57.39
  -8  -6   4  461.55   21.30
   8  -6  -4  494.15   25.30
  -8  -6   4  423.46   27.90
  -8   6   4  477.25   24.00
  -8   6   4  477.95   25.50
   8   6  -4  456.95   23.60
  -8   6   4  499.75   16.00
  -6  -6   4   51.59    5.10
  -6  -6   4   58.49    4.90
  -6  -6   4   49.00    5.70
  -6  -6   4   57.89    9.20
   6   6  -4   44.70    7.90
   6   6  -4   61.99    7.50
  -6   6   4   57.29    4.30
  -6   6   4   59.49    8.00
  -6   6   4   50.99    8.70
  -4  -6   4 2374.36   75.49
  -4  -6   4 2386.16   74.89
  -4  -6   4 2550.74   86.19
   4   6  -4 2501.95   85.09
  -4   6   4 2533.95  100.69
  -4   6   4 2538.75   77.49
  -4   6   4 2431.46   72.29
   4   6  -4 2545.85   78.49
  -4   6   4 2578.14   72.99
  -2  -6   4 2799.52   85.09
  -2  -6   4 2876.81   93.19
  -2  -6   4 2713.93   84.09
  -2   6   4 2738.83   90.99
   2   6  -4 2792.22   85.69
  -2   6   4 2825.22   82.09
  -2   6   4 3058.79   85.09
  -2   6   4 2800.82   85.29
   2   6  -4 2804.82   91.49
   0  -6   4  166.38   10.00
   0  -6   4  177.88   11.50
   0  -6   4  176.18   14.00
   0   6  -4  175.88   13.40
   0   6   4  166.78   10.50
   0   6  -4  167.58   10.30
   0   6   4  168.28   10.40
   0   6   4  172.88   13.00
   0   6   4  178.38    9.80
   0   6  -4  168.58   11.80
   2  -6   4  327.57   24.20
   2  -6   4  359.66   18.30
   2  -6   4  360.96   16.30
   2   6   4  363.16   17.00
   2   6   4  373.36   16.60
   2   6   4  358.96   19.00
  -2   6  -4  368.96   20.90
   2   6   4  382.26   16.70
  -2   6  -4  360.56   19.30
   2   6   4  355.06   17.40
   4  -6   4 1772.22   75.29
   4  -6   4 2012.30   60.89
   4  -6   4 2015.80   64.19
  -4   6  -4 1837.02   67.89
   4   6   4 1918.31   62.49
  -4   6  -4 1902.71   66.29
   4   6   4 1920.21   58.39
   4   6   4 1936.01   66.69
   4   6   4 1970.50   59.59
   6  -6   4 1657.03   58.49
   6  -6   4 1697.23   51.59
   6  -6   4 1599.04   54.19
   6  -6   4 1699.73   63.39
   6   6   4 1783.72   51.49
   6   6   4 1749.92   56.79
   6   6   4 1729.53   52.99
   6   6   4 1667.93   54.49
  -6   6  -4 1720.73   59.99
   8  -6   4  229.58   14.20
  -8   6  -4  224.38   14.90
   8   6   4  225.98    9.70
   8   6   4  223.88   14.20
   8   6   4  210.48   10.70
   8   6   4  186.98   10.30
   8   6   4  223.38   10.80
   9  -7  -4  243.28   24.30
  -9   7   4  176.48   15.70
   9   7  -4  178.98   14.00
  -7  -7   4   71.59   11.50
  -7  -7   4   81.69    7.60
   7   7  -4   77.39    8.80
  -5  -7   4   93.69    6.60
  -5  -7   4   83.59   11.50
  -5  -7   4   85.79    7.60
   5   7  -4   95.09    8.70
  -5   7   4   77.09    5.80
  -5   7   4   93.89    8.60
  -5   7   4   95.19    4.80
  -3  -7   4  275.47   14.40
  -3  -7   4  281.87   14.40
  -3  -7   4  314.07   21.40
  -3   7   4  286.87   12.00
  -3   7   4  307.27   15.90
  -3   7   4  271.37   19.40
  -3   7   4  295.27   12.40
   3   7  -4  285.57   15.50
  -1  -7   4  614.74   24.90
  -1  -7   4  621.34   26.60
  -1  -7   4  717.23   33.70
   1   7  -4  708.63   26.50
  -1   7   4  673.43   26.50
  -1   7   4  692.13   24.30
  -1   7   4  666.33   27.70
  -1   7   4  674.83   31.70
   1   7  -4  687.23   33.60
   1  -7   4   34.90    6.70
   1  -7   4   22.80    5.70
   1  -7   4   15.70    3.50
  -1   7  -4   24.40    4.90
   1   7   4   31.40    5.10
   1   7   4   29.30    5.20
   1   7   4   23.70    4.40
  -1   7  -4   27.20    6.10
   3  -7   4    3.60    3.20
   3  -7   4    8.50    3.80
   3   7   4    5.90    3.40
   3   7   4    6.70    2.50
  -3   7  -4    8.10    4.50
   3   7   4   18.50    4.00
   3   7   4    1.30    2.70
  -3   7  -4    7.70    3.50
   5  -7   4  360.96   20.30
   5  -7   4  363.66   20.70
   5   7   4  354.46   18.50
  -5   7  -4  372.86   25.00
   5   7   4  345.17   14.50
   5   7   4  358.86   13.90
   5   7   4  349.07   18.10
  -6  -8   4   -3.40    3.30
  -6  -8   4   -6.90    3.20
   6   8  -4   -3.00    2.70
  -4  -8   4  793.12   31.30
  -4   8   4  865.61   33.60
   4   8  -4  874.51   33.50
  -2  -8   4 1633.54   54.39
  -2  -8   4 1582.84   54.99
  -2  -8   4 1809.32   70.19
  -2   8   4 1761.92   51.39
  -2   8   4 1758.22   50.79
  -2   8   4 1720.63   56.49
   2   8  -4 1700.03   55.59
   0  -8   4  459.65   29.80
   0  -8   4  409.26   25.00
   0   8  -4  374.66   20.00
   0   8   4  415.36   17.20
   0   8   4  438.36   20.30
   0   8   4  382.16   18.10
   0   8   4  399.76   17.60
   2  -8   4  306.77   18.80
   2  -8   4  360.76   22.20
  -2   8  -4  332.07   19.10
   2   8   4  366.46   15.80
   2   8   4  323.87   15.10
   2   8   4  332.77   17.10
   2   8   4  336.97   16.40
  14   0  -5  462.55   26.20
 -14   0   5  469.65   26.80
  12   0  -5  368.36   21.70
 -12   0   5  400.86   23.90
 -12   0   5  383.56   19.00
 -12   0   5  356.06   18.10
 -10   0   5  103.09   11.90
 -10   0   5  106.39    8.80
 -10   0   5   83.09    7.90
  10   0  -5  101.49   10.20
  -8   0   5  542.95   27.40
   8   0  -5  559.64   25.20
  -8   0   5  570.54   23.40
   8   0  -5  560.74   27.00
  -8   0   5  552.84   23.50
  -6   0   5 1056.79   42.60
  -6   0   5 1169.18   39.70
   6   0  -5 1147.89   40.80
  -6   0   5 1128.09   39.70
   6   0  -5 1166.08   43.50
  -4   0   5 3232.48  101.09
   4   0  -5 3188.08  101.29
  -4   0   5 3319.17   98.99
  -4   0   5 3266.37  100.39
   4   0  -5 3369.76   99.39
  -4   0   5 3400.26   98.79
  -2   0   5  331.77   17.00
   2   0  -5  352.66   25.80
  -2   0   5  308.87   16.50
  -2   0   5  317.77   16.20
   2   0  -5  322.07   16.30
   0   0   5  291.97   14.40
   0   0   5  278.57   15.20
   0   0  -5  267.07   14.30
   0   0   5  298.37   15.50
   2   0   5  991.70   35.50
   2   0   5  945.81   36.10
   2   0   5  999.30   33.10
   4   0   5  225.38   14.20
   4   0   5  217.48   10.10
   4   0   5  230.18   13.10
  -6   0  -5    1.90    2.20
   6   0   5    1.80    2.20
   6   0   5    0.50    2.00
   6   0   5    3.20    3.70
  -8   0  -5  147.59   13.90
   8   0   5  129.59   12.10
   8   0   5  144.29   10.30
   8   0   5  136.79   10.30
  10   0   5  241.68   14.60
  10   0   5  246.58   14.90
  13  -1  -5 2037.40   72.99
 -13  -1   5 2075.69   67.59
 -13  -1   5 2203.98   76.39
 -13   1   5 2233.78   75.49
  13   1  -5 1993.60   73.69
 -11  -1   5  600.54   25.60
 -11  -1   5  642.34   32.30
  11  -1  -5  624.34   29.10
 -11  -1   5  659.13   26.90
 -11   1   5  658.23   31.60
  11   1  -5  654.83   30.30
 -11   1   5  655.73   26.30
  11   1  -5  655.03   30.30
 -11   1   5  655.13   27.20
   9  -1  -5    8.90    3.30
  -9  -1   5   12.00    3.50
  -9  -1   5    9.50    3.10
  -9  -1   5   14.40    5.40
  -9   1   5    9.90    4.20
  -9   1   5    6.80    2.50
   9   1  -5   10.90    4.70
  -9   1   5   12.40    3.40
   9   1  -5   10.30    3.80
  -7  -1   5 2171.18   75.19
  -7  -1   5 2242.88   69.69
   7  -1  -5 2197.58   70.89
  -7  -1   5 2237.18   69.99
  -7   1   5 2137.59   73.99
   7   1  -5 2345.97   74.69
  -7   1   5 2244.98   69.29
  -7   1   5 2283.27   70.69
   7   1  -5 2226.18   71.99
  -5  -1   5 4671.83  131.49
   5  -1  -5 4493.25  131.39
  -5  -1   5 4405.26  134.99
  -5  -1   5 4338.17  130.79
  -5  -1   5 4655.43  133.19
   5   1  -5 4389.16  131.89
   5   1  -5 4526.95  134.89
  -5   1   5 4468.15  131.29
  -5   1   5 4458.85  130.29
  -3  -1   5 1694.13   54.09
  -3  -1   5 1587.54   55.19
  -3  -1   5 1640.54   54.49
   3  -1  -5 1759.22   54.19
  -3   1   5 1628.64   53.39
  -3   1   5 1612.14   53.79
   3   1  -5 1581.54   55.69
   3   1  -5 1694.43   54.29
  -3   1   5 1598.04   54.99
  -3   1   5 1572.74   54.59
  -1  -1   5  501.45   21.70
  -1  -1   5  473.15   21.40
  -1  -1   5  483.15   21.60
  -1   1   5  494.85   21.20
  -1   1   5  534.25   22.70
   1   1  -5  477.35   22.20
  -1   1   5  483.45   21.50
   1  -1   5 1657.83   54.39
   1  -1   5 1602.34   51.99
  -1   1  -5 1773.62   53.69
   1   1   5 1552.44   53.29
   1   1   5 1605.94   51.29
   1   1   5 1595.74   54.09
   3  -1   5 4610.34  131.69
   3  -1   5 4429.56  132.89
   3  -1   5 4549.34  128.19
  -3   1  -5 4445.06  134.99
  -3   1  -5 4382.26  128.29
   3   1   5 4527.25  131.19
   3   1   5 4549.94  133.39
   5  -1   5  856.61   35.10
   5  -1   5  908.81   28.60
   5  -1   5  934.01   32.60
   5  -1   5  917.91   34.50
  -5   1  -5  856.51   36.80
   5   1   5  892.81   26.90
   5   1   5  835.82   35.00
   5   1   5  866.11   40.00
   5   1   5  903.91   32.90
   5   1   5  897.01   27.00
   7  -1   5   47.60    5.90
   7  -1   5   45.70    6.30
   7   1   5   50.79    6.00
   7   1   5   52.19    6.10
   7   1   5   34.30    6.30
  -7   1  -5   50.29    7.80
   9  -1   5 1868.81   62.09
  -9  -1  -5 1745.23   68.29
   9  -1   5 1905.01   60.79
   9   1   5 1884.01   61.09
   9   1   5 1925.91   61.69
  11  -1   5 1143.99   50.49
  11   1   5 1290.07   45.00
  11   1   5 1303.57   45.90
 -14  -2   5   30.60   10.90
  14  -2  -5   13.80    5.40
 -14  -2   5   20.60    4.80
  14   2  -5   29.50    6.50
 -12  -2   5  141.09   14.70
 -12  -2   5  130.59    9.70
  12  -2  -5  140.49   12.00
  12   2  -5  132.09   12.60
 -12   2   5  130.79   13.50
 -12   2   5  133.69   10.20
  10  -2  -5   59.59    7.50
 -10  -2   5   48.50    9.40
 -10  -2   5   59.69    6.10
 -10  -2   5   60.89    7.00
  10   2  -5   58.39    8.10
  10   2  -5   60.49    8.80
 -10   2   5   70.59   10.00
 -10   2   5   49.30    6.80
 -10   2   5   65.09    6.50
  -8  -2   5    4.40    2.90
   8  -2  -5   -0.70    1.70
  -8  -2   5   -1.80    3.30
  -8  -2   5    3.00    1.50
  -8  -2   5   -3.90    2.00
   8   2  -5   -4.40    2.70
  -8   2   5    5.50    2.80
  -8   2   5   -5.20    3.50
  -8   2   5   -0.70    1.70
   8   2  -5    0.70    3.10
  -6  -2   5  556.54   24.80
  -6  -2   5  589.24   24.30
   6  -2  -5  575.24   24.10
  -6  -2   5  542.65   23.20
  -6  -2   5  532.85   27.50
  -6   2   5  574.84   26.90
  -6   2   5  571.74   24.30
   6   2  -5  574.84   25.50
  -6   2   5  580.24   23.00
   6   2  -5  605.24   27.10
  -4  -2   5  416.66   22.10
  -4  -2   5  427.36   19.60
   4  -2  -5  425.96   19.20
  -4  -2   5  433.36   20.00
  -4   2   5  410.46   21.00
   4   2  -5  427.16   20.10
  -4   2   5  402.26   19.20
   4   2  -5  410.56   21.30
  -4   2   5  421.16   18.80
  -2  -2   5  924.21   33.20
  -2  -2   5  871.81   34.10
  -2  -2   5  884.01   33.00
   2   2  -5  904.61   33.10
  -2   2   5  867.11   34.00
  -2   2   5  858.11   33.20
  -2   2   5  838.02   32.60
   2   2  -5  880.51   34.50
  -2   2   5  867.01   32.50
   0  -2   5  133.29    9.80
   0  -2   5  125.39    9.50
   0  -2   5  136.09   10.00
   0   2   5  135.99    9.50
   0   2   5  139.49   10.30
   0   2   5  136.19   10.10
   2  -2   5 3369.96   97.99
   2  -2   5 3294.77   99.19
   2  -2   5 3270.87  100.29
   2   2   5 3237.48  100.39
   2   2   5 3379.06   99.29
   2   2   5 3279.47   96.29
  -2   2  -5 3404.86   99.19
  -2   2  -5 3227.18  102.19
   4  -2   5   77.79    6.40
   4  -2   5   77.59    8.00
   4  -2   5   81.99    7.80
   4   2   5   77.39    7.20
   4   2   5   77.49    8.20
  -4   2  -5   75.39    8.70
   4   2   5   65.39    5.30
   4   2   5   72.29    7.10
   4   2   5   94.09    5.90
  -4   2  -5   75.09    6.50
   6  -2   5  690.73   28.20
   6  -2   5  652.03   29.30
   6  -2   5  692.43   23.20
   6   2   5  711.13   27.00
  -6   2  -5  628.84   22.70
   6   2   5  679.73   31.60
   6   2   5  729.53   27.70
  -6   2  -5  706.73   33.80
   8  -2   5    5.10    2.50
   8  -2   5   -3.70    2.70
   8  -2   5    2.50    2.40
   8   2   5    2.90    2.20
  10  -2   5  738.13   28.90
  10   2   5  637.04   35.20
  10   2   5  774.72   29.40
 -13  -3   5 1259.37   52.49
  13  -3  -5 1169.18   45.10
 -13  -3   5 1062.49   39.40
  13   3  -5 1222.38   53.29
 -13   3   5 1192.38   40.10
 -13   3   5 1004.20   57.79
 -11  -3   5  576.64   23.70
 -11  -3   5  640.94   33.60
  11  -3  -5  571.24   28.40
 -11  -3   5  592.44   27.70
  11   3  -5  613.54   30.00
 -11   3   5  636.34   24.30
 -11   3   5  616.34   30.40
  -9  -3   5  252.37   15.00
   9  -3  -5  283.57   15.80
  -9  -3   5  284.67   16.50
  -9  -3   5  267.37   13.90
  -9  -3   5  270.77   20.20
  -9   3   5  301.57   19.20
   9   3  -5  263.37   17.40
   9   3  -5  268.57   17.40
  -9   3   5  288.87   13.90
  -9   3   5  286.87   16.20
  -7  -3   5 2485.35   76.69
  -7  -3   5 2587.54   78.69
   7  -3  -5 2569.24   77.99
  -7  -3   5 2500.85   89.49
  -7  -3   5 2477.05   78.99
  -7   3   5 2518.25   86.69
  -7   3   5 2518.85   76.19
  -7   3   5 2469.85   78.69
   7   3  -5 2537.05   81.99
   7   3  -5 2473.85   85.89
  -5  -3   5 2253.37   71.79
  -5  -3   5 2362.46   72.09
  -5  -3   5 2267.27   77.09
   5   3  -5 2279.97   75.09
  -5   3   5 2254.57   74.99
  -5   3   5 2206.68   71.69
  -5   3   5 2292.47   70.09
   5   3  -5 2322.97   73.39
  -3  -3   5  347.27   19.40
  -3  -3   5  332.97   17.10
  -3  -3   5  346.97   17.10
  -3   3   5  360.76   17.40
  -3   3   5  329.47   18.30
   3   3  -5  343.77   19.00
  -3   3   5  346.77   16.70
   3   3  -5  334.47   17.40
  -1  -3   5  514.35   22.20
  -1  -3   5  509.75   22.50
  -1  -3   5  530.05   23.90
  -1   3   5  518.35   22.80
  -1   3   5  527.85   23.70
   1   3  -5  528.45   24.20
  -1   3   5  503.65   22.40
  -1   3   5  517.85   22.40
   1   3  -5  499.05   22.20
   1  -3   5 3235.28   97.59
   1  -3   5 3277.87   96.89
   1  -3   5 3246.38   97.19
   1   3   5 3253.47   95.69
   1   3   5 3191.78   97.09
   1   3   5 3225.88   97.79
   1   3   5 3165.88   95.49
  -1   3  -5 3214.08   98.39
  -1   3  -5 3096.69   99.19
   3  -3   5 4811.12  141.99
   3  -3   5 4769.22  144.09
   3  -3   5 5007.00  143.89
  -3   3  -5 4618.94  146.69
   3   3   5 4873.11  142.29
   3   3   5 4806.72  139.49
  -3   3  -5 5581.14  159.38
   3   3   5 4827.32  144.89
   3   3   5 5037.60  140.49
   3   3   5 4890.81  141.99
   5  -3   5  274.27   15.30
   5  -3   5  235.98   15.10
   5  -3   5  270.77   13.40
   5   3   5  334.87   21.70
   5   3   5  271.27   14.20
  -5   3  -5  252.87   19.70
  -5   3  -5  276.57   14.00
   5   3   5  282.07   14.80
   5   3   5  257.17   11.00
   5   3   5  247.68   14.40
   7  -3   5   18.20    4.40
   7  -3   5   27.30    3.50
   7  -3   5   30.50    6.10
   7  -3   5   24.20    4.60
   7   3   5   31.30    4.90
   7   3   5   23.30    4.60
   9  -3   5 1767.72   59.09
   9  -3   5 1910.51   67.99
   9  -3   5 1904.61   72.19
   9   3   5 1965.30   67.09
   9   3   5 1739.53   58.99
 -12  -4   5  187.08   13.00
  12  -4  -5  194.68   20.10
 -12  -4   5  175.28   17.90
 -12  -4   5  178.58   10.60
 -12   4   5  181.28   10.50
  10  -4  -5   14.40    3.90
 -10  -4   5   11.60    2.90
 -10  -4   5   11.10    5.80
 -10  -4   5   19.40    4.50
 -10   4   5   18.80    3.50
  10   4  -5   10.40    3.00
 -10   4   5    5.10    3.70
  -8  -4   5  150.78   11.10
  -8  -4   5  134.99   14.30
   8  -4  -5  171.68   11.10
  -8  -4   5  165.88   11.50
  -8  -4   5  162.08    9.80
  -8   4   5  166.58   12.00
   8   4  -5  154.78   13.10
  -8   4   5  162.18   14.00
   8   4  -5  145.89   12.50
  -8   4   5  159.78    9.50
  -6  -4   5  652.63   33.00
  -6  -4   5  644.14   26.10
  -6  -4   5  666.93   27.50
  -6  -4   5  689.33   27.50
   6   4  -5  686.63   29.70
  -6   4   5  683.83   25.50
  -6   4   5  725.23   31.90
   6   4  -5  678.93   31.00
  -6   4   5  660.33   27.80
  -4  -4   5 1306.77   51.09
  -4  -4   5 1269.87   43.50
  -4  -4   5 1266.47   43.10
   4   4  -5 1236.08   46.40
  -4   4   5 1226.58   43.50
   4   4  -5 1230.38   44.50
  -4   4   5 1150.18   46.20
  -4   4   5 1242.78   41.80
  -4   4   5 1230.58   46.40
  -2  -4   5  368.56   17.70
  -2  -4   5  378.06   18.20
  -2  -4   5  365.46   20.30
  -2   4   5  365.06   17.80
   2   4  -5  365.86   20.10
  -2   4   5  356.76   19.20
   2   4  -5  368.36   18.20
  -2   4   5  352.36   17.30
  -2   4   5  332.27   18.60
   0  -4   5   47.60    6.70
   0  -4   5   46.30    5.90
   0  -4   5   31.60    5.40
   0   4  -5   50.09    7.30
   0   4   5   43.60    6.30
   0   4   5   40.10    5.60
   0   4   5   41.30    6.20
   0   4   5   43.10    5.80
   0   4   5   35.10    5.60
   2  -4   5 1134.09   41.10
   2  -4   5 1092.89   40.30
   2  -4   5 1169.68   43.40
  -2   4  -5 1106.39   43.10
   2   4   5 1131.59   39.50
   2   4   5 1097.29   39.50
   2   4   5 1101.69   40.90
   2   4   5 1131.79   38.70
   2   4   5 1133.99   39.10
   2   4   5 1121.09   40.30
  -2   4  -5 1110.39   41.80
   4  -4   5  111.69    9.50
   4  -4   5  111.99    9.20
   4  -4   5  110.89    9.60
   4   4   5  116.19   10.70
  -4   4  -5  107.69   10.90
  -4   4  -5  109.69    9.60
   4   4   5  117.99    8.20
   4   4   5  118.99    8.80
   4   4   5  125.49    9.30
   4   4   5  118.19    8.20
   6  -4   5   59.39    7.40
   6  -4   5   49.99    9.60
   6  -4   5   55.59    6.80
   6  -4   5   63.69    6.40
   6   4   5   61.89    6.30
   6   4   5   62.19    4.60
   6   4   5   54.49    4.30
   6   4   5   59.39    7.00
  -6   4  -5   54.99    6.70
   8  -4   5   45.70    4.60
   8  -4   5   50.79    7.20
   8  -4   5   56.59    6.10
   8  -4   5   33.60    6.50
   8   4   5   42.10    6.30
  11   5  -5  232.78   21.50
 -11   5   5  274.97   23.60
 -11   5   5  351.76   14.40
  -9  -5   5    9.80    3.50
  -9  -5   5   12.60    2.50
  -9   5   5   16.80    2.90
   9   5  -5   10.80    3.90
  -9   5   5    6.10    3.50
  -7  -5   5  992.60   37.50
  -7  -5   5 1020.20   35.40
  -7  -5   5 1023.00   36.90
  -7  -5   5  924.11   44.70
   7   5  -5 1033.80   40.60
  -7   5   5 1049.89   39.00
  -7   5   5 1048.30   34.50
  -7   5   5 1075.79   43.20
  -5  -5   5 3333.77   98.89
  -5  -5   5 3332.97  108.29
  -5  -5   5 3211.38   99.09
  -5   5   5 3415.06   96.89
   5   5  -5 3238.78  103.99
  -5   5   5 3040.50  105.19
  -5   5   5 3353.06  101.29
  -5   5   5 3267.77  104.39
   5   5  -5 3352.56  101.99
  -3  -5   5 1536.35   57.99
  -3  -5   5 1532.25   52.09
  -3  -5   5 1541.65   51.99
  -3   5   5 1634.44   51.69
  -3   5   5 1598.04   57.19
   3   5  -5 1786.72   61.89
  -3   5   5 1550.74   52.69
   3   5  -5 1549.24   53.49
  -3   5   5 1436.36   55.79
  -1  -5   5  232.18   16.30
  -1  -5   5  207.38   12.70
  -1  -5   5  181.58   12.10
   1   5  -5  204.18   12.80
  -1   5   5  201.38   13.70
  -1   5   5  212.98   14.40
  -1   5   5  208.38   12.70
  -1   5   5  201.18   11.50
  -1   5   5  195.58   12.40
  -1   5   5  190.38   13.90
   1   5  -5  211.38   15.10
   1  -5   5  441.96   20.50
   1  -5   5  493.25   24.10
   1  -5   5  407.06   23.40
   1   5   5  464.65   21.50
   1   5   5  459.45   21.60
   1   5   5  450.15   20.90
   1   5   5  435.36   21.40
  -1   5  -5  420.96   22.50
  -1   5  -5  430.56   23.00
   1   5   5  449.16   20.50
   1   5   5  454.45   19.50
   3  -5   5 2191.78   70.49
   3  -5   5 2154.08   70.79
   3  -5   5 2288.27   72.69
   3   5   5 2266.17   69.49
  -3   5  -5 2163.18   72.99
   3   5   5 2241.88   70.19
   3   5   5 2197.38   69.89
   3   5   5 2150.18   71.69
   3   5   5 2248.68   69.09
  -3   5  -5 2176.98   74.79
   3   5   5 2167.48   68.69
   5  -5   5  847.92   33.10
   5  -5   5  855.81   34.10
   5  -5   5  802.32   33.10
   5  -5   5  835.42   30.20
   5   5   5  816.22   35.00
   5   5   5  867.31   30.80
   5   5   5  796.82   33.90
   5   5   5  867.11   32.50
   5   5   5  839.02   32.70
   5   5   5  841.22   29.70
  -5   5  -5  858.21   34.10
   7  -5   5  182.18   11.50
   7  -5   5  153.28   12.50
   7  -5   5  177.08   10.70
   7  -5   5  168.08   15.30
  -7   5  -5  170.58   12.30
   7   5   5  197.38   12.40
   7   5   5  182.28    8.40
   7   5   5  200.68    9.50
   7   5   5  181.08   12.30
   7   5   5  189.38   10.90
 -10  -6   5   -1.70    3.50
 -10  -6   5   -1.70    1.90
 -10   6   5   -1.00    3.50
  10   6  -5    1.90    3.10
  -8  -6   5   68.69    7.00
  -8  -6   5   63.79   11.00
  -8   6   5   91.39   11.30
   8   6  -5   69.59    8.60
  -8   6   5   80.79    8.00
  -6  -6   5  297.87   22.50
  -6  -6   5  313.87   16.80
  -6  -6   5  304.57   15.10
  -6  -6   5  301.77   15.70
   6   6  -5  348.67   19.30
  -6   6   5  338.27   16.70
  -6   6   5  336.67   20.00
  -6   6   5  312.77   20.40
  -4  -6   5  535.15   24.60
  -4  -6   5  549.54   23.80
  -4  -6   5  610.54   31.50
  -4   6   5  583.54   28.90
   4   6  -5  577.84   26.20
  -4   6   5  609.64   22.80
  -4   6   5  591.04   25.80
  -4   6   5  552.44   22.00
  -2  -6   5  205.48   16.20
  -2  -6   5  181.08   11.70
  -2  -6   5  199.08   12.60
  -2   6   5  174.48   14.10
   2   6  -5  174.48   13.70
  -2   6   5  182.48   14.80
  -2   6   5  200.68   11.80
   2   6  -5  190.08   15.40
  -2   6   5  192.08   10.70
  -2   6   5  193.38   12.30
   0  -6   5    3.00    3.10
   0  -6   5   -1.20    2.40
   0  -6   5    5.40    3.00
   0   6   5    3.90    3.00
   0   6   5    6.00    3.00
   0   6   5    6.00    3.30
   0   6   5    5.20    3.20
   0   6   5    7.50    3.20
   0   6   5    9.00    3.00
   0   6  -5    9.80    4.80
   2  -6   5  702.73   28.60
   2  -6   5  747.83   33.00
   2  -6   5  727.83   30.40
   2   6   5  721.53   31.10
   2   6   5  740.43   31.10
   2   6   5  754.32   29.10
  -2   6  -5  684.53   32.20
  -2   6  -5  747.73   33.50
   2   6   5  737.93   28.30
   2   6   5  724.23   30.20
   2   6   5  716.73   28.60
   4  -6   5   41.60    6.80
   4  -6   5   50.49    7.30
   4  -6   5   50.09    6.10
   4   6   5   57.39    6.40
   4   6   5   57.29    6.10
   4   6   5   41.90    6.20
   4   6   5   42.70    6.90
   4   6   5   45.40    6.70
  -4   6  -5   62.39    8.40
   4   6   5   49.20    6.50
   6  -6   5   56.49    7.10
   6  -6   5   65.39    7.80
   6  -6   5   69.39    8.10
   6   6   5   54.19    5.90
   6   6   5   67.69    7.50
   6   6   5   65.79    6.20
   6   6   5   49.70    6.80
  -6   6  -5   67.99    9.70
   6   6   5   52.59    6.40
  -7  -7   5 1012.90   49.40
  -7   7   5 1065.29   31.90
   7   7  -5 1022.70   41.60
  -7   7   5 1033.70   44.80
  -7   7   5 1011.30   32.20
  -5  -7   5  780.82   31.30
  -5  -7   5  765.72   32.80
  -5   7   5  936.61   29.60
  -5   7   5  913.91   28.90
   5   7  -5  840.02   35.10
  -5   7   5  887.71   40.70
  -3  -7   5  139.79   11.70
  -3  -7   5  165.68   15.30
  -3  -7   5  149.59   11.00
  -3   7   5  154.08   13.70
  -3   7   5  156.58    9.20
  -3   7   5  164.28    9.80
  -3   7   5  145.19   11.50
   3   7  -5  155.58   11.70
  -1  -7   5  219.68   13.40
  -1  -7   5  230.28   14.80
  -1  -7   5  256.07   18.60
  -1   7   5  239.18   17.20
  -1   7   5  262.57   16.40
  -1   7   5  258.17   13.80
  -1   7   5  248.08   12.90
  -1   7   5  245.98   14.70
   1  -7   5 1394.96   50.89
   1  -7   5 1527.75   56.09
   1  -7   5 1365.56   47.70
   1   7   5 1397.76   49.40
  -1   7  -5 1279.97   51.99
   1   7   5 1512.85   48.20
   1   7   5 1433.46   48.70
   1   7   5 1511.85   49.99
   1   7   5 1448.16   53.79
   3  -7   5 2086.09   71.69
   3  -7   5 1938.91   68.39
   3   7   5 2099.29   68.49
   3   7   5 2006.90   68.79
   3   7   5 2087.29   64.19
   3   7   5 2043.30   65.99
   3   7   5 1983.80   68.09
   3   7   5 2074.39   64.89
 -12   0   6  382.16   25.10
  12   0  -6  345.57   21.90
 -10   0   6  659.73   28.10
 -10   0   6  647.44   27.80
 -10   0   6  687.03   34.10
  10   0  -6  674.93   31.10
  -8   0   6 1021.80   43.70
   8   0  -6 1047.90   40.50
  -8   0   6  989.80   40.80
  -6   0   6 1227.18   50.69
   6   0  -6 1143.49   43.50
  -6   0   6 1167.68   42.10
   6   0  -6 1134.79   46.10
  -6   0   6 1141.39   46.10
  -6   0   6 1125.89   42.10
  -4   0   6  532.25   24.40
  -4   0   6  556.34   26.00
  -4   0   6  548.55   24.40
   4   0  -6  533.95   24.50
  -4   0   6  538.75   26.10
   4   0  -6  506.95   26.00
   2   0  -6 2117.29   70.39
  -2   0   6 2125.19   69.39
  -2   0   6 2182.68   70.39
  -2   0   6 2091.19   69.29
   0   0   6 4912.61  144.29
   0   0   6 5087.29  148.49
   0   0   6 4909.01  146.99
   2   0   6  233.98   12.60
   2   0   6  214.38   13.90
   2   0   6  224.58   14.90
   4   0   6   26.10    5.10
   4   0   6   30.00    3.80
   4   0   6   23.10    5.00
   6   0   6 2440.06   77.79
   6   0   6 2451.55   77.09
   8   0   6 2785.02   89.09
   8   0   6 2903.61   90.59
 -13  -1   6   16.80    5.80
  13   1  -6   29.10    7.00
 -13   1   6   13.10    5.00
 -11  -1   6  109.09    9.90
  11  -1  -6  120.19   11.90
 -11  -1   6  115.99   13.90
 -11   1   6  128.49   13.90
  11   1  -6  110.99   11.70
   9  -1  -6  341.87   19.50
  -9  -1   6  322.97   22.30
  -9  -1   6  323.17   17.70
  -9  -1   6  354.66   19.30
  -9   1   6  343.77   18.40
   9   1  -6  326.57   19.70
  -9   1   6  335.67   21.80
  -9   1   6  324.37   17.20
   9   1  -6  322.97   21.20
  -7  -1   6  592.54   25.60
  -7  -1   6  611.14   28.30
  -7  -1   6  539.55   29.50
   7  -1  -6  617.94   27.00
  -7   1   6  552.64   33.30
  -7   1   6  580.74   29.40
  -7   1   6  582.74   25.10
   7   1  -6  592.14   27.30
  -5  -1   6  233.18   18.00
   5  -1  -6  253.77   15.30
  -5  -1   6  228.48   14.60
  -5  -1   6  261.87   16.50
  -5  -1   6  252.07   15.20
  -5   1   6  243.38   16.40
  -5   1   6  254.97   15.30
   5   1  -6  234.28   16.90
   5   1  -6  257.97   16.00
  -5   1   6  241.78   14.60
  -5   1   6  250.57   17.10
  -3  -1   6    2.30    2.10
  -3  -1   6   -1.10    2.30
   3   1  -6   13.50    4.30
   3   1  -6    0.80    2.60
  -3   1   6    0.20    1.50
  -3   1   6    4.60    2.90
  -3   1   6    5.10    3.10
  -3   1   6    2.20    2.10
  -1  -1   6 1135.39   41.90
  -1  -1   6 1107.29   41.10
  -1  -1   6 1104.69   41.60
  -1   1   6 1099.49   41.50
  -1   1   6 1101.59   40.50
   1   1  -6 1115.99   42.10
  -1   1   6 1166.98   42.70
   1  -1   6  269.47   15.90
   1  -1   6  269.97   14.90
   1  -1   6  259.07   16.00
   1   1   6  270.97   16.40
   1   1   6  268.57   14.40
  -1   1  -6  280.97   15.20
   3  -1   6  141.59    9.20
   3  -1   6  153.18   11.30
   3  -1   6  180.48   18.20
   3   1   6  144.39   10.90
   3   1   6  131.39   12.20
   3   1   6  146.59    9.10
  -3   1  -6  124.19    8.80
   5  -1   6   46.00    6.20
   5  -1   6   46.90    6.50
   5  -1   6   45.00    6.60
   5   1   6   44.50    6.10
   5   1   6   41.80    3.50
   5   1   6   29.20    6.10
   5   1   6   42.10    6.10
   7  -1   6  740.33   29.70
   7  -1   6  747.73   31.10
   7   1   6  744.93   30.40
   7   1   6  743.83   30.20
   9  -1   6  401.86   20.30
   9  -1   6  392.36   20.50
   9   1   6  362.96   21.20
   9   1   6  405.76   20.40
  12  -2  -6    6.60    3.90
  12   2  -6   -1.50    3.80
 -12   2   6    2.10    7.30
 -10  -2   6  691.93   28.40
 -10  -2   6  692.43   32.30
  10  -2  -6  707.53   31.30
 -10  -2   6  694.63   36.10
 -10   2   6  683.73   34.00
 -10   2   6  716.23   28.20
  10   2  -6  673.83   32.30
  -8  -2   6 2600.94   87.49
  -8  -2   6 2647.14   92.89
  -8  -2   6 2810.72   85.99
   8  -2  -6 2699.23   86.19
  -8  -2   6 2706.93   84.49
   8   2  -6 2740.13   90.39
   8   2  -6 2742.73   88.59
  -8   2   6 2688.83   90.69
  -8   2   6 2762.82   83.99
  -8   2   6 2731.33   86.09
  -6  -2   6 1788.42   62.29
  -6  -2   6 1856.71   68.59
  -6  -2   6 1956.10   68.99
   6  -2  -6 2052.89   66.29
  -6   2   6 1685.43   72.79
  -6   2   6 1866.31   66.99
   6   2  -6 2100.79   74.29
   6   2  -6 1907.01   64.99
  -6   2   6 1977.70   62.49
  -4  -2   6   16.70    5.30
  -4  -2   6   11.00    3.50
  -4  -2   6   19.70    4.80
  -4   2   6   20.60    5.70
   4   2  -6   12.90    4.10
   4   2  -6   12.90    4.00
  -4   2   6   20.50    5.10
  -4   2   6   23.50    5.20
  -4   2   6   10.90    4.50
  -2  -2   6  337.57   18.40
  -2  -2   6  336.37   19.00
  -2  -2   6  328.67   18.80
  -2   2   6  347.37   18.50
  -2   2   6  339.17   18.10
   2   2  -6  339.27   24.00
   2   2  -6  339.67   19.50
  -2   2   6  305.47   17.60
   0  -2   6 4677.63  139.69
   0  -2   6 4850.51  140.89
   0  -2   6 4629.54  140.99
   0   2  -6 4835.82  141.59
   0   2   6 4715.93  138.49
   0   2   6 4770.92  141.39
   2  -2   6 1606.14   53.69
   2  -2   6 1623.74   56.99
   2  -2   6 1605.64   55.49
  -2   2  -6 1637.14   54.59
   2   2   6 1634.84   52.29
   2   2   6 1759.22   68.99
   2   2   6 1608.14   55.39
   4  -2   6   81.29    8.20
   4  -2   6   76.49    9.10
   4  -2   6   90.89    7.20
   4   2   6   89.59    6.30
   4   2   6   86.39    8.40
   4   2   6   83.59    8.30
   4   2   6   80.19    9.40
   4   2   6   87.99    6.30
  -4   2  -6   69.39    6.50
   6  -2   6 1172.78   42.70
   6  -2   6 1127.89   40.50
   6  -2   6 1078.49   41.80
   6   2   6 1115.59   40.80
   6   2   6 1161.68   41.70
   8  -2   6 1146.69   45.00
   8  -2   6 1053.89   39.50
   8   2   6 1059.79   39.80
   8   2   6 1132.39   41.80
 -11  -3   6  242.58   16.90
 -11  -3   6  223.68   13.50
  11  -3  -6  222.58   15.30
  11   3  -6  182.58   24.50
 -11   3   6  226.38   13.20
   9  -3  -6  554.84   25.40
  -9  -3   6  495.75   30.20
  -9  -3   6  557.04   23.70
  -9  -3   6  527.05   26.20
  -9   3   6  531.55   28.90
   9   3  -6  528.75   27.30
  -9   3   6  543.85   24.10
  -7  -3   6 1101.09   48.40
  -7  -3   6 1049.59   49.50
  -7  -3   6 1168.68   42.80
  -7  -3   6 1137.09   41.40
   7  -3  -6 1168.48   49.60
   7   3  -6 1170.38   45.00
  -7   3   6 1177.28   47.00
  -7   3   6 1169.48   43.10
  -7   3   6 1180.68   40.90
  -5  -3   6  189.18   15.70
  -5  -3   6  190.48   13.60
  -5  -3   6  200.58   14.70
  -5   3   6  190.38   15.10
  -5   3   6  206.48   13.60
   5   3  -6  180.28   13.50
  -5   3   6  198.98   12.70
   5   3  -6  158.78   18.90
  -3  -3   6  225.08   14.20
  -3  -3   6  211.58   17.00
  -3  -3   6  207.08   18.80
  -3   3   6  199.38   13.50
  -3   3   6  210.18   13.60
  -3   3   6  205.28   15.10
   3   3  -6  234.48   14.80
  -3   3   6  201.78   14.70
   3   3  -6  206.58   15.50
  -1  -3   6  413.36   20.90
  -1  -3   6  419.26   21.90
  -1  -3   6  398.16   20.90
  -1   3   6  473.25   23.00
   1   3  -6  460.05   23.30
  -1   3   6  392.26   20.70
  -1   3   6  446.26   21.70
  -1   3   6  440.36   21.40
   1  -3   6  576.24   26.50
   1  -3   6  589.94   25.90
   1  -3   6  576.54   25.70
   1   3   6  583.54   24.50
   1   3   6  562.84   26.20
  -1   3  -6  573.84   26.60
   1   3   6  604.04   26.50
   1   3   6  563.64   24.30
   1   3   6  648.44   29.10
   3  -3   6    4.60    2.40
   3  -3   6    6.80    3.40
   3  -3   6    9.20    3.50
   3   3   6    3.50    3.40
  -3   3  -6    8.20    3.40
   3   3   6    6.20    3.20
   3   3   6    6.00    2.70
   3   3   6    2.60    2.40
   3   3   6    3.50    2.50
   5  -3   6   37.00    7.30
   5  -3   6   32.00    6.30
   5  -3   6   34.50    4.80
   5   3   6   24.10    5.00
   5   3   6   35.80    5.80
  -5   3  -6   28.00    5.20
   5   3   6   33.50    3.70
   5   3   6   41.00    6.90
   7  -3   6  195.18   12.30
   7  -3   6  199.98   18.80
   7  -3   6  206.88   10.30
   7   3   6  209.88   12.90
 -10  -4   6  431.46   23.30
 -10  -4   6  414.46   23.10
  10  -4  -6  485.95   23.40
 -10   4   6  550.24   26.90
  -8  -4   6 1117.79   40.10
  -8  -4   6 1032.30   48.90
  -8  -4   6 1144.19   42.90
  -8   4   6 1183.28   39.80
   8   4  -6 1072.69   44.40
  -8   4   6 1156.08   47.20
  -6  -4   6  975.60   45.20
  -6  -4   6 1000.20   39.40
  -6  -4   6 1066.39   39.10
   6   4  -6 1054.49   41.80
  -6   4   6 1080.29   38.00
  -6   4   6 1089.09   41.80
  -6   4   6 1054.79   43.80
  -4  -4   6  204.28   14.10
  -4  -4   6  220.58   17.10
  -4  -4   6  237.88   15.70
  -4   4   6  240.58   13.90
  -4   4   6  227.78   14.50
   4   4  -6  223.18   15.10
  -4   4   6  223.78   16.30
  -4   4   6  189.48   15.50
   4   4  -6  235.58   16.90
  -2  -4   6  940.61   39.80
  -2  -4   6  956.90   36.90
   2   4  -6  935.21   37.30
  -2   4   6 1013.50   39.80
   2   4  -6  918.31   50.19
  -2   4   6  976.20   37.20
  -2   4   6  903.01   38.00
  -2   4   6 1071.99   44.00
   0  -4   6 3352.66  103.89
   0  -4   6 3552.54  111.39
   0  -4   6 3573.14  109.19
   0   4   6 3215.38  103.99
   0   4  -6 3358.06  107.29
   0   4   6 3615.24  107.49
   0   4   6 3221.28  104.39
   0   4   6 3325.97  103.99
   0   4   6 3476.85  105.69
   2  -4   6  451.15   24.80
   2  -4   6  396.66   20.90
   2  -4   6  415.76   21.00
   2   4   6  420.96   20.00
  -2   4  -6  429.96   22.20
   2   4   6  413.36   19.50
   2   4   6  438.56   20.30
   2   4   6  400.96   21.10
   2   4   6  429.26   22.20
   2   4   6  422.36   20.80
   4  -4   6    1.70    2.50
   4  -4   6    0.10    3.00
   4  -4   6    1.10    2.40
   4   4   6    7.40    3.50
   4   4   6    1.30    1.70
  -4   4  -6   -4.70    2.50
   6  -4   6 1431.56   46.50
   6  -4   6 1420.56   45.60
   6  -4   6 1124.09   53.09
   6   4   6 1272.67   55.29
   6   4   6 1427.06   46.90
  -9  -5   6   74.29    8.50
  -9  -5   6   87.69    7.90
  -9  -5   6   71.69   12.00
  -9   5   6  107.99    7.80
  -9   5   6   87.49   12.50
   9   5  -6   82.99   12.80
  -7  -5   6  120.89    9.70
  -7  -5   6  108.79   10.50
  -7  -5   6   90.49   13.00
  -7   5   6  119.69    8.90
   7   5  -6  111.69   10.50
  -7   5   6  137.79   13.20
  -5  -5   6  110.69    9.90
  -5  -5   6  108.49   12.60
  -5   5   6  107.29   11.90
  -5   5   6  120.69    9.30
   5   5  -6  108.49   10.60
  -3  -5   6   71.49   10.10
  -3  -5   6   52.89    7.20
  -3  -5   6   65.89    7.70
  -3   5   6   61.79    7.40
  -3   5   6   52.89    7.50
  -3   5   6   57.79    8.70
  -3   5   6   69.29    9.60
   3   5  -6   67.49    8.20
  -1  -5   6  871.71   37.60
  -1  -5   6  888.81   34.50
  -1  -5   6  832.72   34.20
  -1   5   6  934.71   36.30
  -1   5   6  863.01   32.60
  -1   5   6  886.01   36.30
  -1   5   6  849.61   35.70
  -1   5   6  796.02   33.80
   1   5  -6  823.02   37.20
   1  -5   6   52.49    6.90
   1  -5   6   65.59    8.70
   1  -5   6   60.59    6.80
   1   5   6   48.80    7.20
   1   5   6   50.29    7.50
   1   5   6   62.19    7.50
   1   5   6   47.00    7.10
   1   5   6   65.39   14.00
   1   5   6   59.29    6.80
  -1   5  -6   46.80    7.90
   3  -5   6  272.97   17.10
   3  -5   6  265.67   16.60
   3  -5   6  292.87   16.80
   3   5   6  284.67   15.70
   3   5   6  279.17   15.80
   3   5   6  278.57   16.80
  -3   5  -6  255.77   23.50
   3   5   6  251.87   14.80
   3   5   6  279.47   15.60
   5  -5   6   18.90    5.10
   5  -5   6   19.40    8.20
   5  -5   6   24.20    5.60
   5  -5   6   12.90    3.90
  -5   5  -6   16.40    5.40
   5   5   6   28.00    4.50
   5   5   6   17.50    3.90
   5   5   6   18.40    3.90
   5   5   6   26.00    5.20
  -6  -6   6  641.74   36.50
  -6  -6   6  594.74   27.20
  -6  -6   6  637.14   27.00
   6   6  -6  620.84   30.10
  -6   6   6  755.92   29.10
  -4  -6   6   85.89    9.20
  -4  -6   6   99.19   12.80
  -4   6   6   97.69    8.50
  -4   6   6   99.19   11.30
  -4   6   6   98.99   12.40
   4   6  -6   93.79    9.60
  -2  -6   6  568.54   26.10
  -2  -6   6  568.54   26.40
  -2  -6   6  635.24   31.80
  -2   6   6  630.64   27.40
  -2   6   6  592.14   28.90
   2   6  -6  565.24   26.40
  -2   6   6  572.74   29.00
  -2   6   6  606.54   24.60
   0  -6   6 2104.89   73.79
   0  -6   6 2314.67   75.29
   0  -6   6 2346.57   80.09
   0   6   6 2421.86   72.79
   0   6   6 2341.27   77.19
   0   6   6 2374.56   75.69
   0   6   6 2241.48   77.49
   0   6   6 2258.97   74.79
   0   6   6 2333.77   76.29
   2  -6   6  349.47   20.10
   2  -6   6  356.06   19.80
   2  -6   6  396.56   22.40
   2   6   6  382.46   18.90
   2   6   6  397.86   19.80
   2   6   6  365.66   20.10
   2   6   6  381.16   20.00
   2   6   6  375.86   20.80
 -10   0   7  388.56   39.30
  10   0  -7  581.44   29.80
  -8   0   7   93.69   14.60
   8   0  -7   82.39    9.60
  -8   0   7   70.99   10.00
  -6   0   7  276.07   19.70
  -6   0   7  259.97   18.00
   6   0  -7  265.37   17.20
  -4   0   7  168.48   12.90
  -4   0   7  148.79   14.00
  -4   0   7  169.58   13.20
  -4   0   7  169.18   13.90
  -2   0   7 1609.94   61.49
  -2   0   7 1370.66   51.99
  -2   0   7 1299.37   51.09
   0   0   7   51.79   10.10
   0   0   7   29.10    5.80
   0   0   7   47.00    6.80
   2   0   7  478.45   23.70
   2   0   7  474.65   21.20
   4   0   7  113.39   10.40
   4   0   7  136.59   11.30
   4   0   7  123.09    7.90
   6   0   7  430.56   21.90
   6   0   7  457.55   23.70
 -11  -1   7 1165.48   63.89
 -11  -1   7 1033.10   48.40
 -11   1   7  989.90   46.80
  -9  -1   7 1378.46   57.99
  -9  -1   7 1323.67   52.39
   9  -1  -7 1282.67   50.09
   9   1  -7 1272.27   50.99
  -9   1   7 1305.47   54.79
  -7  -1   7    9.00    4.50
  -7  -1   7   12.10    4.00
   7  -1  -7    9.20    3.50
  -7   1   7   20.70    6.60
   7   1  -7    8.40    3.20
  -7   1   7    8.20    3.30
  -5  -1   7  320.47   20.90
  -5  -1   7  344.57   20.40
  -5  -1   7  317.97   18.80
  -5   1   7  314.87   20.30
  -5   1   7  337.47   19.00
   5   1  -7  323.27   19.40
  -5   1   7  330.87   20.90
  -3  -1   7 3565.14  111.69
  -3  -1   7 3502.35  110.59
  -3   1   7 3486.55  110.59
  -3   1   7 3337.77  110.19
  -3   1   7 3729.43  112.59
   3   1  -7 3542.15  131.09
  -3   1   7 3619.94  110.39
  -1  -1   7  945.11   50.09
  -1  -1   7 1110.99   43.00
  -1  -1   7 1164.68   45.70
  -1   1   7 1119.19   43.80
  -1   1   7 1163.38   44.10
   1   1  -7 1089.29   42.90
  -1   1   7 1128.59   41.90
   1  -1   7   49.99    7.00
   1  -1   7   53.79    6.80
   1   1   7   46.70    6.50
  -1   1  -7   42.20    6.50
   1   1   7   43.40    6.70
   3  -1   7  790.42   33.50
   3  -1   7  788.62   29.90
   3   1   7  804.92   33.50
   3   1   7  800.22   29.20
   5  -1   7 1577.44   46.10
   5  -1   7 1450.35   67.29
   5   1   7 1413.96   57.19
   5   1   7 1369.96   45.80
   5   1   7 1554.24   53.29
 -10  -2   7  154.98   17.20
 -10  -2   7  163.28   13.90
  10  -2  -7  152.98   13.00
  10   2  -7  143.79   13.30
 -10   2   7  150.98   16.10
  -8  -2   7    3.50    5.00
   8  -2  -7   -2.20    1.90
  -8   2   7    2.50    3.20
   8   2  -7    2.20    3.00
  -6  -2   7    8.70    4.60
  -6  -2   7   11.50    3.80
  -6  -2   7    5.00    4.40
  -6   2   7   20.50    6.10
   6   2  -7    6.40    3.30
  -6   2   7   12.00    4.10
  -6   2   7   12.60    5.50
  -4  -2   7  202.78   16.00
  -4  -2   7  201.88   14.50
  -4   2   7  189.88   13.50
   4   2  -7  192.88   14.50
  -4   2   7  190.38   15.30
  -4   2   7  174.38   14.50
   4   2  -7  155.78   15.30
  -2  -2   7  200.38   14.50
  -2  -2   7  182.08   14.60
  -2   2   7  207.98   14.90
   2   2  -7  211.68   24.50
  -2   2   7  208.38   14.80
  -2   2   7  205.78   15.30
   0  -2   7   70.49    8.40
   0   2   7   51.29    7.40
   0   2  -7   76.29    9.00
   0   2   7   69.69    8.60
   2  -2   7  101.69    9.70
   2  -2   7  100.89    9.20
  -2   2  -7   94.69    9.20
   2   2   7  101.49    8.80
   2   2   7  100.79    9.80
   4  -2   7  796.92   47.90
   4  -2   7  964.60   34.10
   4   2   7  995.80   32.40
   4   2   7  935.91   37.20
   4   2   7  937.61   31.60
  -9  -3   7  937.21   46.40
  -9  -3   7  989.00   41.00
  -9   3   7  992.60   45.10
   9   3  -7 1011.20   43.10
  -7  -3   7  188.88   16.50
  -7  -3   7  177.28   13.90
  -7   3   7  186.08   16.40
   7   3  -7  191.98   15.30
  -5  -3   7  661.93   29.90
  -5  -3   7  653.73   32.90
  -5   3   7  664.43   28.70
   5   3  -7  620.44   29.90
  -5   3   7  633.24   31.80
  -5   3   7  609.34   31.00
  -3  -3   7 2445.86   81.79
  -3  -3   7 2270.27   77.89
  -3   3   7 2345.97   80.89
   3   3  -7 2401.56   83.29
   3   3  -7 2394.16   79.09
  -3   3   7 2465.25   79.09
  -3   3   7 2324.87   79.39
  -1  -3   7  348.87   20.30
  -1  -3   7  318.27   18.90
  -1   3   7  303.77   18.20
  -1   3   7  356.96   20.60
   1   3  -7  343.67   21.00
   1  -3   7   16.00    4.70
   1  -3   7   21.80    5.00
   1   3   7   28.20    6.20
   1   3   7   20.30    4.80
   1   3   7   20.90    4.60
  -1   3  -7   23.20    4.40
   3  -3   7 1280.47   45.50
   3   3   7 1299.87   42.90
   3   3   7 1269.87   43.40
   3   3   7 1240.08   49.10
   3   3   7 1316.77   47.20
  -3   3  -7 1193.78   44.90
  -8  -4   7   16.80    6.40
  -8   4   7   14.70    6.30
   8   4  -7   15.50    5.10
  -6  -4   7   72.59    8.30
  -6   4   7   77.19   11.50
  -6   4   7   52.19    8.70
   6   4  -7   65.59   13.00
  -4  -4   7  140.89   11.80
  -4  -4   7  135.79   13.20
  -4   4   7  109.79   12.10
   4   4  -7  118.09   11.20
  -4   4   7  129.19   13.00
  -4   4   7  171.78   17.70
  -2  -4   7  613.14   29.90
  -2  -4   7  571.24   27.10
  -2   4   7  614.94   28.80
  -2   4   7  519.55   27.50
  -2   4   7  585.34   29.20
   0  -4   7    2.10    2.20
   0  -4   7    0.00    2.80
   0   4   7    1.80    3.40
   0   4  -7    5.60    4.70
   0   4   7    3.40    3.80
   0   4   7    0.70    1.90
   0   4   7    3.40    2.30
   2  -4   7  221.88   15.30
   2   4   7  215.58   13.90
   2   4   7  205.98   13.30
   2   4   7  209.88   14.50
   2   4   7  246.58   17.00
  -2   4  -7  192.78   15.50
  -5  -5   7  112.39   13.00
  -5  -5   7  117.79   10.00
   5   5  -7   79.19   11.30
  -3  -5   7 2194.38   77.79
  -3   5   7 2298.87   81.39
   3   5  -7 2501.65   81.39
  -3   5   7 2636.64   86.69
  -1  -5   7 1038.70   42.00
  -1  -5   7 1119.59   45.70
  -1   5   7 1189.08   45.30
  -1   5   7 1087.19   40.70
  -1   5   7 1053.19   43.10
  -6   0   8  971.80   42.90
  -4   0   8  415.46   24.50
  -4   0   8  465.55   35.80
  -2   0   8  221.28   16.20
  -2   0   8  235.78   24.30
   0   0   8  800.02   33.80
   0   0   8  827.32   36.60
  -7  -1   8    6.10    3.80
  -7  -1   8    0.20    3.70
   7   1  -8    2.50    3.30
  -7   1   8    9.20    4.60
  -5  -1   8  472.15   29.70
  -5  -1   8  456.45   27.90
  -5   1   8  446.86   26.20
  -5   1   8  472.65   26.60
  -3  -1   8    3.20    2.90
  -3  -1   8    3.60    3.00
  -3   1   8    0.20    3.60
  -3   1   8    0.00    3.20
  -1  -1   8  191.68   14.80
  -1  -1   8  194.88   15.10
  -1   1   8  195.08   14.70
  -1   1   8  206.68   16.90
   1  -1   8  377.06   20.20
   1  -1   8  374.36   22.00
   1   1   8  388.06   20.00
   1   1   8  407.36   22.50
  -4  -2   8 1148.09   49.00
  -4  -2   8 1295.17   52.89
  -4   2   8 1118.39   48.10
  -4   2   8 1132.99   47.30
  -2  -2   8   54.69    8.10
  -2  -2   8   52.19    8.00
  -2   2   8   65.79    8.80
  -2   2   8   60.09    9.20
   0  -2   8   87.79    9.90
   0  -2   8   91.99    9.90
   0   2   8   97.69   10.30
   0   2   8   94.89   10.50
   0   0   0    0.00    0.00

_computing_structure_solution     'SHELXT 2014/5 (Sheldrick, 2014)'
;
_shelx_hkl_checksum              14671
_olex2_submission_special_instructions 'No special instructions were received'
loop_
_space_group_symop_operation_xyz
'x, y, z'
'-x, y, -z'
'x+1/2, y+1/2, z'
'-x+1/2, y+1/2, -z'
'-x, -y, -z'
'x, -y, z'
'-x+1/2, -y+1/2, -z'
'x+1/2, -y+1/2, z'
loop_
_atom_site_label
_atom_site_type_symbol
_atom_site_fract_x
_atom_site_fract_y
_atom_site_fract_z
_atom_site_U_iso_or_equiv
_atom_site_adp_type
_atom_site_occupancy
_atom_site_site_symmetry_order
_atom_site_calc_flag
_atom_site_refinement_flags_posn
_atom_site_refinement_flags_adp
_atom_site_refinement_flags_occupancy
_atom_site_disorder_assembly
_atom_site_disorder_group
Fe1 Fe 0.500000 0.500000 0.500000 0.0110(2) Uani 1 4 d S T P . .
Cl3 Cl 0.500000 1.000000 0.000000 0.0145(3) Uani 1 4 d S T P . .
Cl2 Cl 0.36989(6) 0.500000 0.16382(12) 0.0169(2) Uani 1 2 d S T P . .
O1 O 0.59908(13) 0.7044(2) 0.3762(3) 0.0154(3) Uani 1 1 d . . . . .
H1A H 0.568876 0.733337 0.233022 0.023 Uiso 1 1 d GR . . . .
H1B H 0.670178 0.661497 0.380142 0.023 Uiso 1 1 d GR . . . .
O2 O 0.67652(19) 1.000000 0.6529(4) 0.0168(4) Uani 1 2 d S T P . .
H2A H 0.669419 0.887589 0.588901 0.025 Uiso 0.5 1 d G . . . .
H2B H 0.749717 1.025753 0.697863 0.025 Uiso 0.5 1 d G . . . .
loop_
_atom_site_aniso_label
_atom_site_aniso_U_11
_atom_site_aniso_U_22
_atom_site_aniso_U_33
_atom_site_aniso_U_23
_atom_site_aniso_U_13
_atom_site_aniso_U_12
Fe1 0.0127(3) 0.0101(3) 0.0096(3) 0.000 0.0006(2) 0.000
Cl3 0.0185(5) 0.0126(5) 0.0120(4) 0.000 0.0019(3) 0.000
Cl2 0.0181(4) 0.0190(4) 0.0117(4) 0.000 -0.0025(2) 0.000
O1 0.0171(7) 0.0141(7) 0.0144(7) 0.0023(5) 0.0015(5) -0.0011(5)
O2 0.0156(10) 0.0172(10) 0.0173(10) 0.000 0.0024(8) 0.000
loop_
_atom_type_symbol
_atom_type_description
_atom_type_scat_dispersion_real
_atom_type_scat_dispersion_imag
_atom_type_scat_source
Cl Cl 0.1484 0.1585 'International Tables Vol C Tables 4.2.6.8 and 6.1.1.4'
Fe Fe 0.3463 0.8444 'International Tables Vol C Tables 4.2.6.8 and 6.1.1.4'
H H 0.0000 0.0000 'International Tables Vol C Tables 4.2.6.8 and 6.1.1.4'
O O 0.0106 0.0060 'International Tables Vol C Tables 4.2.6.8 and 6.1.1.4'
loop_
_geom_angle_atom_site_label_1
_geom_angle_atom_site_label_2
_geom_angle_atom_site_label_3
_geom_angle
_geom_angle_site_symmetry_1
_geom_angle_site_symmetry_3
_geom_angle_publ_flag
Cl2 Fe1 Cl2 180.0 . 5_666 ?
O1 Fe1 Cl2 88.78(4) 5_666 . ?
O1 Fe1 Cl2 91.22(4) 5_666 5_666 ?
O1 Fe1 Cl2 88.78(4) . 5_666 ?
O1 Fe1 Cl2 91.22(4) . . ?
O1 Fe1 Cl2 91.22(4) 6_565 . ?
O1 Fe1 Cl2 88.78(4) 6_565 5_666 ?
O1 Fe1 Cl2 91.22(4) 2_656 5_666 ?
O1 Fe1 Cl2 88.78(4) 2_656 . ?
O1 Fe1 O1 180.0 5_666 . ?
O1 Fe1 O1 91.88(9) 2_656 . ?
O1 Fe1 O1 88.12(9) 5_666 2_656 ?
O1 Fe1 O1 180.0 6_565 2_656 ?
O1 Fe1 O1 91.88(9) 5_666 6_565 ?
O1 Fe1 O1 88.12(9) 6_565 . ?
Fe1 O1 H1A 110.2 . . ?
Fe1 O1 H1B 110.1 . . ?
H1A O1 H1B 108.7 . . ?
H2A O2 H2A 129.2 . 6_575 ?
H2A O2 H2B 109.5 6_575 6_575 ?
H2A O2 H2B 109.5 . . ?
H2A O2 H2B 87.7 . 6_575 ?
H2B O2 H2A 87.7 . 6_575 ?
H2B O2 H2B 23.9 . 6_575 ?
loop_
_geom_bond_atom_site_label_1
_geom_bond_atom_site_label_2
_geom_bond_distance
_geom_bond_site_symmetry_2
_geom_bond_publ_flag
Fe1 Cl2 2.2817(7) 5_666 ?
Fe1 Cl2 2.2816(7) . ?
Fe1 O1 2.0552(15) 2_656 ?
Fe1 O1 2.0552(15) 6_565 ?
Fe1 O1 2.0552(15) 5_666 ?
Fe1 O1 2.0552(15) . ?
O1 H1A 0.8815 . ?
O1 H1B 0.8812 . ?
O2 H2A 0.87(5) 6_575 ?
O2 H2A 0.8699 . ?
O2 H2B 0.87(2) 6_575 ?
O2 H2B 0.8700 . ?
