#------------------------------------------------------------------------------
#$Date: 2020-02-18 02:53:14 +0200 (Tue, 18 Feb 2020) $
#$Revision: 248246 $
#$URL: file:///home/coder/svn-repositories/cod/cif/1/55/73/1557328.cif $
#------------------------------------------------------------------------------
#
# This file is available in the Crystallography Open Database (COD),
# http://www.crystallography.net/
#
# All data on this site have been placed in the public domain by the
# contributors.
#
data_1557328
loop_
_publ_author_name
'Benedetti, Fran\,coise'
'Perrin, Marc-Antoine'
'Bosc, Sebastien'
'Chouteau, Franck'
'Champion, Nicolas'
'Bigot, Antony'
_publ_section_title
;
 Total Synthesis of (+)-Oxo-tomaymycin
;
_journal_name_full               'Organic Process Research &amp; Development'
_journal_paper_doi               10.1021/acs.oprd.0c00009
_journal_year                    2020
_chemical_absolute_configuration S
_chemical_formula_sum            'C15 H16 N2 O4'
_chemical_formula_weight         288.30
_space_group_crystal_system      monoclinic
_space_group_IT_number           4
_space_group_name_Hall           'P 2yb'
_space_group_name_H-M_alt        'P 1 21 1'
_atom_sites_solution_hydrogens   mixed
_audit_creation_method           SHELXL-2018/3
_cell_angle_alpha                90
_cell_angle_beta                 105.7610(10)
_cell_angle_gamma                90
_cell_formula_units_Z            2
_cell_length_a                   6.9821(2)
_cell_length_b                   8.6527(3)
_cell_length_c                   11.9259(3)
_cell_measurement_reflns_used    9947
_cell_measurement_temperature    302(2)
_cell_measurement_theta_max      30.483
_cell_measurement_theta_min      2.948
_cell_volume                     693.40(4)
_computing_cell_refinement       'Bruker AXS Apex3 suite'
_computing_data_collection       'Bruker AXS Apex3 suite'
_computing_data_reduction        'SAINT plus v8.38A'
_computing_structure_refinement  'SHELXL-2018/3 (Sheldrick, 2018)'
_computing_structure_solution    'SHELXT 2014/5 (Sheldrick, 2014)'
_diffrn_ambient_temperature      302(2)
_diffrn_measured_fraction_theta_full 0.997
_diffrn_measured_fraction_theta_max 0.997
_diffrn_measurement_device_type  'Bruker D8 Venture'
_diffrn_measurement_method       'omega scan'
_diffrn_radiation_type           MoK\a
_diffrn_radiation_wavelength     0.71073
_diffrn_reflns_av_R_equivalents  0.0277
_diffrn_reflns_av_unetI/netI     0.0250
_diffrn_reflns_Laue_measured_fraction_full 0.997
_diffrn_reflns_Laue_measured_fraction_max 0.997
_diffrn_reflns_limit_h_max       9
_diffrn_reflns_limit_h_min       -9
_diffrn_reflns_limit_k_max       12
_diffrn_reflns_limit_k_min       -12
_diffrn_reflns_limit_l_max       17
_diffrn_reflns_limit_l_min       -17
_diffrn_reflns_number            27529
_diffrn_reflns_point_group_measured_fraction_full 0.995
_diffrn_reflns_point_group_measured_fraction_max 0.992
_diffrn_reflns_theta_full        25.242
_diffrn_reflns_theta_max         30.512
_diffrn_reflns_theta_min         2.948
_diffrn_source                   'micro-focus source'
_exptl_absorpt_coefficient_mu    0.101
_exptl_absorpt_correction_type   multi-scan
_exptl_absorpt_process_details   SADABS-2016/2
_exptl_crystal_colour            colourless
_exptl_crystal_density_diffrn    1.381
_exptl_crystal_description       plate-like
_exptl_crystal_F_000             304
_exptl_crystal_size_max          0.15
_exptl_crystal_size_mid          0.1
_exptl_crystal_size_min          0.04
_exptl_transmission_factor_max   0.7461
_exptl_transmission_factor_min   0.7192
_refine_diff_density_max         0.249
_refine_diff_density_min         -0.154
_refine_diff_density_rms         0.040
_refine_ls_abs_structure_details
;
 Flack x determined using 1747 quotients [(I+)-(I-)]/[(I+)+(I-)]
 (Parsons, Flack and Wagner, Acta Cryst. B69 (2013) 249-259).
;
_refine_ls_abs_structure_Flack   -0.01(19)
_refine_ls_extinction_method     none
_refine_ls_goodness_of_fit_ref   1.061
_refine_ls_hydrogen_treatment    mixed
_refine_ls_matrix_type           full
_refine_ls_number_parameters     200
_refine_ls_number_reflns         4184
_refine_ls_number_restraints     1
_refine_ls_restrained_S_all      1.061
_refine_ls_R_factor_all          0.0372
_refine_ls_R_factor_gt           0.0349
_refine_ls_shift/su_max          0.001
_refine_ls_shift/su_mean         0.000
_refine_ls_structure_factor_coef Fsqd
_refine_ls_weighting_details
'w=1/[\s^2^(Fo^2^)+(0.0719P)^2^+0.0358P] where P=(Fo^2^+2Fc^2^)/3'
_refine_ls_weighting_scheme      calc
_refine_ls_wR_factor_gt          0.1016
_refine_ls_wR_factor_ref         0.1044
_reflns_Friedel_coverage         0.878
_reflns_Friedel_fraction_full    0.993
_reflns_Friedel_fraction_max     0.987
_reflns_number_gt                3960
_reflns_number_total             4184
_reflns_threshold_expression     'I > 2\s(I)'
_cod_data_source_file            op0c00009_si_002.cif
_cod_data_source_block           xsc0123_0m_a
_cod_original_sg_symbol_H-M      'P 21'
_cod_database_code               1557328
_shelx_shelxl_version_number     2018/3
_shelx_space_group_comment
;
The symmetry employed for this shelxl refinement is uniquely defined
by the following loop, which should always be used as a source of
symmetry information in preference to the above space-group names.
They are only intended as comments.
;
_shelx_res_file
;
TITL xsc0123_0m_a.res in P2(1)
    xsc0123_0m_a.res
    created by SHELXL-2018/3 at 11:23:27 on 20-Mar-2019
CELL  0.71073   6.9821   8.6527  11.9259   90.000  105.761   90.000
ZERR    2.000   0.0002   0.0003   0.0003    0.000    0.001    0.000
LATT -1
SYMM -X, 1/2+Y, -Z
SFAC C H N O
UNIT 30 32 4 8
ACTA
TEMP 29.500
L.S. 10
BOND $H
LIST 6
OMIT -2 -1 2
OMIT 0 6 3
OMIT 0 -6 3
FMAP 2
PLAN 20
WGHT    0.071900    0.035800
FVAR       1.01886
O001  4    0.872530    0.668808    0.246998    11.00000    0.02877    0.05513 =
         0.02873    0.00452    0.00876   -0.00816
O2    4    0.495292    0.319743   -0.073369    11.00000    0.03895    0.05757 =
         0.03834   -0.01597    0.01883   -0.00993
O003  4    0.142191    0.270135   -0.028171    11.00000    0.03296    0.06503 =
         0.03689   -0.01662    0.01281   -0.01148
H3    2    0.169979    0.240403   -0.093397    11.00000    0.09162
N004  3    0.319656    0.568314    0.316728    11.00000    0.02507    0.05456 =
         0.03379   -0.00741    0.01109    0.00088
H4    2    0.199837    0.596354    0.298828    11.00000    0.05338
O005  4    0.346841    0.656036    0.498095    11.00000    0.04805    0.09371 =
         0.04388   -0.02332    0.01835    0.00594
N6    3    0.748529    0.627086    0.400345    11.00000    0.03063    0.05041 =
         0.02608    0.00025    0.00856   -0.00903
C007  1    0.473510    0.376277    0.029155    11.00000    0.02897    0.03968 =
         0.03034   -0.00234    0.01151    0.00043
C008  1    0.388322    0.496082    0.228085    11.00000    0.02737    0.03999 =
         0.02806   -0.00179    0.01011    0.00065
C009  1    0.579595    0.515027    0.213003    11.00000    0.02464    0.03723 =
         0.02719    0.00013    0.00748    0.00008
C00A  1    0.285243    0.350734    0.047890    11.00000    0.02852    0.04186 =
         0.03131   -0.00383    0.00918   -0.00250
C00B  1    0.421746    0.590918    0.429502    11.00000    0.03320    0.04752 =
         0.03351   -0.00567    0.01461   -0.00446
C00C  1    0.616753    0.454040    0.111739    11.00000    0.02550    0.04149 =
         0.03085   -0.00115    0.01052   -0.00033
AFIX  43
H00C  2    0.742332    0.466716    0.100246    11.00000   -1.20000
AFIX   0
C00D  1    0.742911    0.609111    0.287797    11.00000    0.02462    0.04017 =
         0.02623    0.00319    0.00779    0.00019
C00E  1    0.245590    0.411992    0.146247    11.00000    0.02551    0.05188 =
         0.03325   -0.00584    0.01144   -0.00542
AFIX  43
H00E  2    0.120732    0.396796    0.158175    11.00000   -1.20000
AFIX   0
C00F  1    0.915741    0.655150    0.596663    11.00000    0.03695    0.04469 =
         0.02820   -0.00295    0.00911    0.00068
C00G  1    0.634587    0.531895    0.461647    11.00000    0.03174    0.04790 =
         0.02803    0.00259    0.01127   -0.00573
AFIX  13
H00G  2    0.637069    0.423458    0.438359    11.00000   -1.20000
AFIX   0
C00H  1    0.741341    0.549794    0.591194    11.00000    0.04261    0.07580 =
         0.02695    0.00629    0.00881   -0.01162
AFIX  23
H00A  2    0.653066    0.594924    0.632559    11.00000   -1.20000
H00B  2    0.786694    0.450232    0.625689    11.00000   -1.20000
AFIX   0
C00I  1    1.074710    0.671432    0.686554    11.00000    0.04595    0.05634 =
         0.03405   -0.00290    0.00208   -0.00811
AFIX  43
H00I  2    1.174391    0.737819    0.677776    11.00000   -1.20000
AFIX   0
C00J  1    0.889264    0.730545    0.479715    11.00000    0.03916    0.04637 =
         0.02968   -0.00227    0.00780   -0.00921
AFIX  23
H00D  2    0.834694    0.833806    0.478593    11.00000   -1.20000
H00F  2    1.014539    0.736237    0.459436    11.00000   -1.20000
AFIX   0
C00K  1    0.654508    0.376912   -0.113031    11.00000    0.05970    0.08345 =
         0.05296   -0.02287    0.03577   -0.02383
AFIX 137
H00H  2    0.634168    0.349813   -0.193479    11.00000   -1.50000
H00J  2    0.777073    0.332499   -0.067611    11.00000   -1.50000
H00K  2    0.660636    0.487330   -0.104995    11.00000   -1.50000
AFIX   0
C00L  1    1.105768    0.591161    0.800886    11.00000    0.06784    0.07014 =
         0.03639    0.00473   -0.00350   -0.00163
AFIX 137
H00L  2    1.029064    0.497582    0.790154    11.00000   -1.50000
H00M  2    1.063945    0.657470    0.854317    11.00000   -1.50000
H00N  2    1.244269    0.566805    0.831719    11.00000   -1.50000
REM #####
AFIX   0
HKLF 4


REM  xsc0123_0m_a.res in P2(1)
REM wR2 = 0.104383, GooF = S = 1.06065, Restrained GooF = 1.06052 for all data
REM R1 = 0.034896 for 3960 Fo > 4sig(Fo) and 0.037194 for all 4184 data
REM 200 parameters refined using 1 restraints

END

WGHT      0.0719      0.0358

REM Highest difference peak  0.249,  deepest hole -0.154,  1-sigma level  0.040
Q1    1   0.4947  0.5112  0.2235  11.00000  0.05    0.25
Q2    1   0.5218  0.5562  0.4439  11.00000  0.05    0.24
Q3    1   0.5258  0.4346  0.0641  11.00000  0.05    0.22
Q4    1   0.3804  0.3648  0.0438  11.00000  0.05    0.22
Q5    1   0.9710  0.6864  0.6536  11.00000  0.05    0.22
Q6    1   0.2658  0.3818  0.1015  11.00000  0.05    0.19
Q7    1   0.6453  0.5591  0.2444  11.00000  0.05    0.18
Q8    1   0.5930  0.4867  0.1586  11.00000  0.05    0.18
Q9    1   0.9167  0.6938  0.5441  11.00000  0.05    0.18
Q10   1   0.9635  0.5967  0.8139  11.00000  0.05    0.18
Q11   1   0.8387  0.6668  0.4399  11.00000  0.05    0.16
Q12   1   0.8326  0.5979  0.5876  11.00000  0.05    0.16
Q13   1   0.8184  0.6468  0.2549  11.00000  0.05    0.16
Q14   1   0.7564  0.6178  0.3507  11.00000  0.05    0.15
Q15   1   0.9396  0.6591  0.2803  11.00000  0.05    0.15
Q16   1   0.6726  0.3340 -0.1671  11.00000  0.05    0.13
Q17   1   1.1644  0.4884  0.7641  11.00000  0.05    0.13
Q18   1   0.4659  0.3530 -0.0335  11.00000  0.05    0.13
Q19   1   1.0815  0.6371  0.7449  11.00000  0.05    0.13
Q20   1   0.8393  0.6554  0.1830  11.00000  0.05    0.13
;
_shelx_res_checksum              72240
_shelx_hkl_file
;
   1   0   0  911.91   39.70
  -1   0   0  892.41   39.60
  -2   0   0  466.35   36.40
   2   0   0  502.15   37.10
  -3   0   0   11.80    0.60
   3   0   0   12.40    0.70
  -3   0   0   12.10    0.60
   3   0   0   12.00    0.70
  -3   0   0   12.10    0.70
  -3   0   0   13.20    0.80
   3   0   0   12.20    0.60
  -4   0   0  277.47    6.80
   4   0   0  277.87    6.90
  -4   0   0  262.97    7.00
  -4   0   0  275.27    6.90
   4   0   0  270.27    6.90
  -4   0   0  270.37    6.90
   4   0   0  258.47    6.80
  -4   0   0  268.27    6.80
   5   0   0  196.98    5.30
  -5   0   0  186.98    5.10
   5   0   0  196.08    5.30
  -5   0   0  196.78    5.40
  -5   0   0  194.58    5.00
  -5   0   0  190.08    5.20
  -5   0   0  198.98    5.30
   5   0   0  177.38    5.10
   6   0   0   64.19    2.40
   6   0   0   65.09    2.30
  -6   0   0   62.09    2.50
   6   0   0   66.89    2.40
  -6   0   0   60.09    2.30
  -6   0   0   61.59    2.20
  -6   0   0   67.59    2.40
  -6   0   0   65.09    2.10
  -7   0   0    0.60    0.60
   7   0   0    0.60    0.60
  -7   0   0    0.20    0.50
  -7   0   0    0.50    0.40
   7   0   0    0.20    0.50
  -7   0   0   -0.20    0.50
  -7   0   0    0.10    0.50
   7   0   0    0.30    0.60
   8   0   0  106.89    3.70
  -8   0   0  102.39    3.20
  -8   0   0   96.49    3.40
   8   0   0   97.29    3.60
  -8   0   0   97.09    3.80
   8   0   0  104.09    3.50
  -8   0   0   99.99    3.60
  -8   0   0   94.19    3.60
  -9   0   0    2.30    0.90
  -9   0   0    2.80    0.80
   9   0   0    3.00    1.00
  -9   0   0    1.80    0.50
   9   0   0    5.00    1.00
   0  -1   0    0.20    0.10
   0  -1   0    0.00    0.10
   0  -1   0    0.20    0.10
   0   1   0    0.30    0.10
   0   1   0    0.00    0.10
   0   1   0    0.40    0.10
   0   1   0    0.30    0.10
   2  -1   0 1699.43   80.19
  -2  -1   0 1545.95   74.89
   2   1   0 1788.52   81.09
   3  -1   0   64.29    1.90
  -3  -1   0   68.59    1.80
  -3  -1   0   63.09    2.00
  -3  -1   0   62.89    1.90
  -3  -1   0   67.39    2.00
  -3  -1   0   68.69    2.00
   3  -1   0   59.09    1.90
   3  -1   0   61.49    1.90
   3   1   0   63.39    1.90
   3   1   0   67.29    2.00
  -3   1   0   66.29    1.90
  -3   1   0   65.89    1.90
  -3   1   0   62.09    1.90
   3   1   0   62.39    1.90
  -3   1   0   61.19    2.00
  -3   1   0   67.59    1.90
   3   1   0   63.49    1.80
  -4  -1   0   46.30    1.70
   4  -1   0   47.80    1.70
  -4  -1   0   47.90    1.70
  -4  -1   0   48.40    1.50
   4  -1   0   48.70    1.60
  -4  -1   0   50.59    1.80
   4  -1   0   44.90    1.60
  -4  -1   0   46.50    1.60
  -4   1   0   49.80    1.70
  -4   1   0   49.00    1.60
   4   1   0   48.30    1.70
  -4   1   0   49.00    1.60
   4   1   0   48.30    1.50
  -4   1   0   48.20    1.80
   4   1   0   48.30    1.80
  -4   1   0   48.80    1.60
   4   1   0   45.30    1.60
  -5  -1   0   32.20    1.50
  -5  -1   0   33.50    1.50
   5  -1   0   30.70    1.40
   5  -1   0   32.70    1.40
  -5  -1   0   31.60    1.50
  -5  -1   0   31.20    1.30
   5  -1   0   30.90    1.30
  -5  -1   0   32.20    1.20
  -5   1   0   30.20    1.50
  -5   1   0   32.80    1.30
   5   1   0   31.30    1.30
  -5   1   0   34.60    1.40
  -5   1   0   31.30    1.30
   5   1   0   30.70    1.50
  -5   1   0   30.40    1.40
   5   1   0   31.80    1.40
  -6  -1   0  179.08    4.90
   6  -1   0  177.78    5.10
   6  -1   0  174.78    4.90
  -6  -1   0  175.18    4.70
  -6  -1   0  180.18    5.20
   6  -1   0  180.68    5.00
  -6  -1   0  181.68    5.10
  -6  -1   0  175.68    5.10
  -6   1   0  177.88    4.80
   6   1   0  175.18    5.00
  -6   1   0  158.18    4.90
   6   1   0  173.48    4.90
  -6   1   0  173.98    5.00
  -6   1   0  170.48    4.90
  -6   1   0  176.28    5.20
   6   1   0  165.78    5.10
  -7  -1   0   92.59    2.80
  -7  -1   0   91.19    3.30
  -7  -1   0   91.39    3.10
   7  -1   0   89.19    3.00
  -7  -1   0   90.29    3.30
   7  -1   0   88.09    3.10
   7  -1   0   88.59    3.20
  -7  -1   0   87.69    3.20
   7   1   0   87.49    3.00
  -7   1   0   89.99    3.00
   7   1   0   90.49    3.20
  -7   1   0   93.69    2.90
   7   1   0   90.19    3.30
  -7   1   0   95.49    3.50
  -7   1   0   92.49    3.20
  -7   1   0   88.79    3.10
  -8  -1   0    4.50    0.80
   8  -1   0    5.70    1.00
  -8  -1   0    6.60    1.10
  -8  -1   0    7.80    0.80
   8  -1   0    5.70    0.90
  -8  -1   0    8.30    1.20
   8  -1   0    4.50    0.80
  -8  -1   0    7.00    1.10
   8   1   0    7.20    1.10
  -8   1   0    4.80    0.90
   8   1   0    7.20    1.00
  -8   1   0    6.50    1.00
  -8   1   0    4.00    0.80
   8   1   0    6.20    1.10
  -8   1   0    8.60    0.90
  -8   1   0    5.70    1.10
  -9  -1   0   28.60    2.00
  -9  -1   0   26.60    1.50
   9  -1   0   29.40    2.10
   9  -1   0   31.00    1.90
  -9  -1   0   33.30    2.10
   9  -1   0   26.60    1.80
   9   1   0   30.60    2.10
  -9   1   0   32.40    2.00
  -9   1   0   33.10    2.00
   9   1   0   26.20    1.80
   9   1   0   24.30    1.90
  -9   1   0   28.20    1.60
   0   2   0 1914.71   75.09
  -1   2   0 3583.94  122.69
   1   2   0 3601.24  125.09
   2  -2   0  335.37    8.80
  -2  -2   0  362.26    8.70
   2  -2   0  355.46    8.80
  -2  -2   0  366.26    8.90
  -2  -2   0  364.56    8.80
  -2  -2   0  364.26    8.70
   2   2   0  374.66    8.70
   2   2   0  361.06    8.70
   2   2   0  366.26    8.90
   2   2   0  346.87    8.80
   2   2   0  367.56    8.90
  -2   2   0  365.36    8.70
  -3  -2   0  612.34   14.60
  -4  -2   0  197.68    5.30
  -4  -2   0  201.48    5.30
   4  -2   0  200.18    5.20
   4  -2   0  200.68    5.30
  -4  -2   0  198.88    5.10
  -4  -2   0  196.38    5.20
   4  -2   0  201.08    5.20
   4  -2   0  213.08    5.40
  -4  -2   0  204.08    5.40
   4   2   0  197.88    5.30
   4   2   0  200.68    5.10
  -4   2   0  206.08    5.20
  -4   2   0  198.78    5.30
   4   2   0  197.88    5.20
   4   2   0  201.98    5.40
  -4   2   0  204.68    5.50
  -4   2   0  204.48    5.30
  -4   2   0  193.68    5.20
  -5  -2   0  243.58    6.40
   5  -2   0  238.48    6.20
   5  -2   0  235.68    6.30
  -5  -2   0  240.78    6.50
  -5  -2   0  246.28    6.40
   5  -2   0  236.88    6.40
  -5  -2   0  240.38    6.10
   5  -2   0  213.98    6.20
  -5  -2   0  236.48    6.20
  -5   2   0  242.68    6.30
   5   2   0  233.58    6.50
   5   2   0  233.48    6.30
   5   2   0  238.38    6.00
  -5   2   0  241.28    6.20
  -5   2   0  239.98    6.20
  -5   2   0  232.48    6.30
  -5   2   0  233.38    6.50
   5   2   0  243.48    6.20
  -6  -2   0  150.88    4.50
   6  -2   0  147.29    4.30
   6  -2   0  142.89    4.20
  -6  -2   0  145.09    4.40
  -6  -2   0  141.89    4.30
  -6  -2   0  146.99    4.50
  -6  -2   0  149.69    4.10
   6  -2   0  149.69    4.50
   6  -2   0  147.89    4.30
  -6   2   0  144.59    4.20
  -6   2   0  150.78    4.70
   6   2   0  150.28    4.40
  -6   2   0  153.28    4.30
   6   2   0  145.79    4.40
   6   2   0  149.39    4.30
  -6   2   0  147.19    4.30
   6   2   0  148.99    4.60
  -6   2   0  152.18    4.40
   7  -2   0    4.00    0.70
  -7  -2   0    4.10    0.80
  -7  -2   0    5.90    0.90
   7  -2   0    4.20    0.80
   7  -2   0    4.10    0.70
  -7  -2   0    4.80    0.60
  -7  -2   0    3.00    0.70
  -7  -2   0    4.70    0.90
   7  -2   0    4.50    0.90
   7   2   0    3.30    0.70
  -7   2   0    4.40    0.80
   7   2   0    5.00    0.80
  -7   2   0    3.70    0.60
  -7   2   0    3.50    0.80
  -7   2   0    3.00    0.60
  -7   2   0    4.60    0.70
   7   2   0    4.80    0.90
   7   2   0    5.00    0.90
   8  -2   0    1.00    0.60
  -8  -2   0    1.20    0.50
   8  -2   0    0.50    0.60
  -8  -2   0    1.40    0.70
  -8  -2   0    0.20    0.50
  -8  -2   0    0.70    0.70
  -8  -2   0    1.40    0.60
   8  -2   0    0.80    0.50
   8  -2   0    0.90    0.60
  -8   2   0    1.50    0.50
   8   2   0    1.70    0.70
  -8   2   0    0.90    0.70
  -8   2   0    1.20    0.70
  -8   2   0    1.20    0.60
   8   2   0    1.20    0.60
   8   2   0    1.40    0.60
   8   2   0    0.90    0.60
  -8   2   0    2.10    0.60
  -9  -2   0   11.80    1.50
   9  -2   0   11.30    1.30
   9  -2   0   10.60    1.30
  -9  -2   0   10.10    1.00
   9  -2   0   10.40    1.20
  -9  -2   0   10.20    1.30
  -9   2   0    9.80    1.20
  -9   2   0   12.50    1.40
   9   2   0   10.80    1.40
   9   2   0    7.60    1.10
  -9   2   0   11.20    1.10
   0  -3   0    0.00    0.30
   0  -3   0    0.40    0.20
   0  -3   0    0.50    0.20
   0   3   0    0.10    0.20
   0   3   0    0.30    0.20
   0   3   0   -0.10    0.20
   0   3   0    0.00    0.30
   0   3   0    0.20    0.20
  -1  -3   0   66.89    1.90
  -1  -3   0   67.19    1.90
  -1  -3   0   66.09    1.90
   1  -3   0   66.39    1.70
   1  -3   0   55.39    2.00
  -1  -3   0   64.99    2.00
  -1   3   0   67.89    1.90
   1   3   0   69.29    1.90
   1   3   0   64.29    1.90
   1   3   0   67.99    1.90
  -1   3   0   69.59    1.90
   1   3   0   76.79    2.00
   1   3   0   67.89    2.10
   1   3   0   65.59    1.90
  -1   3   0   68.69    2.00
  -2  -3   0  485.65   11.60
   2  -3   0  474.05   11.80
  -2  -3   0  483.85   11.80
   2  -3   0  486.05   11.80
  -2  -3   0  492.35   11.70
  -2  -3   0  481.65   11.80
   2   3   0  469.25   11.70
   2   3   0  477.05   11.90
   2   3   0  501.05   11.90
   2   3   0  496.15   11.70
  -2   3   0  494.85   11.80
  -2   3   0  494.85   11.70
   2   3   0  482.25   11.80
  -3  -3   0  660.83   16.10
  -3  -3   0  646.04   15.90
  -3  -3   0  646.24   15.90
  -3  -3   0  678.63   16.10
   3  -3   0  670.33   16.10
   3  -3   0  655.23   16.10
  -3  -3   0  662.13   15.90
   3   3   0  715.63   15.80
   3   3   0  639.74   16.00
   3   3   0  666.93   15.90
  -3   3   0  664.03   15.90
  -3   3   0  664.53   16.20
   3   3   0  675.23   16.20
   3   3   0  641.44   16.10
  -4  -3   0    6.70    0.70
  -4  -3   0    8.00    0.60
  -4  -3   0    7.60    0.80
  -4  -3   0    7.40    0.70
   4  -3   0    7.00    0.70
   4  -3   0    7.10    0.70
   4  -3   0    7.40    0.70
  -4  -3   0    7.40    0.60
   4  -3   0    7.30    0.50
   4   3   0    7.20    0.50
  -4   3   0    8.00    0.80
  -4   3   0    6.90    0.50
   4   3   0    7.90    0.70
   4   3   0    8.00    0.80
   4   3   0    8.10    0.70
   4   3   0    7.70    0.80
  -4   3   0    8.50    0.70
  -4   3   0    8.00    0.70
  -5  -3   0  323.47    8.50
  -5  -3   0  317.97    8.00
  -5  -3   0  308.57    8.30
  -5  -3   0  319.47    8.20
  -5  -3   0  316.97    8.20
   5  -3   0  318.67    8.00
   5  -3   0  328.17    8.30
   5  -3   0  324.27    8.40
   5  -3   0  325.77    8.20
   5   3   0  312.67    7.90
   5   3   0  319.97    8.40
   5   3   0  314.67    8.50
  -5   3   0  319.67    8.30
  -5   3   0  315.97    8.50
   5   3   0  326.17    8.30
  -5   3   0  318.97    8.00
  -5   3   0  317.97    8.30
  -5   3   0  318.57    8.10
   5   3   0  315.27    8.10
  -6  -3   0    5.30    0.90
   6  -3   0    4.90    0.80
   6  -3   0    5.00    0.70
   6  -3   0    6.10    0.80
  -6  -3   0    6.30    0.80
   6  -3   0    6.40    0.70
  -6  -3   0    5.30    0.80
  -6  -3   0    6.70    0.70
  -6  -3   0    4.40    0.70
   6   3   0    3.90    0.70
  -6   3   0    5.60    0.70
   6   3   0    5.70    0.90
  -6   3   0    4.50    0.60
   6   3   0    5.70    0.70
   6   3   0    5.70    0.80
  -6   3   0    5.50    0.80
   6   3   0    6.10    0.60
  -6   3   0    5.20    0.70
  -6   3   0    5.50    0.90
   7  -3   0   23.90    1.60
  -7  -3   0   26.90    1.60
  -7  -3   0   24.10    1.20
   7  -3   0   20.50    1.40
   7  -3   0   23.40    1.30
  -7  -3   0   23.40    1.50
  -7  -3   0   21.20    1.40
   7  -3   0   22.70    1.40
  -7  -3   0   24.20    1.60
  -7   3   0   23.70    1.40
   7   3   0   22.60    1.40
  -7   3   0   24.50    1.70
  -7   3   0   21.80    1.30
  -7   3   0   22.10    1.50
   7   3   0   24.30    1.50
   7   3   0   23.20    1.60
   7   3   0   21.90    1.50
  -7   3   0   24.40    1.40
  -8  -3   0    0.80    0.60
   8  -3   0    0.30    0.60
  -8  -3   0    1.40    0.70
  -8  -3   0    1.50    0.80
   8  -3   0   -0.10    0.60
   8  -3   0    1.00    0.60
  -8  -3   0    0.60    0.40
   8  -3   0    0.90    0.50
  -8  -3   0    1.40    0.80
  -8   3   0    1.10    0.50
  -8   3   0    1.20    0.80
   8   3   0    0.90    0.70
  -8   3   0    0.10    0.40
   8   3   0    1.00    0.70
  -8   3   0    0.40    0.50
   8   3   0    1.00    0.60
  -8   3   0    0.40    0.70
   8   3   0    0.80    0.60
  -9  -3   0   17.10    1.70
   9  -3   0   13.80    1.70
   9  -3   0   13.40    1.20
  -9  -3   0   14.30    1.00
   9  -3   0   12.80    1.30
  -9   3   0   14.60    1.30
   9   3   0   14.00    1.40
  -9   3   0   12.20    1.20
  -9   3   0   15.80    1.60
   0  -4   0  624.74   15.30
   0  -4   0  610.74   15.10
   0   4   0  632.94   15.10
   0   4   0  631.84   14.80
   0   4   0  617.14   15.10
   0   4   0  633.44   15.00
   0   4   0  640.44   15.30
   0   4   0  630.74   15.00
  -1  -4   0  421.36   10.80
   1  -4   0  434.16   10.80
  -1  -4   0  423.16   10.60
   1  -4   0  430.66   10.30
  -1  -4   0  419.36   10.60
   1   4   0  451.75   10.60
   1   4   0  445.86   10.60
   1   4   0  438.86   10.60
  -1   4   0  451.65   10.60
  -1   4   0  450.55   10.80
   1   4   0  429.96   10.80
  -1   4   0  448.66   10.50
   1   4   0  413.26   10.50
  -1   4   0  419.06   10.60
   1   4   0  432.66   10.50
  -2  -4   0   94.69    2.70
  -2  -4   0   92.89    2.90
  -2  -4   0   98.49    2.40
  -2  -4   0   95.19    2.80
   2  -4   0   97.29    2.90
   2  -4   0   96.49    2.80
  -2  -4   0   94.69    2.80
   2   4   0  101.59    2.90
  -2   4   0   95.89    2.80
   2   4   0   98.69    2.70
   2   4   0   96.29    2.80
  -2   4   0   98.09    2.90
   2   4   0   97.79    2.70
   2   4   0   96.29    3.00
  -2   4   0   98.59    2.80
  -3  -4   0   11.60    0.90
   3  -4   0   12.70    0.50
   3  -4   0   11.90    0.80
  -3  -4   0   12.90    0.60
  -3  -4   0   12.30    0.80
  -3  -4   0   13.10    0.80
   3  -4   0   12.40    0.90
  -3   4   0   12.90    0.80
   3   4   0   12.40    0.90
  -3   4   0   11.80    0.80
   3   4   0   12.50    0.80
  -3   4   0   12.50    0.90
   3   4   0   12.80    1.00
   3   4   0   12.50    0.70
   3   4   0   11.80    0.80
   4  -4   0  303.97    7.50
  -4  -4   0  300.47    7.90
   4  -4   0  300.67    7.90
  -4  -4   0  301.47    7.80
  -4  -4   0  311.97    8.10
   4  -4   0  303.87    8.00
  -4  -4   0  306.57    7.70
  -4  -4   0  301.67    7.70
  -4   4   0  313.57    8.10
   4   4   0  315.87    7.80
   4   4   0  305.47    7.60
   4   4   0  305.57    8.10
  -4   4   0  312.77    7.80
   4   4   0  298.77    8.10
   4   4   0  309.77    7.90
  -4   4   0  314.67    7.90
   5  -4   0  135.09    4.10
  -5  -4   0  137.59    4.00
  -5  -4   0  138.39    4.30
   5  -4   0  133.29    3.60
   5  -4   0  139.59    4.10
  -5  -4   0  142.19    3.90
  -5  -4   0  140.49    3.80
  -5  -4   0  142.89    4.20
   5   4   0  134.09    4.00
  -5   4   0  134.99    3.90
  -5   4   0  136.89    4.10
   5   4   0  144.39    4.30
  -5   4   0  136.19    4.30
  -5   4   0  136.79    4.10
   5   4   0  122.09    3.90
   5   4   0  131.59    3.70
   5   4   0  145.39    4.30
  -6  -4   0   26.50    1.40
   6  -4   0   25.70    1.20
  -6  -4   0   23.40    1.60
  -6  -4   0   25.30    1.50
   6  -4   0   25.40    1.50
  -6  -4   0   25.70    1.20
  -6  -4   0   24.20    1.40
   6  -4   0   26.40    1.50
  -6   4   0   24.90    1.60
   6   4   0   26.00    1.40
  -6   4   0   25.50    1.30
   6   4   0   25.40    1.60
  -6   4   0   27.40    1.50
   6   4   0   24.90    1.40
  -6   4   0   25.50    1.40
   6   4   0   25.30    1.10
   6   4   0   26.20    1.70
   7  -4   0   14.00    1.20
  -7  -4   0   14.80    1.40
  -7  -4   0   13.00    1.20
  -7  -4   0   13.20    0.90
  -7  -4   0   14.60    1.20
   7  -4   0   12.90    1.40
   7  -4   0   13.20    1.00
  -7  -4   0   13.20    1.20
  -7   4   0   16.60    1.50
  -7   4   0   14.50    1.10
   7   4   0   14.40    1.40
   7   4   0   14.30    1.40
   7   4   0   14.50    0.90
   7   4   0   12.40    1.20
  -7   4   0   16.80    1.20
  -7   4   0   15.10    1.30
   7   4   0   12.80    1.20
   8  -4   0    3.90    1.00
  -8  -4   0    3.70    0.60
   8  -4   0    4.70    0.70
  -8  -4   0    3.80    0.80
  -8  -4   0    2.30    0.80
   8  -4   0    5.20    0.90
  -8  -4   0    6.50    1.00
  -8  -4   0    4.00    1.00
  -8   4   0    2.80    1.20
   8   4   0    4.00    1.00
  -8   4   0    3.70    0.70
  -8   4   0    3.30    0.80
   8   4   0    4.80    1.00
   8   4   0    2.60    0.90
  -9  -4   0   -0.60    0.60
   9  -4   0    2.10    0.80
  -9  -4   0    0.60    0.40
   9  -4   0    1.60    0.90
   9  -4   0    1.40    0.50
  -9   4   0    0.00    0.70
   0  -5   0    0.60    0.20
   0  -5   0    0.70    0.30
   0  -5   0    0.40    0.30
   0   5   0    1.10    0.30
   0   5   0    0.50    0.30
   0   5   0    1.00    0.30
   0   5   0    1.00    0.40
   0   5   0    0.80    0.20
   1  -5   0   18.10    0.90
  -1  -5   0   17.30    0.90
  -1  -5   0   18.30    1.10
   1  -5   0   17.20    0.60
   1  -5   0   15.60    1.00
  -1  -5   0   16.40    0.80
   1   5   0   17.80    0.90
  -1   5   0   16.90    1.00
   1   5   0   16.90    0.90
  -1   5   0   16.60    0.90
   1   5   0   16.60    0.80
  -1   5   0   17.30    0.80
   1   5   0   17.30    0.90
   1   5   0   15.80    0.80
   1   5   0   16.10    1.00
  -1   5   0   17.20    0.90
  -2  -5   0    0.70    0.30
  -2  -5   0    0.30    0.30
   2  -5   0    0.50    0.30
  -2  -5   0    0.40    0.40
  -2  -5   0    0.20    0.30
   2  -5   0    1.20    0.40
  -2   5   0    0.40    0.30
   2   5   0    0.90    0.30
  -2   5   0    0.40    0.30
  -2   5   0    0.90    0.30
   2   5   0    1.40    0.40
   2   5   0    0.40    0.30
   2   5   0    0.30    0.30
   2   5   0    0.60    0.40
  -2   5   0    0.30    0.30
   2   5   0    0.70    0.40
  -3  -5   0   65.49    2.20
  -3  -5   0   67.09    1.80
  -3  -5   0   67.39    2.10
   3  -5   0   68.19    2.40
   3  -5   0   63.89    2.20
  -3  -5   0   65.19    2.30
  -3   5   0   64.69    2.30
   3   5   0   67.69    2.50
   3   5   0   65.89    2.20
  -3   5   0   66.79    2.10
   3   5   0   68.69    2.10
  -3   5   0   67.09    2.30
  -3   5   0   63.09    2.20
   3   5   0   69.39    2.40
   3   5   0   67.89    2.20
  -4  -5   0   11.30    1.00
   4  -5   0   11.70    1.00
  -4  -5   0   12.90    0.70
   4  -5   0   12.50    0.90
   4  -5   0   12.30    0.50
  -4  -5   0   13.20    1.10
  -4  -5   0   12.60    0.90
  -4   5   0   12.30    0.90
  -4   5   0   12.00    1.00
   4   5   0   11.10    0.90
  -4   5   0   12.50    1.00
   4   5   0   10.70    1.00
   4   5   0   12.20    0.80
   4   5   0   11.90    0.90
   4   5   0   12.90    1.10
  -5  -5   0   29.80    1.70
   5  -5   0   27.50    1.00
  -5  -5   0   29.40    1.60
   5  -5   0   30.40    1.60
  -5  -5   0   29.00    1.30
  -5  -5   0   27.50    1.40
   5  -5   0   27.10    1.50
   5   5   0   27.50    1.20
  -5   5   0   29.90    1.40
   5   5   0   25.70    1.40
   5   5   0   28.80    1.70
  -5   5   0   27.90    1.60
   5   5   0   29.10    1.50
   5   5   0   27.40    1.60
  -5   5   0   27.60    1.50
  -6  -5   0   33.90    1.80
  -6  -5   0   35.10    1.60
  -6  -5   0   36.90    1.70
   6  -5   0   33.50    1.80
  -6  -5   0   35.30    1.50
   6  -5   0   34.50    1.80
  -6  -5   0   34.60    1.90
   6  -5   0   32.80    1.20
   6   5   0   33.60    1.40
   6   5   0   34.40    1.90
   6   5   0   37.30    1.80
  -6   5   0   33.00    1.90
  -6   5   0   33.50    1.70
   6   5   0   35.10    1.70
  -6   5   0   32.80    1.60
  -6   5   0   33.60    1.70
   6   5   0   34.10    1.90
   7  -5   0    1.50    0.70
  -7  -5   0    3.10    0.90
   7  -5   0    2.00    0.70
  -7  -5   0    1.10    0.50
  -7  -5   0    1.70    0.70
  -7  -5   0    1.50    0.60
   7  -5   0    2.10    0.40
  -7   5   0    1.30    0.60
   7   5   0    2.20    0.80
  -7   5   0    2.10    0.60
   7   5   0    2.10    0.50
  -7   5   0    1.30    0.70
   7   5   0    2.00    0.80
  -7   5   0    1.70    0.80
   7   5   0    1.60    0.60
   7   5   0    2.60    0.70
  -8  -5   0    1.30    0.60
  -8  -5   0    1.90    0.80
   8  -5   0    1.90    0.90
  -8  -5   0    2.10    0.50
   8  -5   0    0.90    0.70
  -8  -5   0    2.50    0.70
  -8   5   0    1.20    0.80
   8   5   0    1.00    0.70
   8   5   0    1.60    0.80
  -8   5   0    2.00    0.60
   0  -6   0   40.30    1.40
   0  -6   0   43.70    1.80
   0   6   0   43.20    1.60
   0   6   0   43.40    1.60
   0   6   0   43.30    1.60
   0   6   0   43.00    1.80
   0   6   0   41.60    1.20
   1  -6   0   28.10    1.20
  -1  -6   0   30.70    1.30
   1  -6   0   31.20    1.00
  -1  -6   0   30.90    1.50
  -1  -6   0   31.70    1.30
   1  -6   0   31.20    1.50
   1   6   0   31.30    1.30
   1   6   0   32.50    1.30
   1   6   0   30.70    1.40
  -1   6   0   30.50    1.50
  -1   6   0   30.00    1.30
   1   6   0   30.80    1.30
   1   6   0   31.50    1.60
  -1   6   0   30.60    1.30
   1   6   0   32.30    1.30
  -1   6   0   31.20    1.20
  -2  -6   0   80.29    2.60
   2  -6   0   78.39    2.70
  -2  -6   0   79.19    2.80
   2  -6   0   75.69    2.50
  -2  -6   0   81.29    2.60
  -2   6   0   81.49    2.50
   2   6   0   79.59    2.60
   2   6   0   80.29    2.50
   2   6   0   82.29    2.50
   2   6   0   74.79    2.50
   2   6   0   79.89    2.50
  -2   6   0   76.29    2.50
   2   6   0   79.19    2.80
  -2   6   0   78.29    2.60
  -2   6   0   82.29    2.70
   3  -6   0   20.90    1.30
  -3  -6   0   18.50    1.00
   3  -6   0   19.00    1.20
  -3  -6   0   21.80    1.20
  -3  -6   0   19.00    1.20
   3   6   0   18.70    1.30
   3   6   0   20.50    1.10
   3   6   0   19.00    1.10
  -3   6   0   17.80    1.10
  -3   6   0   20.30    1.10
  -3   6   0   19.40    1.20
   3   6   0   19.30    1.00
   3   6   0   18.10    1.20
  -3   6   0   17.80    1.10
   3   6   0   16.70    1.10
  -4  -6   0    8.90    0.80
  -4  -6   0    9.40    1.00
  -4  -6   0   12.70    1.10
   4  -6   0   10.60    1.10
   4  -6   0   11.80    1.00
  -4  -6   0   10.60    0.60
  -4   6   0   10.10    0.90
  -4   6   0   10.90    1.00
   4   6   0    9.30    0.90
   4   6   0    9.40    1.00
   4   6   0    9.40    0.80
   4   6   0    9.10    0.90
   4   6   0    7.60    1.00
  -4   6   0   10.60    1.00
  -5  -6   0    8.40    0.70
  -5  -6   0    7.80    0.90
   5  -6   0   11.00    1.20
  -5  -6   0    8.60    1.10
   5  -6   0    7.40    1.00
  -5  -6   0    9.70    1.10
   5   6   0    8.60    1.10
  -5   6   0   10.00    1.00
   5   6   0    7.30    1.00
   5   6   0    8.70    0.90
   5   6   0    8.50    0.70
   5   6   0    7.60    0.90
  -5   6   0    9.10    0.90
  -5   6   0    9.20    1.10
  -6  -6   0    7.10    1.20
   6  -6   0    6.90    1.00
  -6  -6   0    7.80    1.00
   6  -6   0    9.30    1.10
  -6  -6   0    7.40    0.90
  -6  -6   0    8.30    0.80
   6   6   0    6.20    1.00
   6   6   0    8.60    1.00
  -6   6   0    9.30    1.10
   6   6   0    7.20    1.10
  -6   6   0    7.30    1.00
   6   6   0   10.80    1.00
  -6   6   0    8.80    1.20
   6   6   0    8.30    0.70
  -6   6   0    8.20    0.90
   7  -6   0    4.50    1.00
  -7  -6   0    4.40    1.00
  -7  -6   0    4.40    1.00
  -7  -6   0    5.70    0.90
   7  -6   0    4.90    1.00
  -7  -6   0    3.90    0.70
   7   6   0    5.90    1.10
  -7   6   0    3.70    0.80
   7   6   0    4.00    0.90
  -7   6   0    4.10    0.90
   7   6   0    4.90    0.60
  -7   6   0    4.60    0.80
   7   6   0    3.80    0.90
  -7   6   0    5.50    1.10
   7   6   0    4.80    1.00
   8  -6   0    7.30    1.10
  -8  -6   0    6.30    0.90
  -8  -6   0    5.40    0.90
   8  -6   0    5.20    1.10
  -8   6   0    5.80    1.00
   0  -7   0    1.70    0.60
   0  -7   0    1.70    0.40
   0   7   0    3.00    0.30
   0   7   0    1.60    0.50
   0   7   0    1.50    0.60
   0   7   0    2.30    0.50
   0   7   0    1.80    0.50
  -1  -7   0   22.00    1.40
  -1  -7   0   19.90    1.10
   1  -7   0   19.50    0.80
   1  -7   0   22.10    1.40
  -1  -7   0   19.70    1.00
  -1   7   0   19.10    1.10
  -1   7   0   19.80    1.10
  -1   7   0   21.20    1.40
   1   7   0   21.10    1.20
   1   7   0   20.80    1.40
  -1   7   0   21.10    1.10
   1   7   0   19.40    1.10
   1   7   0   18.90    1.10
  -1   7   0   19.00    0.90
   1   7   0   18.90    1.10
   1   7   0   20.20    1.10
  -2  -7   0   19.50    1.40
  -2  -7   0   20.00    1.20
   2  -7   0   21.50    1.20
   2  -7   0   18.90    1.30
  -2  -7   0   19.90    1.20
   2   7   0   21.10    1.20
   2   7   0   20.20    1.10
   2   7   0   21.80    1.20
   2   7   0   19.80    1.40
  -2   7   0   19.30    1.30
  -2   7   0   19.30    1.10
   2   7   0   20.40    1.20
  -2   7   0   17.70    1.20
   2   7   0   17.10    1.10
  -2   7   0   18.20    1.10
  -3  -7   0   33.40    1.60
   3  -7   0   34.90    1.80
   3  -7   0   30.80    1.60
  -3  -7   0   33.30    1.60
  -3   7   0   31.20    1.50
  -3   7   0   32.20    1.50
   3   7   0   29.50    1.60
   3   7   0   31.80    1.60
   3   7   0   33.00    1.50
   3   7   0   34.50    1.50
  -3   7   0   30.60    1.40
  -3   7   0   31.90    1.70
  -3   7   0   33.70    1.60
   3   7   0   33.00    1.50
   3   7   0   32.30    1.90
  -4  -7   0    0.30    0.50
  -4  -7   0    0.50    0.40
   4  -7   0    0.40    0.50
  -4  -7   0    0.70    0.60
   4  -7   0    0.20    0.50
   4   7   0    0.30    0.50
  -4   7   0    0.60    0.50
   4   7   0    0.50    0.50
  -4   7   0    0.50    0.50
   4   7   0    0.30    0.50
   4   7   0    0.40    0.40
  -4   7   0    0.70    0.50
   4   7   0    0.30    0.50
   4   7   0    0.60    0.60
   5  -7   0    5.60    0.90
  -5  -7   0    7.40    1.00
  -5  -7   0    8.50    1.10
   5  -7   0    8.60    1.10
  -5  -7   0    6.80    0.50
  -5  -7   0    7.60    0.80
  -5  -7   0    7.30    0.50
  -5   7   0    7.00    0.80
   5   7   0    7.70    1.00
  -5   7   0    8.10    1.00
   5   7   0    7.50    0.90
   5   7   0    7.20    1.20
  -5   7   0    7.30    1.00
   5   7   0    6.10    0.90
   5   7   0    8.40    1.10
   5   7   0    7.80    0.80
   6  -7   0    2.00    0.80
  -6  -7   0    2.10    0.80
  -6  -7   0    1.60    0.60
   6  -7   0    2.00    0.80
  -6  -7   0    2.10    0.40
  -6  -7   0    0.40    0.60
   6   7   0    1.70    0.70
   6   7   0    2.70    0.80
  -6   7   0    2.90    0.70
   6   7   0    1.60    0.70
   6   7   0    2.30    0.50
  -6   7   0    2.00    0.80
  -6   7   0    1.20    0.60
   6   7   0    1.60    0.70
   7  -7   0    0.00    0.70
  -7  -7   0    0.50    0.60
   7  -7   0    0.50    0.70
  -7  -7   0    1.00    0.40
  -7   7   0    1.10    0.70
   7   7   0    0.60    0.40
  -7   7   0    0.50    1.00
   7   7   0    1.10    0.70
   0  -8   0   13.20    0.80
   0  -8   0   14.10    1.30
   0   8   0   13.80    1.20
   0   8   0   14.20    1.10
   0   8   0   13.30    1.00
   0   8   0   12.00    1.00
  -1  -8   0   13.60    1.00
  -1  -8   0   13.80    1.30
   1  -8   0   12.90    1.30
   1  -8   0   13.20    0.70
  -1  -8   0   13.10    0.90
   1   8   0   14.40    1.20
   1   8   0   12.90    1.00
  -1   8   0   13.90    1.30
  -1   8   0   13.00    1.00
   1   8   0   13.20    1.30
   1   8   0   13.00    1.00
  -1   8   0   14.60    0.80
  -1   8   0   12.90    1.00
  -1   8   0   14.50    1.00
   1   8   0   13.60    1.10
  -2  -8   0    1.70    0.60
  -2  -8   0    4.40    0.90
   2  -8   0    3.60    0.80
  -2  -8   0    2.60    0.60
   2  -8   0    3.40    0.60
   2   8   0    3.90    0.70
  -2   8   0    3.40    0.60
   2   8   0    2.30    0.60
  -2   8   0    4.00    0.70
   2   8   0    2.50    0.70
   2   8   0    2.70    0.60
   2   8   0    2.50    0.60
  -2   8   0    2.70    0.50
   2   8   0    4.20    0.70
  -2   8   0    4.00    0.80
   3  -8   0    2.50    0.60
   3  -8   0    1.10    0.70
  -3  -8   0    0.90    0.50
  -3  -8   0    0.60    0.50
   3   8   0    2.80    0.80
  -3   8   0    1.70    0.50
   3   8   0    1.20    0.50
   3   8   0    1.30    0.60
   3   8   0    1.60    0.50
   3   8   0    0.80    0.60
  -3   8   0    2.10    0.70
   3   8   0    0.50    0.50
  -3   8   0    1.80    0.60
  -3   8   0    1.00    0.50
  -3   8   0    0.60    0.50
  -4  -8   0    8.50    1.00
  -4  -8   0    8.80    1.10
   4  -8   0   10.00    1.20
   4  -8   0    6.30    0.90
  -4   8   0    9.00    1.00
  -4   8   0    6.10    0.90
   4   8   0    8.30    0.90
   4   8   0    8.10    1.00
   4   8   0    7.00    1.00
  -4   8   0    9.40    1.00
  -4   8   0    8.30    1.00
   4   8   0    8.10    0.90
   4   8   0    6.80    1.20
   4   8   0    7.40    1.00
  -4   8   0    7.20    0.90
  -5  -8   0    3.20    0.60
  -5  -8   0    4.30    0.90
  -5  -8   0    3.00    0.80
   5  -8   0    3.20    0.80
   5  -8   0    3.70    0.90
   5   8   0    2.50    0.60
  -5   8   0    2.50    0.60
  -5   8   0    1.70    0.70
   5   8   0    2.80    0.80
  -5   8   0    4.90    0.80
  -5   8   0    2.20    0.80
   5   8   0    3.90    1.00
   5   8   0    2.10    0.70
   5   8   0    2.60    0.70
   5   8   0    2.60    0.70
  -6  -8   0    3.80    1.00
  -6  -8   0    4.10    1.10
   6  -8   0    6.30    1.10
  -6  -8   0    5.70    0.80
   6  -8   0    5.20    1.00
   6   8   0    3.60    0.90
   6   8   0    4.70    0.70
  -6   8   0    4.00    0.80
  -6   8   0    5.50    0.90
   6   8   0    3.00    0.90
   6   8   0    4.80    1.10
   6   8   0    5.30    1.10
   6   8   0    6.70    1.00
  -6   8   0    4.60    1.00
   7  -8   0    3.30    1.00
  -7  -8   0    4.20    0.50
  -7  -8   0    3.60    0.80
  -7  -8   0    3.80    0.40
   7  -8   0    5.40    1.10
   7   8   0    2.90    0.90
  -7   8   0    2.80    0.80
   7   8   0    5.20    0.70
   0  -9   0   -0.10    0.30
   0  -9   0    0.10    0.60
   0   9   0    0.00    0.40
   0   9   0    0.00    0.50
   0   9   0    1.00    0.60
   0   9   0    0.60    0.50
   1  -9   0   21.90    1.70
  -1  -9   0   21.00    1.70
   1  -9   0   22.30    0.90
  -1  -9   0   21.40    1.20
   1   9   0   22.90    1.70
  -1   9   0   21.40    1.00
  -1   9   0   25.10    1.70
   1   9   0   24.10    1.40
   1   9   0   22.40    1.50
   1   9   0   22.80    1.30
  -1   9   0   24.50    1.40
  -1   9   0   23.40    1.40
  -1   9   0   21.50    1.30
   1   9   0   22.80    1.40
  -2  -9   0    1.90    0.60
  -2  -9   0    2.30    0.80
  -2  -9   0    3.10    0.70
   2  -9   0    2.90    0.80
  -2   9   0    1.40    0.60
   2   9   0    1.70    0.60
   2   9   0    1.70    0.80
   2   9   0    2.70    0.70
  -2   9   0    2.50    0.60
   2   9   0    2.70    0.70
  -2   9   0    2.70    0.50
  -2   9   0    2.30    0.60
  -2   9   0    2.50    0.80
   2   9   0    2.00    0.60
   3  -9   0   29.20    1.60
  -3  -9   0   28.60    1.70
   3  -9   0   31.30    2.00
  -3  -9   0   27.00    1.60
  -3   9   0   26.70    1.50
  -3   9   0   27.90    1.50
   3   9   0   26.90    1.90
   3   9   0   29.30    1.70
   3   9   0   29.10    1.60
   3   9   0   28.40    1.60
   3   9   0   29.20    1.70
  -3   9   0   29.50    1.80
  -3   9   0   28.90    1.50
  -3   9   0   29.90    1.70
   3   9   0   30.00    1.60
   4  -9   0    4.90    1.00
   4  -9   0    4.80    0.90
  -4  -9   0    5.60    1.00
  -4  -9   0    5.30    0.90
   4   9   0    4.40    0.80
   4   9   0    2.70    0.90
  -4   9   0    4.50    0.80
   4   9   0    4.60    0.90
   4   9   0    4.60    0.70
  -4   9   0    4.20    0.80
  -4   9   0    4.30    0.80
   4   9   0    4.40    0.80
  -4   9   0    2.80    0.70
   4   9   0    5.10    0.90
  -4   9   0    4.40    0.90
   5  -9   0    6.40    1.10
  -5  -9   0    6.00    1.10
   5  -9   0    5.00    1.10
   5   9   0    7.50    1.40
  -5   9   0    5.20    0.80
   5   9   0    4.20    0.90
   5   9   0    7.70    1.00
   5   9   0    6.10    0.80
   5   9   0    4.20    0.90
  -5   9   0    4.90    0.80
  -5   9   0    5.40    0.90
   5   9   0    4.70    1.00
   6  -9   0    4.00    1.00
   6  -9   0    6.60    1.20
  -6   9   0    4.00    0.90
  -6   9   0    3.40    1.00
   6   9   0    3.40    0.70
   6   9   0    2.00    0.90
   0 -10   0    0.70    0.40
   0 -10   0   -0.10    0.70
   0  10   0    2.40    0.80
   0  10   0    1.70    0.60
   0  10   0    1.50    0.60
   0  10   0    3.60    0.80
   0  10   0    1.90    0.70
   1 -10   0    6.80    1.20
  -1 -10   0    7.30    1.20
  -1 -10   0    5.90    0.80
   1 -10   0    5.20    0.40
  -1  10   0    5.10    0.80
  -1  10   0    4.80    0.90
  -1  10   0    5.10    1.00
   1  10   0    6.20    1.00
   1  10   0    6.20    0.80
  -1  10   0    3.70    0.70
   1  10   0    6.00    0.90
  -1  10   0    5.20    0.50
   1  10   0    4.80    0.80
   1  10   0    4.00    0.90
  -2 -10   0    3.90    1.00
  -2 -10   0    4.50    0.80
  -2 -10   0    5.30    0.90
   2 -10   0    3.60    1.00
  -2  10   0    3.90    0.60
  -2  10   0    5.50    0.90
  -2  10   0    4.40    0.90
   2  10   0    4.50    0.90
   2  10   0    3.80    0.90
  -2  10   0    4.50    0.80
   2  10   0    4.80    0.80
   2  10   0    4.20    0.80
  -2  10   0    3.40    0.70
   2  10   0    4.50    0.80
  -3 -10   0    2.30    0.70
  -3 -10   0    3.50    0.80
   3 -10   0    1.40    0.80
   3 -10   0    1.10    0.50
   3  10   0    0.60    0.60
  -3  10   0    0.90    0.60
  -3  10   0    0.90    0.60
   3  10   0    0.80    0.60
   3  10   0    0.80    0.60
  -3  10   0    1.70    0.70
   3  10   0    0.80    0.70
  -3  10   0    2.00    0.80
  -3  10   0    1.20    0.70
   3  10   0    1.50    0.60
  -3  10   0    1.80    0.60
   4 -10   0    9.10    1.30
  -4 -10   0    6.10    1.10
   4 -10   0    7.80    1.10
   4  10   0    8.70    1.10
  -4  10   0    8.00    1.00
   4  10   0   10.30    1.10
  -4  10   0    7.50    1.10
  -4  10   0    9.40    1.10
   4  10   0    7.70    1.10
  -4  10   0    8.70    1.00
   5 -10   0    7.70    1.30
   5 -10   0    7.60    1.10
  -5  10   0    8.30    1.20
   5  10   0    6.80    1.10
   5  10   0    8.20    1.00
  -5  10   0    7.50    1.10
   0 -11   0    0.70    0.80
   0 -11   0    0.30    0.40
   0  11   0    0.40    0.60
   0  11   0   -0.10    0.60
   0  11   0    0.10    0.50
   0  11   0    0.80    0.80
   0  11   0    1.10    0.70
  -1 -11   0    8.40    1.80
  -1 -11   0    6.90    0.90
   1 -11   0    8.60    1.40
  -1  11   0    5.30    0.90
   1  11   0    8.70    1.10
   1  11   0    6.40    1.00
  -1  11   0    8.50    1.30
   1  11   0    6.00    1.00
   1  11   0    3.60    1.20
  -1  11   0    8.50    1.20
  -2 -11   0    8.80    1.00
   2 -11   0   10.10    1.60
   2 -11   0    7.70    1.20
  -2  11   0    9.40    0.80
  -2  11   0    8.20    1.00
  -2  11   0    8.40    1.20
   2  11   0    8.60    1.20
  -2  11   0    8.90    1.20
   2  11   0    9.30    1.20
   2  11   0   11.00    1.20
  -3 -11   0    1.50    0.80
   3 -11   0    1.80    1.20
  -3  11   0    1.20    0.60
   3  11   0    3.10    0.80
  -3  11   0    3.30    0.70
   3  11   0    3.20    0.80
   3  11   0    3.40    0.80
  -3  11   0    3.80    0.90
   4 -11   0   -0.90    0.50
  -4 -11   0    0.90    0.90
   4  11   0    0.80    0.70
  -4  11   0    0.60    0.60
   4  11   0    0.80    0.60
  -4  11   0    1.30    0.60
   0 -12   0    2.20    0.40
   0  12   0    2.20    0.80
  -1 -12   0    2.40    0.60
  -1  12   0    1.60    0.70
   1  12   0    1.60    0.70
  -2 -12   0   -0.10    0.60
   2 -12   0    0.20    0.60
   2  12   0    1.10    0.70
  -2  12   0    0.80    0.60
   9   0  -1   32.80    2.10
   9   0  -1   33.30    2.00
   9   0  -1   35.80    1.90
  -9   0   1   33.30    2.10
  -9   0   1   31.10    2.10
  -9   0   1   34.00    1.70
  -8   0   1    0.10    0.60
   8   0  -1    0.80    0.60
   8   0  -1    0.40    0.50
  -8   0   1    0.20    0.40
   8   0  -1    1.00    0.70
  -8   0   1    0.70    0.60
  -8   0   1    0.40    0.60
  -8   0   1    0.80    0.50
   7   0  -1   64.69    2.60
   7   0  -1   66.19    2.40
   7   0  -1   69.09    2.60
  -7   0   1   66.59    2.80
  -7   0   1   66.49    2.60
  -7   0   1   69.79    2.40
  -7   0   1   70.69    2.70
  -6   0   1  161.08    4.80
   6   0  -1  155.08    4.60
  -6   0   1  161.48    4.60
  -6   0   1  154.38    4.40
  -6   0   1  151.18    4.60
   6   0  -1  156.08    4.60
  -6   0   1  158.58    4.40
   6   0  -1  156.88    4.40
   5   0  -1   28.60    1.20
  -5   0   1   28.30    1.20
   5   0  -1   28.00    1.30
  -5   0   1   27.40    1.30
  -5   0   1   28.40    1.20
   5   0  -1   28.40    1.30
  -5   0   1   27.20    1.30
  -4   0   1  303.77    7.70
   4   0  -1  293.67    7.50
  -4   0   1  301.07    7.50
  -4   0   1  311.67    7.70
  -4   0   1  299.17    7.60
   4   0  -1  305.17    7.60
   4   0  -1  306.97    7.70
   3   0  -1 1973.60   97.19
  -3   0   1 1846.42   93.69
   2   0  -1  411.16   33.00
  -2   0   1  426.56   33.20
  -1   0   1  714.23   34.10
   1   0  -1  770.62   35.40
   1   0   1  146.29    3.50
  -1   0  -1  144.89    3.60
  -1   0  -1  141.19    3.50
   1   0   1  143.69    3.60
   1   0   1  141.59    3.60
   2   0   1 2501.25  105.59
   2   0   1 2562.74  102.89
  -3   0  -1  139.79    3.80
  -3   0  -1  137.39    3.70
   3   0   1  132.79    3.70
   3   0   1  133.09    3.60
   3   0   1  141.79    3.70
  -3   0  -1  138.19    3.60
  -3   0  -1  138.59    3.70
  -3   0  -1  143.49    3.50
  -4   0  -1    7.50    0.70
  -4   0  -1    8.50    0.70
  -4   0  -1    6.70    0.70
   4   0   1    8.00    0.60
  -4   0  -1    7.90    0.50
  -4   0  -1    7.40    0.60
   4   0   1    7.00    0.70
   4   0   1    7.80    0.70
  -5   0  -1    2.00    0.60
  -5   0  -1    1.70    0.50
  -5   0  -1    3.10    0.60
   5   0   1    2.60    0.50
  -5   0  -1    2.30    0.40
  -5   0  -1    2.10    0.50
   5   0   1    2.60    0.60
   5   0   1    1.70    0.50
  -6   0  -1   16.10    1.00
  -6   0  -1   15.30    0.90
  -6   0  -1   16.00    1.20
   6   0   1   14.00    1.10
  -6   0  -1   14.50    1.20
   6   0   1   15.50    1.10
  -6   0  -1   14.30    1.20
   6   0   1   14.20    1.20
   7   0   1    6.30    0.90
   7   0   1    7.40    0.90
  -7   0  -1    6.50    1.10
  -7   0  -1    3.80    0.60
  -7   0  -1    5.90    0.70
   7   0   1    4.80    0.80
  -7   0  -1    6.60    1.00
  -7   0  -1    5.70    0.90
  -8   0  -1   14.40    1.40
  -8   0  -1   11.30    1.40
  -8   0  -1   12.50    1.00
  -8   0  -1   14.30    1.50
   8   0   1   13.60    1.40
   8   0   1   10.90    1.30
  -8   0  -1   10.00    1.00
   8   0   1   10.20    1.10
  -9   0  -1    1.80    0.80
   9   0   1    2.50    0.90
  -9   0  -1    2.80    0.90
   9   0   1    2.10    0.70
  -9   0  -1    2.20    0.50
  -9  -1   1   28.00    1.50
  -9  -1   1   30.70    2.10
   9  -1  -1   30.60    1.70
  -9  -1   1   26.70    1.90
   9  -1  -1   27.70    2.00
  -9  -1   1   31.70    2.10
   9  -1  -1   25.70    1.70
   9  -1  -1   30.00    2.20
  -9   1   1   26.20    1.90
   9   1  -1   26.90    1.70
  -9   1   1   28.60    1.80
   9   1  -1   30.50    2.00
  -9   1   1   28.10    1.60
   9   1  -1   28.30    1.90
  -8  -1   1   40.30    2.10
  -8  -1   1   41.00    2.10
  -8  -1   1   41.50    2.20
   8  -1  -1   35.80    2.00
   8  -1  -1   41.30    2.00
  -8  -1   1   40.60    1.90
  -8  -1   1   42.50    1.80
   8  -1  -1   40.30    1.90
  -8   1   1   37.30    2.30
  -8   1   1   39.20    2.00
  -8   1   1   39.70    1.80
  -8   1   1   41.20    2.10
  -8   1   1   38.30    1.90
   8   1  -1   41.00    2.10
   8   1  -1   42.20    2.10
   8   1  -1   41.70    2.00
   8   1  -1   39.50    1.90
   7  -1  -1  126.99    4.10
  -7  -1   1  130.09    4.00
  -7  -1   1  132.69    3.90
  -7  -1   1  133.79    4.20
   7  -1  -1  135.99    4.20
  -7  -1   1  127.09    4.30
  -7  -1   1  135.39    4.30
   7  -1  -1  133.49    4.00
   7   1  -1  134.39    4.20
  -7   1   1  131.69    4.00
  -7   1   1  127.69    4.00
   7   1  -1  131.69    4.00
   7   1  -1  131.69    4.30
  -7   1   1  131.19    3.90
  -7   1   1  131.79    4.40
  -7   1   1  137.19    4.20
  -6  -1   1    2.90    0.70
  -6  -1   1    1.90    0.50
  -6  -1   1    1.60    0.50
  -6  -1   1    1.90    0.60
  -6  -1   1    2.10    0.60
   6  -1  -1    2.40    0.50
   6  -1  -1    1.40    0.50
   6  -1  -1    1.50    0.50
  -6   1   1    1.30    0.50
  -6   1   1    1.20    0.60
   6   1  -1    1.50    0.60
  -6   1   1    1.90    0.50
   6   1  -1    3.30    0.70
   6   1  -1    1.40    0.50
  -6   1   1    2.00    0.60
  -6   1   1    1.40    0.50
  -5  -1   1   44.80    1.70
  -5  -1   1   39.80    1.50
  -5  -1   1   41.80    1.70
  -5  -1   1   39.50    1.50
   5  -1  -1   39.20    1.50
   5  -1  -1   42.80    1.60
   5  -1  -1   39.70    1.60
  -5   1   1   41.80    1.80
   5   1  -1   42.60    1.50
   5   1  -1   40.10    1.70
   5   1  -1   43.30    1.60
  -5   1   1   38.70    1.50
  -5   1   1   42.90    1.60
  -5   1   1   41.90    1.60
   5   1  -1   39.60    1.50
  -5   1   1   39.40    1.50
  -4  -1   1   86.79    2.50
  -4  -1   1   81.89    2.60
   4  -1  -1   82.99    2.40
   4  -1  -1   91.09    2.50
   4  -1  -1   79.89    2.50
  -4  -1   1   85.39    2.60
  -4  -1   1   85.29    2.40
   4   1  -1   86.69    2.40
  -4   1   1   88.09    2.60
  -4   1   1   86.39    2.50
   4   1  -1   80.49    2.40
   4   1  -1   82.19    2.60
   4   1  -1   83.59    2.50
  -4   1   1   84.49    2.50
  -4   1   1   78.49    2.40
   3  -1  -1  399.66    9.70
  -2  -1   1 1557.44   74.69
   2  -1  -1 1470.15   68.89
   2   1  -1 1596.74   77.19
   1  -1  -1 2550.94   82.29
  -1  -1   1 2642.54   92.89
   1   1  -1 2667.03   94.39
   0  -1  -1 1989.00   52.79
   0  -1   1 1905.21   71.09
   0   1   1 1892.11   53.09
   0   1  -1 1969.70   71.59
   1  -1   1  815.22   46.90
  -1   1  -1  825.42   46.20
   1   1   1  796.02   40.00
  -2  -1  -1    4.40    0.50
   2  -1   1    3.20    0.40
  -2  -1  -1    4.00    0.30
  -2  -1  -1    4.80    0.40
  -2  -1  -1    4.10    0.40
   2  -1   1    4.00    0.40
   2  -1   1    4.20    0.40
  -2  -1  -1    4.20    0.40
   2  -1   1    3.20    0.40
   2   1   1    3.80    0.40
   2   1   1    4.00    0.40
  -2   1  -1    3.40    0.40
   2   1   1    4.00    0.30
  -2   1  -1    3.90    0.40
  -2   1  -1    4.40    0.40
  -2   1  -1    4.80    0.40
   3  -1   1  113.69    3.10
  -3  -1  -1  113.29    3.20
  -3  -1  -1  115.29    3.10
  -3  -1  -1  111.59    3.00
   3  -1   1  108.89    3.10
  -3  -1  -1  114.19    3.20
  -3  -1  -1  114.89    2.90
   3   1   1  112.59    3.00
   3   1   1  116.29    3.20
  -3   1  -1  118.99    3.20
  -3   1  -1  110.39    3.10
  -3   1  -1  114.69    3.10
  -3   1  -1  109.89    3.20
   3   1   1  113.69    2.90
   3   1   1  113.29    3.10
  -4  -1  -1   15.00    0.80
  -4  -1  -1   14.00    0.80
  -4  -1  -1   13.70    0.60
   4  -1   1   15.10    0.90
   4  -1   1   13.30    0.80
   4  -1   1   14.30    0.80
  -4  -1  -1   14.30    0.90
  -4  -1  -1   13.70    0.90
  -4   1  -1   12.60    0.90
  -4   1  -1   13.30    0.80
  -4   1  -1   14.60    0.80
  -4   1  -1   13.60    0.80
   4   1   1   13.90    0.90
  -4   1  -1   14.90    0.80
   4   1   1   12.70    0.80
   4   1   1   13.80    0.80
   5  -1   1  231.08    6.10
  -5  -1  -1  231.48    5.80
  -5  -1  -1  225.88    6.20
   5  -1   1  229.88    6.20
  -5  -1  -1  226.48    6.20
  -5  -1  -1  234.18    6.00
   5  -1   1  214.58    6.00
  -5  -1  -1  222.68    6.10
  -5   1  -1  233.68    6.40
  -5   1  -1  226.88    5.90
   5   1   1  226.28    6.20
   5   1   1  225.18    6.10
  -5   1  -1  225.98    6.00
   5   1   1  225.68    6.00
  -5   1  -1  235.98    6.10
  -5   1  -1  226.58    6.10
  -6  -1  -1  123.99    3.90
   6  -1   1  121.89    3.70
   6  -1   1  123.49    3.80
  -6  -1  -1  126.89    4.00
  -6  -1  -1  125.69    3.70
  -6  -1  -1  122.39    3.50
   6  -1   1  124.69    3.90
  -6  -1  -1  128.59    4.00
  -6   1  -1  123.59    3.90
   6   1   1  129.29    3.80
   6   1   1  128.69    4.00
   6   1   1  124.69    3.90
  -6   1  -1  125.59    3.70
  -6   1  -1  121.49    3.60
  -6   1  -1  128.29    3.90
  -6   1  -1  126.69    4.10
   7  -1   1    3.70    0.70
  -7  -1  -1    3.70    0.50
  -7  -1  -1    3.30    0.70
  -7  -1  -1    3.30    0.70
  -7  -1  -1    4.50    0.80
   7  -1   1    5.10    0.80
   7  -1   1    3.40    0.80
  -7  -1  -1    3.50    0.80
   7   1   1    4.10    0.70
  -7   1  -1    4.00    0.60
  -7   1  -1    3.60    0.70
  -7   1  -1    5.10    1.00
   7   1   1    3.80    0.80
  -7   1  -1    4.60    0.80
   7   1   1    4.90    0.90
  -7   1  -1    4.80    0.80
  -8  -1  -1    2.00    0.80
  -8  -1  -1    2.80    0.80
  -8  -1  -1    1.70    0.70
   8  -1   1    3.40    0.80
  -8  -1  -1    3.90    0.80
   8  -1   1    3.80    0.80
  -8  -1  -1    2.30    0.50
   8  -1   1    3.00    0.90
  -8   1  -1    3.60    0.80
  -8   1  -1    1.80    0.80
   8   1   1    2.90    0.80
   8   1   1    2.40    0.80
  -8   1  -1    3.20    0.80
  -8   1  -1    1.90    0.50
   8   1   1    1.80    0.70
  -8   1  -1    2.30    0.80
   9  -1   1   11.30    1.40
  -9  -1  -1    8.80    0.90
   9  -1   1    6.90    1.10
  -9  -1  -1    7.40    1.10
   9   1   1    8.30    1.30
  -9   1  -1    7.20    1.20
   9   1   1    8.60    1.20
  -9   1  -1   10.30    1.30
  -9   1  -1    8.80    0.90
  -9  -2   1   12.50    1.50
  -9  -2   1   14.80    1.60
   9  -2  -1   13.30    1.30
   9  -2  -1   14.90    1.50
   9  -2  -1   13.40    1.50
  -9  -2   1   13.90    1.10
   9  -2  -1   12.50    1.20
   9   2  -1   13.30    1.30
  -9   2   1   13.20    1.50
   9   2  -1   13.70    1.50
  -9   2   1   11.90    1.30
  -9   2   1   13.30    1.20
   8  -2  -1   13.60    1.10
  -8  -2   1   13.60    1.40
  -8  -2   1   14.70    1.20
  -8  -2   1   11.30    1.30
  -8  -2   1   10.10    1.20
   8  -2  -1   14.30    1.50
  -8  -2   1   14.70    1.10
   8  -2  -1   12.60    1.20
   8  -2  -1   13.80    1.20
  -8   2   1   14.10    1.10
  -8   2   1   12.40    1.10
   8   2  -1   15.10    1.30
   8   2  -1   12.90    1.30
  -8   2   1   15.80    1.70
   8   2  -1   14.20    1.20
  -8   2   1   13.20    1.10
   8   2  -1   12.70    1.30
  -8   2   1   14.20    1.40
   7  -2  -1   79.19    2.70
  -7  -2   1   73.39    2.90
  -7  -2   1   79.59    3.00
   7  -2  -1   80.09    2.70
  -7  -2   1   76.29    2.80
  -7  -2   1   78.49    2.60
   7  -2  -1   78.49    2.90
  -7  -2   1   78.59    2.90
   7  -2  -1   73.69    2.70
   7   2  -1   77.99    2.90
  -7   2   1   76.49    2.70
  -7   2   1   76.09    3.10
  -7   2   1   76.29    2.70
  -7   2   1   76.59    2.90
   7   2  -1   86.49    2.80
   7   2  -1   77.89    3.00
   7   2  -1   78.39    2.90
  -7   2   1   79.89    2.70
  -6  -2   1   85.29    2.70
   6  -2  -1   84.29    2.90
  -6  -2   1   85.49    2.80
  -6  -2   1   83.29    2.90
   6  -2  -1   84.29    2.70
   6  -2  -1   87.59    2.80
  -6  -2   1   86.09    2.90
  -6  -2   1   90.99    3.10
   6  -2  -1   86.79    2.80
  -6   2   1   86.19    2.80
   6   2  -1   80.39    2.60
   6   2  -1   85.89    2.90
  -6   2   1   84.59    3.10
  -6   2   1   85.79    2.90
  -6   2   1   85.19    2.70
   6   2  -1   87.19    3.00
   6   2  -1   87.19    2.80
   6   2  -1   86.69    2.90
  -6   2   1   80.89    2.80
  -5  -2   1   19.70    1.20
   5  -2  -1   19.40    1.00
   5  -2  -1   19.50    1.10
   5  -2  -1   19.70    1.00
  -5  -2   1   21.50    1.20
   5  -2  -1   18.70    1.00
  -5  -2   1   19.40    1.00
  -5  -2   1   20.40    1.10
   5   2  -1   19.20    1.10
  -5   2   1   19.60    1.00
  -5   2   1   17.40    1.20
  -5   2   1   19.50    1.00
   5   2  -1   19.10    0.90
  -5   2   1   18.90    1.10
   5   2  -1   19.70    1.10
   5   2  -1   19.20    1.00
   5   2  -1   20.20    1.20
  -5   2   1   19.30    1.00
  -4  -2   1   53.69    1.80
   4  -2  -1   48.50    1.70
   4  -2  -1   49.30    1.60
   4  -2  -1   47.20    1.60
  -4  -2   1   51.79    1.60
  -4  -2   1   53.69    1.90
   4  -2  -1   49.70    1.70
  -4  -2   1   50.79    1.70
  -4   2   1   53.09    1.70
   4   2  -1   46.50    1.80
   4   2  -1   49.20    1.70
  -4   2   1   49.70    1.60
   4   2  -1   50.29    1.70
  -4   2   1   50.59    1.60
   4   2  -1   51.19    1.80
  -4   2   1   48.80    1.70
   4   2  -1   50.89    1.60
   3  -2  -1   52.09    1.60
  -3  -2   1   52.29    1.60
   3  -2  -1   51.89    1.50
  -3  -2   1   54.19    1.70
   3  -2  -1   47.70    1.60
   3  -2  -1   48.80    1.60
  -3  -2   1   53.59    1.70
  -3  -2   1   53.89    1.80
  -3   2   1   52.89    1.50
   3   2  -1   52.69    1.60
   3   2  -1   51.59    1.70
   3   2  -1   50.69    1.60
  -3   2   1   52.39    1.60
   3   2  -1   50.69    1.70
  -3   2   1   52.59    1.60
  -3   2   1   52.99    1.70
   3   2  -1   52.79    1.80
   2  -2  -1  278.37    7.60
   2  -2  -1  318.87    7.50
  -2  -2   1  318.47    7.80
  -2  -2   1  310.67    7.60
  -2  -2   1  316.37    7.70
  -2  -2   1  311.47    7.70
  -2  -2   1  334.17    7.70
   2  -2  -1  306.37    7.60
   2   2  -1  303.47    7.60
  -2   2   1  327.97    7.60
   2   2  -1  315.47    7.60
   2   2  -1  333.37    7.80
   2   2  -1  314.17    7.80
   2   2  -1  308.17    7.70
  -1  -2   1  750.92   48.80
   1  -2  -1  781.42   42.00
  -1   2   1  830.52   41.40
   1   2  -1  797.02   50.89
   0  -2   1 9105.99  266.17
   0  -2  -1 8877.11  242.48
   0   2  -1 9999.00  269.27
   0   2   1 9389.26  244.78
   1  -2   1 3233.18  126.59
  -1  -2  -1 3220.68  111.39
  -1   2  -1 3611.24  128.89
   1   2   1 3461.15  115.29
   2  -2   1  650.83   53.89
  -2   2  -1  660.33   52.49
   2   2   1  733.33   50.89
   3  -2   1  188.08    5.10
  -3  -2  -1  202.18    5.00
   3  -2   1  191.18    5.00
   3  -2   1  192.18    5.10
  -3  -2  -1  202.48    5.10
  -3  -2  -1  199.68    5.20
  -3  -2  -1  201.68    5.10
  -3  -2  -1  193.18    4.80
   3  -2   1  193.38    5.00
   3   2   1  192.68    5.00
   3   2   1  191.88    5.20
  -3   2  -1  194.28    5.00
  -3   2  -1  213.08    5.00
   3   2   1  195.18    5.10
  -3   2  -1  191.18    5.20
  -3   2  -1  195.48    5.10
   3   2   1  198.18    4.80
  -4  -2  -1   63.59    2.00
  -4  -2  -1   62.89    2.10
   4  -2   1   59.89    2.10
   4  -2   1   62.59    2.10
  -4  -2  -1   61.49    1.80
  -4  -2  -1   62.49    2.10
   4  -2   1   60.89    2.00
   4  -2   1   63.39    2.00
  -4  -2  -1   63.09    2.20
   4   2   1   63.09    2.20
  -4   2  -1   62.09    2.00
  -4   2  -1   67.49    2.10
  -4   2  -1   64.49    2.00
   4   2   1   62.69    2.00
   4   2   1   63.49    2.10
  -4   2  -1   63.29    2.30
  -5  -2  -1  184.08    5.20
   5  -2   1  184.38    5.10
   5  -2   1  176.78    5.10
  -5  -2  -1  186.88    5.20
  -5  -2  -1  182.98    5.00
   5  -2   1  180.88    5.00
  -5  -2  -1  187.68    4.80
  -5  -2  -1  186.28    5.20
   5  -2   1  181.98    5.00
  -5   2  -1  185.58    5.00
   5   2   1  185.48    5.00
  -5   2  -1  178.68    5.10
  -5   2  -1  188.18    5.40
   5   2   1  181.28    5.10
  -5   2  -1  183.68    5.00
  -5   2  -1  188.48    5.00
   5   2   1  187.38    5.30
   6  -2   1   16.80    1.20
   6  -2   1   17.20    1.30
  -6  -2  -1   17.50    1.30
   6  -2   1   19.90    1.20
  -6  -2  -1   18.20    1.30
  -6  -2  -1   18.40    1.30
  -6  -2  -1   18.90    1.10
  -6  -2  -1   18.40    0.90
   6  -2   1   17.80    1.20
  -6   2  -1   18.00    1.10
  -6   2  -1   15.80    1.10
  -6   2  -1   17.40    1.20
   6   2   1   16.60    1.30
  -6   2  -1   16.80    1.10
   6   2   1   18.50    1.20
   6   2   1   18.10    1.10
  -6   2  -1   16.50    1.40
   7  -2   1   16.60    1.30
  -7  -2  -1   17.80    1.40
  -7  -2  -1   16.60    1.20
  -7  -2  -1   16.30    0.90
  -7  -2  -1   14.50    1.30
   7  -2   1   15.80    1.30
   7  -2   1   16.60    1.20
  -7  -2  -1   15.80    1.30
   7  -2   1   16.60    1.30
  -7   2  -1   18.60    1.30
   7   2   1   14.20    1.30
  -7   2  -1   18.40    1.20
  -7   2  -1   16.40    1.30
   7   2   1   17.50    1.40
   7   2   1   14.20    1.20
  -7   2  -1   17.40    1.10
  -7   2  -1   17.00    1.50
   8  -2   1   11.60    1.20
  -8  -2  -1   12.60    1.50
  -8  -2  -1   14.40    1.50
   8  -2   1   12.30    1.20
  -8  -2  -1   11.60    0.90
  -8  -2  -1   11.00    1.30
  -8  -2  -1   12.40    1.20
   8  -2   1   12.50    1.30
   8  -2   1   14.20    1.50
  -8   2  -1   11.40    1.00
  -8   2  -1   11.40    1.10
  -8   2  -1   11.10    1.30
   8   2   1   11.80    1.40
   8   2   1   11.80    1.20
  -8   2  -1   11.80    1.20
   8   2   1   12.50    1.40
  -8   2  -1   12.50    1.50
   8   2   1   11.50    1.30
   9  -2   1   19.90    1.50
  -9  -2  -1   20.60    1.20
   9  -2   1   24.30    2.00
   9  -2   1   20.60    1.60
  -9   2  -1   20.50    1.60
  -9   2  -1   18.30    1.30
  -9   2  -1   26.20    1.80
   9   2   1   16.90    1.60
   9  -3  -1    5.60    1.00
   9  -3  -1    5.90    1.00
  -9  -3   1    4.40    0.70
   9  -3  -1    4.80    1.10
  -9  -3   1    6.50    1.10
  -9  -3   1    3.30    1.00
   9  -3  -1    4.60    0.80
   9   3  -1    4.90    1.10
  -9   3   1    6.10    0.90
  -9   3   1    5.50    1.10
   9   3  -1    4.90    0.90
  -9   3   1    5.10    0.90
  -8  -3   1   21.80    1.50
   8  -3  -1   22.30    1.30
   8  -3  -1   23.10    1.50
  -8  -3   1   23.50    1.70
   8  -3  -1   20.30    1.50
  -8  -3   1   21.20    1.80
  -8  -3   1   23.60    1.30
  -8  -3   1   21.10    1.60
   8  -3  -1   23.50    1.50
  -8   3   1   24.20    1.60
   8   3  -1   23.60    1.60
   8   3  -1   21.00    1.70
  -8   3   1   21.50    1.40
  -8   3   1   24.20    1.40
   8   3  -1   22.60    1.70
  -8   3   1   22.60    1.80
   8   3  -1   20.40    1.50
  -8   3   1   25.70    1.50
   7  -3  -1   53.39    2.00
   7  -3  -1   50.69    2.20
   7  -3  -1   52.69    2.10
  -7  -3   1   47.00    2.30
  -7  -3   1   47.40    2.20
  -7  -3   1   53.39    2.20
  -7  -3   1   54.19    2.00
   7  -3  -1   52.59    2.10
  -7  -3   1   50.99    2.30
  -7   3   1   51.69    2.10
   7   3  -1   49.99    2.30
   7   3  -1   51.79    2.10
   7   3  -1   52.79    2.00
  -7   3   1   48.90    2.00
  -7   3   1   53.29    2.30
  -7   3   1   51.39    2.00
   7   3  -1   49.10    2.20
  -7   3   1   51.59    2.50
   7   3  -1   54.19    2.40
   6  -3  -1   81.79    2.70
  -6  -3   1   79.79    2.60
  -6  -3   1   80.89    2.70
   6  -3  -1   81.09    2.60
  -6  -3   1   84.39    2.90
   6  -3  -1   82.59    2.50
  -6  -3   1   85.89    3.00
  -6  -3   1   79.39    2.80
   6  -3  -1   83.09    2.90
   6   3  -1   75.19    2.60
   6   3  -1   79.19    3.00
  -6   3   1   76.59    2.50
   6   3  -1   78.39    2.80
  -6   3   1   83.19    2.70
  -6   3   1   77.89    2.80
  -6   3   1   78.19    2.70
  -6   3   1   79.49    3.00
   6   3  -1   78.79    2.80
   6   3  -1   79.39    2.50
  -5  -3   1  201.88    5.40
  -5  -3   1  204.18    5.50
  -5  -3   1  205.28    5.70
   5  -3  -1  206.98    5.50
   5  -3  -1  208.48    5.40
  -5  -3   1  208.08    5.80
   5  -3  -1  206.58    5.30
  -5  -3   1  204.78    5.50
   5  -3  -1  218.88    5.60
  -5   3   1  200.38    5.40
   5   3  -1  203.38    5.60
  -5   3   1  206.48    5.30
   5   3  -1  201.48    5.30
   5   3  -1  206.38    5.80
   5   3  -1  190.58    5.40
  -5   3   1  202.68    5.60
   5   3  -1  199.28    5.70
  -5   3   1  207.88    5.80
  -5   3   1  206.38    5.60
  -4  -3   1   92.99    3.00
   4  -3  -1   92.99    2.80
  -4  -3   1   92.69    2.70
   4  -3  -1   92.49    2.80
  -4  -3   1   92.89    2.90
   4  -3  -1  101.89    2.60
  -4  -3   1   92.69    2.80
   4  -3  -1   96.39    2.70
   4   3  -1   97.69    2.70
   4   3  -1   93.79    2.80
  -4   3   1   95.39    2.90
   4   3  -1   90.89    2.80
   4   3  -1   95.99    3.00
  -4   3   1   98.39    2.60
  -4   3   1   92.89    2.80
   4   3  -1   92.89    2.90
  -4   3   1   97.39    2.70
  -4   3   1   97.39    3.00
  -3  -3   1  225.68    5.80
   3  -3  -1  222.28    5.70
  -3  -3   1  225.08    5.70
   3  -3  -1  226.98    5.40
  -3  -3   1  221.98    5.70
  -3  -3   1  219.58    5.90
   3  -3  -1  227.68    5.70
  -3   3   1  233.98    5.40
  -3   3   1  232.58    5.70
   3   3  -1  219.68    5.90
   3   3  -1  225.58    5.60
  -3   3   1  231.28    5.60
   3   3  -1  215.78    5.90
   3   3  -1  216.78    5.70
   3   3  -1  210.28    5.70
  -2  -3   1 1172.48   74.29
   2  -3  -1 1121.99   68.59
   2   3  -1 1229.18   78.59
  -2   3   1 1183.28   67.69
  -1  -3   1  615.14   15.00
   1  -3  -1  600.94   15.00
  -1  -3   1  606.44   15.10
  -1  -3   1  627.84   14.70
   1   3  -1  647.24   15.00
   1   3  -1  645.94   15.00
   1   3  -1  600.44   15.10
   1   3  -1  609.54   14.90
   1   3  -1  666.33   14.90
   0  -3   1  251.47    6.20
   0  -3  -1  249.48    6.10
   0  -3   1  257.47    6.10
   0  -3  -1  256.67    6.10
   0  -3   1  247.88    6.40
   0  -3   1  242.78    6.20
   0  -3  -1  250.97    6.30
   0  -3   1  246.58    6.10
   0  -3  -1  245.88    6.10
   0   3   1  263.67    6.10
   0   3  -1  217.98    6.20
   0   3  -1  252.87    6.20
   0   3   1  260.57    6.30
   0   3   1  263.47    6.10
   0   3  -1  256.47    6.10
   0   3  -1  258.37    6.30
   0   3  -1  248.78    6.30
   0   3   1  252.97    6.10
  -1  -3  -1  429.66   10.10
   1  -3   1  424.16   10.40
   1  -3   1  423.16   10.50
  -1  -3  -1  416.96   10.40
  -1  -3  -1  421.06   10.20
   1   3   1  428.66   10.20
  -1   3  -1  430.06   10.30
   1   3   1  420.46   10.20
   1   3   1  442.16   10.50
  -1   3  -1  422.06   10.40
  -2  -3  -1   30.20    1.10
  -2  -3  -1   29.60    1.00
   2  -3   1   28.70    1.20
   2  -3   1   30.90    1.20
   2  -3   1   30.70    0.90
  -2  -3  -1   29.70    1.20
  -2  -3  -1   31.50    1.10
   2   3   1   27.50    1.20
  -2   3  -1   30.10    1.10
  -2   3  -1   31.80    1.20
   2   3   1   29.50    1.10
  -2   3  -1   31.40    1.20
  -2   3  -1   31.70    1.10
   2   3   1   30.70    1.10
   2   3   1   30.60    1.00
   2   3   1   31.40    1.20
  -3  -3  -1   76.79    2.30
  -3  -3  -1   74.89    2.20
   3  -3   1   74.59    2.00
  -3  -3  -1   73.69    2.00
   3  -3   1   73.09    2.30
   3  -3   1   74.49    2.40
  -3  -3  -1   72.49    2.40
   3   3   1   72.29    2.40
   3   3   1   75.29    2.00
  -3   3  -1   79.29    2.30
   3   3   1   73.69    2.20
   3   3   1   67.79    2.20
   3   3   1   71.29    2.40
  -3   3  -1   72.79    2.20
  -3   3  -1   73.79    2.40
  -4  -3  -1   36.00    1.20
  -4  -3  -1   37.50    1.40
   4  -3   1   38.00    1.50
  -4  -3  -1   36.30    1.40
   4  -3   1   36.50    1.50
  -4  -3  -1   35.80    1.60
  -4  -3  -1   34.70    1.50
   4  -3   1   38.80    1.30
   4  -3   1   33.60    1.50
   4   3   1   35.50    1.50
   4   3   1   37.10    1.60
   4   3   1   36.90    1.60
  -4   3  -1   36.80    1.50
   4   3   1   38.90    1.40
  -4   3  -1   38.20    1.70
   4   3   1   37.30    1.20
  -4   3  -1   36.80    1.40
  -4   3  -1   36.70    1.30
  -5  -3  -1   27.70    1.50
  -5  -3  -1   28.90    1.30
   5  -3   1   30.80    1.50
  -5  -3  -1   26.00    1.40
  -5  -3  -1   28.00    1.40
   5  -3   1   28.40    1.40
   5  -3   1   26.50    1.50
   5  -3   1   27.40    1.20
  -5  -3  -1   27.80    1.10
   5   3   1   26.90    1.40
  -5   3  -1   26.90    1.30
  -5   3  -1   29.10    1.20
   5   3   1   27.30    1.10
   5   3   1   26.10    1.50
  -5   3  -1   29.00    1.40
  -5   3  -1   27.80    1.60
   5   3   1   28.50    1.30
  -5   3  -1   25.30    1.30
   5   3   1   27.10    1.50
   6  -3   1   59.09    2.30
   6  -3   1   53.89    2.00
  -6  -3  -1   52.89    2.30
  -6  -3  -1   56.29    2.10
  -6  -3  -1   53.29    2.20
  -6  -3  -1   55.09    1.80
  -6  -3  -1   55.19    2.40
   6  -3   1   56.19    2.20
   6  -3   1   54.39    2.20
  -6   3  -1   59.19    2.10
   6   3   1   56.29    2.20
   6   3   1   57.29    2.40
  -6   3  -1   56.59    2.20
  -6   3  -1   50.59    2.10
  -6   3  -1   53.69    2.10
   6   3   1   58.89    2.40
   6   3   1   58.49    2.10
  -6   3  -1   58.29    2.50
  -7  -3  -1    9.80    0.70
   7  -3   1    9.90    1.00
   7  -3   1    9.30    0.90
  -7  -3  -1    8.70    1.00
  -7  -3  -1   10.50    1.10
  -7  -3  -1    9.40    1.20
   7  -3   1   10.30    1.20
  -7  -3  -1    8.30    1.00
   7  -3   1    9.90    1.10
   7   3   1    7.60    1.00
  -7   3  -1   10.70    1.00
  -7   3  -1   11.20    1.40
   7   3   1   10.60    1.00
  -7   3  -1    7.20    0.80
   7   3   1    9.70    1.20
   7   3   1    8.70    1.10
  -7   3  -1    9.10    1.10
  -7   3  -1    9.70    0.90
   8  -3   1   13.90    1.20
   8  -3   1   13.80    1.40
   8  -3   1   15.90    1.40
  -8  -3  -1   13.80    1.50
   8  -3   1   15.60    1.50
  -8  -3  -1   13.70    1.30
  -8  -3  -1   14.90    1.40
  -8  -3  -1   15.40    1.50
  -8  -3  -1   15.00    0.90
  -8   3  -1   15.30    1.70
  -8   3  -1   14.10    1.10
   8   3   1   15.50    1.50
  -8   3  -1   14.40    1.30
   8   3   1   14.00    1.30
  -8   3  -1   11.50    1.30
   8   3   1   13.90    1.40
  -8   3  -1   13.90    1.20
   8   3   1   14.20    1.40
  -9  -3  -1    9.50    1.50
   9  -3   1   10.70    1.10
   9  -3   1   12.80    1.50
  -9  -3  -1   10.20    0.80
   9  -3   1   12.50    1.60
  -9   3  -1   10.20    1.10
  -9   3  -1   10.60    1.40
  -9  -4   1    4.00    0.90
  -9  -4   1    4.00    0.70
   9  -4  -1    5.50    1.10
   9  -4  -1    4.90    0.90
  -9   4   1    4.00    1.00
   9   4  -1    1.90    0.70
  -8  -4   1    1.60    0.70
   8  -4  -1    1.90    0.50
   8  -4  -1    1.10    0.60
  -8  -4   1    1.60    0.50
  -8  -4   1    0.70    0.60
   8  -4  -1    2.30    0.80
  -8  -4   1    1.40    0.80
  -8  -4   1    1.70    0.80
  -8   4   1    0.90    0.70
  -8   4   1    0.60    0.60
   8   4  -1    1.00    0.70
  -8   4   1    0.20    0.60
  -8   4   1    1.00    0.50
   8   4  -1    0.80    0.60
   8   4  -1    0.80    0.60
  -8   4   1    1.00    0.60
   8   4  -1    1.00    0.80
  -7  -4   1    5.00    0.70
  -7  -4   1    3.40    0.80
  -7  -4   1    4.80    1.00
   7  -4  -1    4.10    0.90
   7  -4  -1    4.40    0.60
  -7  -4   1    2.90    0.70
  -7  -4   1    3.20    0.70
   7  -4  -1    3.70    0.70
  -7   4   1    3.30    0.60
   7   4  -1    4.10    0.90
   7   4  -1    3.30    0.60
  -7   4   1    3.60    0.80
  -7   4   1    2.80    0.70
   7   4  -1    3.10    0.70
  -7   4   1    2.40    0.80
   7   4  -1    3.10    0.80
   7   4  -1    3.70    0.80
  -7   4   1    4.60    0.60
   6  -4  -1   10.00    0.90
  -6  -4   1    9.80    0.80
  -6  -4   1   10.80    1.10
  -6  -4   1    9.40    1.10
  -6  -4   1    8.50    0.90
   6  -4  -1    9.70    1.10
   6  -4  -1    9.30    0.70
  -6  -4   1    8.30    0.90
  -6   4   1   11.30    1.20
   6   4  -1    9.10    1.00
  -6   4   1    8.80    0.90
   6   4  -1   10.50    1.20
   6   4  -1    9.40    0.80
   6   4  -1   11.10    1.10
  -6   4   1    9.00    0.90
   6   4  -1    9.40    0.90
  -6   4   1    8.50    0.90
  -6   4   1    9.80    0.70
  -5  -4   1  243.78    6.60
   5  -4  -1  249.28    6.50
  -5  -4   1  245.58    6.30
   5  -4  -1  247.88    6.00
   5  -4  -1  243.68    6.50
  -5  -4   1  244.68    6.30
  -5  -4   1  238.28    6.40
  -5  -4   1  231.68    6.70
  -5   4   1  225.68    6.00
  -5   4   1  241.48    6.70
   5   4  -1  240.78    6.40
  -5   4   1  244.68    6.30
  -5   4   1  238.18    6.40
  -5   4   1  237.08    6.50
   5   4  -1  246.48    6.70
   5   4  -1  246.48    6.50
   5   4  -1  235.08    6.20
   5   4  -1  231.78    6.70
  -4  -4   1   23.90    1.30
  -4  -4   1   25.70    1.30
  -4  -4   1   29.40    1.30
   4  -4  -1   25.00    1.20
   4  -4  -1   26.60    0.80
  -4  -4   1   26.30    1.20
   4  -4  -1   27.50    1.30
  -4   4   1   27.20    1.20
   4   4  -1   25.70    1.10
   4   4  -1   24.10    1.30
  -4   4   1   24.40    1.30
   4   4  -1   26.30    1.30
  -4   4   1   27.70    1.20
   4   4  -1   25.40    1.40
   4   4  -1   26.60    1.20
   3  -4  -1   33.90    1.40
  -3  -4   1   35.50    1.30
   3  -4  -1   33.50    1.30
  -3  -4   1   34.30    1.40
  -3  -4   1   32.30    1.30
  -3  -4   1   34.20    1.40
   3   4  -1   34.80    1.50
  -3   4   1   34.60    1.40
  -3   4   1   33.90    1.30
   3   4  -1   33.50    1.30
   3   4  -1   34.00    1.40
  -3   4   1   33.40    1.30
   3   4  -1   36.30    1.30
   3   4  -1   33.10    1.50
  -3   4   1   35.50    1.30
  -2  -4   1   86.29    2.50
  -2  -4   1   82.69    2.60
   2  -4  -1   85.69    2.60
  -2  -4   1   86.39    2.70
  -2  -4   1   85.09    2.60
  -2  -4   1   84.99    2.20
   2   4  -1   87.29    2.60
  -2   4   1   87.49    2.50
  -2   4   1   87.49    2.60
   2   4  -1   90.59    2.50
   2   4  -1   82.39    2.50
   2   4  -1   90.69    2.60
   2   4  -1   86.89    2.70
   2   4  -1   83.99    2.50
  -2   4   1   87.59    2.40
  -1  -4   1  318.47    7.90
   1  -4  -1  309.67    7.90
  -1  -4   1  310.67    8.00
   1  -4  -1  315.17    7.50
  -1  -4   1  321.97    7.50
   1  -4  -1  292.07    7.70
  -1  -4   1  309.37    7.80
  -1  -4   1  314.07    7.80
  -1   4   1  313.57    7.90
   1   4  -1  316.97    7.80
   1   4  -1  318.27    7.90
  -1   4   1  327.37    7.70
  -1   4   1  314.07    7.70
   1   4  -1  316.67    8.00
   1   4  -1  309.27    7.80
   1   4  -1  317.97    7.90
   1   4  -1  324.77    7.80
  -1   4   1  323.17    7.70
   0  -4   1   53.89    1.80
   0  -4  -1   54.29    1.60
   0  -4   1   56.29    1.60
   0  -4  -1   55.69    1.60
   0  -4   1   54.09    1.60
   0  -4   1   54.79    1.90
   0  -4  -1   55.39    1.90
   0  -4   1   56.99    1.80
   0  -4  -1   53.89    1.60
   0   4   1   57.09    1.90
   0   4   1   54.69    1.60
   0   4  -1   54.99    1.70
   0   4   1   54.99    1.60
   0   4  -1   54.19    1.80
   0   4  -1   55.19    1.90
   0   4  -1   54.19    1.70
   0   4   1   55.59    1.60
   0   4   1   57.89    1.40
   0   4   1   53.09    1.60
   0   4  -1   56.49    1.60
   1  -4   1    7.30    0.60
  -1  -4  -1    6.20    0.50
   1  -4   1    7.40    0.60
   1  -4   1    6.90    0.40
  -1  -4  -1    6.40    0.70
  -1  -4  -1    7.20    0.60
   1  -4   1    8.50    0.80
  -1   4  -1    7.30    0.60
   1   4   1    7.80    0.60
  -1   4  -1    6.70    0.50
  -1   4  -1    7.50    0.60
  -1   4  -1    6.90    0.70
   1   4   1    7.10    0.50
   1   4   1    6.90    0.70
   1   4   1    6.70    0.60
   1   4   1    7.40    0.50
   2  -4   1  263.57    6.40
   2  -4   1  254.87    6.80
  -2  -4  -1  276.87    6.60
   2  -4   1  272.87    6.90
  -2  -4  -1  259.77    6.70
  -2  -4  -1  267.17    6.30
  -2  -4  -1  263.17    6.80
   2   4   1  264.57    6.60
   2   4   1  265.17    6.80
  -2   4  -1  276.87    6.80
  -2   4  -1  269.07    6.80
  -2   4  -1  271.57    6.70
   2   4   1  233.58    6.50
  -2   4  -1  267.37    6.90
   2   4   1  270.07    6.60
   2   4   1  262.27    7.00
  -3  -4  -1  114.59    3.40
  -3  -4  -1  116.49    3.50
   3  -4   1  115.69    3.50
  -3  -4  -1  119.09    3.30
  -3  -4  -1  121.89    3.10
   3  -4   1  114.59    3.50
   3  -4   1  120.39    3.00
  -3   4  -1  118.89    3.30
   3   4   1  115.99    3.30
  -3   4  -1  117.79    3.40
   3   4   1  120.09    3.30
   3   4   1  120.19    3.10
   3   4   1  126.09    3.60
   3   4   1  119.49    3.60
  -3   4  -1  117.19    3.50
   4  -4   1   66.29    2.40
  -4  -4  -1   72.49    2.20
  -4  -4  -1   69.89    2.30
   4  -4   1   68.89    2.50
   4  -4   1   74.29    2.10
  -4  -4  -1   71.29    2.40
  -4  -4  -1   70.19    2.50
   4   4   1   71.69    2.50
   4   4   1   66.79    2.20
  -4   4  -1   73.09    2.30
   4   4   1   70.79    2.30
  -4   4  -1   68.89    2.50
   4   4   1   71.29    2.60
  -4   4  -1   71.49    2.40
   4   4   1   71.29    2.00
  -5  -4  -1   34.90    1.50
  -5  -4  -1   37.00    1.70
   5  -4   1   36.90    1.40
  -5  -4  -1   36.70    1.50
   5  -4   1   37.50    1.80
  -5  -4  -1   36.50    1.80
  -5  -4  -1   36.10    1.30
   5  -4   1   36.70    1.70
   5   4   1   36.10    1.60
  -5   4  -1   34.90    1.70
   5   4   1   34.90    1.80
   5   4   1   34.90    1.30
   5   4   1   37.30    1.80
  -5   4  -1   34.20    1.50
  -5   4  -1   37.30    1.90
   5   4   1   36.70    1.50
  -6  -4  -1   26.80    1.70
  -6  -4  -1   27.50    1.50
  -6  -4  -1   29.00    1.50
  -6  -4  -1   27.20    1.20
  -6  -4  -1   28.10    1.60
   6  -4   1   28.50    1.70
   6  -4   1   27.80    1.30
   6  -4   1   26.90    1.60
  -6   4  -1   27.70    1.60
  -6   4  -1   27.10    1.40
   6   4   1   27.10    1.10
  -6   4  -1   29.90    1.80
   6   4   1   28.40    1.70
  -6   4  -1   27.70    1.50
   6   4   1   28.00    1.40
   6   4   1   30.50    1.80
   6   4   1   27.10    1.50
  -7  -4  -1   31.50    2.00
   7  -4   1   30.30    1.40
   7  -4   1   31.30    1.90
  -7  -4  -1   30.40    1.80
  -7  -4  -1   29.30    1.30
  -7  -4  -1   30.50    1.60
  -7  -4  -1   30.80    1.70
   7  -4   1   27.90    1.70
   7   4   1   27.50    1.90
  -7   4  -1   27.40    1.60
   7   4   1   28.40    1.70
  -7   4  -1   28.40    1.60
   7   4   1   30.50    1.90
  -7   4  -1   27.00    1.70
  -7   4  -1   28.60    2.00
   7   4   1   30.30    1.70
  -8  -4  -1    2.60    0.80
  -8  -4  -1    2.70    0.50
  -8  -4  -1    1.80    0.70
   8  -4   1    4.80    1.00
   8  -4   1    2.60    0.60
   8  -4   1    3.30    0.90
  -8  -4  -1    2.70    0.90
  -8   4  -1    3.30    0.90
   8   4   1    0.90    0.70
   8   4   1    1.70    0.70
  -8   4  -1    2.40    0.60
  -8  -5   1   16.70    1.10
  -8  -5   1   17.70    1.40
   8  -5  -1   17.80    1.40
  -8  -5   1   16.30    1.50
   8  -5  -1   16.40    1.50
  -8  -5   1   14.70    1.30
   8   5  -1   14.60    1.40
   8   5  -1   16.20    1.50
  -8   5   1   16.00    1.40
   8   5  -1   15.40    1.10
  -8   5   1   15.40    1.30
  -7  -5   1    2.30    0.70
   7  -5  -1    3.40    0.70
  -7  -5   1    3.10    0.70
   7  -5  -1    2.20    0.80
  -7  -5   1    2.50    0.60
  -7  -5   1    3.90    0.90
  -7  -5   1    3.90    0.70
  -7   5   1    3.50    0.80
   7   5  -1    2.30    0.80
  -7   5   1    2.70    0.60
  -7   5   1    1.70    0.70
   7   5  -1    2.70    0.80
  -7   5   1    3.00    0.70
   7   5  -1    2.20    0.50
   7   5  -1    3.70    0.80
   7   5  -1    3.50    0.70
  -6  -5   1    1.10    0.40
  -6  -5   1    1.80    0.70
   6  -5  -1    2.00    0.60
  -6  -5   1    1.90    0.50
  -6  -5   1    1.80    0.60
  -6  -5   1    2.00    0.80
   6  -5  -1    1.40    0.60
   6   5  -1    1.30    0.50
  -6   5   1    1.30    0.60
  -6   5   1    1.80    0.60
   6   5  -1    1.60    0.40
   6   5  -1    2.20    0.70
  -6   5   1    0.90    0.60
  -6   5   1    1.80    0.60
   6   5  -1    1.20    0.60
   6   5  -1    1.80    0.60
  -5  -5   1  103.79    3.00
  -5  -5   1  104.09    3.40
   5  -5  -1  105.69    3.30
  -5  -5   1  101.89    3.10
  -5  -5   1   96.69    3.20
  -5  -5   1  103.99    3.50
   5  -5  -1  101.79    3.30
  -5   5   1  104.49    3.30
   5   5  -1   99.79    3.50
   5   5  -1  101.49    3.50
   5   5  -1  109.09    3.20
   5   5  -1  104.89    3.30
  -5   5   1  103.19    3.50
   5   5  -1   97.19    3.00
  -5   5   1  102.09    3.10
   4  -5  -1  197.98    5.40
  -4  -5   1  196.08    5.30
  -4  -5   1  201.08    5.50
   4  -5  -1  191.18    5.40
  -4  -5   1  196.18    5.50
  -4  -5   1  202.38    5.00
   4   5  -1  199.98    5.30
   4   5  -1  198.98    5.70
  -4   5   1  185.58    5.30
   4   5  -1  198.58    5.60
  -4   5   1  180.68    5.40
   4   5  -1  199.08    5.20
   4   5  -1  196.18    5.40
  -4   5   1  190.68    5.20
  -3  -5   1   62.19    2.30
  -3  -5   1   61.99    2.20
   3  -5  -1   59.29    2.00
  -3  -5   1   58.69    2.10
   3  -5  -1   62.69    2.20
  -3  -5   1   59.69    1.70
  -3  -5   1   63.79    2.00
   3   5  -1   61.09    2.10
   3   5  -1   60.29    2.00
   3   5  -1   58.19    2.30
   3   5  -1   57.79    2.00
  -3   5   1   58.69    2.10
  -3   5   1   61.19    1.90
   3   5  -1   61.39    2.20
  -3   5   1   59.49    2.00
   3   5  -1   59.39    2.20
  -3   5   1   62.39    2.10
  -2  -5   1  326.77    8.30
   2  -5  -1  328.67    8.40
  -2  -5   1  330.77    8.20
  -2  -5   1  311.37    8.30
  -2  -5   1  318.87    8.50
  -2  -5   1  323.77    7.80
  -2   5   1  329.87    8.10
   2   5  -1  320.67    8.20
  -2   5   1  330.87    8.20
   2   5  -1  333.27    8.30
   2   5  -1  325.17    8.30
  -2   5   1  331.97    8.20
   2   5  -1  332.47    8.20
   2   5  -1  318.97    8.20
  -2   5   1  327.97    8.30
   2   5  -1  329.57    8.50
   1  -5  -1    8.10    0.70
   1  -5  -1    6.80    0.60
  -1  -5   1    8.20    0.60
  -1  -5   1    6.70    0.70
  -1  -5   1    7.60    0.80
  -1  -5   1    7.60    0.30
   1  -5  -1    7.60    0.40
  -1   5   1    7.80    0.60
   1   5  -1    8.30    0.70
  -1   5   1    7.90    0.50
   1   5  -1    7.20    0.60
  -1   5   1    8.00    0.60
  -1   5   1    7.80    0.70
   1   5  -1    7.50    0.60
   1   5  -1    7.70    0.80
   1   5  -1    7.20    0.60
   0  -5  -1   19.10    0.80
   0  -5  -1   17.80    1.10
   0  -5  -1   17.10    0.80
   0  -5   1   18.40    1.00
   0  -5   1   19.40    0.80
   0  -5   1   18.20    0.90
   0  -5   1   18.20    1.10
   0  -5  -1   18.80    0.80
   0   5  -1   20.70    0.80
   0   5   1   20.30    0.80
   0   5   1   19.40    0.60
   0   5  -1   19.70    1.10
   0   5  -1   18.20    0.90
   0   5  -1   18.30    0.90
   0   5  -1   18.30    0.90
   0   5   1   19.60    0.90
   0   5   1   18.90    0.80
   0   5   1   19.50    1.10
   0   5   1   19.00    0.90
  -1  -5  -1   27.40    1.10
  -1  -5  -1   23.60    1.30
   1  -5   1   25.50    1.20
  -1  -5  -1   26.50    1.10
   1  -5   1   26.00    0.90
   1  -5   1   26.60    1.30
   1   5   1   28.60    1.10
  -1   5  -1   27.20    1.10
   1   5   1   26.60    1.10
   1   5   1   26.80    1.00
  -1   5  -1   28.20    1.20
  -1   5  -1   26.20    1.30
   1   5   1   27.10    1.30
   1   5   1   26.60    1.10
  -1   5  -1   26.20    1.20
  -2  -5  -1   89.29    2.80
  -2  -5  -1   90.59    2.50
   2  -5   1   93.29    2.30
   2  -5   1   91.69    2.80
   2  -5   1   91.89    2.90
  -2  -5  -1   89.79    2.70
   2   5   1   90.69    2.60
   2   5   1   91.99    2.70
  -2   5  -1   94.19    2.80
   2   5   1   92.19    2.60
  -2   5  -1   89.79    2.80
   2   5   1   92.49    2.70
   2   5   1   92.29    2.80
  -2   5  -1   88.79    2.90
   2   5   1   91.39    3.00
  -2   5  -1   84.09    2.70
  -3  -5  -1  103.19    3.10
   3  -5   1  105.59    3.20
  -3  -5  -1  102.69    3.20
   3  -5   1   99.49    3.30
   3  -5   1  104.39    2.60
  -3  -5  -1  101.09    2.70
  -3  -5  -1  105.39    2.90
   3   5   1  104.89    3.10
   3   5   1  103.39    3.20
  -3   5  -1  101.89    3.00
  -3   5  -1  103.09    3.10
  -3   5  -1  101.99    3.20
   3   5   1  104.39    3.40
   3   5   1  105.99    3.00
   3   5   1  104.99    2.90
  -3   5  -1  103.99    3.20
  -4  -5  -1  131.49    3.50
   4  -5   1  134.79    4.00
  -4  -5  -1  127.69    4.00
  -4  -5  -1  114.59    3.80
   4  -5   1  131.19    3.40
   4  -5   1  119.19    4.00
  -4  -5  -1  134.49    3.70
  -4   5  -1  135.89    4.10
   4   5   1  135.99    4.10
  -4   5  -1  131.69    3.90
   4   5   1  129.79    3.70
   4   5   1  139.39    4.20
   4   5   1  141.19    3.90
  -4   5  -1  130.39    3.80
   4   5   1  130.69    3.50
  -5  -5  -1    7.20    0.90
   5  -5   1    7.30    0.90
  -5  -5  -1    6.40    0.80
   5  -5   1    7.40    0.60
   5  -5   1    6.00    0.90
  -5  -5  -1    9.00    1.10
  -5  -5  -1    6.70    0.70
   5   5   1   10.50    1.20
   5   5   1    8.10    0.90
  -5   5  -1    8.80    0.90
   5   5   1    7.30    0.60
   5   5   1    7.30    0.80
  -5   5  -1    7.20    0.90
  -5   5  -1    6.30    0.90
   5   5   1    8.60    1.00
   6  -5   1    2.70    0.70
   6  -5   1    2.40    0.80
  -6  -5  -1    3.00    0.60
  -6  -5  -1    2.00    0.60
   6  -5   1    1.80    0.40
  -6  -5  -1    2.40    0.50
  -6  -5  -1    1.50    0.70
   6   5   1    3.20    0.70
   6   5   1    1.90    0.40
  -6   5  -1    2.50    0.70
  -6   5  -1    0.80    0.50
  -6   5  -1    2.20    0.70
   6   5   1    1.40    0.60
   6   5   1    1.70    0.60
  -6   5  -1    2.00    0.60
   6   5   1    3.40    0.80
  -7  -5  -1    3.10    0.70
  -7  -5  -1    4.00    0.90
  -7  -5  -1    2.60    0.70
   7  -5   1    3.70    0.90
  -7  -5  -1    2.60    0.90
   7  -5   1    4.70    1.00
   7  -5   1    3.70    0.60
   7   5   1    1.90    0.80
   7   5   1    4.20    1.00
  -7   5  -1    2.60    0.70
  -7   5  -1    3.70    0.90
  -7   5  -1    3.70    0.80
  -7   5  -1    3.40    0.70
   7   5   1    2.40    0.70
   7   5   1    2.80    0.70
   8  -5   1   30.50    2.00
  -8  -5  -1   29.00    1.70
  -8  -5  -1   25.30    1.70
   8  -5   1   27.90    1.40
   8  -5   1   28.20    2.00
   8   5   1   23.80    2.00
  -8   5  -1   23.80    1.60
  -8   5  -1   28.20    1.90
  -8  -6   1    4.70    0.80
   8  -6  -1    7.20    1.10
   8  -6  -1    5.20    1.00
  -8  -6   1    4.70    0.80
   8   6  -1    5.00    1.10
   8   6  -1    5.30    0.70
  -8   6   1    4.90    1.00
   7  -6  -1    4.60    0.90
   7  -6  -1    4.20    0.90
  -7  -6   1    4.10    0.90
  -7  -6   1    2.80    0.90
  -7  -6   1    4.20    0.70
  -7  -6   1    3.40    0.70
   7   6  -1    3.90    0.90
  -7   6   1    3.10    0.70
  -7   6   1    4.30    0.80
   7   6  -1    4.90    0.70
   7   6  -1    3.20    0.80
  -7   6   1    2.20    0.70
   7   6  -1    2.70    0.80
   7   6  -1    4.00    0.90
  -7   6   1    4.70    1.00
  -6  -6   1    9.60    0.80
   6  -6  -1    8.40    1.00
   6  -6  -1    9.70    1.10
  -6  -6   1   11.80    1.40
  -6  -6   1   10.20    1.10
  -6  -6   1    8.20    1.00
  -6   6   1   10.70    1.10
  -6   6   1    9.20    1.00
   6   6  -1   11.10    1.10
   6   6  -1    9.80    0.80
   6   6  -1   12.60    1.40
  -6   6   1   10.50    1.20
   6   6  -1    9.40    1.10
   6   6  -1   12.10    1.20
  -6   6   1    9.20    0.90
  -5  -6   1    7.60    0.90
  -5  -6   1    6.60    0.60
  -5  -6   1    7.50    1.00
   5  -6  -1    6.30    0.90
  -5  -6   1    5.90    0.90
   5  -6  -1    5.80    0.80
   5   6  -1    8.20    1.10
   5   6  -1    6.60    0.80
  -5   6   1    4.80    0.70
   5   6  -1    7.50    0.70
   5   6  -1    5.50    0.80
   5   6  -1    8.60    1.10
  -5   6   1    6.10    0.90
  -5   6   1    5.60    0.70
  -4  -6   1  126.09    3.90
  -4  -6   1  134.39    3.30
   4  -6  -1  124.09    3.80
   4  -6  -1  123.29    3.90
  -4  -6   1  122.69    3.90
  -4  -6   1  124.79    3.30
  -4  -6   1  122.89    3.70
  -4   6   1  124.69    3.70
  -4   6   1  125.39    3.90
  -4   6   1  131.09    3.60
   4   6  -1  115.19    3.80
   4   6  -1  118.09    4.10
   4   6  -1  128.49    3.70
   4   6  -1  122.49    3.80
   4   6  -1  118.19    3.90
   4   6  -1  118.29    3.60
  -3  -6   1   33.50    1.40
   3  -6  -1   38.00    1.70
  -3  -6   1   34.60    1.60
  -3  -6   1   35.20    1.00
  -3  -6   1   34.80    1.00
  -3  -6   1   35.50    1.60
  -3  -6   1   34.50    1.70
   3  -6  -1   37.20    1.50
   3   6  -1   35.80    1.70
   3   6  -1   33.40    1.40
   3   6  -1   36.80    1.50
  -3   6   1   31.80    1.40
   3   6  -1   32.90    1.50
  -3   6   1   33.70    1.50
  -3   6   1   34.30    1.60
   3   6  -1   35.40    1.80
  -3   6   1   35.00    1.40
   3   6  -1   33.40    1.60
  -2  -6   1   25.50    1.40
  -2  -6   1   27.60    1.30
   2  -6  -1   25.50    1.40
  -2  -6   1   26.10    1.10
  -2  -6   1   25.00    1.20
  -2   6   1   23.10    1.10
   2   6  -1   25.10    1.40
   2   6  -1   24.80    1.20
  -2   6   1   26.20    1.30
   2   6  -1   25.20    1.20
   2   6  -1   25.30    1.30
   2   6  -1   24.10    1.30
  -2   6   1   25.20    1.20
  -2   6   1   24.60    1.10
   2   6  -1   25.50    1.20
  -1  -6   1  181.38    4.90
  -1  -6   1  188.08    5.00
  -1  -6   1  177.78    5.20
   1  -6  -1  181.58    4.50
   1  -6  -1  178.58    5.20
   1  -6  -1  184.48    4.90
  -1   6   1  185.58    5.20
  -1   6   1  185.78    4.90
   1   6  -1  184.78    5.30
   1   6  -1  183.78    4.90
  -1   6   1  179.18    4.80
   1   6  -1  184.38    5.00
   1   6  -1  187.38    5.10
  -1   6   1  183.08    4.70
   1   6  -1  183.88    5.00
   0  -6   1    2.50    0.50
   0  -6  -1    2.50    0.40
   0  -6  -1    1.70    0.50
   0  -6   1    2.60    0.40
   0  -6  -1    2.80    0.40
   0  -6   1    2.50    0.60
   0   6  -1    2.90    0.50
   0   6  -1    3.30    0.50
   0   6   1    2.40    0.40
   0   6   1    3.50    0.40
   0   6  -1    2.90    0.60
   0   6  -1    3.20    0.30
   0   6   1    3.20    0.60
   0   6  -1    2.10    0.50
   0   6   1    2.80    0.40
   0   6   1    2.50    0.40
   0   6   1    2.80    0.20
   1  -6   1  142.69    4.10
   1  -6   1  141.49    3.60
  -1  -6  -1  138.49    3.90
  -1  -6  -1  144.29    4.30
  -1  -6  -1  145.79    3.90
   1  -6   1  145.19    4.30
  -1   6  -1  144.79    3.80
   1   6   1  141.99    3.90
   1   6   1  141.29    3.90
   1   6   1  138.19    3.90
  -1   6  -1  147.49    4.10
  -1   6  -1  139.09    4.00
   1   6   1  141.29    4.30
  -1   6  -1  141.19    4.20
   1   6   1  140.59    3.90
   2  -6   1   10.70    1.00
   2  -6   1    9.00    0.80
  -2  -6  -1    9.80    0.80
   2  -6   1    9.90    0.40
  -2  -6  -1    9.40    1.00
   2  -6   1   10.30    0.40
  -2  -6  -1    9.70    0.80
   2   6   1   10.20    0.80
   2   6   1   10.30    0.80
   2   6   1   10.20    0.90
  -2   6  -1   10.50    0.80
   2   6   1    9.10    0.80
   2   6   1    9.50    1.00
  -2   6  -1   10.60    0.90
   2   6   1   10.30    0.80
  -2   6  -1   10.70    0.90
  -2   6  -1   10.30    0.90
  -3  -6  -1   38.90    1.40
  -3  -6  -1   35.60    1.60
   3  -6   1   38.70    1.70
   3  -6   1   38.00    1.80
  -3  -6  -1   36.40    1.70
   3   6   1   35.40    1.90
   3   6   1   38.20    1.50
   3   6   1   36.10    1.50
  -3   6  -1   37.10    1.70
   3   6   1   36.70    1.40
  -3   6  -1   37.80    1.60
   3   6   1   39.60    1.70
  -3   6  -1   38.50    1.60
   3   6   1   37.60    1.60
  -3   6  -1   36.90    1.70
  -4  -6  -1   24.00    0.90
  -4  -6  -1   25.10    1.50
   4  -6   1   22.50    1.50
  -4  -6  -1   26.00    1.40
   4  -6   1   26.20    1.50
  -4  -6  -1   24.70    1.20
   4   6   1   27.10    1.50
   4   6   1   24.80    1.30
   4   6   1   26.10    1.30
  -4   6  -1   25.70    1.50
  -4   6  -1   24.80    1.40
   4   6   1   24.00    1.10
  -4   6  -1   26.60    1.30
   5  -6   1    5.80    0.40
   5  -6   1    5.80    0.90
  -5  -6  -1    6.40    0.70
  -5  -6  -1    6.30    0.90
   5  -6   1    6.90    1.00
  -5  -6  -1    5.20    0.90
  -5  -6  -1    6.20    0.60
  -5   6  -1    5.70    0.80
   5   6   1    5.80    0.80
   5   6   1    6.40    1.00
  -5   6  -1    8.10    1.10
   5   6   1    5.80    0.60
  -5   6  -1    5.70    0.80
   5   6   1    5.80    0.90
   5   6   1    7.80    0.90
  -6  -6  -1    8.90    0.80
   6  -6   1    7.60    1.10
  -6  -6  -1    6.90    0.80
  -6  -6  -1    6.40    1.00
   6  -6   1    6.60    0.50
  -6  -6  -1    6.50    1.10
   6  -6   1    5.20    0.90
   6   6   1    7.80    1.00
  -6   6  -1    7.30    0.90
   6   6   1    5.70    0.90
  -6   6  -1    7.10    1.00
   6   6   1    6.50    1.10
   6   6   1    6.70    1.10
  -6   6  -1    8.10    1.20
   6   6   1    6.10    0.60
  -7  -6  -1   17.40    2.10
  -7  -6  -1   19.00    1.60
  -7  -6  -1   19.40    1.30
  -7  -6  -1   20.30    1.40
   7  -6   1   19.30    1.70
   7  -6   1   21.70    1.70
   7  -6   1   18.10    0.90
   7   6   1   16.30    2.10
  -7   6  -1   18.90    1.50
   7   6   1   20.10    1.00
   7   6   1   18.70    1.50
  -7   6  -1   17.60    1.40
   7   6   1   18.70    1.50
  -7   6  -1   18.70    1.80
   7   6   1   18.80    1.70
  -7   6  -1   20.70    1.60
   8  -6   1    2.80    1.00
  -8  -6  -1    2.10    0.60
   8  -6   1    3.80    1.00
  -8  -6  -1    3.20    0.80
  -8   6  -1    2.40    0.80
  -8  -7   1    1.50    0.70
   8  -7  -1    1.80    0.80
   8  -7  -1    1.50    1.00
  -8  -7   1    1.10    0.50
  -8   7   1    1.00    0.70
   8   7  -1    1.70    0.50
  -7  -7   1    3.90    0.80
  -7  -7   1    3.00    1.00
  -7  -7   1    2.00    0.50
   7  -7  -1    4.30    1.00
   7  -7  -1    3.00    0.80
  -7   7   1    3.30    0.70
  -7   7   1    3.90    1.00
  -7   7   1    4.70    0.90
   7   7  -1    3.50    0.90
   7   7  -1    2.90    0.80
   7   7  -1    2.70    0.60
  -6  -7   1    4.70    0.60
   6  -7  -1    5.10    0.90
   6  -7  -1    6.20    1.00
  -6  -7   1    4.30    1.00
  -6  -7   1    6.90    0.90
  -6  -7   1    5.30    1.00
   6   7  -1    5.10    0.70
   6   7  -1    5.10    1.10
  -6   7   1    4.80    0.80
  -6   7   1    4.20    0.90
  -6   7   1    5.30    0.90
   6   7  -1    6.00    1.00
   6   7  -1    5.20    1.00
  -6   7   1    5.10    0.90
   6   7  -1    6.70    0.90
   6   7  -1    4.30    1.00
   5  -7  -1    7.10    1.00
  -5  -7   1    6.10    0.90
  -5  -7   1    4.10    0.70
  -5  -7   1    6.00    0.50
  -5  -7   1    5.50    0.90
  -5  -7   1    6.10    0.50
   5  -7  -1    5.70    0.80
   5   7  -1    5.50    1.00
   5   7  -1    5.00    1.00
  -5   7   1    5.60    0.80
  -5   7   1    4.60    0.70
   5   7  -1    6.90    0.90
  -5   7   1    4.90    0.90
   5   7  -1    7.20    0.90
   5   7  -1    4.70    0.70
   5   7  -1    6.40    1.00
  -4  -7   1    3.00    0.80
   4  -7  -1    3.10    0.70
  -4  -7   1    2.70    0.60
  -4  -7   1    2.10    0.60
   4  -7  -1    3.30    0.80
  -4   7   1    3.20    0.60
   4   7  -1    3.10    0.80
  -4   7   1    3.80    0.70
   4   7  -1    2.80    0.70
  -4   7   1    2.80    0.70
  -4   7   1    2.90    0.60
   4   7  -1    1.90    0.60
   4   7  -1    2.50    0.80
   4   7  -1    2.60    0.60
   4   7  -1    3.20    0.60
  -3  -7   1   48.30    1.80
  -3  -7   1   49.40    2.00
   3  -7  -1   47.30    2.10
  -3  -7   1   48.30    2.20
  -3  -7   1   48.60    2.00
   3   7  -1   48.10    2.10
  -3   7   1   49.00    1.80
  -3   7   1   46.50    1.90
   3   7  -1   49.60    2.00
  -3   7   1   48.30    1.90
  -3   7   1   44.50    2.00
   3   7  -1   50.89    1.90
   3   7  -1   46.60    2.00
   3   7  -1   46.90    2.20
  -3   7   1   44.40    1.80
   3   7  -1   49.90    2.00
   2  -7  -1   66.49    2.50
  -2  -7   1   64.19    2.30
  -2  -7   1   64.79    2.30
  -2  -7   1   59.19    2.50
   2  -7  -1   51.59    2.50
  -2   7   1   63.49    2.10
   2   7  -1   62.19    2.30
  -2   7   1   57.59    2.10
   2   7  -1   61.49    2.60
  -2   7   1   58.29    2.10
  -2   7   1   62.99    2.40
   2   7  -1   63.79    2.30
   2   7  -1   62.99    2.20
   2   7  -1   61.99    2.20
   1  -7  -1   11.40    0.80
   1  -7  -1    9.80    1.00
  -1  -7   1   11.80    0.80
   1  -7  -1   10.50    0.50
  -1  -7   1    9.30    0.90
  -1  -7   1   10.10    1.10
   1   7  -1    9.70    1.00
  -1   7   1   10.80    0.80
   1   7  -1   10.70    0.90
  -1   7   1   11.10    1.10
   1   7  -1   11.80    0.90
   1   7  -1    9.90    0.90
  -1   7   1    9.60    0.80
  -1   7   1   11.00    0.60
   1   7  -1   10.40    1.00
   0  -7   1    6.10    0.70
   0  -7  -1    6.60    0.60
   0  -7   1    6.40    0.60
   0  -7  -1    3.80    0.70
   0  -7   1    6.70    1.00
   0   7  -1    5.90    0.70
   0   7   1    5.90    0.60
   0   7   1    5.20    0.80
   0   7  -1    5.80    0.80
   0   7  -1    5.50    0.50
   0   7   1    6.20    0.70
   0   7  -1    5.60    0.70
   0   7   1    6.40    0.70
   0   7  -1    5.40    0.70
  -1  -7  -1    3.30    0.50
   1  -7   1    2.60    0.70
   1  -7   1    3.50    0.40
  -1  -7  -1    3.90    0.70
   1  -7   1    4.00    0.70
  -1  -7  -1    3.10    0.50
   1   7   1    3.70    0.70
   1   7   1    3.20    0.50
   1   7   1    3.50    0.60
  -1   7  -1    3.40    0.60
  -1   7  -1    4.20    0.70
  -1   7  -1    3.50    0.50
   1   7   1    3.40    0.50
   1   7   1    4.10    0.60
   1   7   1    4.00    0.60
  -1   7  -1    4.30    0.80
  -1   7  -1    3.80    0.60
  -2  -7  -1   11.60    0.90
   2  -7   1   12.50    0.50
   2  -7   1   11.20    1.10
  -2  -7  -1   13.00    1.20
  -2  -7  -1   12.60    1.00
   2  -7   1   11.90    0.50
   2  -7   1   12.80    1.00
   2   7   1   12.50    1.00
   2   7   1   12.60    1.00
   2   7   1   12.30    0.90
  -2   7  -1   12.70    1.00
  -2   7  -1   12.60    0.90
   2   7   1   10.70    1.10
   2   7   1   14.80    1.00
  -2   7  -1   13.70    1.10
  -2   7  -1   14.80    1.10
   2   7   1   13.60    1.00
  -3  -7  -1    9.60    1.00
   3  -7   1   11.20    1.10
  -3  -7  -1    8.70    0.90
   3  -7   1    7.40    1.00
  -3   7  -1   11.00    0.90
   3   7   1    7.20    0.80
   3   7   1    8.90    0.80
  -3   7  -1   10.20    1.00
  -3   7  -1    8.70    0.90
   3   7   1    7.40    1.00
   3   7   1    9.60    0.90
  -3   7  -1   10.60    1.10
   3   7   1    9.30    1.00
   3   7   1    8.90    0.90
  -3   7  -1    8.90    0.90
  -4  -7  -1   19.00    1.10
   4  -7   1   19.50    1.40
  -4  -7  -1   22.70    1.40
   4  -7   1   21.10    1.50
  -4  -7  -1   22.30    1.50
   4   7   1   20.00    1.30
   4   7   1   19.70    1.60
   4   7   1   19.80    1.30
  -4   7  -1   20.20    1.30
  -4   7  -1   21.60    1.40
  -4   7  -1   20.20    1.30
   4   7   1   20.30    1.20
   4   7   1   20.70    1.10
   4   7   1   20.50    1.50
   5  -7   1   31.60    1.80
  -5  -7  -1   24.00    1.60
  -5  -7  -1   30.90    1.40
  -5  -7  -1   27.90    1.80
   5  -7   1   29.80    1.80
  -5  -7  -1   27.70    1.00
  -5   7  -1   28.90    1.60
   5   7   1   27.20    1.20
   5   7   1   31.50    1.60
   5   7   1   27.20    1.80
  -5   7  -1   27.50    1.50
   5   7   1   27.30    1.60
   5   7   1   27.80    1.90
  -5   7  -1   27.00    1.80
  -6  -7  -1   18.50    1.70
  -6  -7  -1   18.60    1.00
   6  -7   1   19.20    1.70
  -6  -7  -1   21.00    1.30
  -6  -7  -1   18.30    1.50
   6  -7   1   18.60    1.60
   6   7   1   19.40    1.40
  -6   7  -1   19.40    1.50
  -6   7  -1   21.20    1.40
   6   7   1   19.50    1.40
   6   7   1   18.20    1.60
   6   7   1   18.70    1.00
   6   7   1   21.00    1.80
  -6   7  -1   17.20    1.70
   7  -7   1    9.80    1.30
   7  -7   1   11.10    1.40
  -7  -7  -1    9.10    1.00
  -7  -7  -1    9.30    0.80
  -7   7  -1    8.90    1.20
   7   7   1    9.40    0.80
  -7  -8   1    1.80    0.40
   7  -8  -1    0.90    0.80
  -7  -8   1    1.20    0.30
   7  -8  -1    1.10    0.80
  -7  -8   1    1.40    0.70
  -7   8   1    0.80    0.70
   7   8  -1    1.10    0.80
   7   8  -1    2.00    0.60
   6  -8  -1    6.00    1.00
  -6  -8   1    6.70    1.10
  -6  -8   1    9.30    1.10
   6  -8  -1    8.80    1.20
  -6  -8   1    9.00    1.40
   6   8  -1    6.70    1.10
  -6   8   1    6.90    1.10
   6   8  -1    8.00    0.90
   6   8  -1    8.80    1.10
  -6   8   1    9.40    1.00
   6   8  -1    8.80    1.20
  -6   8   1    8.20    1.00
   6   8  -1    7.00    1.10
   6   8  -1    7.00    1.20
  -6   8   1    6.80    1.00
   5  -8  -1   20.70    1.50
  -5  -8   1   19.50    1.30
  -5  -8   1   19.80    1.50
  -5  -8   1   19.70    1.60
   5  -8  -1   24.20    1.60
  -5   8   1   21.10    1.40
   5   8  -1   20.50    1.60
  -5   8   1   20.60    1.30
   5   8  -1   20.90    1.30
   5   8  -1   20.60    1.40
  -5   8   1   18.60    1.40
   5   8  -1   19.10    1.70
   5   8  -1   20.50    1.50
  -5   8   1   21.00    1.60
   5   8  -1   19.10    1.50
  -4  -8   1    2.00    0.70
  -4  -8   1    1.50    0.70
  -4  -8   1    1.00    0.50
   4  -8  -1    1.60    0.60
   4  -8  -1    2.10    0.70
   4   8  -1    1.50    0.70
  -4   8   1    1.90    0.60
   4   8  -1    1.20    0.50
   4   8  -1    1.90    0.70
  -4   8   1    2.20    0.70
  -4   8   1    1.10    0.60
   4   8  -1    0.80    0.70
  -4   8   1    1.10    0.50
  -4   8   1    2.00    0.60
   4   8  -1    2.20    0.70
   4   8  -1    1.50    0.60
   3  -8  -1   95.49    3.50
  -3  -8   1   97.69    3.60
  -3  -8   1   96.49    3.30
  -3  -8   1   96.99    3.30
  -3   8   1   91.49    3.10
   3   8  -1   93.59    3.10
  -3   8   1   92.59    3.30
   3   8  -1   93.19    3.10
  -3   8   1   94.59    3.00
   3   8  -1   95.59    3.20
  -3   8   1   93.69    3.10
   3   8  -1   93.69    3.30
  -3   8   1   95.59    3.00
   3   8  -1   93.39    3.30
   3   8  -1   93.09    3.60
   2  -8  -1    6.00    0.90
  -2  -8   1    7.20    1.00
  -2  -8   1    8.80    0.90
  -2  -8   1    6.20    0.80
   2  -8  -1    8.00    0.80
   2   8  -1    6.80    1.00
   2   8  -1    6.00    0.80
  -2   8   1    5.70    0.70
   2   8  -1    7.40    0.90
  -2   8   1    6.70    0.70
  -2   8   1    6.10    0.80
  -2   8   1    6.40    0.90
   2   8  -1    7.60    0.90
   2   8  -1    6.60    0.80
   1  -8  -1   11.30    0.90
  -1  -8   1   13.50    1.00
   1  -8  -1   12.00    0.60
  -1  -8   1   15.00    1.30
   1  -8  -1   13.10    1.30
  -1  -8   1   12.30    0.90
   1   8  -1   11.20    1.00
  -1   8   1   12.00    1.00
  -1   8   1   10.70    0.90
  -1   8   1   12.40    1.00
   1   8  -1   12.90    1.00
   1   8  -1   12.50    1.30
  -1   8   1   12.00    0.70
  -1   8   1   12.90    1.20
   1   8  -1   12.00    1.00
   1   8  -1   14.50    1.20
   0  -8   1    7.80    0.70
   0  -8  -1    9.30    0.70
   0  -8   1    9.10    1.10
   0  -8  -1   10.50    1.20
   0  -8   1    8.20    0.90
   0   8   1    8.20    1.10
   0   8  -1    9.60    1.20
   0   8  -1    8.40    0.90
   0   8   1    8.30    0.80
   0   8  -1    8.40    0.50
   0   8   1    9.40    0.80
   0   8  -1    8.80    0.90
   0   8   1    9.90    0.90
   0   8  -1    7.20    0.80
   1  -8   1    3.90    0.70
   1  -8   1    3.20    0.40
   1  -8   1    3.70    0.80
  -1  -8  -1    2.10    0.50
  -1  -8  -1    2.60    0.70
  -1  -8  -1    2.70    0.50
   1   8   1    3.20    0.60
   1   8   1    4.90    0.80
  -1   8  -1    3.20    0.50
  -1   8  -1    3.00    0.60
   1   8   1    2.00    0.70
  -1   8  -1    1.60    0.60
   1   8   1    2.80    0.60
   1   8   1    2.60    0.50
  -1   8  -1    2.70    0.60
   1   8   1    3.10    0.60
  -1   8  -1    3.00    0.80
  -2  -8  -1    0.70    0.50
   2  -8   1    0.80    0.50
   2  -8   1    0.20    0.50
  -2  -8  -1   -0.20    0.50
  -2  -8  -1    0.60    0.50
   2   8   1    0.40    0.50
  -2   8  -1    0.00    0.40
  -2   8  -1    0.10    0.40
   2   8   1    0.20    0.40
   2   8   1    0.60    0.50
   2   8   1    0.20    0.50
  -2   8  -1    0.40    0.60
  -2   8  -1    0.00    0.50
   2   8   1   -0.60    0.40
   2   8   1    0.40    0.40
  -3  -8  -1   16.50    1.20
   3  -8   1   17.20    1.30
  -3  -8  -1   17.90    1.30
   3  -8   1   18.60    1.50
   3   8   1   20.30    1.20
   3   8   1   18.50    1.20
   3   8   1   18.40    1.30
  -3   8  -1   18.50    1.30
  -3   8  -1   18.80    1.40
   3   8   1   19.40    1.60
  -3   8  -1   16.80    1.20
   3   8   1   18.50    1.20
  -3   8  -1   18.30    1.20
  -3   8  -1   17.70    1.30
   3   8   1   18.40    1.10
   4  -8   1    1.10    0.70
  -4  -8  -1    0.50    0.60
   4  -8   1    0.10    0.70
  -4  -8  -1    0.50    0.50
  -4   8  -1    0.40    0.50
   4   8   1    1.40    0.50
  -4   8  -1    1.30    0.60
   4   8   1    0.20    0.50
  -4   8  -1    0.40    0.60
   4   8   1    0.60    0.60
   4   8   1    1.00    0.50
   4   8   1    0.50    0.50
  -4   8  -1    1.40    0.60
   4   8   1    0.90    0.70
  -5  -8  -1    6.20    0.90
  -5  -8  -1    5.20    0.70
  -5  -8  -1    6.50    1.10
   5  -8   1    7.60    1.10
   5  -8   1    4.90    1.00
  -5   8  -1    5.10    1.00
  -5   8  -1    6.00    0.90
   5   8   1    6.70    0.70
   5   8   1    7.70    0.90
   5   8   1    7.70    1.30
  -5   8  -1    5.40    1.00
   5   8   1    6.40    1.00
   5   8   1    6.50    0.90
   5   8   1    4.90    1.00
  -5   8  -1    6.90    0.90
   6  -8   1    3.70    1.00
   6  -8   1    5.00    1.10
  -6  -8  -1    4.60    0.70
  -6   8  -1    5.70    1.00
  -6   8  -1    4.00    1.00
   6   8   1    5.20    0.60
   6   8   1    5.80    1.00
   6   8   1    4.40    0.90
   7  -8   1   11.20    1.50
   7  -8   1    8.90    1.30
  -7  -8  -1    9.50    0.50
  -7  -8  -1    8.80    0.50
  -7  -8  -1    9.10    1.00
   7   8   1   11.80    0.80
  -7   8  -1   10.60    1.30
   7   8   1   10.00    1.40
   6  -9  -1   17.70    1.70
  -6  -9   1   18.50    1.40
   6  -9  -1   13.40    1.50
   6   9  -1   17.10    1.70
  -6   9   1   18.10    1.80
  -6   9   1   19.10    1.50
   6   9  -1   17.50    1.30
   5  -9  -1    5.60    1.10
  -5  -9   1    4.90    0.90
   5  -9  -1    4.60    0.90
  -5  -9   1    4.40    1.10
   5   9  -1    4.00    0.90
   5   9  -1    3.50    0.90
  -5   9   1    3.20    0.80
  -5   9   1    4.80    0.80
   5   9  -1    4.90    1.00
   5   9  -1    4.40    0.90
   5   9  -1    4.50    0.80
   5   9  -1    4.50    0.90
  -5   9   1    4.80    0.90
  -5   9   1    4.10    0.80
  -4  -9   1    9.00    1.20
   4  -9  -1   10.20    1.30
  -4  -9   1    8.80    1.20
   4   9  -1    7.40    1.00
   4   9  -1    8.50    1.30
  -4   9   1    8.70    1.10
   4   9  -1    8.60    1.00
  -4   9   1   10.00    1.00
   4   9  -1   10.20    1.10
  -4   9   1    9.20    1.10
   4   9  -1    8.00    1.10
  -4   9   1    8.80    1.00
  -4   9   1    8.80    1.00
   3  -9  -1    3.80    0.80
  -3  -9   1    3.70    0.80
  -3  -9   1    3.00    0.90
  -3  -9   1    3.00    0.80
   3  -9  -1    2.10    0.80
  -3   9   1    3.00    0.60
  -3   9   1    3.60    0.70
  -3   9   1    4.50    0.80
   3   9  -1    5.30    1.10
  -3   9   1    4.10    0.80
   3   9  -1    2.00    0.70
   3   9  -1    1.70    0.70
   3   9  -1    3.20    0.70
   3   9  -1    3.00    0.70
  -3   9   1    3.20    0.60
  -2  -9   1    1.20    0.60
   2  -9  -1    0.80    0.50
   2  -9  -1    0.90    0.70
  -2  -9   1    1.20    0.70
  -2  -9   1    1.20    0.60
   2   9  -1    0.90    0.70
   2   9  -1    0.50    0.50
   2   9  -1    1.10    0.50
  -2   9   1    0.70    0.50
   2   9  -1    0.20    0.50
  -2   9   1    0.20    0.50
   2   9  -1    0.00    0.50
  -2   9   1    0.60    0.40
  -2   9   1    1.20    0.60
  -2   9   1    0.80    0.50
   1  -9  -1   13.90    0.70
  -1  -9   1   14.40    1.10
   1  -9  -1   14.40    1.10
  -1  -9   1   15.20    1.50
   1  -9  -1   14.70    1.40
   1   9  -1   16.70    1.50
  -1   9   1   16.90    1.20
  -1   9   1   14.70    1.10
   1   9  -1   16.60    1.20
   1   9  -1   15.90    1.20
   1   9  -1   16.40    1.20
  -1   9   1   14.40    1.10
  -1   9   1   15.40    1.40
   1   9  -1   13.70    1.30
  -1   9   1   14.90    0.70
   0  -9  -1    8.20    1.10
   0  -9  -1    9.90    0.80
   0  -9   1   11.20    1.30
   0  -9   1   12.10    1.10
   0  -9   1   10.80    0.80
   0   9  -1   10.60    1.10
   0   9  -1    9.80    1.10
   0   9   1   10.10    0.90
   0   9  -1    9.70    1.20
   0   9   1   12.10    1.40
   0   9  -1   10.90    1.00
   0   9   1    9.60    0.90
   0   9   1   11.40    1.00
   0   9  -1   10.60    1.10
   1  -9   1   12.20    0.70
  -1  -9  -1   12.70    1.40
   1  -9   1   11.10    1.10
   1  -9   1   12.90    1.40
  -1  -9  -1   11.00    0.90
   1   9   1   14.80    1.10
   1   9   1   12.30    1.00
   1   9   1   11.90    1.00
  -1   9  -1   13.40    1.10
  -1   9  -1   12.60    1.30
   1   9   1   12.70    1.20
  -1   9  -1   12.80    1.20
  -1   9  -1   13.30    1.20
  -1   9  -1   10.90    0.80
   1   9   1   13.60    1.40
   2  -9   1    4.50    0.80
  -2  -9  -1    7.10    0.90
  -2  -9  -1    6.80    0.90
  -2  -9  -1    4.50    1.00
   2  -9   1    4.80    0.90
   2   9   1    3.30    0.80
  -2   9  -1    4.20    0.80
   2   9   1    4.70    0.80
  -2   9  -1    4.50    0.90
   2   9   1    6.50    0.90
   2   9   1    4.90    0.70
  -2   9  -1    5.70    0.90
   2   9   1    5.40    0.80
  -2   9  -1    4.80    0.70
   2   9   1    6.00    0.90
  -2   9  -1    5.00    0.80
  -3  -9  -1    0.90    0.50
   3  -9   1    0.30    0.60
  -3  -9  -1    1.50    0.70
   3  -9   1    0.80    0.80
   3   9   1   -0.40    0.50
   3   9   1    1.50    0.60
  -3   9  -1    1.10    0.70
  -3   9  -1    0.10    0.50
   3   9   1    0.80    0.50
  -3   9  -1    0.80    0.50
  -3   9  -1    1.10    0.60
   3   9   1    0.70    0.50
   3   9   1    1.80    0.60
   3   9   1    0.50    0.60
  -3   9  -1    1.10    0.60
  -4  -9  -1    6.10    1.00
  -4  -9  -1    7.40    1.00
   4  -9   1    5.60    1.00
   4  -9   1    7.10    1.20
  -4   9  -1    5.80    0.90
  -4   9  -1    4.10    0.90
   4   9   1    5.50    1.00
  -4   9  -1    6.30    1.00
   4   9   1    6.70    1.00
   4   9   1    6.10    0.80
   4   9   1    7.40    0.90
  -4   9  -1    5.60    0.90
   4   9   1    6.20    1.10
   4   9   1    6.50    0.90
  -5  -9  -1    0.20    0.80
   5  -9   1   -0.60    0.60
   5  -9   1    0.30    0.80
  -5   9  -1    1.00    0.70
   5   9   1   -0.30    0.60
   5   9   1    1.00    0.70
  -5   9  -1   -0.30    0.60
   5   9   1   -0.10    0.40
   5   9   1   -0.40    0.50
  -5   9  -1    0.90    0.60
   6  -9   1   15.90    1.70
   6  -9   1   15.20    1.70
   6   9   1   12.20    0.90
   6   9   1   15.40    1.50
  -6   9  -1   15.30    1.50
   5 -10  -1    6.80    1.20
  -5  10   1    4.30    1.10
   5  10  -1    7.10    1.00
  -5  10   1    5.40    0.90
  -5  10   1    6.70    1.10
   5  10  -1    4.20    1.00
  -4 -10   1    2.70    0.90
   4 -10  -1    2.90    0.90
   4  10  -1    3.00    0.80
  -4  10   1    2.20    0.80
  -4  10   1    3.10    0.70
  -4  10   1    2.30    0.70
   4  10  -1    3.50    0.80
   4  10  -1    1.20    0.70
  -4  10   1    1.70    0.70
  -3 -10   1    3.40    0.90
  -3 -10   1    2.40    0.80
  -3 -10   1    1.30    0.70
   3 -10  -1    3.30    0.90
   3 -10  -1    2.00    0.60
  -3  10   1    2.70    0.60
   3  10  -1    3.20    0.80
   3  10  -1    2.10    0.90
   3  10  -1    2.10    0.70
  -3  10   1    2.30    0.60
  -3  10   1    4.10    0.90
  -3  10   1    1.80    0.60
  -3  10   1    1.30    0.70
   3  10  -1    2.00    0.70
   3  10  -1    3.90    0.90
  -2 -10   1   19.60    1.40
   2 -10  -1   19.20    1.30
  -2 -10   1   22.00    1.50
   2 -10  -1   18.60    1.70
  -2 -10   1   24.50    1.90
   2  10  -1   18.00    1.70
   2  10  -1   19.40    1.40
  -2  10   1   20.90    1.10
  -2  10   1   21.40    1.50
  -2  10   1   22.70    1.70
   2  10  -1   19.10    1.50
   2  10  -1   20.80    1.60
  -2  10   1   19.20    1.40
   2  10  -1   23.60    1.50
  -2  10   1   21.70    1.30
  -1 -10   1    3.90    0.70
  -1 -10   1    3.60    1.00
   1 -10  -1    4.40    1.10
   1  10  -1    3.00    0.80
   1  10  -1    5.80    1.10
  -1  10   1    3.40    0.90
  -1  10   1    3.60    0.70
   1  10  -1    2.50    0.70
   1  10  -1    4.30    0.80
  -1  10   1    4.70    0.80
  -1  10   1    4.80    0.90
   1  10  -1    3.60    0.80
   0 -10   1    6.20    0.70
   0 -10  -1    6.50    1.10
   0 -10  -1    4.80    0.60
   0 -10   1    4.10    1.00
   0  10  -1    5.70    1.00
   0  10  -1    5.70    0.90
   0  10   1    6.70    0.80
   0  10   1    4.60    0.80
   0  10  -1    6.00    0.90
   0  10   1    8.40    1.30
   0  10  -1    6.20    1.10
   0  10  -1    6.30    0.90
   0  10   1    6.70    0.90
  -1 -10  -1    3.70    1.10
  -1 -10  -1    1.40    0.60
   1 -10   1    3.60    1.00
   1 -10   1    1.60    0.60
   1 -10   1    2.10    0.40
  -1  10  -1    1.50    0.70
  -1  10  -1    2.30    0.40
   1  10   1    1.90    0.80
   1  10   1    2.10    0.60
  -1  10  -1    2.30    0.60
  -1  10  -1    1.30    0.70
   1  10   1    2.80    0.70
  -1  10  -1    1.30    0.70
   1  10   1    2.90    0.70
   1  10   1    2.80    0.60
  -2 -10  -1   13.60    1.60
   2 -10   1   14.60    1.60
   2 -10   1    7.70    1.00
  -2 -10  -1   10.80    1.10
  -2 -10  -1   10.60    1.10
   2  10   1   11.60    1.20
  -2  10  -1   10.50    0.90
   2  10   1   11.10    1.10
  -2  10  -1    9.30    1.10
  -2  10  -1   11.80    1.20
  -2  10  -1    8.70    1.20
   2  10   1    8.90    1.30
  -2  10  -1   11.00    1.20
   2  10   1   10.00    1.00
   2  10   1   11.40    1.10
  -3 -10  -1    4.90    0.90
   3 -10   1    2.80    0.80
   3 -10   1    6.00    1.20
  -3 -10  -1    3.50    0.70
   3  10   1    4.10    0.80
   3  10   1    4.90    0.80
  -3  10  -1    3.70    0.70
   3  10   1    2.90    0.90
  -3  10  -1    4.90    0.80
  -3  10  -1    2.20    0.70
   3  10   1    5.30    0.80
   3  10   1    3.50    0.80
   3  10   1    1.70    0.70
  -3  10  -1    3.50    0.90
  -3  10  -1    3.00    0.90
  -3  10  -1    3.70    0.90
  -4 -10  -1    1.00    0.80
   4 -10   1    0.00    0.60
   4 -10   1    1.10    0.90
   4  10   1    0.80    0.70
   4  10   1    1.20    0.60
  -4  10  -1    1.80    0.70
   4  10   1    1.10    0.60
  -4  10  -1    1.00    0.60
  -4  10  -1    0.10    0.60
   4  10   1    0.60    0.60
   5 -10   1    1.20    0.80
   5  10   1    2.20    0.60
  -5  10  -1    1.70    0.70
   5  10   1    1.70    0.80
  -5  10  -1    1.00    0.80
  -4 -11   1    0.20    0.80
   4 -11  -1    0.40    0.60
  -4  11   1    0.50    0.50
   4  11  -1    0.20    0.50
  -4  11   1    0.20    0.50
   4  11  -1    0.70    0.70
  -3 -11   1    4.10    0.90
   3 -11  -1    2.60    0.70
   3 -11  -1    2.70    1.00
   3  11  -1    3.80    0.90
  -3  11   1    3.70    0.90
  -3  11   1    2.70    0.70
   3  11  -1    3.60    0.80
  -3  11   1    2.70    0.60
  -3  11   1    2.90    0.70
  -3  11   1    3.60    0.90
   2 -11  -1    0.00    0.50
  -2 -11   1   -0.30    0.60
   2 -11  -1   -0.20    0.70
  -2  11   1    0.50    0.30
  -2  11   1    1.30    0.70
  -2  11   1   -0.50    0.60
   2  11  -1    0.50    0.70
  -2  11   1    0.10    0.60
   2  11  -1    1.00    0.70
   2  11  -1    0.40    0.70
  -1 -11   1    4.50    1.70
   1 -11  -1    3.20    1.10
  -1 -11   1    4.60    0.70
  -1  11   1    4.00    0.70
   1  11  -1    6.20    1.00
   1  11  -1    5.10    1.00
   1  11  -1    3.70    0.90
  -1  11   1    4.30    0.90
   1  11  -1    4.60    1.50
  -1  11   1    3.20    0.90
   0 -11   1    3.20    0.50
   0 -11  -1    2.50    0.50
   0 -11  -1    4.00    1.00
   0 -11   1    3.70    1.00
   0  11   1    3.10    0.70
   0  11  -1    2.80    1.10
   0  11   1    3.60    0.90
   0  11   1    2.90    0.80
   0  11  -1    2.00    0.70
   0  11  -1    3.70    0.90
   0  11  -1    4.30    1.10
   0  11   1    2.40    0.70
   0  11   1    4.10    1.00
   0  11  -1    4.20    1.00
  -1 -11  -1    5.80    0.80
   1 -11   1    6.90    1.00
   1 -11   1    8.10    1.30
  -1 -11  -1    6.10    1.60
   1 -11   1    6.90    0.40
   1  11   1    6.70    1.10
   1  11   1    8.00    1.80
  -1  11  -1    7.40    1.20
  -1  11  -1    6.60    1.20
  -1  11  -1    6.90    1.10
  -1  11  -1    7.70    1.00
   1  11   1    6.90    1.00
   1  11   1    8.60    1.10
   2 -11   1    2.50    1.30
  -2 -11  -1    4.50    0.90
   2 -11   1    4.40    0.90
  -2  11  -1    4.20    1.00
   2  11   1    4.00    0.80
   2  11   1    3.50    0.80
  -2  11  -1    4.60    0.60
   2  11   1    3.80    0.90
  -2  11  -1    3.80    0.80
  -2  11  -1    5.40    1.70
  -3 -11  -1    3.50    0.90
   3 -11   1    3.20    0.80
  -3  11  -1    1.60    0.60
  -3  11  -1    2.00    0.70
   3  11   1    2.50    0.70
   3  11   1    2.40    0.80
   3  11   1    2.60    0.80
   4 -11   1    2.10    0.80
  -4 -11  -1    0.90    1.30
   4  11   1    0.80    0.60
  -4  11  -1    1.50    0.70
  -4  11  -1    0.90    0.70
   4  11   1    0.70    0.60
  -2 -12   1   10.10    1.20
   2  12  -1    8.40    1.20
  -2  12   1    8.30    1.00
  -1 -12   1    2.60    0.60
  -1  12   1    1.90    0.70
   1  12  -1    2.60    0.80
   0 -12  -1    0.90    0.40
   0 -12   1    0.40    0.30
   0  12   1    0.10    0.70
   0  12  -1    1.40    0.60
   0  12   1    1.70    0.60
  -1 -12  -1    6.50    0.80
  -1  12  -1    6.30    1.00
   1  12   1    7.20    1.00
   2 -12   1   -0.40    0.50
  -2 -12  -1   -0.90    0.50
  -2  12  -1    0.70    0.40
  -2  12  -1    1.20    0.80
   2  12   1    0.40    0.70
   2  12   1    1.30    0.80
   9   0  -2   11.80    1.40
  -9   0   2   14.10    1.20
   9   0  -2   13.30    1.20
  -9   0   2   15.80    1.80
  -9   0   2   13.90    1.40
   9   0  -2   14.20    1.40
  -9   0   2   14.30    1.60
   9   0  -2   13.50    1.50
  -8   0   2    0.40    0.60
  -8   0   2    0.30    0.60
   8   0  -2    0.60    0.50
  -8   0   2   -0.10    0.50
   8   0  -2    0.00    0.50
  -8   0   2   -0.70    0.50
   8   0  -2   -0.10    0.50
  -8   0   2   -0.20    0.40
   8   0  -2   -0.10    0.40
   7   0  -2   30.80    1.50
   7   0  -2   32.40    1.70
   7   0  -2   31.50    1.60
  -7   0   2   31.90    1.50
  -7   0   2   30.60    1.50
  -7   0   2   29.80    1.60
  -7   0   2   30.00    1.80
  -7   0   2   31.70    1.60
  -6   0   2  121.19    3.70
  -6   0   2  120.89    3.70
   6   0  -2  120.79    3.70
  -6   0   2  120.39    3.50
   6   0  -2  120.39    3.70
   6   0  -2  114.49    3.50
   5   0  -2   -0.10    0.30
   5   0  -2    0.10    0.30
   5   0  -2   -0.20    0.30
   5   0  -2    0.20    0.30
  -5   0   2   -0.20    0.20
  -5   0   2    0.40    0.30
  -5   0   2    0.20    0.30
  -5   0   2   -0.40    0.30
  -4   0   2  102.59    2.90
  -4   0   2  101.49    2.90
   4   0  -2   98.49    2.90
   4   0  -2   98.49    2.90
  -4   0   2  101.79    2.80
   4   0  -2   94.39    2.70
   4   0  -2   99.19    2.80
  -4   0   2   98.99    2.80
  -3   0   2  707.63   52.69
   3   0  -2  726.13   54.99
   2   0  -2    0.00    0.20
  -2   0   2    0.40    0.20
   2   0  -2    0.30    0.20
  -2   0   2    0.20    0.20
   2   0  -2    0.60    0.10
  -2   0   2    0.20    0.20
   2   0  -2    0.40    0.20
  -2   0   2    0.30    0.20
   1   0  -2  523.55   30.50
  -1   0   2  449.26   27.80
   0   0  -2  649.74   32.40
   0   0   2  648.04   32.70
  -1   0  -2  905.41   47.90
   1   0   2  796.32   46.10
  -2   0  -2   25.30    1.00
  -2   0  -2   25.10    1.00
   2   0   2   26.80    1.00
   2   0   2   24.10    1.00
  -2   0  -2   26.20    0.90
   2   0   2   25.80    1.00
   2   0   2   26.60    0.90
  -3   0  -2  261.97    6.40
  -3   0  -2  259.27    6.80
  -3   0  -2  258.37    6.70
  -3   0  -2  271.47    6.70
   3   0   2  257.47    6.70
  -3   0  -2  271.27    6.60
   3   0   2  255.27    6.60
   3   0   2  270.67    6.70
  -4   0  -2    1.20    0.30
   4   0   2    1.30    0.40
  -4   0  -2    0.80    0.20
  -4   0  -2    1.00    0.40
  -4   0  -2    1.00    0.40
  -4   0  -2    0.90    0.40
   4   0   2    0.90    0.30
   4   0   2    0.80    0.40
   5   0   2   93.99    2.90
  -5   0  -2   90.29    3.00
  -5   0  -2   93.29    3.20
  -5   0  -2   99.79    2.70
  -5   0  -2   94.79    3.00
  -5   0  -2   96.59    2.90
   5   0   2   92.99    3.00
   5   0   2   97.29    3.10
  -6   0  -2   37.60    1.60
   6   0   2   38.70    1.80
  -6   0  -2   36.10    1.40
  -6   0  -2   35.80    1.80
   6   0   2   36.10    1.80
  -6   0  -2   36.80    1.90
  -6   0  -2   38.50    1.80
   6   0   2   37.20    1.70
   7   0   2    1.00    0.60
   7   0   2    0.60    0.60
  -7   0  -2    1.00    0.40
  -7   0  -2    1.40    0.70
  -7   0  -2    0.80    0.60
  -7   0  -2    0.30    0.40
   7   0   2    1.70    0.70
  -7   0  -2    0.60    0.60
  -8   0  -2    8.60    1.00
  -8   0  -2    7.60    1.20
   8   0   2   10.20    1.30
  -8   0  -2    8.60    1.20
   8   0   2    9.60    1.20
  -8   0  -2    8.90    1.20
  -8   0  -2    8.50    0.80
   8   0   2    7.00    1.10
  -9   0  -2   19.30    1.70
  -9   0  -2   20.20    1.20
  -9  -1   2    6.70    0.90
  -9  -1   2    6.30    1.10
  -9  -1   2    7.40    1.20
   9  -1  -2    8.20    1.00
  -9  -1   2    8.60    1.20
   9  -1  -2    8.10    1.10
   9  -1  -2    7.10    1.00
   9  -1  -2    7.80    1.10
  -9   1   2    7.70    1.10
   9   1  -2    7.30    1.10
  -9   1   2    5.40    0.80
  -9   1   2    6.80    1.10
   9   1  -2    5.80    0.90
   9   1  -2    6.30    1.10
   8  -1  -2    4.70    0.80
   8  -1  -2    4.00    0.80
  -8  -1   2    5.30    1.00
  -8  -1   2    4.80    0.90
  -8  -1   2    4.50    0.80
   8  -1  -2    3.60    0.80
  -8  -1   2    5.40    0.80
  -8  -1   2    6.10    1.00
   8  -1  -2    5.70    0.80
   8   1  -2    4.70    0.90
   8   1  -2    3.90    0.80
   8   1  -2    5.90    0.80
  -8   1   2    4.60    0.80
  -8   1   2    4.10    0.70
  -8   1   2    4.40    0.70
  -8   1   2    5.80    1.00
  -8   1   2    5.00    0.90
   8   1  -2    3.50    0.80
  -7  -1   2    9.50    0.90
   7  -1  -2    9.90    1.10
  -7  -1   2   10.10    1.10
  -7  -1   2    9.90    1.10
  -7  -1   2   10.10    1.00
  -7  -1   2   10.60    1.10
   7  -1  -2   11.00    1.10
   7  -1  -2    9.10    0.90
   7   1  -2    9.60    1.00
   7   1  -2   10.30    0.90
  -7   1   2    8.90    1.00
   7   1  -2   10.80    1.10
  -7   1   2   10.30    0.90
  -7   1   2   11.30    1.20
  -7   1   2    8.40    0.90
  -7   1   2    8.80    1.10
   7   1  -2   11.40    1.10
   6  -1  -2    1.10    0.50
  -6  -1   2    1.10    0.40
  -6  -1   2    0.80    0.50
  -6  -1   2    0.50    0.40
   6  -1  -2    0.70    0.40
  -6  -1   2    0.90    0.50
   6  -1  -2    0.40    0.40
   6   1  -2    0.70    0.50
   6   1  -2    1.10    0.50
   6   1  -2    0.50    0.40
  -6   1   2    0.00    0.40
   6   1  -2    0.70    0.40
  -6   1   2    0.10    0.40
   6   1  -2    0.50    0.50
  -6   1   2    1.20    0.40
  -6   1   2    0.20    0.40
  -5  -1   2    6.80    0.70
   5  -1  -2    6.90    0.70
  -5  -1   2    6.60    0.70
  -5  -1   2    7.80    0.80
  -5  -1   2    6.80    0.60
   5  -1  -2    8.20    0.70
   5  -1  -2    8.10    0.80
  -5   1   2    6.60    0.60
  -5   1   2    6.70    0.60
  -5   1   2    6.70    0.70
   5   1  -2    6.40    0.60
  -5   1   2    7.20    0.70
   5   1  -2    7.10    0.60
   5   1  -2    6.00    0.70
   5   1  -2    7.30    0.70
   5   1  -2    6.00    0.70
  -4  -1   2  142.89    3.90
  -4  -1   2  142.99    4.00
   4  -1  -2  139.99    3.90
   4  -1  -2  143.79    3.80
  -4  -1   2  153.28    4.00
   4  -1  -2  148.99    3.90
  -4  -1   2  142.59    3.90
   4   1  -2  143.79    4.00
  -4   1   2  145.99    3.90
  -4   1   2  143.79    3.80
   4   1  -2  145.09    3.90
   4   1  -2  140.49    3.80
  -4   1   2  144.09    3.90
   4   1  -2  141.09    3.80
   4   1  -2  145.49    4.00
  -4   1   2  148.29    3.90
  -3  -1   2   28.00    1.00
   3  -1  -2   28.30    1.00
   3  -1  -2   26.00    1.00
   3  -1  -2   26.50    0.90
  -3  -1   2   26.40    1.10
  -3  -1   2   26.90    1.00
   3   1  -2   26.10    1.00
   3   1  -2   25.40    1.10
   3   1  -2   26.30    1.00
  -3   1   2   25.70    1.00
  -3   1   2   27.50    1.00
  -3   1   2   28.10    1.00
   3   1  -2   26.50    1.00
  -3   1   2   25.80    1.00
   2  -1  -2    0.00    0.10
   1  -1  -2  490.05   24.30
  -1  -1   2  510.95   36.60
   1   1  -2  513.05   37.00
  -1   1   2  535.55   24.60
   0  -1   2    1.80    0.30
   0  -1  -2    1.80    0.10
   0  -1   2    2.20    0.30
   0  -1   2    1.60    0.30
   0  -1  -2    2.30    0.30
   0  -1   2    1.50    0.20
   0  -1   2    2.30    0.30
   0  -1   2    2.00    0.30
   0   1  -2    2.40    0.30
   0   1   2    2.00    0.20
   0   1  -2    1.70    0.30
   0   1   2    1.50    0.20
   0   1   2    1.70    0.20
   0   1  -2    1.40    0.20
   0   1  -2    1.80    0.30
   0   1   2    1.40    0.20
   0   1  -2    2.30    0.30
   0   1  -2    2.20    0.30
  -1  -1  -2   31.70    1.10
   1  -1   2   31.60    1.00
  -1  -1  -2   31.00    1.00
   1  -1   2   31.20    1.00
  -1  -1  -2   32.60    0.90
   1  -1   2   31.40    1.10
  -1  -1  -2   30.90    0.90
   1  -1   2   28.10    1.00
   1   1   2   32.20    1.00
   1   1   2   31.50    0.90
   1   1   2   31.10    1.10
  -1   1  -2   31.60    1.00
  -1   1  -2   30.60    1.10
  -1   1  -2   31.50    1.00
  -2  -1  -2    1.20    0.30
  -2  -1  -2    0.70    0.20
   2  -1   2    1.00    0.30
  -2  -1  -2    1.30    0.10
   2  -1   2    1.40    0.30
   2  -1   2    2.90    0.50
  -2  -1  -2    1.60    0.30
  -2  -1  -2    1.50    0.30
   2  -1   2    1.30    0.30
  -2   1  -2    0.90    0.20
   2   1   2    1.30    0.30
  -2   1  -2    1.70    0.30
  -2   1  -2    1.00    0.30
   2   1   2    1.40    0.30
  -2   1  -2    0.80    0.30
   2   1   2    1.30    0.30
   2   1   2    1.30    0.30
   3  -1   2  154.18    4.20
  -3  -1  -2  160.28    4.00
  -3  -1  -2  149.49    4.10
  -3  -1  -2  147.99    4.10
   3  -1   2  150.18    4.00
  -3  -1  -2  151.88    4.00
   3  -1   2  148.79    4.00
  -3  -1  -2  153.38    3.70
   3  -1   2  145.79    4.10
  -3   1  -2  150.88    4.20
  -3   1  -2  152.98    4.00
   3   1   2  145.89    4.10
   3   1   2  146.79    3.90
  -3   1  -2  159.48    4.10
  -3   1  -2  152.08    4.00
   3   1   2  147.19    4.00
  -4  -1  -2  107.39    2.60
  -4  -1  -2  100.69    3.10
  -4  -1  -2  104.89    3.10
  -4  -1  -2   99.49    3.00
   4  -1   2   99.49    3.00
   4  -1   2   96.49    2.90
  -4  -1  -2   94.59    2.80
   4  -1   2   95.39    3.00
  -4   1  -2   99.79    3.00
   4   1   2   99.99    2.90
   4   1   2   98.69    3.10
   4   1   2   97.89    2.90
  -4   1  -2   93.49    2.80
  -4   1  -2   99.49    3.10
  -4   1  -2   98.49    2.80
  -4   1  -2   98.49    3.00
   5  -1   2   83.29    2.80
  -5  -1  -2   86.39    2.90
   5  -1   2   81.89    2.70
   5  -1   2   86.49    2.80
  -5  -1  -2   80.59    2.90
  -5  -1  -2   89.19    2.40
  -5  -1  -2   86.49    2.70
  -5  -1  -2   87.79    2.80
   5   1   2   83.49    2.80
   5   1   2   88.39    2.90
  -5   1  -2   89.49    2.70
   5   1   2   81.49    2.70
  -5   1  -2   85.89    2.80
  -5   1  -2   83.59    2.50
  -5   1  -2   91.99    2.80
  -5   1  -2   83.19    3.00
  -6  -1  -2  227.28    6.30
  -6  -1  -2  233.38    6.10
   6  -1   2  223.88    6.30
  -6  -1  -2  229.58    6.40
  -6  -1  -2  226.78    5.80
   6  -1   2  218.38    6.30
   6  -1   2  227.48    6.20
  -6  -1  -2  225.28    6.50
  -6   1  -2  217.48    6.30
  -6   1  -2  222.68    5.90
   6   1   2  229.58    6.20
   6   1   2  225.08    6.30
  -6   1  -2  229.78    6.10
   6   1   2  230.28    6.40
  -6   1  -2  232.08    6.30
  -6   1  -2  224.08    6.60
   7  -1   2   23.30    1.50
   7  -1   2   21.30    1.50
   7  -1   2   21.40    1.40
  -7  -1  -2   24.60    1.50
  -7  -1  -2   26.10    1.60
  -7  -1  -2   21.30    1.60
  -7  -1  -2   22.20    1.40
  -7  -1  -2   21.40    1.10
  -7   1  -2   23.10    1.50
   7   1   2   23.10    1.60
   7   1   2   25.20    1.60
   7   1   2   20.20    1.40
  -7   1  -2   23.30    1.50
  -7   1  -2   24.10    1.40
  -7   1  -2   23.70    1.70
  -7   1  -2   23.60    1.20
   8  -1   2    9.50    1.30
   8  -1   2    8.30    1.10
  -8  -1  -2   11.50    1.20
  -8  -1  -2    8.70    1.20
   8  -1   2    9.10    1.10
  -8  -1  -2    8.30    1.20
  -8  -1  -2    8.70    0.80
  -8  -1  -2    9.50    1.20
  -8   1  -2    9.00    1.10
   8   1   2   10.30    1.30
  -8   1  -2   11.40    1.30
  -8   1  -2   11.10    1.30
   8   1   2   11.20    1.20
  -8   1  -2    9.60    1.30
   8   1   2    8.90    1.10
  -8   1  -2   11.20    0.90
   9  -1   2    4.10    1.10
   9  -1   2    4.00    1.00
  -9  -1  -2    4.00    0.60
   9  -1   2    2.70    0.80
  -9   1  -2    2.00    0.80
  -9   1  -2    3.20    0.60
  -9   1  -2    2.70    1.00
  -9  -2   2   16.00    1.20
  -9  -2   2   14.70    1.60
   9  -2  -2   17.40    1.60
   9  -2  -2   15.90    1.40
  -9  -2   2   18.50    1.70
  -9  -2   2   16.10    1.60
   9  -2  -2   17.00    1.30
   9  -2  -2   17.70    1.50
   9   2  -2   17.30    1.60
  -9   2   2   17.60    1.30
   9   2  -2   17.60    1.40
  -9   2   2   17.90    1.60
   9   2  -2   14.20    1.60
  -9   2   2   15.90    1.40
  -8  -2   2    6.90    1.10
  -8  -2   2    3.60    0.70
   8  -2  -2    5.40    0.90
   8  -2  -2    5.20    0.80
   8  -2  -2    6.50    0.90
  -8  -2   2    4.60    0.90
   8  -2  -2    5.60    1.00
  -8  -2   2    5.60    0.80
  -8  -2   2    4.90    0.90
   8   2  -2    5.40    1.00
  -8   2   2    5.90    0.90
  -8   2   2    5.40    0.80
  -8   2   2    5.90    0.80
   8   2  -2    6.10    0.90
  -8   2   2    5.50    1.00
   8   2  -2    5.60    1.00
  -8   2   2    6.30    1.10
   8   2  -2    5.60    0.90
  -7  -2   2   32.60    1.80
  -7  -2   2   32.60    1.50
  -7  -2   2   36.20    1.80
   7  -2  -2   34.00    1.50
  -7  -2   2   33.70    1.80
   7  -2  -2   32.20    1.70
   7  -2  -2   34.80    1.60
  -7  -2   2   29.20    1.60
   7  -2  -2   33.70    1.60
  -7   2   2   34.20    1.60
  -7   2   2   33.50    1.60
   7   2  -2   32.30    1.80
  -7   2   2   33.00    1.90
  -7   2   2   31.80    1.70
   7   2  -2   31.20    1.60
   7   2  -2   34.00    1.80
   7   2  -2   31.20    1.50
  -7   2   2   31.40    1.50
   7   2  -2   31.90    1.60
  -6  -2   2    2.00    0.60
  -6  -2   2    3.60    0.70
  -6  -2   2    3.00    0.50
   6  -2  -2    2.90    0.60
  -6  -2   2    3.50    0.70
   6  -2  -2    3.70    0.60
   6  -2  -2    3.10    0.50
   6  -2  -2    2.10    0.50
  -6   2   2    3.50    0.70
   6   2  -2    2.80    0.60
   6   2  -2    4.10    0.60
  -6   2   2    2.70    0.60
  -6   2   2    2.60    0.50
   6   2  -2    3.70    0.60
   6   2  -2    4.30    0.80
   6   2  -2    2.90    0.60
  -6   2   2    2.80    0.50
  -6   2   2    3.30    0.60
   5  -2  -2  194.08    5.00
  -5  -2   2  192.08    5.10
   5  -2  -2  188.98    5.20
   5  -2  -2  186.08    5.00
   5  -2  -2  191.28    5.00
  -5  -2   2  192.38    5.30
  -5  -2   2  184.28    5.10
  -5  -2   2  184.98    5.30
   5   2  -2  193.88    5.10
   5   2  -2  190.98    5.40
   5   2  -2  187.38    5.20
  -5   2   2  193.88    5.10
   5   2  -2  188.98    5.20
  -5   2   2  194.98    5.00
   5   2  -2  197.48    5.10
  -5   2   2  187.38    5.20
  -5   2   2  188.08    5.20
   4  -2  -2  141.69    3.90
  -4  -2   2  141.59    4.00
  -4  -2   2  140.29    3.80
  -4  -2   2  140.89    4.00
   4  -2  -2  144.39    3.70
  -4  -2   2  138.39    3.90
   4  -2  -2  139.09    3.80
   4  -2  -2  144.69    3.70
  -4   2   2  146.09    3.90
  -4   2   2  143.79    3.70
   4   2  -2  139.39    3.90
   4   2  -2  139.79    3.90
   4   2  -2  140.69    3.80
   4   2  -2  146.69    4.10
  -4   2   2  143.59    3.80
   4   2  -2  137.89    3.80
  -4   2   2  144.99    3.90
  -3  -2   2  157.98    4.20
  -3  -2   2  167.98    4.30
  -3  -2   2  164.88    4.30
   3  -2  -2  159.98    4.10
   3  -2  -2  160.28    4.20
  -3  -2   2  161.68    4.40
   3   2  -2  162.58    4.30
   3   2  -2  164.28    4.40
  -3   2   2  158.08    4.30
  -3   2   2  165.78    4.10
   3   2  -2  154.98    4.20
   3   2  -2  163.38    4.30
  -3   2   2  162.58    4.20
   3   2  -2  162.18    4.20
  -3   2   2  166.78    4.10
  -2  -2   2   42.30    1.50
  -2  -2   2   44.80    1.40
  -2  -2   2   43.50    1.40
  -2  -2   2   47.30    1.50
  -2  -2   2   44.10    1.40
   2  -2  -2   42.90    1.30
  -2   2   2   45.30    1.20
  -2   2   2   48.00    1.30
  -2   2   2   45.60    1.30
   2   2  -2   37.70    1.40
   2   2  -2   45.00    1.40
  -2   2   2   46.40    1.30
   2   2  -2   39.90    1.40
  -2   2   2   46.30    1.40
   2   2  -2   47.10    1.50
  -1  -2   2  859.61   56.29
   1  -2  -2  900.01   38.20
   1   2  -2  821.92   55.49
  -1   2   2  872.61   36.80
   0  -2   2 2205.38  100.29
   0  -2  -2 2332.87   67.39
   0   2  -2 2338.17  101.59
   0   2   2 2396.46   69.79
  -1  -2  -2  315.67    7.60
  -1  -2  -2  314.47    7.50
  -1  -2  -2  315.57    7.70
   1  -2   2  315.57    7.80
  -1  -2  -2  317.77    7.60
   1  -2   2  270.17    7.70
  -1   2  -2  316.27    7.70
   1   2   2  321.77    7.50
  -1   2  -2  315.87    7.80
  -1   2  -2  336.87    7.80
  -1   2  -2  325.67    7.80
  -2  -2  -2  185.58    4.80
   2  -2   2  190.88    5.00
   2  -2   2  200.28    4.80
   2  -2   2  180.48    4.90
   2  -2   2  191.68    5.00
  -2  -2  -2  189.68    5.00
  -2  -2  -2  192.68    4.80
   2   2   2  196.58    4.80
  -2   2  -2  185.68    5.00
   2   2   2  198.48    5.00
  -2   2  -2  187.58    4.80
   2   2   2  194.28    4.60
   2   2   2  191.38    4.80
   2   2   2  195.98    4.80
  -3  -2  -2  350.66    8.40
   3  -2   2  344.77    8.70
   3  -2   2  339.57    8.50
  -3  -2  -2  341.97    8.50
  -3  -2  -2  342.27    8.20
   3  -2   2  331.67    8.70
  -3  -2  -2  349.87    8.60
  -3  -2  -2  355.56    8.70
   3  -2   2  339.17    8.50
  -3   2  -2  345.27    8.50
  -3   2  -2  350.66    8.60
   3   2   2  353.66    8.20
   3   2   2  340.37    8.40
  -3   2  -2  337.87    8.80
  -3   2  -2  341.97    8.50
   3   2   2  336.87    8.50
   3   2   2  347.37    8.70
  -4  -2  -2   39.70    1.60
  -4  -2  -2   39.80    1.70
  -4  -2  -2   37.80    1.20
  -4  -2  -2   39.60    1.50
   4  -2   2   37.20    1.40
   4  -2   2   38.90    1.60
   4  -2   2   36.60    1.50
  -4  -2  -2   37.50    1.40
  -4   2  -2   38.30    1.50
  -4   2  -2   40.70    1.50
   4   2   2   36.10    1.50
  -4   2  -2   40.80    1.50
   4   2   2   38.70    1.60
  -4   2  -2   38.00    1.70
   4   2   2   39.20    1.40
   5  -2   2  112.09    3.50
   5  -2   2  109.19    3.30
  -5  -2  -2  111.19    2.90
   5  -2   2  105.79    3.30
  -5  -2  -2  109.69    3.40
  -5  -2  -2  115.79    3.40
  -5  -2  -2  109.69    3.20
  -5  -2  -2  110.19    3.50
   5   2   2  111.29    3.40
  -5   2  -2  110.19    3.20
  -5   2  -2  106.39    3.30
   5   2   2  112.89    3.50
  -5   2  -2   94.89    3.20
   5   2   2  111.79    3.20
  -5   2  -2  106.49    3.40
  -5   2  -2  109.69    3.60
  -6  -2  -2   19.40    1.40
   6  -2   2   20.00    1.30
  -6  -2  -2   18.30    1.30
  -6  -2  -2   19.00    1.20
   6  -2   2   19.30    1.20
   6  -2   2   16.80    1.30
   6  -2   2   17.50    1.30
  -6  -2  -2   19.60    1.40
  -6  -2  -2   19.70    0.90
  -6   2  -2   18.50    1.10
   6   2   2   20.00    1.30
  -6   2  -2   21.60    1.40
  -6   2  -2   20.80    1.50
  -6   2  -2   18.70    1.20
   6   2   2   19.20    1.40
  -6   2  -2   19.90    1.30
   6   2   2   20.30    1.20
   7  -2   2    9.20    1.00
  -7  -2  -2    7.70    0.90
   7  -2   2    9.20    1.00
   7  -2   2   10.20    1.10
  -7  -2  -2    8.80    1.00
  -7  -2  -2    9.70    1.10
  -7  -2  -2    8.80    1.20
  -7  -2  -2   10.00    0.70
   7  -2   2    8.50    1.10
  -7   2  -2   10.20    1.40
   7   2   2   10.10    1.20
  -7   2  -2   10.00    0.90
   7   2   2   11.70    1.30
  -7   2  -2    7.60    0.90
  -7   2  -2    8.80    1.10
   7   2   2    8.00    1.00
  -7   2  -2    7.80    0.90
  -8  -2  -2    6.00    1.00
   8  -2   2    5.50    1.00
   8  -2   2    5.50    0.90
  -8  -2  -2    4.80    0.80
   8  -2   2    7.80    1.20
   8  -2   2    6.80    1.00
  -8  -2  -2    4.00    0.90
  -8  -2  -2    5.10    0.90
  -8  -2  -2    5.80    0.60
  -8   2  -2    6.90    1.00
   8   2   2    4.00    0.90
   8   2   2    6.40    1.10
   8   2   2    5.80    1.10
   8   2   2    3.70    0.90
  -8   2  -2    6.70    1.20
  -8   2  -2    6.40    0.80
  -8   2  -2    3.70    0.70
  -8   2  -2    6.10    1.00
   9  -2   2    4.10    1.00
  -9  -2  -2    4.00    0.50
   9  -2   2    3.70    0.80
   9  -2   2    6.80    1.30
  -9   2  -2    2.10    0.90
  -9   2  -2    4.10    0.70
  -9   2  -2    5.00    1.00
   9  -3  -2   16.70    1.30
  -9  -3   2   15.60    1.60
   9  -3  -2   18.80    1.50
  -9  -3   2   15.50    1.60
  -9  -3   2   17.00    1.20
   9  -3  -2   18.10    1.60
   9   3  -2   19.60    1.60
  -9   3   2   16.80    1.40
   9   3  -2   17.70    1.50
  -9   3   2   15.20    1.60
  -9   3   2   18.50    1.30
   8  -3  -2   48.30    2.10
  -8  -3   2   47.20    2.40
  -8  -3   2   45.30    2.20
  -8  -3   2   47.20    2.00
  -8  -3   2   46.20    2.30
   8  -3  -2   47.70    2.00
  -8  -3   2   41.50    2.10
   8  -3  -2   50.29    2.30
  -8   3   2   44.40    2.00
   8   3  -2   48.90    2.10
  -8   3   2   45.40    2.20
  -8   3   2   42.90    2.10
  -8   3   2   46.50    1.90
   8   3  -2   41.40    2.30
  -8   3   2   43.90    2.50
   8   3  -2   44.50    2.30
   8   3  -2   43.70    2.20
   7  -3  -2   13.70    1.10
  -7  -3   2   13.10    1.20
   7  -3  -2   12.80    1.20
  -7  -3   2   12.70    1.30
   7  -3  -2   14.40    1.00
  -7  -3   2   11.10    1.00
  -7  -3   2   16.50    1.40
   7  -3  -2   14.70    1.00
  -7  -3   2   14.30    1.20
   7   3  -2   13.60    1.20
   7   3  -2   13.30    1.30
  -7   3   2   12.10    1.00
   7   3  -2   13.80    1.10
   7   3  -2   12.90    1.10
   7   3  -2   12.80    1.00
  -7   3   2   14.20    1.20
  -7   3   2   12.00    0.90
  -7   3   2   12.70    1.10
  -7   3   2   14.70    1.40
  -6  -3   2   21.80    1.20
   6  -3  -2   23.30    1.20
   6  -3  -2   22.30    1.10
  -6  -3   2   21.30    1.40
  -6  -3   2   20.90    1.40
   6  -3  -2   23.20    1.30
   6  -3  -2   21.30    1.20
  -6  -3   2   23.50    1.30
  -6   3   2   22.20    1.30
   6   3  -2   20.20    1.30
   6   3  -2   23.40    1.20
   6   3  -2   22.80    1.50
   6   3  -2   24.50    1.30
  -6   3   2   20.80    1.10
  -6   3   2   20.70    1.20
   6   3  -2   23.30    1.30
  -6   3   2   22.60    1.30
  -6   3   2   22.60    1.50
   5  -3  -2   31.80    1.30
   5  -3  -2   30.90    1.40
  -5  -3   2   31.80    1.40
  -5  -3   2   33.70    1.60
  -5  -3   2   32.10    1.40
   5  -3  -2   31.60    1.20
  -5  -3   2   31.70    1.50
   5  -3  -2   31.70    1.30
   5   3  -2   31.50    1.30
  -5   3   2   33.00    1.30
  -5   3   2   33.20    1.50
   5   3  -2   28.70    1.50
  -5   3   2   30.60    1.20
   5   3  -2   31.00    1.40
  -5   3   2   31.70    1.40
   5   3  -2   32.40    1.50
   5   3  -2   31.30    1.50
   4  -3  -2   47.10    1.60
  -4  -3   2   46.90    1.80
   4  -3  -2   46.20    1.70
  -4  -3   2   45.70    1.70
  -4  -3   2   45.80    1.80
  -4  -3   2   47.50    1.70
   4   3  -2   49.70    1.90
   4   3  -2   48.00    1.60
  -4   3   2   47.30    1.70
  -4   3   2   45.40    1.60
   4   3  -2   46.00    1.60
  -4   3   2   47.10    1.40
   4   3  -2   45.40    1.80
  -4   3   2   46.90    1.60
   4   3  -2   48.00    1.70
   3  -3  -2    9.00    0.60
  -3  -3   2   11.40    0.70
  -3  -3   2   10.40    0.70
  -3  -3   2   11.00    0.80
   3  -3  -2   10.40    0.60
  -3  -3   2   12.20    0.80
  -3  -3   2   11.40    0.80
  -3   3   2   10.20    0.60
   3   3  -2   11.30    0.70
   3   3  -2   10.10    0.80
   3   3  -2   11.00    0.70
   3   3  -2   10.00    0.80
  -3   3   2   11.60    0.60
   3   3  -2   11.90    0.70
  -3   3   2   11.50    0.40
  -2  -3   2  280.47    7.10
  -2  -3   2  289.17    7.10
  -2  -3   2  275.17    6.90
   2  -3  -2  280.77    6.90
  -2  -3   2  276.87    7.10
   2  -3  -2  279.87    7.00
  -2  -3   2  285.47    7.10
  -2  -3   2  283.47    7.20
  -2   3   2  287.47    7.00
   2   3  -2  286.47    7.10
   2   3  -2  296.87    7.20
  -2   3   2  287.47    6.90
   2   3  -2  276.27    7.10
   2   3  -2  279.27    7.00
  -2   3   2  290.57    6.90
   2   3  -2  293.17    7.20
   2   3  -2  275.77    7.20
  -1  -3   2   56.89    1.80
  -1  -3   2   47.40    1.70
   1  -3  -2   55.79    1.50
  -1  -3   2   55.79    1.60
  -1  -3   2   55.39    1.70
  -1  -3   2   53.59    1.80
  -1  -3   2   54.39    1.70
   1  -3  -2   53.69    1.70
  -1   3   2   54.59    1.50
   1   3  -2   52.59    1.70
   1   3  -2   57.39    1.80
   1   3  -2   56.39    1.80
  -1   3   2   56.69    1.50
   1   3  -2   55.49    1.60
   1   3  -2   55.49    1.80
  -1   3   2   63.69    1.70
  -1   3   2   57.69    1.40
   1   3  -2   57.19    1.70
   0  -3   2 1289.77   80.19
   0  -3  -2 1355.36   55.39
   0   3   2 1372.06   57.49
   0   3  -2 1286.77   79.09
  -1  -3  -2 2031.20   80.79
   1  -3   2 1840.22  102.89
   1   3   2 1995.10   84.69
  -1   3  -2 1911.81  103.29
  -2  -3  -2  304.27    7.70
  -2  -3  -2  331.77    7.50
   2  -3   2  293.37    7.70
   2  -3   2  303.47    7.80
   2  -3   2  298.77    7.50
  -2  -3  -2  299.27    7.50
   2  -3   2  311.67    7.80
  -2  -3  -2  304.17    7.50
   2   3   2  308.97    7.70
   2   3   2  304.57    7.50
   2   3   2  311.47    7.30
  -2   3  -2  341.87    7.70
   2   3   2  304.37    7.80
  -2   3  -2  299.67    7.70
  -2   3  -2  287.67    7.60
   2   3   2  292.47    7.50
   3  -3   2   67.49    2.30
  -3  -3  -2   68.39    2.30
   3  -3   2   68.69    2.00
   3  -3   2   67.39    2.30
  -3  -3  -2   70.19    2.10
  -3  -3  -2   71.09    2.20
  -3  -3  -2   69.19    2.00
   3   3   2   68.69    2.40
   3   3   2   66.19    2.10
  -3   3  -2   72.39    2.20
   3   3   2   70.39    1.80
  -3   3  -2   69.89    2.10
   3   3   2   71.19    2.30
  -3   3  -2   68.69    2.40
   3   3   2   70.79    2.10
   4  -3   2   62.39    2.00
  -4  -3  -2   62.49    1.70
  -4  -3  -2   61.19    2.30
   4  -3   2   60.79    2.10
   4  -3   2   63.09    2.20
  -4  -3  -2   59.99    2.10
  -4  -3  -2   62.39    2.10
  -4  -3  -2   61.29    2.00
   4  -3   2   57.89    2.20
   4   3   2   61.69    2.10
  -4   3  -2   58.59    2.00
   4   3   2   62.39    1.70
  -4   3  -2   64.49    2.20
  -4   3  -2   66.39    2.40
   4   3   2   59.49    2.00
   4   3   2   63.89    2.30
   4   3   2   63.29    2.30
  -5  -3  -2  133.49    4.00
   5  -3   2  137.39    4.00
  -5  -3  -2  133.19    4.00
   5  -3   2  131.49    4.10
  -5  -3  -2  134.79    3.90
   5  -3   2  136.79    3.80
  -5  -3  -2  136.89    4.20
  -5  -3  -2  134.79    3.50
   5  -3   2  135.09    4.10
   5   3   2  138.29    3.90
   5   3   2  136.69    4.00
  -5   3  -2  136.79    4.30
   5   3   2  130.39    4.20
  -5   3  -2  136.89    4.10
   5   3   2  133.29    4.20
  -5   3  -2  134.19    3.90
   6  -3   2    8.10    1.00
  -6  -3  -2    7.10    1.00
  -6  -3  -2    7.30    0.60
  -6  -3  -2    6.60    0.80
  -6  -3  -2    7.50    0.90
   6  -3   2    6.60    0.80
   6  -3   2    7.20    1.00
   6  -3   2    7.60    0.90
  -6  -3  -2    8.40    1.00
  -6   3  -2    7.30    0.90
   6   3   2    7.00    0.80
  -6   3  -2    9.70    1.20
   6   3   2    6.60    1.00
   6   3   2    6.40    0.80
  -6   3  -2    8.20    1.00
  -6   3  -2    8.90    0.90
   6   3   2    6.70    0.90
   7  -3   2   16.90    1.20
  -7  -3  -2   18.80    1.60
   7  -3   2   18.90    1.50
   7  -3   2   18.40    1.50
  -7  -3  -2   17.80    0.90
   7  -3   2   19.00    1.40
  -7  -3  -2   19.80    1.50
  -7  -3  -2   19.50    1.30
  -7  -3  -2   19.20    1.40
   7   3   2   17.70    1.50
   7   3   2   18.80    1.40
   7   3   2   18.00    1.30
  -7   3  -2   18.00    1.20
  -7   3  -2   17.70    1.60
  -7   3  -2   19.00    1.50
   7   3   2   17.70    1.50
  -7   3  -2   19.30    1.30
   8  -3   2    8.10    1.20
  -8  -3  -2    8.50    1.20
   8  -3   2   10.70    1.20
   8  -3   2   11.90    1.40
  -8  -3  -2    9.20    0.70
  -8  -3  -2    8.40    1.00
  -8  -3  -2    9.60    1.30
  -8  -3  -2    6.70    1.50
   8  -3   2    9.30    1.10
  -8   3  -2    6.70    0.80
   8   3   2   11.00    2.00
   8   3   2    8.30    1.10
  -8   3  -2    9.40    1.20
   8   3   2   10.50    1.40
   9  -4  -2    4.10    0.80
   9  -4  -2    3.10    1.00
  -9  -4   2    2.70    0.60
  -9  -4   2    3.20    0.90
  -9  -4   2    4.60    1.00
  -9   4   2    3.70    0.70
  -9   4   2    5.10    1.00
   9   4  -2    3.00    0.80
   9   4  -2    5.50    1.10
  -8  -4   2   15.00    1.30
  -8  -4   2   16.30    1.50
   8  -4  -2   16.20    1.50
  -8  -4   2   14.20    1.10
  -8  -4   2   14.80    1.60
   8  -4  -2   16.00    1.20
  -8  -4   2   15.40    1.40
  -8   4   2   15.60    1.20
  -8   4   2   16.20    1.40
   8   4  -2   14.40    1.50
   8   4  -2   15.60    1.30
   8   4  -2   14.60    1.10
   8   4  -2   14.30    1.30
  -8   4   2   14.10    1.00
  -8   4   2   13.30    1.20
   8   4  -2   16.20    1.40
  -8   4   2   13.90    1.60
  -7  -4   2    7.90    0.90
  -7  -4   2   10.90    1.30
  -7  -4   2    8.80    1.10
   7  -4  -2    9.40    0.90
  -7  -4   2    7.80    0.90
  -7  -4   2    7.80    1.00
   7  -4  -2    8.20    1.00
   7   4  -2    8.30    1.10
   7   4  -2   10.30    1.20
   7   4  -2    8.20    1.10
  -7   4   2    9.80    1.00
  -7   4   2    8.60    0.90
  -7   4   2   11.80    1.40
   7   4  -2   10.30    0.90
  -7   4   2    9.10    0.80
   7   4  -2    8.50    0.90
  -7   4   2   10.60    1.10
  -6  -4   2   15.80    1.30
   6  -4  -2   17.50    1.20
  -6  -4   2   15.50    1.20
  -6  -4   2   14.50    1.10
   6  -4  -2   14.80    1.00
  -6  -4   2   16.50    1.30
  -6  -4   2   16.00    1.10
   6   4  -2   14.30    1.20
   6   4  -2   16.20    1.20
   6   4  -2   17.60    1.10
  -6   4   2   17.90    1.40
  -6   4   2   14.80    1.00
  -6   4   2   15.40    1.20
   6   4  -2   14.90    1.30
   6   4  -2   16.40    1.00
  -6   4   2   15.10    0.80
  -6   4   2   15.90    1.20
  -5  -4   2  113.69    3.60
  -5  -4   2  115.59    3.40
  -5  -4   2  113.19    3.70
   5  -4  -2  117.39    3.50
   5  -4  -2  119.39    3.40
  -5  -4   2  115.79    3.50
  -5   4   2  112.49    3.00
   5   4  -2  113.09    3.50
   5   4  -2  117.29    3.50
  -5   4   2  115.49    3.60
   5   4  -2  114.49    3.80
   5   4  -2  116.19    3.30
  -5   4   2  115.89    3.50
  -5   4   2  117.09    3.40
   5   4  -2  118.29    3.70
  -5   4   2  116.99    3.70
   4  -4  -2   25.20    1.20
  -4  -4   2   25.10    1.30
   4  -4  -2   26.00    1.20
  -4  -4   2   23.30    1.30
  -4  -4   2   28.10    1.20
  -4  -4   2   28.60    1.30
   4   4  -2   27.20    1.40
  -4   4   2   27.70    1.30
   4   4  -2   24.40    1.20
  -4   4   2   27.10    0.80
   4   4  -2   24.90    1.20
  -4   4   2   25.10    1.10
   4   4  -2   26.50    1.40
  -4   4   2   26.40    1.10
   4   4  -2   26.60    1.10
   3  -4  -2   97.59    2.90
  -3  -4   2   96.99    3.00
  -3  -4   2   99.99    3.00
  -3  -4   2   96.49    3.00
  -3  -4   2  100.49    2.90
  -3  -4   2   96.79    2.90
   3   4  -2   98.09    2.90
  -3   4   2  102.19    2.80
   3   4  -2   94.39    3.10
  -3   4   2  102.49    2.90
   3   4  -2  103.99    3.10
  -3   4   2  105.29    2.80
   3   4  -2   96.59    2.90
   3   4  -2   99.99    2.90
   2  -4  -2   13.10    0.70
  -2  -4   2   14.10    0.90
  -2  -4   2   12.00    0.60
   2  -4  -2   12.40    0.80
  -2  -4   2   12.60    0.90
  -2  -4   2   13.00    0.80
  -2  -4   2   13.70    0.80
   2   4  -2   13.20    0.80
   2   4  -2   12.70    0.80
  -2   4   2   13.00    0.60
  -2   4   2   12.90    0.80
   2   4  -2   12.90    0.80
   2   4  -2   13.40    0.80
   2   4  -2   13.80    0.90
   2   4  -2   12.60    0.90
  -1  -4   2  167.08    4.20
   1  -4  -2  166.88    4.50
  -1  -4   2  167.88    4.40
  -1  -4   2  167.48    4.60
  -1  -4   2  163.78    4.40
  -1  -4   2  175.28    4.50
   1  -4  -2  166.78    4.20
  -1  -4   2  166.98    4.50
   1   4  -2  170.98    4.20
   1   4  -2  163.78    4.60
  -1   4   2  168.88    4.20
   1   4  -2  167.08    4.50
  -1   4   2  172.48    4.10
   1   4  -2  168.08    4.50
  -1   4   2  172.58    4.50
  -1   4   2  169.68    4.20
   1   4  -2  162.98    4.40
   1   4  -2  153.48    4.40
   0  -4   2   88.19    2.40
   0  -4   2   84.29    2.70
   0  -4  -2   87.29    2.40
   0  -4  -2   87.19    2.30
   0  -4  -2   87.49    2.60
   0  -4   2   83.79    2.60
   0  -4   2   89.79    2.60
   0  -4   2   82.79    2.40
   0   4  -2   86.69    2.40
   0   4  -2   85.19    2.60
   0   4   2   93.19    2.40
   0   4   2   86.49    2.20
   0   4   2   88.39    2.60
   0   4   2   86.99    2.30
   0   4  -2   86.79    2.70
   0   4   2   89.09    2.30
   0   4  -2   84.79    2.50
   0   4  -2   81.89    2.50
  -1  -4  -2 1683.33   78.49
   1  -4   2 1511.25   99.09
  -1   4  -2 1543.75   98.59
   1   4   2 1644.04   82.79
  -2  -4  -2  143.19    4.10
   2  -4   2  143.59    4.30
   2  -4   2  152.48    3.80
  -2  -4  -2  149.59    3.80
   2  -4   2  142.79    4.20
  -2  -4  -2  150.08    3.80
  -2  -4  -2  141.19    4.00
   2  -4   2  152.68    4.20
   2   4   2  151.18    4.10
   2   4   2  149.49    3.90
   2   4   2  154.98    3.90
  -2   4  -2  176.18    4.20
  -2   4  -2  141.09    4.00
  -2   4  -2  155.78    4.20
  -2   4  -2  151.98    4.20
   2   4   2  147.89    4.30
   2   4   2  153.88    3.80
  -3  -4  -2  439.86   10.70
  -3  -4  -2  442.66   11.10
  -3  -4  -2  441.06   10.90
   3  -4   2  424.56   11.10
  -3  -4  -2  438.36   10.70
   3  -4   2  447.46   10.70
   3  -4   2  453.15   11.10
  -3   4  -2  441.06   10.90
   3   4   2  440.16   10.80
  -3   4  -2  461.75   11.10
   3   4   2  435.06   11.20
   3   4   2  437.96   10.60
   3   4   2  445.86   11.10
  -3   4  -2  434.56   11.10
   3   4   2  431.76   10.80
  -4  -4  -2   21.30    1.10
   4  -4   2   23.70    1.40
   4  -4   2   22.30    1.00
   4  -4   2   22.90    1.30
  -4  -4  -2   22.30    1.20
  -4  -4  -2   22.30    1.10
  -4  -4  -2   23.20    1.30
   4   4   2   22.40    0.80
  -4   4  -2   22.40    1.30
   4   4   2   23.30    1.10
  -4   4  -2   24.60    1.40
   4   4   2   20.50    1.30
   4   4   2   22.50    1.40
   4   4   2   22.60    1.20
  -4   4  -2   22.70    1.20
  -5  -4  -2    3.60    0.60
  -5  -4  -2    6.80    1.00
  -5  -4  -2    5.70    0.70
  -5  -4  -2    4.00    0.60
   5  -4   2    4.10    0.80
   5  -4   2    5.00    0.60
   5  -4   2    4.80    0.80
   5   4   2    4.00    0.80
  -5   4  -2    4.70    0.80
   5   4   2    4.00    0.40
   5   4   2    4.70    0.70
  -5   4  -2    4.60    0.70
   5   4   2    5.40    0.90
  -5   4  -2    5.50    0.90
   5   4   2    4.10    0.60
   6  -4   2    8.50    1.10
  -6  -4  -2    9.20    1.00
  -6  -4  -2    7.60    1.10
  -6  -4  -2    6.50    0.80
  -6  -4  -2    6.80    0.90
   6  -4   2    6.00    0.90
   6  -4   2    7.50    0.80
  -6   4  -2    7.40    0.80
   6   4   2    7.90    0.90
  -6   4  -2    8.00    1.00
  -6   4  -2    6.70    0.80
   6   4   2    6.30    0.90
  -6   4  -2    8.90    1.20
   6   4   2    6.20    0.90
   6   4   2    7.40    0.90
   7  -4   2    6.00    0.80
   7  -4   2    6.60    1.10
  -7  -4  -2    7.60    1.10
   7  -4   2    5.10    0.90
  -7  -4  -2    5.30    0.80
  -7  -4  -2    5.20    0.90
  -7  -4  -2    5.40    0.90
  -7   4  -2    6.00    0.80
  -7   4  -2    4.60    0.80
   7   4   2    6.40    1.10
  -7   4  -2    5.80    1.10
  -7   4  -2    5.50    0.90
   7   4   2    5.20    0.90
   7   4   2    6.40    0.90
   7   4   2    5.80    1.00
   8  -4   2   20.00    1.80
   8  -4   2   18.20    1.30
   8  -4   2   19.20    1.70
  -8  -4  -2   19.90    1.60
  -8  -4  -2   20.80    1.50
  -8   4  -2   19.10    1.40
   8   4   2   18.90    1.70
  -8   4  -2   17.80    1.50
   9  -5  -2    4.60    1.00
  -9  -5   2    3.50    0.70
  -9  -5   2    2.50    0.80
   9  -5  -2    5.30    0.90
  -9   5   2    4.40    1.00
   9   5  -2    1.70    0.70
   8  -5  -2    9.20    1.00
   8  -5  -2    7.60    1.10
  -8  -5   2    6.70    1.00
  -8  -5   2    7.90    1.20
  -8  -5   2    6.70    0.90
  -8  -5   2    7.60    1.00
   8   5  -2    6.90    1.10
  -8   5   2    8.70    1.10
  -8   5   2    9.30    1.10
   8   5  -2    8.10    0.90
  -8   5   2    6.20    1.10
   8   5  -2    8.40    1.20
   7  -5  -2   16.00    1.30
  -7  -5   2   15.80    1.50
  -7  -5   2   14.80    1.30
  -7  -5   2   15.00    1.20
   7  -5  -2   15.10    1.20
  -7  -5   2   16.90    1.20
  -7  -5   2   17.80    1.40
  -7   5   2   14.30    1.30
   7   5  -2   15.00    1.10
  -7   5   2   15.00    1.10
  -7   5   2   15.60    1.50
   7   5  -2   17.00    1.30
   7   5  -2   14.60    1.50
   7   5  -2   12.70    1.30
  -7   5   2   15.20    1.30
   7   5  -2   14.30    1.30
  -6  -5   2    8.00    1.10
  -6  -5   2    7.80    1.10
   6  -5  -2    6.90    0.80
  -6  -5   2    7.00    0.90
  -6  -5   2    8.10    0.90
  -6  -5   2    5.90    0.70
   6  -5  -2    4.80    0.80
   6   5  -2    5.60    0.90
  -6   5   2    6.50    0.90
   6   5  -2    6.60    1.00
  -6   5   2    8.70    1.10
   6   5  -2    7.70    0.80
   6   5  -2    5.80    0.80
   6   5  -2    7.00    0.90
  -6   5   2    5.80    0.80
  -6   5   2    6.50    0.90
  -5  -5   2  156.88    4.60
   5  -5  -2  159.08    4.60
  -5  -5   2  166.68    4.90
  -5  -5   2  160.18    4.70
   5  -5  -2  164.48    4.70
  -5  -5   2  164.88    4.90
  -5   5   2  151.38    4.60
   5   5  -2  166.28    4.80
   5   5  -2  172.58    4.70
  -5   5   2  163.48    4.50
  -5   5   2  165.48    4.80
   5   5  -2  161.08    4.90
   5   5  -2  163.58    5.00
   5   5  -2  161.48    4.50
  -5   5   2  168.08    4.90
   4  -5  -2  129.89    3.80
  -4  -5   2  131.09    4.00
  -4  -5   2  127.59    3.80
  -4  -5   2  128.19    3.80
  -4  -5   2  129.89    3.90
   4  -5  -2  129.59    3.70
   4   5  -2  133.59    3.90
  -4   5   2  125.99    3.70
  -4   5   2  129.79    3.60
   4   5  -2  127.79    4.00
   4   5  -2  130.09    3.70
   4   5  -2  129.79    3.80
  -4   5   2  131.49    3.90
   4   5  -2  131.09    4.10
  -3  -5   2   44.90    1.80
  -3  -5   2   44.90    1.40
  -3  -5   2   44.40    1.80
  -3  -5   2   44.30    1.70
  -3  -5   2   45.40    1.90
   3  -5  -2   48.50    1.80
   3   5  -2   43.80    1.70
  -3   5   2   45.10    1.50
  -3   5   2   45.00    1.70
   3   5  -2   45.90    1.80
   3   5  -2   45.30    1.70
   3   5  -2   46.00    1.70
  -3   5   2   44.90    1.70
  -3   5   2   43.60    1.60
   3   5  -2   44.80    1.90
   3   5  -2   47.00    1.80
  -2  -5   2  125.49    3.70
   2  -5  -2  120.29    3.40
   2  -5  -2  128.29    3.60
  -2  -5   2  122.19    3.20
  -2  -5   2  125.39    3.60
  -2  -5   2  126.89    3.50
  -2  -5   2  122.09    3.60
  -2   5   2  122.29    3.40
   2   5  -2  125.99    3.60
   2   5  -2  126.19    3.50
  -2   5   2  125.39    3.60
   2   5  -2  117.89    3.70
   2   5  -2  124.69    3.60
   2   5  -2  126.49    3.60
  -2   5   2  130.39    3.40
  -1  -5   2  148.09    4.40
   1  -5  -2  150.68    3.80
  -1  -5   2  150.18    3.80
   1  -5  -2  151.78    4.30
   1  -5  -2  148.49    3.90
  -1  -5   2  151.68    4.10
  -1  -5   2  148.09    4.20
  -1  -5   2  158.08    4.20
  -1   5   2  159.28    4.30
   1   5  -2  152.98    4.20
   1   5  -2  153.68    3.90
   1   5  -2  151.48    4.20
   1   5  -2  146.19    4.10
   1   5  -2  154.68    4.20
  -1   5   2  152.38    3.80
  -1   5   2  152.48    4.00
   1   5  -2  150.38    4.40
  -1   5   2  158.38    3.90
   0  -5  -2  145.39    4.20
   0  -5  -2  147.19    3.80
   0  -5  -2  152.08    3.90
   0  -5   2  142.59    4.20
   0  -5   2  139.39    4.10
   0  -5   2  150.48    3.80
   0  -5   2  143.59    3.90
   0   5   2  150.58    3.80
   0   5   2  145.39    3.60
   0   5   2  149.39    4.20
   0   5  -2  150.28    3.90
   0   5   2  149.99    3.80
   0   5   2  147.29    3.80
   0   5  -2  141.19    4.10
   0   5  -2  145.99    4.20
   0   5   2  151.28    3.60
   0   5   2  150.58    3.80
   0   5  -2  147.39    4.10
   0   5  -2  143.99    4.00
   1  -5   2   65.39    2.20
   1  -5   2   66.49    2.40
  -1  -5  -2   64.49    2.00
  -1  -5  -2   65.49    2.30
  -1  -5  -2   65.39    2.10
   1  -5   2   64.99    2.10
   1   5   2   69.99    2.00
   1   5   2   65.89    2.00
  -1   5  -2   68.79    2.20
  -1   5  -2   66.99    2.30
   1   5   2   66.49    2.40
   1   5   2   65.49    2.10
  -1   5  -2   67.49    2.10
  -1   5  -2   66.79    2.20
   1   5   2   65.69    1.90
  -2  -5  -2  202.58    5.50
   2  -5   2  198.68    5.70
  -2  -5  -2  192.68    5.30
   2  -5   2  200.48    5.10
   2  -5   2  196.38    5.50
   2   5   2  206.28    5.70
   2   5   2  204.98    5.20
   2   5   2  201.38    5.50
  -2   5  -2  206.18    5.50
   2   5   2  196.98    5.30
   2   5   2  202.28    5.20
  -2   5  -2  233.38    5.60
  -2   5  -2  207.88    5.60
  -2   5  -2  204.18    5.50
   2   5   2  205.98    5.20
   3  -5   2   51.59    2.00
   3  -5   2   49.40    2.10
  -3  -5  -2   51.49    1.60
  -3  -5  -2   50.29    1.80
  -3  -5  -2   46.70    1.90
  -3  -5  -2   50.29    1.50
   3  -5   2   42.80    1.50
   3   5   2   47.90    1.70
   3   5   2   51.39    1.80
  -3   5  -2   49.80    1.90
   3   5   2   49.90    1.50
  -3   5  -2   51.49    2.00
   3   5   2   49.60    2.10
   3   5   2   49.40    2.00
  -3   5  -2   52.59    1.80
   4  -5   2   43.70    1.40
  -4  -5  -2   43.80    1.90
  -4  -5  -2   42.70    1.50
   4  -5   2   42.00    1.90
  -4  -5  -2   43.00    1.60
  -4  -5  -2   42.20    1.80
   4  -5   2   42.20    1.90
  -4   5  -2   42.70    2.00
  -4   5  -2   39.20    1.80
   4   5   2   40.40    1.90
   4   5   2   44.60    1.70
   4   5   2   45.40    1.70
   4   5   2   41.30    1.30
  -4   5  -2   42.60    1.70
   4   5   2   39.40    2.00
  -5  -5  -2   99.19    3.00
   5  -5   2   98.19    3.50
  -5  -5  -2  100.99    3.10
  -5  -5  -2  102.19    3.60
   5  -5   2  101.89    2.90
  -5  -5  -2  101.39    3.30
   5  -5   2  101.29    3.50
   5   5   2   98.69    3.20
   5   5   2   99.39    3.50
   5   5   2   99.49    3.10
  -5   5  -2  103.79    3.20
   5   5   2  104.89    3.70
  -5   5  -2  104.19    3.60
  -5   5  -2   97.09    3.30
   5   5   2   93.79    2.70
   6  -5   2   44.30    2.20
  -6  -5  -2   39.90    2.00
   6  -5   2   42.80    2.10
  -6  -5  -2   37.00    1.70
   6  -5   2   42.40    1.60
  -6  -5  -2   39.10    2.10
  -6  -5  -2   36.40    1.70
   6   5   2   39.20    2.20
   6   5   2   39.80    1.90
  -6   5  -2   40.90    2.20
   6   5   2   40.70    2.20
  -6   5  -2   40.00    1.90
  -6   5  -2   38.20    1.80
   6   5   2   42.40    1.90
  -7  -5  -2   33.00    1.70
   7  -5   2   32.30    1.50
  -7  -5  -2   30.60    1.90
  -7  -5  -2   29.30    1.60
  -7  -5  -2   30.30    2.10
   7  -5   2   35.20    2.10
   7  -5   2   33.30    2.10
   7   5   2   32.90    2.10
  -7   5  -2   35.90    2.30
  -7   5  -2   30.00    1.80
   7   5   2   35.60    1.90
   7   5   2   29.60    2.10
  -7   5  -2   33.30    1.80
   7   5   2   35.20    1.80
  -7   5  -2   32.70    1.70
   8  -5   2    1.00    0.50
   8  -5   2    1.60    1.00
  -8  -5  -2    0.70    0.60
  -8  -5  -2    0.90    0.60
  -8   5  -2    0.60    0.60
  -8   5  -2    1.50    0.80
   8  -6  -2    2.30    0.70
   8  -6  -2    3.40    0.90
  -8  -6   2    2.80    0.80
  -8  -6   2    3.20    0.70
  -8   6   2    1.50    0.70
   8   6  -2    3.60    0.70
   8   6  -2    1.90    0.90
   8   6  -2    2.70    0.80
  -7  -6   2    5.30    0.70
   7  -6  -2    6.80    0.90
  -7  -6   2    6.30    1.00
  -7  -6   2    5.00    1.00
  -7  -6   2    6.20    0.90
   7  -6  -2    5.70    0.90
  -7  -6   2    5.30    1.00
   7   6  -2    6.50    1.20
  -7   6   2    5.50    0.80
   7   6  -2    5.40    1.00
  -7   6   2    6.10    0.90
   7   6  -2    5.90    0.80
  -7   6   2    4.70    1.00
   7   6  -2    5.60    0.90
   7   6  -2    6.10    1.00
  -7   6   2    3.70    0.80
  -6  -6   2    2.50    0.70
  -6  -6   2    4.70    1.00
  -6  -6   2    4.90    0.60
   6  -6  -2    4.40    0.80
  -6  -6   2    3.50    0.80
   6  -6  -2    4.40    0.80
   6   6  -2    5.00    0.90
   6   6  -2    4.10    0.60
  -6   6   2    4.90    0.70
   6   6  -2    4.00    0.90
  -6   6   2    4.90    0.80
  -6   6   2    3.60    0.80
   6   6  -2    3.70    0.70
   6   6  -2    4.90    1.00
  -6   6   2    5.00    0.90
  -5  -6   2   97.89    2.80
  -5  -6   2   92.69    3.30
   5  -6  -2   92.29    3.10
   5  -6  -2   95.39    3.20
  -5  -6   2   93.59    3.10
  -5  -6   2   94.89    3.40
   5   6  -2   97.59    3.10
   5   6  -2   88.69    3.40
   5   6  -2   96.89    3.00
  -5   6   2   93.89    3.30
   5   6  -2   92.49    3.20
  -5   6   2   87.59    3.00
   5   6  -2   89.19    3.30
  -5   6   2   98.09    3.40
  -5   6   2   93.19    3.00
   5   6  -2   98.19    3.50
   4  -6  -2  134.29    4.00
  -4  -6   2  130.79    3.50
  -4  -6   2  139.99    4.20
  -4  -6   2  131.69    3.90
  -4  -6   2  130.49    4.10
  -4   6   2  130.79    4.00
  -4   6   2  131.09    3.70
   4   6  -2  135.19    4.20
   4   6  -2  120.69    3.80
  -4   6   2  131.79    3.90
   4   6  -2  128.79    3.90
  -4   6   2  126.39    3.70
   4   6  -2  128.19    3.90
   4   6  -2  120.09    4.00
   4   6  -2  130.99    4.20
   3  -6  -2  178.08    5.00
  -3  -6   2  178.08    5.20
  -3  -6   2  177.38    4.40
   3  -6  -2  172.68    4.80
  -3  -6   2  178.88    4.90
  -3  -6   2  175.78    5.00
  -3  -6   2  171.08    5.00
   3   6  -2  174.18    5.00
  -3   6   2  173.58    4.70
   3   6  -2  175.08    5.10
   3   6  -2  180.98    4.90
   3   6  -2  181.48    4.90
  -3   6   2  179.08    4.70
  -3   6   2  174.28    4.90
   3   6  -2  172.88    5.10
   3   6  -2  177.28    5.30
  -3   6   2  181.98    5.00
  -2  -6   2  109.49    3.40
  -2  -6   2  115.19    3.30
  -2  -6   2  109.99    2.80
  -2  -6   2  111.99    3.40
  -2  -6   2  114.29    3.60
   2  -6  -2  114.99    3.50
   2  -6  -2  110.79    3.20
  -2   6   2  108.79    3.10
   2   6  -2  110.59    3.60
   2   6  -2  112.89    3.40
  -2   6   2  113.49    3.50
   2   6  -2  109.49    3.40
   2   6  -2  112.39    3.30
  -2   6   2  115.19    3.20
   2   6  -2  114.49    3.50
  -2   6   2  108.69    3.20
  -1  -6   2    3.00    0.60
  -1  -6   2    2.40    0.60
   1  -6  -2    3.00    0.60
   1  -6  -2    3.30    0.30
  -1  -6   2    3.30    0.50
   1  -6  -2    3.60    0.50
  -1  -6   2    3.10    0.60
  -1  -6   2    3.20    0.30
   1   6  -2    3.50    0.60
   1   6  -2    2.90    0.50
  -1   6   2    4.10    0.50
  -1   6   2    3.60    0.40
  -1   6   2    2.90    0.40
  -1   6   2    3.80    0.60
   1   6  -2    3.70    0.70
  -1   6   2    3.30    0.30
   1   6  -2    4.00    0.60
   1   6  -2    2.80    0.50
   0  -6   2   16.60    1.20
   0  -6  -2   15.70    0.80
   0  -6   2   15.40    0.80
   0  -6  -2   16.40    1.10
   0  -6   2   15.90    0.80
   0  -6   2   17.30    1.00
   0   6   2   17.40    1.10
   0   6  -2   16.30    1.00
   0   6   2   16.30    0.80
   0   6   2   15.20    0.80
   0   6   2   15.80    0.80
   0   6  -2   15.90    0.80
   0   6  -2   17.60    1.20
   0   6  -2   17.90    1.00
   0   6   2   16.60    0.80
   0   6  -2   15.80    1.00
  -1  -6  -2   47.30    1.60
   1  -6   2   51.69    1.50
  -1  -6  -2   49.80    2.00
   1  -6   2   48.20    2.00
   1  -6   2   47.60    1.80
  -1  -6  -2   49.60    1.70
   1   6   2   46.30    1.60
  -1   6  -2   46.90    1.90
   1   6   2   46.20    2.00
  -1   6  -2   49.10    1.70
  -1   6  -2   46.50    1.80
   1   6   2   46.00    1.60
   1   6   2   46.80    1.70
   1   6   2   45.80    1.60
  -1   6  -2   46.60    2.00
  -1   6  -2   45.70    1.80
   2  -6   2    6.20    0.50
   2  -6   2    6.20    0.80
  -2  -6  -2    8.60    0.70
   2  -6   2    5.80    0.70
  -2  -6  -2    7.70    0.80
   2   6   2    7.00    0.80
  -2   6  -2    6.40    0.70
  -2   6  -2    7.20    0.80
   2   6   2    6.50    0.90
  -2   6  -2    7.00    0.80
   2   6   2    7.60    0.70
   2   6   2    6.80    0.70
   2   6   2    6.90    0.70
  -2   6  -2    7.50    0.80
   2   6   2    6.90    0.70
   3  -6   2   70.99    2.70
   3  -6   2   70.49    2.60
  -3  -6  -2   72.59    2.40
   3  -6   2   71.89    2.00
  -3  -6  -2   68.19    2.60
  -3  -6  -2   72.79    2.10
   3   6   2   72.79    2.80
  -3   6  -2   74.29    2.70
  -3   6  -2   69.29    2.50
   3   6   2   72.09    2.60
   3   6   2   73.29    2.30
  -3   6  -2   73.99    2.40
  -3   6  -2   69.69    2.60
   3   6   2   67.99    2.40
   3   6   2   71.49    2.30
   3   6   2   69.89    2.20
  -4  -6  -2   39.30    1.90
   4  -6   2   38.30    2.00
  -4  -6  -2   41.10    1.70
  -4  -6  -2   38.80    1.50
   4  -6   2   39.10    1.20
   4  -6   2   37.50    1.80
  -4  -6  -2   38.90    1.30
   4   6   2   39.50    1.70
   4   6   2   38.60    1.90
  -4   6  -2   36.70    1.70
   4   6   2   38.60    2.00
   4   6   2   37.40    1.30
  -4   6  -2   39.70    1.80
   4   6   2   37.60    1.60
  -4   6  -2   38.90    1.90
   5  -6   2    5.20    0.90
  -5  -6  -2    6.80    1.10
  -5  -6  -2    6.30    0.90
  -5  -6  -2    6.30    0.70
   5  -6   2    6.70    0.50
  -5  -6  -2    5.80    0.60
   5  -6   2    6.10    0.90
  -5   6  -2    6.70    0.90
  -5   6  -2    6.90    0.90
   5   6   2    6.00    1.00
   5   6   2    6.30    0.60
   5   6   2    7.80    0.90
   5   6   2    7.90    0.90
  -5   6  -2    6.10    1.00
   5   6   2    4.60    0.90
  -6  -6  -2   22.60    1.30
   6  -6   2   21.50    1.70
  -6  -6  -2   18.40    1.10
  -6  -6  -2   17.10    1.70
   6  -6   2   18.60    1.60
  -6  -6  -2   22.10    1.50
   6  -6   2   18.70    0.90
   6   6   2   19.80    1.60
   6   6   2   20.90    1.40
  -6   6  -2   20.00    1.50
   6   6   2   17.90    1.70
   6   6   2   20.50    0.90
  -6   6  -2   18.70    1.70
  -6   6  -2   19.60    1.30
   6   6   2   23.00    1.40
  -7  -6  -2   23.00    1.40
   7  -6   2   22.20    1.80
   7  -6   2   22.30    1.10
  -7  -6  -2   22.80    1.50
   7  -6   2   21.90    1.80
   7   6   2   26.20    2.00
  -7   6  -2   21.20    1.60
  -7   6  -2   21.40    1.70
   8  -6   2    6.60    0.70
   8  -7  -2    0.80    0.80
   8  -7  -2    1.80    0.70
  -8  -7   2    0.80    0.50
  -8   7   2    1.20    0.80
   8   7  -2    1.30    0.90
   8   7  -2    1.30    0.60
  -7  -7   2    0.10    0.40
  -7  -7   2   -0.20    0.60
   7  -7  -2    0.00    0.60
   7  -7  -2    0.00    0.50
  -7  -7   2    0.30    0.70
   7   7  -2    0.50    0.70
  -7   7   2    0.90    0.80
  -7   7   2    0.70    0.60
   7   7  -2    1.40    0.80
   7   7  -2   -0.20    0.60
  -7   7   2    0.80    0.50
   7   7  -2    0.70    0.50
  -6  -7   2   15.00    1.60
   6  -7  -2   15.90    1.30
  -6  -7   2   16.20    1.00
  -6  -7   2   16.70    1.30
  -6  -7   2   15.30    0.90
   6  -7  -2   15.00    1.30
  -6  -7   2   14.60    1.40
  -6   7   2   15.10    1.30
  -6   7   2   14.40    1.50
   6   7  -2   15.00    1.50
  -6   7   2   15.00    1.20
   6   7  -2   15.70    1.50
  -6   7   2   15.30    1.20
   6   7  -2   16.70    1.40
   6   7  -2   17.20    1.20
   6   7  -2   16.20    1.40
   6   7  -2   16.30    1.50
  -5  -7   2   14.70    0.80
  -5  -7   2   13.80    1.20
  -5  -7   2   13.60    1.30
  -5  -7   2   15.10    1.40
   5  -7  -2   14.30    1.10
   5  -7  -2   14.20    1.20
  -5  -7   2   14.60    0.80
  -5   7   2   16.30    1.30
   5   7  -2   13.90    1.40
  -5   7   2   12.90    1.00
  -5   7   2   15.00    1.10
   5   7  -2   14.20    1.10
   5   7  -2   13.70    1.20
   5   7  -2   16.40    1.30
   5   7  -2   12.30    1.30
   5   7  -2   14.90    1.50
  -4  -7   2  137.19    4.10
  -4  -7   2  137.19    3.40
   4  -7  -2  134.69    4.20
  -4  -7   2  137.39    4.30
  -4  -7   2  135.79    3.40
  -4  -7   2  127.69    4.20
  -4   7   2  132.39    3.90
   4   7  -2  134.19    4.50
   4   7  -2  133.29    4.30
   4   7  -2  131.29    4.30
   4   7  -2  134.39    4.00
  -4   7   2  138.29    3.90
  -4   7   2  139.19    4.20
   4   7  -2  138.69    4.10
  -4   7   2  134.89    4.10
   4   7  -2  139.89    4.20
  -3  -7   2  107.29    3.60
   3  -7  -2  105.49    3.40
  -3  -7   2  105.49    3.40
  -3  -7   2  106.19    3.20
  -3  -7   2  104.89    3.40
   3  -7  -2  100.99    3.20
   3   7  -2  106.29    3.30
   3   7  -2  101.29    3.30
   3   7  -2   97.69    3.40
  -3   7   2  102.59    3.40
   3   7  -2  100.79    3.30
  -3   7   2  106.69    3.10
  -3   7   2   96.89    3.10
  -3   7   2  106.39    3.20
  -3   7   2  101.69    3.20
   3   7  -2  100.49    3.60
  -2  -7   2   47.50    1.90
  -2  -7   2   44.50    2.10
   2  -7  -2   49.50    2.10
  -2  -7   2   50.19    2.00
   2  -7  -2   49.60    1.80
  -2   7   2   47.20    1.70
   2   7  -2   50.99    1.90
  -2   7   2   46.80    1.70
   2   7  -2   46.90    1.90
  -2   7   2   48.50    2.00
   2   7  -2   49.70    2.20
  -2   7   2   48.10    1.80
   2   7  -2   49.30    2.00
   2   7  -2   45.80    2.00
   1  -7  -2   12.70    0.60
  -1  -7   2   11.90    1.00
   1  -7  -2   12.90    0.80
  -1  -7   2   13.20    1.20
   1  -7  -2   13.00    1.10
  -1  -7   2   13.90    0.90
   1   7  -2   13.30    1.20
  -1   7   2   11.40    0.80
   1   7  -2   12.90    1.00
   1   7  -2   12.00    1.00
   1   7  -2   13.00    1.00
  -1   7   2   12.00    0.80
   1   7  -2   12.70    1.10
  -1   7   2   11.80    0.60
  -1   7   2   11.40    1.10
   0  -7  -2   70.79    2.20
   0  -7   2   74.19    2.30
   0  -7   2   72.39    2.80
   0  -7  -2   71.79    2.70
   0  -7   2   73.29    2.60
   0   7  -2   74.49    2.80
   0   7   2   71.89    2.20
   0   7   2   74.89    2.30
   0   7  -2   72.39    2.50
   0   7   2   71.09    2.20
   0   7   2   71.99    2.30
   0   7   2   74.89    2.80
   0   7  -2   70.39    2.20
   0   7  -2   76.19    2.60
   0   7  -2   75.89    2.50
   1  -7   2   26.10    1.40
  -1  -7  -2   23.10    1.20
  -1  -7  -2   26.40    1.30
  -1  -7  -2   24.80    1.50
   1  -7   2   26.30    1.00
   1  -7   2   24.40    1.60
   1   7   2   25.20    1.20
   1   7   2   23.90    1.50
  -1   7  -2   26.50    1.40
  -1   7  -2   24.30    1.30
  -1   7  -2   27.80    1.40
   1   7   2   25.80    1.20
   1   7   2   25.70    1.10
   1   7   2   26.70    1.20
  -1   7  -2   26.50    1.60
  -1   7  -2   27.00    1.20
  -2  -7  -2   40.10    1.70
   2  -7   2   40.10    1.80
   2  -7   2   39.40    1.20
  -2  -7  -2   38.40    1.60
   2  -7   2   37.50    2.00
  -2   7  -2   31.40    1.60
   2   7   2   38.70    1.70
   2   7   2   43.70    1.60
   2   7   2   39.90    2.00
   2   7   2   36.80    1.60
   2   7   2   40.30    1.50
   2   7   2   38.90    1.60
  -2   7  -2   40.10    1.90
  -2   7  -2   37.80    1.80
  -2   7  -2   38.90    1.70
   3  -7   2    1.70    0.20
   3  -7   2    2.40    0.70
   3  -7   2    2.60    0.80
  -3  -7  -2    1.20    0.60
  -3  -7  -2    1.90    0.50
   3  -7   2    1.80    0.20
  -3   7  -2    1.70    0.60
  -3   7  -2    1.50    0.60
   3   7   2    1.30    0.50
   3   7   2    1.60    0.40
   3   7   2    2.20    0.70
  -3   7  -2    1.10    0.50
   3   7   2    3.10    0.60
  -3   7  -2    1.80    0.60
   3   7   2    1.80    0.50
  -3   7  -2    1.70    0.60
   3   7   2    1.40    0.50
  -4  -7  -2   12.00    1.20
   4  -7   2   11.80    1.30
   4  -7   2   12.10    1.30
  -4  -7  -2   10.80    0.80
  -4  -7  -2   11.20    1.00
   4   7   2   10.20    1.10
  -4   7  -2    9.50    1.00
  -4   7  -2   10.30    1.00
  -4   7  -2    9.60    1.10
   4   7   2   11.30    0.80
   4   7   2   11.50    1.30
   4   7   2   11.70    1.00
   4   7   2   10.40    1.20
   4   7   2   11.50    0.90
  -4   7  -2   11.00    1.20
  -5  -7  -2   37.30    1.50
   5  -7   2   41.10    2.20
  -5  -7  -2   37.10    1.20
  -5  -7  -2   36.20    2.10
  -5  -7  -2   36.80    1.90
   5  -7   2   39.20    2.20
   5   7   2   38.50    1.80
   5   7   2   38.60    1.80
   5   7   2   37.80    1.40
  -5   7  -2   35.20    1.90
   5   7   2   38.20    2.10
  -5   7  -2   38.50    1.80
   5   7   2   38.40    2.20
  -5   7  -2   36.60    2.10
  -6  -7  -2   51.39    2.40
  -6  -7  -2   45.80    1.90
  -6  -7  -2   49.20    1.70
   6  -7   2   53.49    2.60
   6  -7   2   52.69    2.60
  -6  -7  -2   52.89    2.70
  -6   7  -2   48.10    2.20
   6   7   2   44.40    2.50
   6   7   2   50.79    2.20
   6   7   2   47.90    1.60
   6   7   2   49.00    2.30
  -6   7  -2   48.00    2.60
  -6   7  -2   49.00    2.30
   6   7   2   48.70    2.70
  -7  -7  -2    3.80    0.60
   7  -7   2    4.40    1.10
  -7  -7  -2    4.60    0.80
   7  -7   2    4.00    1.00
  -7   7  -2    3.40    0.90
   7  -8  -2    4.80    1.00
  -7  -8   2    7.90    1.00
  -7  -8   2    5.90    0.60
   7  -8  -2    7.60    1.10
  -7  -8   2    7.20    0.70
   7   8  -2    6.70    0.90
   7   8  -2    5.10    1.10
  -7   8   2    7.70    1.10
  -6  -8   2   16.80    0.80
  -6  -8   2   20.00    1.50
  -6  -8   2   18.00    0.80
   6  -8  -2   18.00    1.50
   6  -8  -2   20.30    1.50
  -6  -8   2   15.50    1.50
  -6  -8   2   17.50    1.70
   6   8  -2   20.30    1.70
  -6   8   2   18.50    1.60
  -6   8   2   19.90    1.30
   6   8  -2   19.80    1.70
   6   8  -2   18.30    1.70
   6   8  -2   20.40    1.30
   6   8  -2   20.00    1.60
  -6   8   2   15.60    1.50
  -6   8   2   19.50    1.40
   6   8  -2   20.90    1.60
   5  -8  -2   13.80    1.30
  -5  -8   2   12.60    1.30
  -5  -8   2   14.20    1.20
  -5  -8   2   15.30    1.50
   5   8  -2   14.20    1.30
  -5   8   2   12.20    1.20
  -5   8   2   14.30    1.30
   5   8  -2   15.00    1.30
   5   8  -2   15.10    1.40
   5   8  -2   14.40    1.10
  -5   8   2   12.90    1.10
  -5   8   2   14.50    1.10
   5   8  -2   14.20    1.50
   4  -8  -2    3.70    0.70
  -4  -8   2    2.80    0.80
  -4  -8   2    4.90    0.80
   4  -8  -2    4.70    0.90
  -4  -8   2    4.80    0.90
   4   8  -2    3.80    0.70
   4   8  -2    4.00    0.80
   4   8  -2    4.90    0.80
   4   8  -2    5.10    0.90
  -4   8   2    4.00    0.80
   4   8  -2    4.30    1.00
  -4   8   2    3.90    0.70
  -4   8   2    4.10    0.80
  -4   8   2    4.50    0.70
  -4   8   2    4.00    0.70
  -3  -8   2   27.60    1.80
  -3  -8   2   29.50    1.70
  -3  -8   2   30.60    1.70
   3  -8  -2   29.10    1.40
   3  -8  -2   30.10    1.70
  -3   8   2   27.10    1.40
   3   8  -2   32.10    1.90
  -3   8   2   28.40    1.60
   3   8  -2   27.00    1.60
   3   8  -2   30.50    1.60
  -3   8   2   28.00    1.40
  -3   8   2   29.20    1.50
  -3   8   2   27.00    1.40
   3   8  -2   30.10    1.60
   3   8  -2   29.50    1.60
  -2  -8   2   57.19    2.60
   2  -8  -2   56.59    2.10
  -2  -8   2   59.89    2.40
   2  -8  -2   61.89    2.50
  -2  -8   2   58.39    2.30
  -2   8   2   55.39    2.00
   2   8  -2   59.29    2.60
  -2   8   2   56.79    2.10
   2   8  -2   57.79    2.30
   2   8  -2   60.19    2.30
   2   8  -2   57.29    2.40
  -2   8   2   56.39    2.00
   2   8  -2   62.99    2.40
  -2   8   2   59.19    2.40
  -1  -8   2   97.39    3.00
  -1  -8   2   91.99    3.20
   1  -8  -2   96.49    3.40
   1  -8  -2   96.69    2.60
  -1  -8   2   95.29    3.50
   1  -8  -2   93.49    2.90
  -1   8   2   94.29    2.90
   1   8  -2   92.49    3.30
  -1   8   2   89.69    2.50
  -1   8   2   95.49    2.90
   1   8  -2   88.79    3.20
   1   8  -2   95.19    3.20
  -1   8   2   95.89    2.90
   1   8  -2   93.59    3.50
  -1   8   2   98.39    3.40
   1   8  -2   96.19    3.10
   0  -8   2    3.40    0.70
   0  -8  -2    1.70    0.60
   0  -8   2    3.90    0.60
   0  -8   2    1.60    0.70
   0  -8  -2    3.20    0.50
   0   8   2    3.00    0.80
   0   8   2    2.30    0.50
   0   8  -2    3.30    0.80
   0   8  -2    2.80    0.70
   0   8  -2    2.00    0.60
   0   8   2    2.80    0.50
   0   8   2    3.00    0.60
   0   8  -2    2.30    0.40
   0   8  -2    2.70    0.70
   0   8  -2    2.50    0.70
   0   8   2    2.30    0.50
  -1  -8  -2    1.70    0.50
   1  -8   2    2.40    0.40
   1  -8   2    3.00    0.70
  -1  -8  -2    2.10    0.50
   1  -8   2    1.60    0.70
  -1  -8  -2    2.20    0.70
  -1   8  -2    2.40    0.70
   1   8   2    1.50    0.50
   1   8   2    1.90    0.70
  -1   8  -2    2.20    0.60
  -1   8  -2    1.90    0.60
  -1   8  -2    2.40    0.60
   1   8   2    1.60    0.50
   1   8   2    1.20    0.50
   1   8   2    2.90    0.60
   1   8   2    2.30    0.60
  -1   8  -2    1.40    0.40
   2  -8   2    9.40    1.20
   2  -8   2    9.60    1.10
   2  -8   2    8.90    0.50
  -2  -8  -2    7.80    0.80
  -2  -8  -2    9.00    1.00
   2   8   2    8.10    0.80
  -2   8  -2    7.50    0.90
  -2   8  -2    9.00    1.00
   2   8   2    8.40    0.90
   2   8   2    7.50    0.80
   2   8   2    9.00    1.10
  -2   8  -2   10.10    1.20
   2   8   2    9.10    0.80
  -2   8  -2    6.30    0.90
   2   8   2    9.70    0.90
  -2   8  -2    8.90    0.90
  -3  -8  -2    0.40    0.60
   3  -8   2   -0.40    0.50
   3  -8   2    0.80    0.70
  -3  -8  -2   -0.20    0.40
  -3   8  -2    0.30    0.50
  -3   8  -2    0.30    0.50
   3   8   2    0.30    0.40
  -3   8  -2    0.60    0.50
   3   8   2   -0.60    0.50
  -3   8  -2    0.60    0.50
   3   8   2    0.10    0.50
   3   8   2    0.50    0.40
  -3   8  -2   -0.40    0.50
   3   8   2    0.00    0.50
   3   8   2    0.60    0.50
   4  -8   2    3.90    1.00
  -4  -8  -2    5.10    1.00
  -4  -8  -2    4.50    0.80
   4  -8   2    3.40    0.80
   4   8   2    3.10    0.70
   4   8   2    3.60    0.70
   4   8   2    3.80    0.60
   4   8   2    4.10    0.80
  -4   8  -2    3.80    0.80
  -4   8  -2    3.90    0.80
  -4   8  -2    3.90    0.70
   4   8   2    2.80    0.70
  -4   8  -2    5.20    0.90
   4   8   2    4.00    1.00
   5  -8   2   13.50    1.40
  -5  -8  -2   13.50    1.50
   5  -8   2   15.40    1.60
  -5  -8  -2   13.70    1.20
   5   8   2   13.90    1.20
  -5   8  -2   13.50    1.20
  -5   8  -2   11.40    1.30
   5   8   2   13.80    0.90
   5   8   2   14.10    1.60
   5   8   2   13.60    1.30
   5   8   2   13.20    1.40
   5   8   2   13.60    1.20
  -5   8  -2   14.80    1.30
  -5   8  -2   13.60    1.40
   6  -8   2    7.40    1.20
   6  -8   2   12.00    1.60
  -6  -8  -2    7.90    0.80
   6   8   2    8.70    0.70
  -6   8  -2   10.60    1.50
   6   8   2    9.70    1.70
  -6   8  -2    8.10    1.10
   6   8   2    6.50    1.10
   6  -9  -2   15.50    1.50
   6  -9  -2    9.90    1.10
  -6  -9   2   13.90    1.30
  -6   9   2   10.80    1.20
   6   9  -2   10.70    1.40
   6   9  -2   11.80    1.20
  -6   9   2   14.10    1.50
  -6   9   2   13.20    1.20
   5  -9  -2    7.90    1.20
  -5  -9   2    6.40    1.10
  -5  -9   2    6.50    1.10
  -5  -9   2    7.40    1.00
  -5   9   2    6.20    1.00
  -5   9   2    6.20    1.00
  -5   9   2    6.80    0.90
   5   9  -2    6.40    1.10
   5   9  -2    7.70    1.10
   5   9  -2    7.20    0.90
   5   9  -2    5.20    0.90
   5   9  -2    9.20    1.40
  -5   9   2    7.00    0.90
   4  -9  -2    5.70    0.80
  -4  -9   2    7.20    1.10
  -4  -9   2    7.30    1.10
   4  -9  -2    6.90    1.10
  -4   9   2    6.60    0.80
   4   9  -2    7.20    1.00
   4   9  -2    7.20    1.00
   4   9  -2    6.50    0.90
  -4   9   2    7.00    1.00
  -4   9   2    7.00    0.90
   4   9  -2    5.30    1.00
  -4   9   2    7.00    1.00
   4   9  -2    8.50    1.00
  -4   9   2    6.90    0.90
  -3  -9   2    0.80    0.70
   3  -9  -2    1.60    0.70
  -3  -9   2    2.00    0.70
   3  -9  -2    1.10    0.50
  -3  -9   2    1.40    0.70
  -3   9   2    0.80    0.50
   3   9  -2    0.90    0.60
   3   9  -2    1.10    0.70
   3   9  -2    0.80    0.60
  -3   9   2    0.00    0.50
   3   9  -2    0.80    0.80
   3   9  -2    0.90    0.60
  -3   9   2    1.70    0.70
  -3   9   2    1.40    0.60
  -3   9   2    1.50    0.50
  -2  -9   2    6.50    0.90
  -2  -9   2    6.50    0.90
   2  -9  -2    8.50    0.80
   2  -9  -2   10.10    1.20
  -2  -9   2    8.90    1.30
   2   9  -2    8.60    1.10
   2   9  -2    6.40    1.10
  -2   9   2    9.00    0.90
  -2   9   2    8.00    0.70
  -2   9   2    8.30    0.80
   2   9  -2    7.90    1.00
   2   9  -2    8.90    1.00
   2   9  -2    8.70    1.10
  -2   9   2    6.60    1.00
  -1  -9   2   20.80    1.60
   1  -9  -2   20.10    1.60
  -1  -9   2   17.60    1.20
  -1   9   2   17.00    1.10
   1   9  -2   20.80    1.40
   1   9  -2   17.10    1.40
  -1   9   2   21.60    1.20
   1   9  -2   21.60    1.40
   1   9  -2   20.40    1.50
  -1   9   2   19.00    0.70
  -1   9   2   21.80    1.60
  -1   9   2   18.00    1.20
   1   9  -2   18.20    1.60
   0  -9   2   13.70    1.20
   0  -9   2   15.20    1.00
   0  -9  -2   14.60    0.90
   0  -9   2   14.20    1.50
   0  -9  -2   15.50    1.40
   0   9   2   16.00    1.00
   0   9  -2   13.40    1.20
   0   9   2   13.90    1.40
   0   9  -2   14.40    1.20
   0   9  -2   15.90    1.20
   0   9   2   15.40    1.00
   0   9  -2   16.60    1.50
   0   9   2   15.30    1.10
   0   9  -2   14.70    0.80
   0   9  -2   14.50    1.40
   1  -9   2    9.10    1.30
   1  -9   2    6.80    0.60
  -1  -9  -2    8.30    0.90
   1  -9   2    6.60    0.90
  -1  -9  -2    6.40    1.00
  -1   9  -2    6.20    0.70
   1   9   2    6.10    0.80
   1   9   2    6.00    1.00
  -1   9  -2    6.60    0.90
   1   9   2    6.10    0.70
   1   9   2    7.50    0.90
  -1   9  -2    5.20    0.90
  -1   9  -2    9.20    1.00
   1   9   2    7.40    0.80
   1   9   2    7.00    0.80
  -1   9  -2    8.50    1.00
   2  -9   2    1.30    0.60
   2  -9   2    2.00    0.80
  -2  -9  -2    0.30    0.50
  -2  -9  -2    0.20    0.40
   2  -9   2    1.00    0.20
   2   9   2    1.30    0.50
   2   9   2    0.80    0.60
   2   9   2    1.50    0.60
  -2   9  -2    2.20    0.60
   2   9   2    1.20    0.50
  -2   9  -2    1.50    0.60
  -2   9  -2    0.40    0.60
   2   9   2    1.40    0.50
  -2   9  -2    1.20    0.70
  -2   9  -2    1.30    0.70
   2   9   2    1.40    0.60
   3  -9   2    3.80    1.00
  -3  -9  -2    3.00    0.80
   3  -9   2    3.30    0.80
  -3  -9  -2    3.00    0.70
  -3   9  -2    2.70    0.80
   3   9   2    2.40    0.60
  -3   9  -2    2.20    0.70
   3   9   2    2.80    0.60
   3   9   2    2.70    0.70
   3   9   2    1.70    0.70
  -3   9  -2    2.30    0.80
  -3   9  -2    2.10    0.70
   3   9   2    3.00    0.70
  -3   9  -2    2.30    0.60
   3   9   2    2.70    0.60
   4  -9   2    0.10    0.80
   4  -9   2    1.20    0.70
  -4  -9  -2    0.30    0.70
  -4  -9  -2    0.20    0.50
  -4   9  -2    0.90    0.60
  -4   9  -2   -0.20    0.50
   4   9   2    1.20    0.60
   4   9   2    0.80    0.60
   4   9   2    0.20    0.40
  -4   9  -2    0.70    0.60
  -4   9  -2   -0.60    0.60
   4   9   2    0.40    0.60
   4   9   2    1.30    0.80
   4   9   2    0.00    0.60
  -5  -9  -2    5.40    1.10
   5  -9   2    4.70    1.00
   5  -9   2    6.40    1.30
  -5   9  -2    4.00    0.90
   5   9   2    4.50    0.60
   5   9   2    3.40    0.90
   5   9   2    4.80    0.90
   5   9   2    3.20    0.90
  -5   9  -2    5.10    1.00
   6  -9   2    3.20    1.10
  -6   9  -2    4.70    1.00
   6   9   2    3.50    0.50
   6   9   2    3.40    0.80
   5 -10  -2    1.00    0.80
   5 -10  -2    2.50    0.70
   5  10  -2    0.40    0.70
  -5  10   2    0.90    0.60
   5  10  -2    1.40    0.70
  -5  10   2    0.60    0.60
  -5  10   2    2.00    0.70
   4 -10  -2    1.60    0.80
  -4 -10   2    3.10    0.90
   4 -10  -2    1.30    0.60
   4  10  -2    1.70    0.70
  -4  10   2    1.30    0.60
   4  10  -2    1.90    0.80
   4  10  -2    2.50    0.80
  -4  10   2    1.70    0.60
  -4  10   2    1.40    0.60
  -4  10   2    2.00    0.80
  -3 -10   2    2.10    0.90
  -3 -10   2    3.50    0.80
  -3 -10   2    1.40    0.70
   3 -10  -2    2.00    0.60
   3 -10  -2    4.30    1.00
   3  10  -2    3.20    0.90
  -3  10   2    3.10    0.80
  -3  10   2    2.30    0.70
  -3  10   2    1.30    0.50
  -3  10   2    2.20    0.60
   3  10  -2    3.90    0.80
  -3  10   2    2.40    0.60
   3  10  -2    1.10    0.60
   3  10  -2    2.40    1.00
   3  10  -2    1.60    0.70
  -2 -10   2    5.60    0.90
   2 -10  -2    3.90    0.70
   2 -10  -2    4.50    1.00
  -2 -10   2    4.20    0.80
  -2 -10   2    4.40    1.00
  -2  10   2    3.40    0.50
  -2  10   2    3.80    0.70
   2  10  -2    5.10    0.90
  -2  10   2    4.40    0.80
  -2  10   2    5.40    1.00
  -2  10   2    3.70    0.70
   2  10  -2    4.30    1.00
   2  10  -2    5.00    0.90
   2  10  -2    4.30    0.90
   2  10  -2    5.60    0.90
   1 -10  -2   27.70    2.00
  -1 -10   2   30.80    2.20
  -1 -10   2   27.90    1.50
   1  10  -2   25.90    1.90
  -1  10   2   26.40    1.90
   1  10  -2   27.70    1.70
   1  10  -2   29.40    1.80
   1  10  -2   28.20    1.70
   1  10  -2   29.30    1.90
  -1  10   2   30.70    1.60
  -1  10   2   27.70    1.40
  -1  10   2   28.30    1.40
   0 -10   2   19.20    1.10
   0 -10   2   20.80    1.90
   0 -10  -2   20.80    1.80
   0 -10  -2   20.20    1.10
   0  10  -2   22.10    1.50
   0  10   2   23.30    1.30
   0  10   2   20.70    1.40
   0  10   2   20.80    1.80
   0  10   2   20.60    1.20
   0  10  -2   21.20    1.70
   0  10  -2   22.60    1.50
   0  10  -2   23.00    1.70
   0  10  -2   23.40    1.60
   1 -10   2    0.70    0.60
  -1 -10  -2    1.30    0.50
   1 -10   2    0.50    0.80
   1 -10   2    0.50    0.30
  -1 -10  -2    0.20    0.80
  -1  10  -2    0.50    0.60
   1  10   2    0.20    0.50
   1  10   2    1.30    0.80
  -1  10  -2    0.70    0.60
   1  10   2    0.60    0.60
   1  10   2    1.00    0.60
   1  10   2    1.00    0.50
  -1  10  -2    1.70    0.80
  -1  10  -2    1.40    0.80
  -1  10  -2    1.50    0.70
  -1  10  -2    0.90    0.40
   2 -10   2    4.20    0.90
  -2 -10  -2    3.70    0.70
  -2 -10  -2    3.80    0.80
   2 -10   2    3.20    1.00
   2  10   2    4.60    1.10
  -2  10  -2    4.10    0.80
  -2  10  -2    4.20    0.90
  -2  10  -2    6.00    0.80
  -2  10  -2    4.70    1.00
   2  10   2    3.60    0.70
   2  10   2    5.00    0.80
   2  10   2    5.60    0.80
   2  10   2    4.50    0.70
  -2  10  -2    4.30    0.90
   2  10   2    4.70    0.80
   3 -10   2    5.40    1.20
  -3 -10  -2    5.30    0.90
   3 -10   2    6.20    1.00
  -3 -10  -2    5.50    0.90
  -3  10  -2    5.20    1.00
   3  10   2    6.30    0.90
  -3  10  -2    6.00    1.10
  -3  10  -2    6.70    0.90
  -3  10  -2    3.70    0.80
   3  10   2    6.00    0.90
  -3  10  -2    5.50    1.00
  -3  10  -2    4.70    0.80
   3  10   2    5.30    1.10
   3  10   2    6.30    0.90
   3  10   2    4.80    0.80
   4 -10   2    3.00    1.00
   4 -10   2    6.00    1.20
  -4 -10  -2    6.60    1.20
  -4  10  -2    4.80    0.90
  -4  10  -2    4.10    0.90
   4  10   2    6.00    1.10
   4  10   2    5.00    0.90
   4  10   2    6.10    1.00
   4  10   2    5.30    0.70
   5 -10   2    3.10    0.90
   5  10   2    2.40    0.60
  -5  10  -2    2.00    0.80
  -5  10  -2    0.90    0.70
   5  10   2    2.70    0.90
   4 -11  -2    0.50    0.90
  -4 -11   2    1.10    0.80
   4 -11  -2   -0.30    0.50
  -4  11   2   -0.50    0.50
  -4  11   2    0.60    0.70
   4  11  -2    1.10    0.70
  -4  11   2    0.50    0.60
   4  11  -2    2.00    0.80
  -4  11   2    0.80    0.60
   3 -11  -2    0.80    0.80
   3 -11  -2    1.10    0.60
  -3 -11   2    1.00    0.80
  -3  11   2    1.30    0.60
  -3  11   2    0.70    0.50
  -3  11   2   -0.10    0.60
  -3  11   2    1.00    0.70
   3  11  -2   -0.60    0.60
  -3  11   2    1.90    0.60
   3  11  -2    0.40    0.70
  -2 -11   2    1.40    0.70
   2 -11  -2    4.70    1.10
  -2  11   2    1.10    0.30
   2  11  -2    1.10    0.70
   2  11  -2    2.20    0.80
  -2  11   2    1.30    0.70
  -2  11   2    2.20    0.60
   2  11  -2    1.60    0.90
  -2  11   2    1.30    0.70
  -1 -11   2    9.10    1.00
   1 -11  -2    5.80    1.20
  -1  11   2    9.70    1.00
  -1  11   2    8.60    1.10
  -1  11   2    7.70    1.10
  -1  11   2    8.30    1.30
   1  11  -2    6.30    1.10
   1  11  -2    6.50    1.10
   1  11  -2    8.70    1.20
   0 -11  -2    2.20    1.00
   0 -11  -2    1.50    0.40
   0 -11   2    1.80    0.50
   0 -11   2    1.50    1.20
   0  11   2    1.50    0.60
   0  11  -2    0.30    0.70
   0  11   2   -0.20    0.70
   0  11  -2    0.00    0.60
   0  11  -2    0.10    0.60
   0  11   2    1.50    0.80
   0  11   2    1.10    0.60
   0  11   2    1.60    0.70
  -1 -11  -2    4.10    0.70
   1 -11   2    2.40    0.80
   1 -11   2    2.90    0.40
  -1  11  -2    3.30    0.80
   1  11   2    4.30    0.70
  -1  11  -2    2.40    0.80
   1  11   2    2.40    0.80
  -1  11  -2    3.40    0.50
   1  11   2    2.50    0.80
   2 -11   2    1.60    0.70
  -2 -11  -2    1.40    0.60
  -2  11  -2    2.60    0.60
   2  11   2    3.00    0.80
   2  11   2    1.00    0.60
  -2  11  -2    2.50    0.70
   2  11   2    1.10    0.70
  -3 -11  -2    0.40    0.60
   3 -11   2    0.60    0.70
   3  11   2    0.80    0.60
  -3  11  -2    2.60    0.70
   3  11   2    0.80    0.60
  -3  11  -2   -0.30    0.50
   3  11   2    0.10    0.60
   3  11   2   -0.40    0.50
  -2 -12   2    1.00    0.70
   2  12  -2    0.80    0.70
  -2  12   2    1.30    0.90
  -2  12   2    0.10    0.50
  -1 -12   2   -0.50    0.50
  -1  12   2   -0.20    0.50
   1  12  -2   -0.20    0.60
  -1  12   2   -0.10    0.70
   0 -12   2    4.20    0.60
   0  12   2    5.60    1.00
   0  12   2    4.80    0.80
   0  12  -2    4.90    1.00
  -1 -12  -2   -0.40    0.40
   1  12   2    1.10    0.80
  -1  12  -2    0.50    0.70
   1  12   2    1.40    0.60
   1  12   2   -0.40    0.70
  -9   0   3   22.00    1.40
  -9   0   3   19.70    1.80
   9   0  -3   22.60    1.60
  -9   0   3   20.60    1.60
   9   0  -3   21.60    1.60
   9   0  -3   21.30    1.30
   9   0  -3   21.50    1.70
  -9   0   3   22.20    1.80
   8   0  -3   10.20    1.20
  -8   0   3   11.50    1.00
  -8   0   3   13.30    1.10
   8   0  -3   11.40    1.10
   8   0  -3   10.80    0.90
  -8   0   3   12.40    1.30
   8   0  -3   11.30    1.20
  -8   0   3   13.70    1.20
  -8   0   3   11.20    1.30
  -7   0   3    9.10    1.00
   7   0  -3    7.20    0.70
   7   0  -3    7.10    0.80
  -7   0   3    8.80    1.10
   7   0  -3    7.80    0.90
  -7   0   3    7.10    0.90
  -7   0   3    8.70    0.90
   7   0  -3    7.30    0.90
  -6   0   3   38.70    1.60
   6   0  -3   37.30    1.40
   6   0  -3   41.80    1.70
  -6   0   3   36.80    1.70
   6   0  -3   36.60    1.50
   6   0  -3   37.50    1.70
  -6   0   3   38.00    1.70
  -6   0   3   38.40    1.60
  -5   0   3    4.00    0.60
   5   0  -3    4.70    0.50
  -5   0   3    4.50    0.60
   5   0  -3    3.60    0.50
  -5   0   3    3.80    0.50
   5   0  -3    3.80    0.60
   5   0  -3    3.70    0.50
  -5   0   3    2.60    0.50
  -4   0   3  707.13   61.09
   4   0  -3  742.33   63.99
   3   0  -3  144.39    3.80
   3   0  -3  142.19    3.70
  -3   0   3  144.79    3.90
   3   0  -3  143.19    3.80
  -3   0   3  149.99    3.80
   3   0  -3  148.09    3.60
  -3   0   3  141.69    3.80
  -3   0   3  149.59    3.80
   2   0  -3  110.19    2.80
  -2   0   3  110.79    2.80
   2   0  -3  112.19    2.80
   2   0  -3  112.19    2.60
   2   0  -3   91.89    2.80
  -2   0   3  116.79    2.90
  -2   0   3  111.79    2.90
   1   0  -3 1257.37   57.69
  -1   0   3 1279.77   57.49
   0   0  -3  125.79    3.40
   0   0   3  127.79    3.30
   0   0  -3  129.69    3.20
   0   0  -3  133.89    3.30
   0   0   3  131.69    3.20
   0   0   3  130.79    3.20
   0   0  -3  129.29    3.20
   0   0   3  132.09    3.20
   0   0  -3  127.39    3.20
   0   0   3  133.59    3.40
   1   0   3   60.39    1.80
  -1   0  -3   57.59    1.50
   1   0   3   58.29    1.70
  -1   0  -3   58.69    1.70
   1   0   3   59.59    1.80
   1   0   3   58.09    1.60
  -1   0  -3   57.79    1.60
  -1   0  -3   56.89    1.80
   2   0   3  296.27    7.40
  -2   0  -3  288.17    7.40
   2   0   3  282.57    7.20
   2   0   3  311.57    7.50
  -2   0  -3  298.77    7.30
  -2   0  -3  302.37    7.50
  -2   0  -3  300.77    7.20
   2   0   3  286.87    7.30
   3   0   3  222.28    5.80
   3   0   3  212.38    5.70
  -3   0  -3  216.08    5.80
  -3   0  -3  219.58    5.40
   3   0   3  226.98    5.80
  -3   0  -3  224.38    5.60
   3   0   3  217.78    5.60
  -3   0  -3  215.98    5.80
  -3   0  -3  222.78    5.70
   4   0   3  133.09    3.80
   4   0   3  126.09    3.70
  -4   0  -3  131.99    3.70
   4   0   3  131.79    3.60
  -4   0  -3  132.59    3.80
  -4   0  -3  125.09    3.60
  -4   0  -3  130.69    3.40
  -4   0  -3  129.59    3.90
  -5   0  -3  359.66    8.50
   5   0   3  332.77    9.00
  -5   0  -3  353.66    9.10
   5   0   3  342.27    9.00
  -5   0  -3  345.27    9.00
  -5   0  -3  337.87    9.10
   5   0   3  346.47    8.90
  -5   0  -3  347.67    8.80
  -6   0  -3  138.39    4.10
  -6   0  -3  141.79    3.80
  -6   0  -3  134.99    4.50
   6   0   3  135.19    4.30
  -6   0  -3  144.99    4.40
  -6   0  -3  138.89    4.30
   6   0   3  139.29    4.30
   6   0   3  134.59    4.10
   7   0   3    9.50    1.10
  -7   0  -3   12.00    1.30
  -7   0  -3   11.70    0.80
   7   0   3   12.40    1.20
  -7   0  -3   11.50    1.30
  -7   0  -3   12.70    1.40
  -7   0  -3   10.40    1.00
   7   0   3    8.40    1.00
   8   0   3    8.50    1.20
  -8   0  -3    9.30    1.30
   8   0   3    8.60    1.10
  -8   0  -3    8.60    1.20
  -8   0  -3    7.00    1.10
  -8   0  -3    9.00    0.80
  -8   0  -3    7.30    0.90
  -9  -1   3   12.00    1.50
   9  -1  -3    9.60    1.20
  -9  -1   3   11.60    1.40
  -9  -1   3   12.00    1.40
   9  -1  -3    9.80    0.90
   9  -1  -3    9.70    0.90
   9  -1  -3    9.30    1.10
  -9  -1   3   11.60    1.10
   9   1  -3   12.60    1.30
   9   1  -3    7.80    1.10
   9   1  -3    9.50    1.00
   9   1  -3   12.00    1.40
  -9   1   3   14.10    1.50
  -9   1   3   11.50    1.30
  -9   1   3   10.80    1.10
   8  -1  -3    3.70    0.90
  -8  -1   3    2.00    0.60
  -8  -1   3    1.60    0.50
  -8  -1   3    2.00    0.70
  -8  -1   3    2.70    0.80
  -8  -1   3    2.00    0.70
   8  -1  -3    3.60    0.70
   8  -1  -3    2.30    0.50
   8  -1  -3    3.80    0.80
   8   1  -3    2.60    0.60
  -8   1   3    3.30    0.80
   8   1  -3    3.10    0.80
   8   1  -3    2.70    0.70
  -8   1   3    4.10    0.70
   8   1  -3    2.60    0.70
  -8   1   3    2.10    0.70
  -8   1   3    1.50    0.50
  -8   1   3    2.30    0.70
   7  -1  -3   36.80    1.60
  -7  -1   3   36.90    1.90
  -7  -1   3   36.60    1.70
  -7  -1   3   36.90    1.70
   7  -1  -3   36.70    1.80
  -7  -1   3   38.60    1.90
   7  -1  -3   37.00    1.70
  -7   1   3   37.60    1.80
   7   1  -3   39.20    1.70
   7   1  -3   37.30    1.60
   7   1  -3   36.60    1.80
  -7   1   3   39.80    1.70
  -7   1   3   36.10    1.70
   7   1  -3   35.60    1.90
  -7   1   3   37.70    1.70
  -6  -1   3    5.10    0.80
  -6  -1   3    5.90    0.80
   6  -1  -3    4.30    0.60
   6  -1  -3    6.70    0.80
  -6  -1   3    6.00    0.80
   6  -1  -3    5.90    0.70
  -6  -1   3    5.20    0.70
  -6   1   3    4.90    0.60
  -6   1   3    4.90    0.70
   6   1  -3    4.60    0.70
   6   1  -3    6.00    0.70
  -6   1   3    4.80    0.60
   6   1  -3    5.00    0.60
   6   1  -3    5.10    0.70
   6   1  -3    5.40    0.80
  -6   1   3    6.20    0.70
  -5  -1   3  109.39    3.30
   5  -1  -3  102.69    3.00
  -5  -1   3  109.19    3.30
  -5  -1   3  105.39    3.10
   5  -1  -3  105.69    3.20
  -5  -1   3  104.19    3.10
   5  -1  -3  105.49    3.20
   5   1  -3  105.49    3.10
  -5   1   3  104.19    3.20
   5   1  -3  110.59    3.20
  -5   1   3  108.89    3.10
  -5   1   3  108.49    3.10
  -5   1   3  109.49    3.20
   5   1  -3  108.79    3.10
   5   1  -3  108.29    3.30
   5   1  -3  109.89    3.10
   4  -1  -3    5.80    0.50
   4  -1  -3    5.40    0.60
   4  -1  -3    5.80    0.60
  -4  -1   3    5.80    0.60
  -4  -1   3    6.30    0.60
  -4  -1   3    5.70    0.60
  -4  -1   3    5.80    0.60
   4   1  -3    5.10    0.50
   4   1  -3    5.90    0.50
   4   1  -3    6.00    0.60
  -4   1   3    6.60    0.60
  -4   1   3    6.10    0.60
   4   1  -3    6.20    0.70
  -4   1   3    5.50    0.50
   4   1  -3    7.10    0.70
  -4   1   3    5.90    0.60
  -3  -1   3  153.98    3.90
  -3  -1   3  147.19    3.80
   3  -1  -3  143.59    3.70
   3  -1  -3  144.99    3.50
  -3  -1   3  148.89    3.90
  -3  -1   3  141.19    3.80
   3  -1  -3  150.08    3.90
   3  -1  -3  137.79    3.70
  -3   1   3  147.89    3.70
   3   1  -3  138.29    3.80
   3   1  -3  141.79    3.70
  -3   1   3  150.18    3.80
   3   1  -3  133.79    3.80
  -3   1   3  146.09    3.80
   3   1  -3  146.09    3.70
  -3   1   3  145.19    3.80
  -2  -1   3  324.87    8.20
  -2  -1   3  341.67    8.00
   2   1  -3  336.27    8.00
   2   1  -3  325.57    8.10
   2   1  -3  335.37    8.10
  -1  -1   3   11.70    0.60
   1  -1  -3   11.70    0.40
  -1  -1   3   12.40    0.60
  -1  -1   3   10.90    0.50
  -1  -1   3   11.10    0.60
  -1  -1   3   11.20    0.60
   1  -1  -3   11.60    0.50
   1   1  -3   11.40    0.60
   1   1  -3   11.80    0.60
  -1   1   3   12.00    0.50
   1   1  -3   10.20    0.60
  -1   1   3   12.30    0.30
   1   1  -3   11.00    0.50
   1   1  -3   10.70    0.50
   1   1  -3   12.50    0.60
  -1   1   3   11.50    0.40
   0  -1  -3  156.28    3.80
   0  -1   3  154.08    4.00
   0  -1  -3  159.88    4.00
   0  -1  -3  160.88    3.80
   0  -1   3  156.38    4.00
   0  -1   3  160.98    4.00
   0  -1   3  152.18    4.00
   0  -1   3  157.58    4.00
   0   1  -3  149.29    4.00
   0   1   3  160.78    3.70
   0   1   3  161.88    3.70
   0   1  -3  158.68    4.10
   0   1   3  159.08    4.00
   0   1   3  157.88    4.00
   0   1  -3  155.58    3.90
   0   1   3  162.78    3.80
   0   1  -3  155.18    3.90
   0   1   3  154.58    3.80
   0   1  -3  157.68    4.00
   1  -1   3  520.75   44.90
   1   1   3  607.04   39.20
  -1   1  -3  588.54   46.10
   2  -1   3  541.65   13.20
  -2  -1  -3  541.15   13.30
   2   1   3  557.34   13.30
   3  -1   3  184.78    4.90
   3  -1   3  180.58    5.00
  -3  -1  -3  191.98    4.50
   3  -1   3  183.88    5.00
  -3  -1  -3  182.28    4.80
  -3  -1  -3  185.98    4.90
  -3  -1  -3  193.08    5.10
   3  -1   3  185.18    5.10
  -3  -1  -3  193.88    5.10
   3   1   3  183.78    4.90
  -3   1  -3  196.18    5.00
   3   1   3  185.98    4.80
  -3   1  -3  190.98    5.00
  -3   1  -3  188.08    4.90
   3   1   3  193.38    5.10
  -3   1  -3  182.98    5.10
   3   1   3  191.58    5.00
  -4  -1  -3   24.10    0.80
   4  -1   3   23.60    1.10
  -4  -1  -3   23.20    1.20
   4  -1   3   22.80    1.20
  -4  -1  -3   22.30    1.00
  -4  -1  -3   25.00    1.20
  -4  -1  -3   23.70    1.30
   4  -1   3   22.20    1.20
  -4   1  -3   23.80    1.30
   4   1   3   23.20    1.20
  -4   1  -3   23.30    1.00
  -4   1  -3   23.70    1.10
   4   1   3   24.40    1.10
  -4   1  -3   23.70    1.20
  -4   1  -3   24.10    1.20
   4   1   3   24.10    1.20
  -5  -1  -3   20.10    1.30
  -5  -1  -3   21.00    0.80
   5  -1   3   22.90    1.30
  -5  -1  -3   21.40    1.10
   5  -1   3   20.00    1.10
   5  -1   3   18.30    1.20
  -5  -1  -3   20.50    1.20
  -5  -1  -3   20.50    1.30
  -5   1  -3   22.10    1.30
   5   1   3   21.60    1.10
  -5   1  -3   22.00    1.30
  -5   1  -3   20.90    1.40
  -5   1  -3   20.10    1.00
  -5   1  -3   20.20    1.10
   5   1   3   21.30    1.30
   5   1   3   21.10    1.30
  -6  -1  -3   24.10    1.60
  -6  -1  -3   25.00    1.60
   6  -1   3   23.30    1.50
  -6  -1  -3   22.50    1.00
   6  -1   3   26.00    1.50
  -6  -1  -3   24.70    1.30
   6  -1   3   24.90    1.40
  -6  -1  -3   28.60    1.50
  -6   1  -3   26.90    1.40
   6   1   3   23.10    1.40
  -6   1  -3   24.60    1.50
   6   1   3   24.90    1.40
  -6   1  -3   23.40    1.10
   6   1   3   26.30    1.60
  -6   1  -3   23.70    1.60
  -6   1  -3   22.40    1.50
  -7  -1  -3   19.60    1.30
  -7  -1  -3   17.10    1.40
   7  -1   3   17.30    1.30
  -7  -1  -3   15.50    1.40
   7  -1   3   15.30    1.30
  -7  -1  -3   15.80    0.80
  -7  -1  -3   20.20    1.60
   7  -1   3   16.20    1.40
   7   1   3   17.70    1.30
  -7   1  -3   16.80    1.00
   7   1   3   18.80    1.40
  -7   1  -3   17.30    1.20
   7   1   3   14.50    1.30
  -7   1  -3   16.40    1.50
  -7   1  -3   16.50    1.30
  -7   1  -3   17.20    1.40
  -8  -1  -3    0.60    0.60
   8  -1   3    1.20    0.60
  -8  -1  -3    0.70    0.80
   8  -1   3    3.10    0.90
  -8  -1  -3    1.40    0.70
  -8  -1  -3    1.00    0.70
  -8  -1  -3    2.10    0.40
  -8   1  -3    0.70    0.80
   8   1   3    0.60    0.80
  -8   1  -3    1.60    0.60
  -8   1  -3    1.90    0.70
  -8   1  -3    1.80    0.70
   8   1   3   -0.10    0.60
  -9  -2   3    6.30    1.10
   9  -2  -3    5.20    1.00
   9  -2  -3    7.60    0.90
  -9  -2   3    7.00    1.20
  -9  -2   3    6.40    0.90
   9  -2  -3    5.50    0.90
  -9  -2   3    7.00    1.10
  -9   2   3    6.60    1.10
   9   2  -3    5.70    1.10
  -9   2   3    6.80    1.00
   9   2  -3    4.90    0.80
   9   2  -3    8.00    1.30
  -9   2   3    5.60    0.80
  -8  -2   3    5.30    0.90
  -8  -2   3    4.60    1.00
  -8  -2   3    6.50    1.10
  -8  -2   3    4.10    0.70
   8  -2  -3    5.50    0.90
   8  -2  -3    4.80    0.70
  -8  -2   3    5.50    1.00
   8  -2  -3    6.50    0.80
   8   2  -3    5.00    0.90
  -8   2   3    6.50    1.10
  -8   2   3    4.50    0.80
   8   2  -3    4.60    0.80
   8   2  -3    6.00    0.90
  -8   2   3    4.50    0.80
  -8   2   3    5.50    0.80
   8   2  -3    5.40    0.90
  -8   2   3    5.80    1.00
  -7  -2   3   37.10    1.90
  -7  -2   3   31.60    1.60
  -7  -2   3   35.20    1.60
   7  -2  -3   35.20    1.60
  -7  -2   3   34.30    1.80
   7  -2  -3   35.10    1.70
   7  -2  -3   34.90    1.40
  -7   2   3   34.00    1.50
  -7   2   3   34.40    2.00
   7   2  -3   32.50    1.70
   7   2  -3   32.30    1.80
  -7   2   3   33.00    1.70
   7   2  -3   32.50    1.60
   7   2  -3   30.90    1.60
   7   2  -3   31.80    1.60
  -7   2   3   35.50    1.60
  -7   2   3   36.20    1.70
  -6  -2   3   70.49    2.60
  -6  -2   3   71.69    2.40
  -6  -2   3   68.19    2.40
   6  -2  -3   69.59    2.30
  -6  -2   3   72.99    2.60
   6  -2  -3   69.99    2.10
   6  -2  -3   70.49    2.40
   6   2  -3   66.49    2.30
   6   2  -3   70.29    2.30
   6   2  -3   64.79    2.60
  -6   2   3   68.49    2.30
   6   2  -3   67.19    2.40
  -6   2   3   64.89    2.40
  -6   2   3   68.49    2.30
  -6   2   3   62.49    2.40
   6   2  -3   66.69    2.30
   5  -2  -3    3.00    0.50
  -5  -2   3    4.20    0.70
  -5  -2   3    2.60    0.50
   5  -2  -3    3.40    0.50
  -5  -2   3    4.30    0.60
  -5  -2   3    3.00    0.60
   5  -2  -3    3.00    0.40
  -5   2   3    3.60    0.50
  -5   2   3    2.80    0.50
   5   2  -3    3.40    0.50
   5   2  -3    2.80    0.50
   5   2  -3    2.50    0.50
  -5   2   3    3.20    0.50
  -5   2   3    3.10    0.50
   5   2  -3    3.40    0.60
   5   2  -3    4.30    0.60
   4  -2  -3    9.00    0.50
   4  -2  -3    9.30    0.60
  -4  -2   3    7.50    0.70
  -4  -2   3    8.70    0.80
   4  -2  -3    8.50    0.60
  -4  -2   3    9.60    0.70
  -4  -2   3    8.90    0.70
  -4   2   3    8.90    0.70
   4   2  -3    8.50    0.60
  -4   2   3    8.40    0.60
   4   2  -3    9.20    0.80
   4   2  -3    9.20    0.70
  -4   2   3    8.70    0.60
   4   2  -3    8.60    0.70
   4   2  -3    8.60    0.60
  -4   2   3    9.50    0.70
  -3  -2   3 1024.80   73.69
   3  -2  -3 1009.30   64.29
   3  -2  -3  977.80   60.89
   3   2  -3  964.20   75.39
  -2  -2   3   18.80    0.80
  -2  -2   3   17.60    0.90
   2  -2  -3   17.80    0.60
  -2  -2   3   16.20    0.80
   2  -2  -3   17.50    0.60
  -2  -2   3   18.20    0.80
  -2  -2   3   18.20    0.80
   2   2  -3   16.90    0.80
  -2   2   3   16.80    0.60
   2   2  -3   17.40    0.80
  -2   2   3   17.50    0.80
   2   2  -3   17.20    0.80
   2   2  -3   15.80    0.80
   2   2  -3   18.20    0.90
  -2   2   3   17.70    0.60
  -2   2   3   18.10    0.60
  -1  -2   3  214.38    5.30
   1  -2  -3  210.28    5.00
  -1  -2   3  207.88    5.30
  -1  -2   3  207.38    5.30
  -1  -2   3  195.88    5.30
  -1  -2   3  208.68    5.30
  -1  -2   3  207.68    5.30
   1   2  -3  192.88    5.30
  -1   2   3  225.58    5.20
  -1   2   3  215.18    5.00
   1   2  -3  206.38    5.30
  -1   2   3  216.68    5.20
   1   2  -3  208.78    5.30
   1   2  -3  229.58    5.30
   1   2  -3  204.48    5.30
   0  -2  -3  484.25   11.60
   0  -2   3  476.55   11.70
   0  -2  -3  469.55   11.60
   0   2  -3  489.35   11.70
   0   2  -3  471.85   11.70
   0   2   3  508.65   11.60
   1  -2   3   31.60    1.20
  -1  -2  -3   32.00    1.10
   1  -2   3   30.70    1.20
  -1  -2  -3   33.70    1.00
  -1  -2  -3   33.60    1.20
   1  -2   3   36.20    1.30
   1   2   3   35.40    1.20
   1   2   3   35.00    1.10
  -1   2  -3   33.60    1.20
  -1   2  -3   34.10    1.10
   1   2   3   34.40    0.90
  -1   2  -3   33.30    1.30
   1   2   3   33.40    1.00
   1   2   3   34.00    1.00
   2  -2   3  937.51   75.59
   2   2   3  959.60   62.09
   2   2   3  970.10   61.29
  -2   2  -3  976.70   72.59
  -3  -2  -3  293.57    7.50
   3  -2   3  287.27    7.50
  -3  -2  -3  291.07    7.10
  -3  -2  -3  277.67    7.20
   3  -2   3  280.67    7.40
   3  -2   3  282.17    7.40
   3  -2   3  287.77    7.30
   3  -2   3  292.37    7.30
  -3  -2  -3  289.07    7.30
   3   2   3  292.17    7.30
   3   2   3  286.67    7.40
   3   2   3  269.97    7.20
  -3   2  -3  293.07    7.40
  -3   2  -3  295.37    7.50
  -3   2  -3  292.47    7.20
   3   2   3  285.27    7.10
  -4  -2  -3  141.59    3.50
  -4  -2  -3  136.29    3.80
  -4  -2  -3  142.39    4.10
   4  -2   3  143.39    4.00
  -4  -2  -3  141.19    4.20
  -4  -2  -3  142.69    4.00
   4  -2   3  143.99    4.10
   4  -2   3  141.49    4.00
  -4   2  -3  142.29    4.30
   4   2   3  140.69    4.20
  -4   2  -3  145.49    4.10
   4   2   3  138.59    3.90
  -4   2  -3  141.29    3.90
   4   2   3  138.79    4.00
  -5  -2  -3  118.39    3.40
   5  -2   3  119.09    3.70
  -5  -2  -3  114.89    3.00
   5  -2   3  120.29    3.60
  -5  -2  -3  118.69    3.80
   5  -2   3  116.49    3.50
  -5  -2  -3  114.09    3.70
  -5  -2  -3  114.59    3.60
  -5   2  -3  115.09    3.40
  -5   2  -3  123.49    3.60
   5   2   3  106.99    3.40
  -5   2  -3  120.59    3.70
  -5   2  -3  114.29    3.40
   5   2   3  116.79    3.60
   5   2   3  115.59    3.70
  -5   2  -3  116.29    3.90
   6  -2   3   52.39    2.20
   6  -2   3   54.99    2.20
  -6  -2  -3   52.99    2.30
  -6  -2  -3   55.69    2.10
   6  -2   3   53.59    2.30
  -6  -2  -3   57.19    2.30
   6  -2   3   55.39    2.40
  -6  -2  -3   56.39    2.50
  -6  -2  -3   52.19    1.60
  -6   2  -3   51.09    2.50
  -6   2  -3   57.29    2.30
  -6   2  -3   52.49    2.10
  -6   2  -3   56.89    2.30
   6   2   3   56.19    2.40
  -6   2  -3   57.39    2.00
   6   2   3   57.69    2.30
   6   2   3   55.59    2.10
  -7  -2  -3    9.70    1.10
   7  -2   3    8.50    1.10
  -7  -2  -3    9.90    1.20
  -7  -2  -3    8.80    1.00
  -7  -2  -3    7.70    1.10
  -7  -2  -3    8.50    0.60
   7  -2   3    8.80    1.00
   7  -2   3    7.90    1.10
   7  -2   3    8.40    1.00
  -7   2  -3    8.00    0.80
  -7   2  -3    8.50    1.00
  -7   2  -3   12.00    1.40
  -7   2  -3    9.50    1.10
   7   2   3    9.50    1.20
  -7   2  -3    9.10    1.00
   7   2   3   11.10    1.20
   7   2   3    9.70    1.00
   8  -2   3    7.30    1.10
  -8  -2  -3    4.90    1.00
  -8  -2  -3    5.20    0.50
   8  -2   3    4.50    0.80
  -8  -2  -3    4.50    0.80
  -8  -2  -3    4.00    0.90
   8  -2   3    6.90    1.20
  -8  -2  -3    6.40    1.30
   8   2   3    3.60    0.90
   8   2   3    5.30    1.10
  -8   2  -3    6.70    1.10
  -8   2  -3    4.80    0.70
   9  -3  -3    5.50    0.90
  -9  -3   3    5.40    0.80
   9  -3  -3    5.60    0.80
  -9  -3   3    5.40    1.00
  -9  -3   3    5.90    1.20
   9  -3  -3    5.90    1.10
  -9   3   3    6.50    0.90
   9   3  -3    5.10    0.90
   9   3  -3    7.10    1.20
  -9   3   3    5.80    0.90
  -9   3   3    4.80    0.90
   8  -3  -3   22.20    1.40
  -8  -3   3   21.60    1.60
  -8  -3   3   26.20    1.80
  -8  -3   3   24.30    1.40
  -8  -3   3   23.40    1.70
   8  -3  -3   23.40    1.60
  -8  -3   3   21.40    1.50
   8  -3  -3   23.80    1.30
   8   3  -3   24.30    1.50
   8   3  -3   24.70    1.40
   8   3  -3   24.20    1.80
  -8   3   3   22.70    1.50
  -8   3   3   22.30    1.40
  -8   3   3   23.60    1.60
  -8   3   3   26.10    1.90
   8   3  -3   22.30    1.50
  -8   3   3   22.70    1.30
   8   3  -3   25.20    1.70
  -7  -3   3   18.60    1.50
   7  -3  -3   18.60    1.10
   7  -3  -3   21.90    1.20
  -7  -3   3   21.30    1.40
   7  -3  -3   20.40    1.40
  -7  -3   3   19.70    1.30
  -7  -3   3   22.70    1.30
   7   3  -3   16.90    1.30
  -7   3   3   18.40    1.50
  -7   3   3   19.00    1.30
  -7   3   3   19.40    1.10
   7   3  -3   19.50    1.20
  -7   3   3   18.00    1.30
   7   3  -3   19.40    1.30
  -7   3   3   19.50    1.20
   7   3  -3   22.50    1.60
   7   3  -3   18.40    1.30
  -6  -3   3   15.20    1.10
  -6  -3   3   12.80    1.00
   6  -3  -3   13.40    0.90
   6  -3  -3   14.10    1.00
   6  -3  -3   12.50    0.80
  -6  -3   3   12.90    1.20
  -6  -3   3   13.70    1.10
   6   3  -3   11.70    1.20
  -6   3   3   11.70    1.00
  -6   3   3   14.00    0.90
   6   3  -3   13.80    1.00
  -6   3   3   12.40    0.80
   6   3  -3   14.10    1.10
   6   3  -3   12.80    1.00
  -6   3   3   12.60    1.00
   6   3  -3   12.50    0.90
   5  -3  -3  114.49    3.10
  -5  -3   3  108.59    3.50
   5  -3  -3  111.79    3.10
  -5  -3   3  109.79    3.30
  -5  -3   3  104.69    3.40
   5  -3  -3  107.99    3.20
  -5  -3   3  107.69    3.30
  -5   3   3  108.19    3.00
   5   3  -3  111.59    3.40
   5   3  -3  108.79    3.30
  -5   3   3  106.79    3.10
   5   3  -3  106.19    3.50
  -5   3   3  108.29    3.30
   5   3  -3  108.29    3.20
   5   3  -3  109.79    3.20
  -5   3   3  104.49    3.20
  -4  -3   3   86.29    2.80
  -4  -3   3   81.89    2.70
  -4  -3   3   83.29    2.60
  -4  -3   3   82.59    2.60
   4  -3  -3   84.69    2.40
   4  -3  -3   80.49    2.50
  -4   3   3   82.99    2.40
   4   3  -3   80.79    2.70
  -4   3   3   86.79    2.30
   4   3  -3   84.19    2.50
   4   3  -3   83.59    2.60
  -4   3   3   83.89    2.50
   4   3  -3   83.09    2.50
   4   3  -3   85.79    2.70
  -4   3   3   87.89    2.70
   3  -3  -3  186.18    4.70
  -3  -3   3  185.98    4.90
  -3  -3   3  185.38    5.00
  -3  -3   3  178.58    5.00
   3  -3  -3  183.68    4.70
  -3  -3   3  185.08    4.90
  -3  -3   3  180.48    4.90
   3   3  -3  181.98    4.90
  -3   3   3  190.98    4.70
  -3   3   3  189.58    4.70
  -3   3   3  191.98    4.70
   3   3  -3  183.28    4.80
   3   3  -3  172.48    4.90
  -3   3   3  187.18    4.90
  -3   3   3  191.28    4.50
   3   3  -3  191.58    4.90
  -2  -3   3  743.83   18.00
  -2  -3   3  777.32   18.20
  -2  -3   3  747.63   18.20
  -2  -3   3  739.63   18.20
   2   3  -3  738.03   18.20
   2   3  -3  776.52   18.10
   2   3  -3  705.03   18.10
   2   3  -3  770.42   18.20
  -2   3   3  795.52   18.00
  -1  -3   3    3.30    0.40
  -1  -3   3    5.00    0.60
   1  -3  -3    4.30    0.30
  -1  -3   3    3.80    0.50
   1  -3  -3    4.00    0.40
  -1  -3   3    4.50    0.50
  -1  -3   3    4.00    0.50
   1   3  -3    3.80    0.50
   1   3  -3    4.30    0.50
  -1   3   3    4.80    0.20
   1   3  -3    4.10    0.50
  -1   3   3    4.60    0.30
   1   3  -3    4.50    0.60
  -1   3   3    4.60    0.30
   1   3  -3    4.40    0.50
   1   3  -3    2.60    0.40
   0  -3  -3  354.76    8.20
   0  -3  -3  350.26    8.50
   0  -3   3  352.16    8.60
   0  -3   3  333.47    8.70
   0  -3   3  348.67    8.50
   0  -3   3  324.37    8.60
   0   3   3  360.16    8.40
   0   3   3  361.56    8.60
   0   3  -3  312.27    8.50
   0   3  -3  352.16    8.60
   0   3   3  353.76    8.20
   0   3   3  347.27    8.20
   0   3  -3  342.77    8.60
   0   3   3  384.76    8.50
   0   3  -3  328.57    8.50
   0   3  -3  350.26    8.70
   1  -3   3  220.28    5.80
   1  -3   3  212.08    5.70
  -1  -3  -3  226.18    5.70
   1  -3   3  222.88    5.70
  -1  -3  -3  219.38    5.50
  -1  -3  -3  224.68    5.50
   1   3   3  219.28    5.40
   1   3   3  229.08    5.50
   1   3   3  223.28    5.40
   1   3   3  229.18    5.70
   1   3   3  235.88    5.80
  -1   3  -3  216.88    5.70
  -1   3  -3  216.98    5.80
  -1   3  -3  229.48    5.80
  -1   3  -3  215.98    5.70
   2  -3   3   42.80    1.70
  -2  -3  -3   43.90    1.40
   2  -3   3   42.50    1.60
  -2  -3  -3   43.80    1.60
  -2  -3  -3   45.00    1.40
   2  -3   3   44.20    1.50
   2  -3   3   42.70    1.60
  -2  -3  -3   43.50    1.30
  -2   3  -3   41.30    1.50
   2   3   3   40.40    1.60
   2   3   3   44.40    1.10
   2   3   3   47.80    1.40
   2   3   3   44.00    1.40
   2   3   3   42.30    1.70
  -2   3  -3   43.60    1.60
  -2   3  -3   42.00    1.60
   2   3   3   43.60    1.30
  -3  -3  -3  119.29    3.60
  -3  -3  -3  123.49    3.20
   3  -3   3  121.89    3.60
  -3  -3  -3  118.49    3.40
   3  -3   3  114.69    3.50
   3  -3   3  120.89    3.30
  -3  -3  -3  118.39    3.40
   3  -3   3  122.99    3.60
   3   3   3  120.99    2.90
  -3   3  -3  119.29    3.70
   3   3   3  118.49    3.30
  -3   3  -3  121.39    3.40
   3   3   3  122.09    3.60
  -3   3  -3  123.19    3.50
   3   3   3  125.29    3.30
  -4  -3  -3   61.29    2.10
   4  -3   3   65.09    2.10
  -4  -3  -3   61.09    2.10
   4  -3   3   59.29    2.30
  -4  -3  -3   62.39    2.00
  -4  -3  -3   61.99    2.30
   4  -3   3   61.29    2.30
   4   3   3   66.69    2.10
   4   3   3   59.09    2.10
  -4   3  -3   60.29    2.10
  -4   3  -3   58.39    2.30
   4   3   3   62.29    2.30
  -4   3  -3   60.79    2.20
   5  -3   3   63.59    2.40
  -5  -3  -3   62.79    2.20
  -5  -3  -3   57.49    2.20
   5  -3   3   59.29    2.30
   5  -3   3   62.39    2.40
  -5  -3  -3   62.99    2.10
  -5  -3  -3   57.99    2.40
   5  -3   3   62.39    2.20
   5   3   3   59.39    2.20
   5   3   3   60.59    2.40
  -5   3  -3   56.09    2.30
  -5   3  -3   57.09    2.50
  -5   3  -3   56.69    2.10
   5   3   3   61.49    2.10
  -6  -3  -3   71.39    2.70
   6  -3   3   82.09    3.00
  -6  -3  -3   77.59    2.60
   6  -3   3   72.79    2.90
  -6  -3  -3   69.09    2.70
   6  -3   3   73.09    2.60
  -6  -3  -3   73.99    2.00
  -6  -3  -3   74.69    3.00
   6  -3   3   69.49    2.70
  -6   3  -3   71.99    2.60
  -6   3  -3   73.69    3.00
  -6   3  -3   75.09    2.80
   6   3   3   73.49    2.70
   6   3   3   74.69    3.00
  -6   3  -3   65.79    2.50
   6   3   3   76.69    2.60
   7  -3   3   17.20    1.50
   7  -3   3   19.60    1.50
  -7  -3  -3   17.10    0.70
  -7  -3  -3   18.10    1.40
   7  -3   3   18.50    1.50
  -7  -3  -3   19.00    1.30
  -7  -3  -3   18.30    1.50
  -7  -3  -3   19.70    1.60
   7  -3   3   17.40    1.30
   7   3   3   18.30    1.50
  -7   3  -3   16.80    1.20
  -7   3  -3   16.40    1.60
   7   3   3   18.30    1.40
   7   3   3   16.20    1.50
  -7   3  -3   20.20    1.50
   7   3   3   18.60    1.50
  -7   3  -3   17.70    1.30
  -8  -3  -3    5.20    0.90
   8  -3   3    8.50    1.30
   8  -3   3    5.40    0.90
  -8  -3  -3    6.50    1.00
   8  -3   3    3.60    1.00
  -8   3  -3    6.40    0.80
   8   3   3    5.20    1.00
  -8   3  -3    6.50    1.10
  -9  -4   3    0.90    0.50
   9  -4  -3    0.30    0.40
  -9  -4   3    0.50    0.70
  -9  -4   3   -0.20    0.60
   9  -4  -3    2.80    0.90
   9   4  -3    0.10    0.70
   9   4  -3    0.90    0.60
  -9   4   3    0.80    0.70
  -9   4   3    1.20    0.50
  -8  -4   3   33.30    2.10
  -8  -4   3   32.80    2.10
  -8  -4   3   32.60    1.90
   8  -4  -3   34.00    2.00
   8  -4  -3   35.50    1.60
  -8  -4   3   33.40    1.70
  -8  -4   3   33.10    1.90
  -8   4   3   35.50    1.80
   8   4  -3   32.80    2.10
  -8   4   3   32.10    1.80
  -8   4   3   36.20    2.30
  -8   4   3   33.20    1.50
   8   4  -3   35.10    1.90
   8   4  -3   33.80    1.90
   8   4  -3   33.90    1.70
  -8   4   3   32.10    1.80
   8   4  -3   29.10    1.80
  -7  -4   3   11.00    1.20
   7  -4  -3   11.20    0.90
  -7  -4   3   11.90    1.30
  -7  -4   3    9.70    1.10
   7  -4  -3   10.90    1.10
  -7  -4   3   10.70    1.00
  -7  -4   3   10.70    1.10
   7   4  -3   12.50    1.20
  -7   4   3   11.10    1.00
  -7   4   3   10.30    1.30
   7   4  -3    9.40    1.10
   7   4  -3   11.40    1.10
   7   4  -3   11.10    1.00
  -7   4   3   10.80    1.10
  -7   4   3   12.10    1.10
  -7   4   3   11.40    0.80
   7   4  -3   11.90    1.40
   6  -4  -3   50.89    1.80
   6  -4  -3   49.70    2.00
  -6  -4   3   48.90    2.00
  -6  -4   3   51.79    2.10
  -6  -4   3   50.19    2.20
  -6  -4   3   51.89    2.20
  -6   4   3   51.59    2.30
  -6   4   3   52.09    2.10
  -6   4   3   46.40    2.00
  -6   4   3   49.70    1.90
  -6   4   3   46.70    1.60
   6   4  -3   50.59    2.00
   6   4  -3   46.00    2.20
   6   4  -3   48.90    2.10
   6   4  -3   50.39    2.10
   6   4  -3   51.39    1.90
  -5  -4   3   45.50    2.00
  -5  -4   3   47.40    1.80
  -5  -4   3   46.70    1.90
  -5  -4   3   45.50    2.00
   5  -4  -3   48.80    1.80
   5  -4  -3   46.60    1.70
  -5   4   3   49.30    1.90
  -5   4   3   43.90    1.80
   5   4  -3   46.10    1.70
   5   4  -3   45.70    1.90
  -5   4   3   44.50    1.40
   5   4  -3   44.80    1.90
   5   4  -3   48.60    2.10
   5   4  -3   45.40    1.80
  -5   4   3   45.50    1.70
  -4  -4   3   72.69    2.50
  -4  -4   3   75.39    2.50
   4  -4  -3   75.29    2.30
  -4  -4   3   78.19    2.60
  -4  -4   3   78.69    2.60
   4   4  -3   76.29    2.60
   4   4  -3   75.09    2.70
   4   4  -3   81.09    2.50
   4   4  -3   75.59    2.50
  -4   4   3   77.19    2.30
   4   4  -3   75.69    2.40
  -4   4   3   72.49    2.50
  -4   4   3   77.49    2.30
  -4   4   3   74.49    1.90
  -3  -4   3  192.88    5.00
  -3  -4   3  189.88    5.20
   3  -4  -3  190.38    5.00
  -3  -4   3  193.08    5.20
  -3  -4   3  193.18    5.20
  -3  -4   3  189.58    5.20
  -3  -4   3  188.98    5.10
   3  -4  -3  194.38    5.00
   3   4  -3  191.38    5.30
   3   4  -3  193.28    5.10
  -3   4   3  196.48    4.90
   3   4  -3  198.48    5.10
  -3   4   3  195.58    5.00
  -3   4   3  193.98    4.90
   3   4  -3  187.68    5.20
   3   4  -3  194.78    5.30
  -2  -4   3  752.72   18.10
   2  -4  -3  775.12   18.00
  -2  -4   3  775.02   18.30
   2  -4  -3  746.83   18.10
  -2  -4   3  771.82   18.30
  -2  -4   3  769.52   18.30
  -2  -4   3  738.93   18.20
  -2  -4   3  736.53   18.40
  -2   4   3  764.62   18.20
   2   4  -3  768.52   18.30
   2   4  -3  728.23   18.20
   2   4  -3  749.33   18.30
   2   4  -3  742.73   18.40
   2   4  -3  760.32   18.20
   1  -4  -3   97.19    2.50
   1  -4  -3  101.79    2.90
  -1  -4   3   96.29    2.90
  -1  -4   3  102.79    3.00
  -1  -4   3   96.69    2.90
  -1  -4   3  110.09    2.80
  -1  -4   3   96.19    3.00
  -1  -4   3   95.39    2.90
   1   4  -3   98.39    2.90
  -1   4   3  100.79    2.60
  -1   4   3   97.39    2.90
  -1   4   3  100.79    2.50
   1   4  -3  100.79    2.90
  -1   4   3   99.99    2.50
   1   4  -3   98.59    3.00
   1   4  -3  100.59    2.90
   1   4  -3  103.29    2.80
   0  -4   3  243.48    6.60
   0  -4  -3  253.17    6.10
   0  -4  -3  241.68    6.40
   0  -4  -3  258.97    6.30
   0  -4   3  244.08    6.50
   0  -4   3  251.87    6.30
   0   4   3  253.47    6.10
   0   4   3  266.77    6.30
   0   4   3  254.97    6.50
   0   4   3  255.07    6.10
   0   4  -3  248.38    6.50
   0   4  -3  247.98    6.50
   0   4   3  256.17    6.10
   0   4  -3  245.68    6.50
   0   4  -3  253.57    6.40
   0   4  -3  247.38    6.40
   0   4  -3  245.28    6.50
  -1  -4  -3  496.85   12.30
   1  -4   3  499.75   12.70
   1  -4   3  523.35   12.60
   1  -4   3  495.85   12.60
  -1  -4  -3  498.95   12.50
  -1   4  -3  520.75   12.60
  -1   4  -3  512.15   12.60
   1   4   3  524.55   12.50
   1   4   3  531.15   12.70
   1   4   3  521.75   12.20
  -1   4  -3  517.45   12.70
   1   4   3  515.45   12.20
  -1   4  -3  510.05   12.60
   1   4   3  505.55   12.20
  -2  -4  -3   19.30    0.70
   2  -4   3   20.60    1.20
  -2  -4  -3   18.00    0.80
   2  -4   3   19.00    1.10
   2  -4   3   18.80    0.90
  -2  -4  -3   20.10    1.10
   2  -4   3   16.50    1.00
  -2  -4  -3   19.90    0.80
   2   4   3   19.50    0.70
   2   4   3   19.10    0.80
   2   4   3   19.40    1.10
  -2   4  -3   20.00    1.10
   2   4   3   22.00    1.10
  -2   4  -3   19.50    1.10
   2   4   3   18.90    0.70
  -2   4  -3   19.00    1.00
   2   4   3   19.00    0.80
  -3  -4  -3  125.29    3.60
  -3  -4  -3  129.09    3.50
   3  -4   3  128.09    3.50
   3  -4   3  127.09    3.90
  -3  -4  -3  125.69    3.80
   3  -4   3  134.49    4.00
   3  -4   3  128.49    3.80
  -3  -4  -3  129.89    3.40
  -3   4  -3  124.89    3.90
   3   4   3  134.59    3.60
  -3   4  -3  127.79    3.60
   3   4   3  129.19    3.50
   3   4   3  128.79    3.80
  -3   4  -3  125.69    3.70
   3   4   3  127.59    3.90
   3   4   3  124.89    3.20
  -4  -4  -3    7.00    0.70
   4  -4   3    9.50    1.00
   4  -4   3    9.60    0.70
   4  -4   3    9.00    1.00
  -4  -4  -3   10.40    1.00
  -4  -4  -3    9.10    0.70
  -4  -4  -3    9.40    0.80
  -4   4  -3   10.10    1.00
   4   4   3   10.90    1.00
   4   4   3    7.80    0.90
   4   4   3   10.30    0.80
   4   4   3    8.30    0.40
  -4   4  -3    9.00    0.90
   4   4   3    9.60    0.80
  -4   4  -3    8.30    0.80
   5  -4   3   45.80    2.10
  -5  -4  -3   47.70    2.00
   5  -4   3   47.00    1.80
  -5  -4  -3   47.10    1.90
  -5  -4  -3   47.60    1.80
  -5  -4  -3   46.60    2.20
   5  -4   3   46.90    2.20
   5   4   3   47.40    2.20
  -5   4  -3   49.30    2.00
  -5   4  -3   47.40    2.20
   5   4   3   48.20    1.90
  -5   4  -3   48.10    1.90
   5   4   3   45.10    1.80
   5   4   3   46.70    2.10
  -6  -4  -3   10.00    0.90
  -6  -4  -3   11.60    1.30
   6  -4   3    9.70    1.20
  -6  -4  -3    9.90    1.10
  -6  -4  -3    8.80    1.00
   6  -4   3    7.70    1.00
   6  -4   3    9.80    0.90
  -6   4  -3    8.00    0.90
  -6   4  -3   12.00    1.40
   6   4   3   10.90    1.20
   6   4   3   10.70    1.10
   6   4   3   10.50    1.00
  -6   4  -3   10.10    1.00
  -6   4  -3   11.90    1.20
   6   4   3    8.80    1.20
   7  -4   3    8.60    1.20
   7  -4   3   10.90    1.00
  -7  -4  -3   12.70    1.60
  -7  -4  -3   11.00    1.20
  -7  -4  -3    8.10    1.10
   7  -4   3    9.10    1.20
  -7  -4  -3   11.90    1.10
   7   4   3    8.10    1.20
  -7   4  -3   11.70    1.40
  -7   4  -3    8.80    1.00
   7   4   3   11.00    1.20
  -7   4  -3   10.60    1.30
   7   4   3   12.70    1.50
   7   4   3   11.70    1.20
  -7   4  -3    9.40    1.00
   8  -4   3    1.40    0.60
   8  -4   3    0.80    0.90
   8  -4   3    1.60    0.80
  -8  -4  -3    1.30    0.70
  -8  -4  -3    2.30    0.70
  -8   4  -3    0.50    0.80
  -8   4  -3    0.40    0.50
   9  -5  -3   -0.10    0.40
  -9  -5   3   -0.60    0.50
   9  -5  -3    0.50    0.70
  -9  -5   3    0.60    0.50
   9   5  -3   -0.20    0.60
   9   5  -3    0.20    0.50
  -9   5   3    1.20    0.70
  -8  -5   3   12.30    1.30
   8  -5  -3   12.80    1.30
  -8  -5   3    9.70    1.10
  -8  -5   3   10.30    1.10
  -8  -5   3   11.00    1.40
   8  -5  -3   10.50    1.00
   8   5  -3   11.70    1.30
  -8   5   3   11.40    1.80
   8   5  -3   13.10    1.10
  -8   5   3   10.20    1.20
   8   5  -3   11.30    1.30
  -8   5   3   12.50    1.40
  -8   5   3   11.30    1.10
  -7  -5   3   10.00    1.00
   7  -5  -3   10.80    1.00
   7  -5  -3   11.20    1.20
  -7  -5   3   11.40    1.20
  -7  -5   3   10.60    1.10
  -7  -5   3    8.80    1.20
  -7  -5   3   12.90    1.50
   7   5  -3    7.70    1.10
   7   5  -3   11.20    1.30
  -7   5   3   11.50    1.20
  -7   5   3    8.30    1.10
  -7   5   3    8.10    1.00
   7   5  -3   11.30    1.20
   7   5  -3   11.60    1.20
   7   5  -3   11.30    1.10
  -7   5   3   10.10    1.00
  -6  -5   3   20.40    1.30
  -6  -5   3   21.50    1.40
   6  -5  -3   20.80    1.20
  -6  -5   3   21.90    1.50
  -6  -5   3   22.10    1.50
   6  -5  -3   21.80    1.40
   6   5  -3   21.50    1.50
  -6   5   3   21.00    1.50
   6   5  -3   20.70    1.20
  -6   5   3   22.10    1.30
  -6   5   3   23.40    1.40
   6   5  -3   22.00    1.30
   6   5  -3   19.40    1.40
   6   5  -3   22.50    1.60
  -6   5   3   19.90    1.20
  -5  -5   3   38.10    1.90
  -5  -5   3   41.70    1.80
  -5  -5   3   40.00    1.90
  -5  -5   3   39.70    1.80
   5  -5  -3   39.90    1.70
   5  -5  -3   39.20    1.60
   5   5  -3   38.10    1.70
   5   5  -3   40.10    1.80
   5   5  -3   40.70    1.70
   5   5  -3   37.70    1.90
  -5   5   3   43.30    1.90
  -5   5   3   37.70    1.60
  -5   5   3   39.80    1.60
   5   5  -3   38.10    1.90
  -4  -5   3  163.48    4.30
  -4  -5   3  133.59    4.50
  -4  -5   3  162.58    4.60
  -4  -5   3  160.68    4.70
  -4  -5   3  164.88    4.70
   4  -5  -3  159.28    4.40
  -4  -5   3  158.58    4.60
  -4   5   3  162.58    4.60
  -4   5   3  162.58    4.40
   4   5  -3  165.38    4.70
  -4   5   3  160.88    4.30
   4   5  -3  159.28    4.80
   4   5  -3  159.68    4.50
   4   5  -3  156.88    4.50
  -4   5   3  167.28    4.30
   4   5  -3  162.58    4.80
   4   5  -3  156.48    4.60
  -3  -5   3   98.09    3.00
  -3  -5   3   98.39    3.10
  -3  -5   3   98.69    3.10
   3  -5  -3   98.09    2.80
  -3  -5   3  103.09    3.20
   3  -5  -3   94.99    2.90
  -3  -5   3   96.39    2.80
   3   5  -3  101.79    3.20
  -3   5   3   99.19    2.70
  -3   5   3   97.19    2.90
  -3   5   3   95.79    2.70
   3   5  -3   97.49    3.20
   3   5  -3   94.99    3.10
   3   5  -3   99.19    3.00
   3   5  -3  102.79    3.00
  -2  -5   3  528.05   12.20
   2  -5  -3  495.15   12.10
   2  -5  -3  495.95   12.40
  -2  -5   3  491.45   12.40
  -2  -5   3  511.25   12.40
  -2  -5   3  522.45   12.60
  -2  -5   3  493.35   12.60
  -2   5   3  503.55   12.10
   2   5  -3  504.25   12.40
   2   5  -3  498.05   12.70
  -2   5   3  500.95   12.10
   2   5  -3  489.85   12.40
   2   5  -3  493.65   12.50
  -2   5   3  511.35   12.40
   2   5  -3  504.35   12.50
   1  -5  -3    6.20    0.40
  -1  -5   3    5.80    0.50
  -1  -5   3    4.80    0.60
  -1  -5   3    5.50    0.70
  -1  -5   3    5.70    0.60
  -1  -5   3    4.80    0.60
   1  -5  -3    5.50    0.60
   1   5  -3    5.70    0.60
  -1   5   3    5.00    0.40
   1   5  -3    4.60    0.70
   1   5  -3    4.20    0.60
  -1   5   3    4.60    0.60
   1   5  -3    5.10    0.60
   1   5  -3    4.20    0.60
  -1   5   3    5.50    0.40
  -1   5   3    5.80    0.40
   1   5  -3    5.80    0.50
   0  -5   3  276.77    7.50
   0  -5   3  276.27    7.10
   0  -5   3  283.37    7.40
   0  -5   3  280.37    7.20
   0  -5  -3  276.87    7.10
   0  -5  -3  276.87    6.90
   0  -5  -3  283.17    7.40
   0   5  -3  280.47    7.50
   0   5   3  285.37    6.90
   0   5   3  285.67    6.90
   0   5  -3  283.37    7.30
   0   5  -3  312.17    7.40
   0   5  -3  285.97    7.40
   0   5   3  287.47    7.40
   0   5   3  283.07    6.90
   0   5  -3  283.97    7.20
   0   5   3  282.17    7.10
   0   5   3  280.47    6.90
   0   5  -3  287.37    7.40
  -1  -5  -3  600.54   15.00
   1  -5   3  631.84   15.20
  -1  -5  -3  625.34   15.20
   1  -5   3  634.54   15.50
   1   5   3  632.34   14.90
  -1   5  -3  627.74   15.30
   1   5   3  624.14   15.00
   1   5   3  624.74   14.90
  -1   5  -3  619.14   15.40
   1   5   3  624.04   15.20
   1   5   3  641.54   15.50
   1   5   3  628.84   14.70
  -1   5  -3  609.44   15.40
  -1   5  -3  622.04   15.30
  -1   5  -3  624.14   15.20
   2  -5   3   51.99    2.10
  -2  -5  -3   52.09    1.50
   2  -5   3   51.69    2.00
  -2  -5  -3   52.99    2.00
  -2  -5  -3   52.69    1.80
   2  -5   3   51.59    1.90
   2   5   3   52.89    1.70
   2   5   3   52.49    1.90
   2   5   3   53.19    2.10
  -2   5  -3   53.19    1.90
  -2   5  -3   51.59    2.00
  -2   5  -3   56.69    2.00
  -2   5  -3   54.29    2.10
   2   5   3   57.49    1.70
   2   5   3   52.29    1.70
  -2   5  -3   53.19    2.00
   3  -5   3  125.99    4.10
  -3  -5  -3  130.19    3.40
  -3  -5  -3  135.69    4.00
  -3  -5  -3  128.19    3.40
  -3  -5  -3  124.99    3.70
   3  -5   3  126.99    3.50
   3  -5   3  135.99    4.00
   3   5   3  130.49    4.10
   3   5   3  132.39    3.60
   3   5   3  125.09    3.30
  -3   5  -3  130.59    4.00
  -3   5  -3  129.99    3.90
  -3   5  -3  126.59    3.70
   3   5   3  133.39    4.00
   3   5   3  131.39    3.60
   4  -5   3    6.20    0.90
   4  -5   3    6.70    0.90
   4  -5   3    5.70    0.60
  -4  -5  -3    6.50    0.60
  -4  -5  -3    6.50    0.60
  -4  -5  -3    7.70    0.90
  -4  -5  -3    5.90    0.70
  -4   5  -3    6.80    0.90
   4   5   3    7.30    1.00
   4   5   3    5.10    0.60
   4   5   3    5.60    0.40
  -4   5  -3    6.10    0.70
   4   5   3    5.50    0.70
   4   5   3    6.10    0.90
  -4   5  -3    6.00    0.80
   5  -5   3   13.40    1.30
  -5  -5  -3   11.40    0.90
  -5  -5  -3   12.20    1.20
   5  -5   3   11.60    0.80
   5  -5   3   12.70    1.30
  -5  -5  -3   11.90    0.90
  -5   5  -3   13.50    1.20
  -5   5  -3   12.30    1.30
   5   5   3   12.40    1.20
  -5   5  -3   12.30    1.00
   5   5   3   12.60    1.00
   5   5   3   13.20    1.00
   5   5   3   12.60    1.30
   6  -5   3    3.20    0.80
   6  -5   3    4.10    0.90
  -6  -5  -3    4.30    0.70
   6  -5   3    3.50    0.60
  -6  -5  -3    3.00    0.90
  -6  -5  -3    3.40    0.80
  -6  -5  -3    2.70    0.60
  -6   5  -3    4.40    0.80
  -6   5  -3    2.40    0.80
   6   5   3    3.90    0.90
   6   5   3    4.50    0.80
   6   5   3    3.70    1.00
   6   5   3    4.60    0.80
  -6   5  -3    4.80    1.00
  -7  -5  -3   42.30    1.90
   7  -5   3   40.60    2.30
  -7  -5  -3   38.20    2.10
  -7  -5  -3   38.10    2.00
   7  -5   3   45.10    2.40
   7  -5   3   38.90    1.70
  -7   5  -3   39.70    2.20
  -7   5  -3   36.40    2.70
   7   5   3   44.50    2.50
   7   5   3   39.90    2.10
  -7   5  -3   38.00    2.00
   7   5   3   42.60    2.10
  -8  -5  -3    4.70    0.80
  -8  -5  -3    3.60    0.80
   8  -5   3    4.60    1.10
   8  -5   3    3.30    0.60
  -8   5  -3    4.40    0.80
  -8   5  -3    3.30    0.90
   8  -6  -3   -0.40    0.60
  -8  -6   3    1.10    0.70
   8  -6  -3   -0.20    0.50
  -8  -6   3    0.00    0.40
  -8  -6   3    0.90    0.80
   8   6  -3    0.00    0.50
   8   6  -3   -0.30    0.60
  -8   6   3    1.10    0.70
   8   6  -3    0.80    0.70
  -7  -6   3    3.50    0.90
   7  -6  -3    2.60    0.70
   7  -6  -3    2.60    0.60
  -7  -6   3    2.00    0.70
  -7  -6   3    2.30    0.60
  -7  -6   3    3.20    0.60
  -7  -6   3    3.10    0.90
   7   6  -3    1.60    0.80
   7   6  -3    2.70    0.70
  -7   6   3    0.70    0.70
  -7   6   3    3.00    0.70
  -7   6   3    1.50    0.60
  -7   6   3    2.40    0.70
   7   6  -3    2.80    0.60
   7   6  -3    2.70    0.80
   7   6  -3    1.50    0.70
  -6  -6   3   66.09    2.80
  -6  -6   3   67.39    2.30
  -6  -6   3   64.69    2.60
  -6  -6   3   67.89    2.90
   6  -6  -3   65.79    2.50
   6  -6  -3   65.49    2.50
  -6  -6   3   66.59    2.60
   6   6  -3   65.79    2.60
   6   6  -3   65.89    2.40
   6   6  -3   67.09    2.90
  -6   6   3   63.99    2.80
   6   6  -3   68.59    2.60
   6   6  -3   68.19    2.80
   6   6  -3   65.29    2.90
  -6   6   3   66.99    2.70
  -6   6   3   70.89    2.40
  -6   6   3   68.19    2.50
  -5  -6   3   33.90    1.90
  -5  -6   3   33.10    1.40
  -5  -6   3   32.70    1.70
   5  -6  -3   33.90    1.60
  -5  -6   3   30.70    1.60
  -5  -6   3   32.70    1.80
  -5   6   3   36.40    1.50
   5   6  -3   33.00    1.60
  -5   6   3   33.50    1.50
   5   6  -3   34.20    1.90
  -5   6   3   36.00    1.80
   5   6  -3   31.00    1.90
   5   6  -3   32.10    1.80
   5   6  -3   33.80    1.60
  -5   6   3   34.70    1.80
   5   6  -3   30.50    1.70
   4  -6  -3   52.19    2.00
  -4  -6   3   44.80    2.10
  -4  -6   3   53.59    2.20
  -4  -6   3   47.80    2.00
  -4  -6   3   50.29    1.70
  -4  -6   3   51.29    2.20
   4  -6  -3   47.80    1.80
  -4   6   3   46.80    1.90
  -4   6   3   48.10    1.80
   4   6  -3   49.60    1.90
   4   6  -3   49.70    2.00
  -4   6   3   51.69    2.10
   4   6  -3   50.89    2.00
   4   6  -3   48.70    2.10
   4   6  -3   40.50    2.10
  -4   6   3   50.59    1.80
   3  -6  -3    1.60    0.40
  -3  -6   3    1.90    0.50
  -3  -6   3    1.00    0.50
  -3  -6   3    0.90    0.50
   3  -6  -3    1.50    0.50
  -3  -6   3    1.20    0.30
  -3  -6   3    1.50    0.60
   3   6  -3    1.50    0.50
   3   6  -3    0.90    0.50
   3   6  -3    0.50    0.50
  -3   6   3    1.50    0.40
  -3   6   3    1.30    0.40
   3   6  -3    1.00    0.60
  -3   6   3    1.10    0.40
   3   6  -3    2.00    0.50
  -2  -6   3  133.89    4.20
  -2  -6   3  136.99    3.90
   2  -6  -3  133.49    4.00
   2  -6  -3  138.19    3.70
  -2  -6   3  134.79    4.00
  -2  -6   3  140.79    4.10
  -2   6   3  141.49    3.70
   2   6  -3  140.09    4.00
   2   6  -3  131.69    4.00
   2   6  -3  131.89    4.20
  -2   6   3  137.99    3.60
   2   6  -3  138.99    4.10
   2   6  -3  143.09    4.10
  -2   6   3  139.59    4.00
  -1  -6   3  108.39    3.30
  -1  -6   3  104.49    3.10
   1  -6  -3  109.59    2.90
   1  -6  -3  107.19    3.30
  -1  -6   3  105.79    2.90
  -1  -6   3  109.29    3.30
  -1  -6   3  107.99    3.50
   1   6  -3  100.39    2.90
   1   6  -3  102.29    3.40
   1   6  -3  109.49    3.20
   1   6  -3  106.89    3.30
  -1   6   3  106.19    3.30
  -1   6   3  105.29    2.90
   1   6  -3  105.09    3.30
   1   6  -3  103.79    3.30
  -1   6   3  107.49    2.90
  -1   6   3  105.99    2.80
   0  -6   3   28.80    1.20
   0  -6  -3   32.70    1.50
   0  -6  -3   30.20    1.20
   0  -6   3   32.00    1.30
   0  -6   3   34.40    1.70
   0   6   3   28.70    1.20
   0   6   3   32.80    1.60
   0   6   3   27.10    0.90
   0   6  -3   31.40    1.30
   0   6   3   34.40    1.10
   0   6   3   32.90    1.10
   0   6   3   31.10    0.90
   0   6   3   33.60    1.20
   1  -6   3  122.39    3.90
  -1  -6  -3  119.09    3.30
   1  -6   3  122.09    3.50
  -1  -6  -3  120.89    3.50
   1  -6   3  122.69    3.70
   1  -6   3  117.89    3.30
  -1   6  -3  123.49    3.70
  -1   6  -3  126.19    3.90
   1   6   3  119.59    3.80
   1   6   3  118.79    3.50
   1   6   3  121.99    3.30
  -1   6  -3  123.19    3.50
  -1   6  -3  122.69    3.70
   1   6   3  126.09    3.30
  -1   6  -3  115.89    3.70
   1   6   3  117.19    3.30
   2  -6   3   58.59    2.20
   2  -6   3   53.39    2.30
   2  -6   3   52.89    2.00
  -2  -6  -3   56.09    1.90
  -2  -6  -3   53.19    2.00
  -2   6  -3   50.19    2.10
   2   6   3   56.19    2.10
   2   6   3   53.99    1.80
   2   6   3   53.59    1.80
   2   6   3   58.19    2.30
   2   6   3   52.29    1.80
  -2   6  -3   55.79    2.20
  -2   6  -3   52.19    2.10
  -2   6  -3   52.19    2.10
   2   6   3   54.09    1.80
  -3  -6  -3   42.00    1.90
   3  -6   3   45.90    1.50
   3  -6   3   43.20    2.10
   3  -6   3   43.80    2.00
  -3  -6  -3   43.50    1.70
  -3  -6  -3   43.80    1.20
  -3   6  -3   41.70    1.90
  -3   6  -3   45.30    1.90
   3   6   3   41.60    1.40
  -3   6  -3   43.10    1.80
   3   6   3   42.00    1.90
   3   6   3   44.60    1.70
  -3   6  -3   46.00    2.00
   3   6   3   47.10    1.70
   3   6   3   47.00    2.20
   4  -6   3    8.70    0.60
   4  -6   3    9.10    1.10
  -4  -6  -3    8.90    0.90
  -4  -6  -3    8.50    0.60
  -4  -6  -3   11.10    1.20
  -4  -6  -3    9.80    0.70
   4  -6   3    7.00    1.00
   4   6   3    8.60    0.80
   4   6   3    7.20    0.90
   4   6   3    9.30    0.90
   4   6   3    8.00    1.00
  -4   6  -3   10.40    1.10
  -4   6  -3    7.50    0.90
  -4   6  -3   10.30    1.00
   4   6   3    8.30    0.50
  -5  -6  -3    2.60    0.50
   5  -6   3    2.70    0.50
  -5  -6  -3    1.10    0.60
  -5  -6  -3    2.00    0.70
   5  -6   3    3.40    0.80
   5  -6   3    2.70    0.80
  -5  -6  -3    2.40    0.50
  -5   6  -3    2.50    0.70
   5   6   3    2.70    0.90
  -5   6  -3    2.40    0.70
   5   6   3    1.60    0.70
   5   6   3    1.70    0.60
   5   6   3    2.80    0.30
   5   6   3    3.40    0.70
  -5   6  -3    2.90    0.80
  -6  -6  -3    7.30    1.00
  -6  -6  -3    7.50    0.80
   6  -6   3    8.50    1.30
   6  -6   3    7.60    0.70
  -6  -6  -3    6.70    0.80
   6  -6   3    9.30    1.30
  -6  -6  -3    7.40    1.20
   6   6   3    7.40    1.30
   6   6   3    6.90    0.90
   6   6   3    6.40    0.90
   6   6   3    5.50    1.00
  -6   6  -3    8.30    1.30
  -6   6  -3    6.20    1.00
  -6   6  -3    5.50    0.90
   7  -6   3    4.20    1.10
   7  -6   3    2.60    0.50
   7  -6   3    1.30    0.90
  -7  -6  -3    4.20    0.70
  -7  -6  -3    4.30    0.70
  -7   6  -3    4.00    0.80
  -7   6  -3    2.00    0.80
   8  -7  -3    0.60    0.50
   8  -7  -3    1.00    0.70
  -8  -7   3    0.10    0.50
  -8  -7   3   -0.10    0.40
   8   7  -3   -0.40    0.70
  -8   7   3    0.00    0.60
   8   7  -3   -0.70    0.50
   7  -7  -3   14.60    1.30
  -7  -7   3   15.80    1.10
  -7  -7   3   15.30    1.60
  -7  -7   3   16.20    1.10
  -7  -7   3   13.70    1.40
   7  -7  -3   16.00    1.30
  -7   7   3   17.20    1.40
   7   7  -3   15.30    1.20
   7   7  -3   14.50    1.50
  -7   7   3   13.10    1.20
   7   7  -3   18.00    1.60
  -7   7   3   15.90    1.70
   7   7  -3   14.70    1.50
  -6  -7   3   26.90    1.90
   6  -7  -3   27.70    1.60
  -6  -7   3   27.10    1.80
  -6  -7   3   26.80    1.30
  -6  -7   3   25.30    1.30
   6  -7  -3   31.00    1.60
  -6  -7   3   29.90    1.70
  -6   7   3   26.50    1.50
   6   7  -3   28.20    1.50
  -6   7   3   27.30    1.60
   6   7  -3   25.40    1.80
   6   7  -3   25.60    1.80
   6   7  -3   29.60    1.80
  -6   7   3   26.90    1.70
   6   7  -3   30.70    1.70
  -6   7   3   30.40    1.90
   5  -7  -3   62.39    2.90
  -5  -7   3   73.69    2.90
  -5  -7   3   73.89    2.80
   5  -7  -3   79.99    2.80
  -5  -7   3   77.59    3.10
  -5  -7   3   74.29    2.30
   5   7  -3   75.89    2.80
  -5   7   3   74.49    2.50
  -5   7   3   80.39    2.90
  -5   7   3   71.59    2.60
   5   7  -3   76.09    3.00
   5   7  -3   72.99    2.90
  -5   7   3   78.79    2.90
   5   7  -3   76.49    2.70
   5   7  -3   75.79    3.10
  -4  -7   3  138.99    4.20
  -4  -7   3  138.59    3.70
  -4  -7   3  143.79    4.50
  -4  -7   3  144.39    4.60
   4  -7  -3  139.39    4.10
   4  -7  -3  147.49    4.30
  -4  -7   3  144.39    4.50
   4   7  -3  135.69    4.40
  -4   7   3  144.19    4.00
   4   7  -3  133.19    4.30
  -4   7   3  141.19    4.30
   4   7  -3  140.29    4.60
  -4   7   3  136.69    4.00
   4   7  -3  144.89    4.30
   4   7  -3  137.69    4.20
  -4   7   3  135.59    4.20
  -3  -7   3   10.20    1.20
  -3  -7   3    9.20    1.00
  -3  -7   3    8.40    0.50
  -3  -7   3    9.70    1.00
   3  -7  -3    7.30    0.90
   3  -7  -3    9.80    0.80
  -3  -7   3    9.50    1.00
  -3   7   3    9.30    0.90
  -3   7   3    8.80    0.80
   3   7  -3    9.00    1.10
   3   7  -3    7.20    0.90
   3   7  -3   10.30    1.20
  -3   7   3    8.30    0.90
  -3   7   3    8.50    0.80
   3   7  -3    8.90    1.00
  -3   7   3    9.00    0.80
   3   7  -3    8.50    0.90
  -2  -7   3   28.40    1.50
  -2  -7   3   30.40    1.70
   2  -7  -3   26.50    1.50
   2  -7  -3   30.50    1.20
  -2  -7   3   30.30    1.00
  -2  -7   3   28.50    1.60
  -2   7   3   30.10    1.20
   2   7  -3   29.50    1.50
   2   7  -3   31.00    1.70
   2   7  -3   27.70    1.50
  -2   7   3   30.90    1.60
  -2   7   3   29.50    1.20
  -2   7   3   30.40    1.30
   2   7  -3   29.50    1.50
   2   7  -3   27.70    1.50
  -1  -7   3   63.59    2.30
  -1  -7   3   62.29    2.10
  -1  -7   3   63.59    2.50
  -1  -7   3   60.39    1.80
   1  -7  -3   59.99    2.40
  -1  -7   3   49.50    2.20
   1   7  -3   62.09    2.30
   1   7  -3   60.89    2.30
  -1   7   3   60.19    1.90
   1   7  -3   58.89    2.30
   1   7  -3   61.69    2.30
   1   7  -3   63.49    2.50
  -1   7   3   62.09    2.40
  -1   7   3   60.39    1.90
  -1   7   3   60.99    1.80
  -1   7   3   60.29    1.80
   0  -7   3   42.10    1.60
   0  -7   3   41.50    1.50
   0  -7   3   41.30    2.00
   0  -7  -3   40.40    1.50
   0  -7  -3   40.50    1.90
   0  -7   3   33.60    1.80
   0   7   3   40.80    1.50
   0   7   3   41.50    1.90
   0   7  -3   41.70    2.00
   0   7  -3   40.90    1.80
   0   7   3   41.60    1.50
   0   7  -3   42.70    1.90
   0   7  -3   41.10    1.80
   0   7  -3   40.10    1.80
   0   7   3   39.90    1.50
   0   7   3   41.20    1.40
   0   7  -3   39.20    1.50
  -1  -7  -3    1.80    0.40
   1  -7   3    1.00    0.40
  -1  -7  -3    1.60    0.50
   1  -7   3    1.00    0.50
   1  -7   3    1.50    0.70
   1  -7   3    2.00    0.40
  -1   7  -3    1.10    0.40
   1   7   3    1.40    0.60
   1   7   3    1.80    0.40
  -1   7  -3    2.80    0.70
  -1   7  -3    1.10    0.60
   1   7   3    1.80    0.40
   1   7   3    1.40    0.40
  -1   7  -3    1.90    0.60
  -1   7  -3    2.10    0.60
   1   7   3    1.00    0.40
   2  -7   3   36.90    1.80
   2  -7   3   35.00    1.30
  -2  -7  -3   31.80    1.40
   2  -7   3   34.40    1.90
  -2  -7  -3   34.60    1.60
   2   7   3   32.20    1.40
   2   7   3   34.30    1.40
  -2   7  -3   33.80    1.80
  -2   7  -3   36.40    1.70
   2   7   3   36.50    1.40
   2   7   3   35.10    1.90
  -2   7  -3   36.90    1.90
  -2   7  -3   33.00    1.70
   2   7   3   36.80    1.70
   2   7   3   33.40    1.40
  -3  -7  -3    6.70    0.80
   3  -7   3    8.10    1.10
   3  -7   3    6.30    0.50
  -3  -7  -3    6.10    0.80
   3  -7   3    8.00    1.10
   3   7   3    7.20    1.10
   3   7   3    6.50    0.80
   3   7   3    7.90    0.80
   3   7   3    6.60    0.70
  -3   7  -3    7.70    1.00
   3   7   3    7.20    0.70
  -3   7  -3    8.20    1.00
  -3   7  -3    6.60    0.90
  -3   7  -3    8.40    0.90
   3   7   3    6.80    0.80
  -4  -7  -3   33.30    1.90
   4  -7   3   32.70    1.90
  -4  -7  -3   32.90    1.60
   4  -7   3   37.00    2.10
   4  -7   3   32.10    1.10
  -4   7  -3   33.30    1.70
   4   7   3   31.80    1.20
  -4   7  -3   36.50    1.90
  -4   7  -3   32.60    1.90
   4   7   3   33.90    1.60
   4   7   3   33.30    2.00
   4   7   3   31.60    1.70
   4   7   3   35.90    1.60
   4   7   3   32.10    1.90
  -4   7  -3   34.50    1.80
   5  -7   3    0.90    0.30
   5  -7   3    1.60    0.80
  -5  -7  -3    2.00    0.90
  -5  -7  -3    0.50    0.40
  -5  -7  -3    1.20    0.30
   5  -7   3    1.90    0.80
  -5  -7  -3    0.60    0.50
  -5   7  -3    1.30    0.60
   5   7   3    1.20    0.60
   5   7   3    0.60    0.70
   5   7   3    1.10    0.70
  -5   7  -3    0.80    0.70
   5   7   3    0.70    0.50
  -5   7  -3    1.80    0.70
   5   7   3    1.00    0.30
   6  -7   3    8.70    0.60
  -6  -7  -3    9.60    1.60
  -6  -7  -3    7.40    0.70
   6  -7   3    9.80    1.40
  -6  -7  -3    6.40    0.70
   6  -7   3    6.20    1.10
   6   7   3    8.00    1.00
  -6   7  -3   10.40    1.50
   6   7   3    7.60    1.40
   6   7   3    6.00    1.30
  -6   7  -3    8.00    1.20
  -7  -7  -3    3.30    0.60
   7  -7   3    4.50    1.20
  -7  -7  -3    2.50    0.50
   7  -7   3    3.80    0.40
  -7   7  -3    3.50    1.00
  -7  -8   3    3.80    0.50
  -7  -8   3    3.20    0.90
   7  -8  -3    3.30    0.80
   7  -8  -3    4.70    0.80
  -7  -8   3    4.70    0.60
   7   8  -3    4.50    0.80
  -7   8   3    5.30    0.90
   7   8  -3    1.40    0.90
  -6  -8   3    0.60    0.60
  -6  -8   3    0.60    0.30
   6  -8  -3    0.70    0.60
  -6  -8   3   -0.30    0.70
  -6  -8   3    1.20    0.70
  -6  -8   3    0.60    0.30
  -6   8   3    0.20    0.60
   6   8  -3    0.70    0.70
   6   8  -3    3.40    0.80
   6   8  -3    1.60    0.80
   6   8  -3    1.70    0.80
  -6   8   3    2.00    0.60
  -6   8   3    0.50    0.60
  -6   8   3    0.10    0.50
   6   8  -3    1.00    0.70
  -5  -8   3    3.10    0.80
  -5  -8   3    3.30    0.40
   5  -8  -3    3.30    0.80
  -5  -8   3    3.50    0.90
   5  -8  -3    1.90    0.60
  -5  -8   3    5.00    0.80
  -5  -8   3    3.70    0.40
  -5   8   3    3.70    0.70
   5   8  -3    3.90    0.90
   5   8  -3    2.50    0.90
   5   8  -3    2.30    0.80
  -5   8   3    3.00    0.60
   5   8  -3    3.60    0.70
   5   8  -3    3.60    0.80
  -5   8   3    3.20    0.60
  -5   8   3    2.70    0.70
  -5   8   3    3.10    0.80
   4  -8  -3   16.30    1.30
  -4  -8   3   21.40    1.60
  -4  -8   3   18.90    1.30
   4  -8  -3   19.00    1.20
  -4  -8   3   17.40    1.40
  -4  -8   3   16.40    1.60
   4   8  -3   18.10    1.60
   4   8  -3   19.50    1.40
  -4   8   3   20.10    1.40
   4   8  -3   18.50    1.50
  -4   8   3   19.00    1.30
   4   8  -3   21.10    1.40
  -4   8   3   20.30    1.20
   4   8  -3   18.50    1.40
  -4   8   3   20.20    1.30
  -4   8   3   17.70    1.10
   3  -8  -3    3.70    0.60
   3  -8  -3    2.50    0.70
  -3  -8   3    4.20    0.80
  -3  -8   3    4.10    0.90
  -3  -8   3    3.40    0.70
   3   8  -3    3.90    0.90
   3   8  -3    3.30    0.70
   3   8  -3    3.40    0.80
  -3   8   3    4.70    0.70
  -3   8   3    3.00    0.50
   3   8  -3    2.70    0.70
   3   8  -3    3.40    0.70
  -3   8   3    3.90    0.70
  -3   8   3    3.40    0.60
  -3   8   3    3.00    0.60
  -2  -8   3   68.69    2.90
  -2  -8   3   70.89    2.70
   2  -8  -3   61.59    2.20
  -2  -8   3   69.89    2.50
   2  -8  -3   68.29    2.70
   2   8  -3   68.89    2.90
   2   8  -3   66.99    2.60
  -2   8   3   66.99    2.20
   2   8  -3   68.59    2.60
  -2   8   3   66.89    2.20
  -2   8   3   72.19    2.30
  -2   8   3   73.59    2.70
   2   8  -3   67.19    2.60
   2   8  -3   71.79    2.70
   1  -8  -3   30.70    1.70
  -1  -8   3   30.10    1.80
  -1  -8   3   32.50    1.50
  -1  -8   3   34.10    1.70
  -1   8   3   29.40    1.00
  -1   8   3   28.10    1.00
  -1   8   3   29.10    1.30
   1   8  -3   30.00    1.60
   1   8  -3   31.10    1.80
  -1   8   3   31.30    1.70
  -1   8   3   31.40    1.30
  -1   8   3   31.60    1.40
   1   8  -3   32.60    1.70
   1   8  -3   32.80    1.70
   1   8  -3   31.60    1.70
   0  -8   3    1.00    0.40
   0  -8  -3   -0.10    0.50
   0  -8   3    1.50    0.60
   0  -8   3    0.90    0.60
   0  -8  -3    1.00    0.40
   0   8   3    0.70    0.40
   0   8  -3    0.40    0.50
   0   8   3    1.30    0.40
   0   8  -3    0.50    0.50
   0   8   3    1.00    0.40
   0   8  -3    0.80    0.60
   0   8  -3    1.30    0.60
   0   8  -3    0.90    0.50
   0   8   3    0.90    0.40
   0   8  -3    0.90    0.40
   0   8   3    0.80    0.60
  -1  -8  -3   19.30    1.10
   1  -8   3   20.70    1.40
   1  -8   3   21.60    1.60
   1  -8   3   19.00    1.00
  -1  -8  -3   20.10    1.10
   1   8   3   19.00    1.00
  -1   8  -3   20.40    1.40
  -1   8  -3   18.70    1.10
   1   8   3   18.60    1.10
  -1   8  -3   18.40    1.40
   1   8   3   18.60    1.10
   1   8   3   19.40    1.50
  -1   8  -3   18.40    1.30
   1   8   3   19.30    1.10
  -1   8  -3   18.70    1.40
   2  -8   3    7.50    0.60
  -2  -8  -3    7.40    0.80
   2  -8   3    7.50    1.00
   2  -8   3    6.50    1.10
  -2  -8  -3    7.30    0.90
   2   8   3    6.50    0.70
  -2   8  -3    6.10    0.80
   2   8   3    7.60    0.70
  -2   8  -3    7.00    1.00
  -2   8  -3    7.30    1.00
   2   8   3    6.50    1.00
  -2   8  -3    6.60    1.00
   2   8   3    7.40    0.90
   2   8   3    8.60    0.80
  -2   8  -3    6.90    0.90
   2   8   3    7.20    0.80
  -3  -8  -3   49.80    2.00
   3  -8   3   47.70    2.50
   3  -8   3   47.30    1.40
   3  -8   3   48.40    1.40
  -3  -8  -3   47.60    2.20
   3  -8   3   50.49    2.40
  -3   8  -3   42.80    2.20
   3   8   3   47.40    1.90
  -3   8  -3   47.40    2.10
   3   8   3   47.90    1.90
  -3   8  -3   48.60    2.20
   3   8   3   48.00    2.20
   3   8   3   47.70    1.80
  -3   8  -3   49.99    2.40
  -3   8  -3   47.40    2.20
   3   8   3   49.60    2.00
   3   8   3   48.30    2.50
   4  -8   3   14.90    1.30
  -4  -8  -3   10.60    1.00
  -4  -8  -3   13.40    1.40
   4  -8   3   11.80    1.40
  -4   8  -3   13.50    1.40
  -4   8  -3   11.90    1.30
   4   8   3   12.30    0.80
   4   8   3   13.00    1.10
   4   8   3   11.90    1.30
   4   8   3   12.60    1.10
   4   8   3    9.90    1.30
  -4   8  -3   12.10    1.10
  -4   8  -3   12.90    1.30
   4   8   3   11.80    1.00
  -5  -8  -3    2.90    0.90
   5  -8   3    4.00    0.90
   5  -8   3    3.90    1.10
  -5  -8  -3    1.90    0.60
  -5   8  -3    2.50    0.80
  -5   8  -3    2.30    0.90
   5   8   3    3.00    0.70
   5   8   3    4.30    1.00
   5   8   3    2.80    0.90
  -5   8  -3    3.20    0.70
   5   8   3    4.30    0.90
   5   8   3    3.80    0.40
   5   8   3    3.30    0.70
  -5   8  -3    3.80    0.90
   6  -8   3    0.00    0.80
   6  -8   3    1.50    1.00
   6   8   3    1.20    0.70
  -6   8  -3    2.10    0.90
  -6  -9   3    3.30    0.80
   6  -9  -3    3.80    0.90
   6   9  -3    3.90    1.10
  -6   9   3    2.50    0.70
  -6   9   3    4.10    0.80
   6   9  -3    3.70    0.80
  -6   9   3    4.90    1.00
  -5  -9   3    6.50    0.90
  -5  -9   3    8.90    1.30
   5  -9  -3   11.20    1.30
   5  -9  -3    8.20    1.00
  -5  -9   3    8.20    1.20
   5   9  -3    8.80    1.20
  -5   9   3    6.40    0.90
   5   9  -3    7.30    1.20
   5   9  -3    8.30    1.10
   5   9  -3    7.50    1.30
  -5   9   3    5.20    0.90
  -5   9   3    7.30    0.90
  -5   9   3    7.70    0.90
  -5   9   3    8.10    1.00
   5   9  -3    9.20    1.10
   4  -9  -3   15.90    1.50
  -4  -9   3   14.90    1.60
  -4  -9   3   16.50    1.40
  -4  -9   3   14.50    1.40
   4  -9  -3   15.10    1.20
  -4   9   3   13.60    1.10
  -4   9   3   14.00    1.10
   4   9  -3   13.80    1.40
  -4   9   3   14.10    1.20
   4   9  -3   14.40    1.30
   4   9  -3   12.90    1.50
   4   9  -3   15.20    1.30
  -4   9   3   12.90    1.20
   4   9  -3   13.30    1.40
  -4   9   3   15.10    1.20
   3  -9  -3   35.90    2.00
  -3  -9   3   35.80    2.00
  -3  -9   3   35.30    1.90
  -3  -9   3   36.60    2.20
   3  -9  -3   35.90    1.60
   3   9  -3   35.40    2.20
   3   9  -3   35.80    1.90
  -3   9   3   35.60    1.90
  -3   9   3   38.90    1.70
   3   9  -3   38.70    2.00
   3   9  -3   36.50    1.90
  -3   9   3   36.20    1.60
  -3   9   3   36.20    1.60
   3   9  -3   39.50    2.00
  -3   9   3   39.40    1.70
  -2  -9   3   15.30    1.50
  -2  -9   3   16.90    1.20
   2  -9  -3   16.60    1.40
  -2  -9   3   13.20    1.30
   2  -9  -3   17.20    1.00
   2   9  -3   16.90    1.60
  -2   9   3   16.60    1.10
   2   9  -3   15.50    1.30
   2   9  -3   16.30    1.30
  -2   9   3   17.10    1.00
  -2   9   3   16.90    1.40
  -2   9   3   16.20    0.90
   2   9  -3   16.00    1.40
   2   9  -3   16.10    1.40
  -1  -9   3   33.50    2.10
  -1  -9   3   32.50    1.60
   1  -9  -3   33.80    2.00
   1   9  -3   32.60    1.90
  -1   9   3   35.60    1.40
   1   9  -3   34.50    1.80
   1   9  -3   34.00    2.00
  -1   9   3   32.80    1.90
  -1   9   3   29.90    1.40
   1   9  -3   32.80    1.80
  -1   9   3   31.90    1.50
   1   9  -3   30.50    1.80
   0  -9   3    5.30    0.70
   0  -9  -3    6.00    1.00
   0  -9  -3    5.20    0.60
   0  -9   3    6.50    1.10
   0  -9   3    6.90    1.00
   0   9  -3    4.10    0.90
   0   9   3    5.50    0.70
   0   9  -3    5.40    0.60
   0   9  -3    6.80    1.00
   0   9   3    6.60    0.70
   0   9  -3    5.90    0.90
   0   9   3    5.50    1.00
   0   9   3    5.40    0.70
   0   9   3    6.40    0.80
   0   9  -3    6.00    0.90
   0   9  -3    4.00    0.90
   1  -9   3    0.50    0.60
   1  -9   3    0.70    0.40
   1  -9   3    0.70    0.80
  -1  -9  -3    0.60    0.40
  -1   9  -3    0.70    0.60
   1   9   3    0.90    0.50
   1   9   3    0.70    0.50
  -1   9  -3    1.10    0.60
  -1   9  -3    0.20    0.60
   1   9   3    0.20    0.40
  -1   9  -3    1.30    0.50
  -1   9  -3    1.00    0.60
   1   9   3    1.00    0.60
  -1   9  -3    0.50    0.70
   1   9   3    1.20    0.50
   1   9   3    0.20    0.60
   2  -9   3   17.90    0.80
   2  -9   3   18.90    1.70
   2  -9   3   18.50    1.50
  -2  -9  -3   16.10    1.30
  -2  -9  -3   19.00    1.20
   2  -9   3   17.50    0.80
  -2   9  -3   17.20    1.40
   2   9   3   17.20    1.20
  -2   9  -3   20.20    1.40
  -2   9  -3   19.20    1.60
  -2   9  -3   17.00    1.30
  -2   9  -3   19.20    1.50
   2   9   3   21.30    1.30
   2   9   3   19.50    1.10
   2   9   3   18.70    1.30
   2   9   3   19.50    1.20
   2   9   3   16.80    1.60
   3  -9   3   17.10    1.80
  -3  -9  -3   14.30    1.10
   3  -9   3   15.70    1.50
  -3  -9  -3   18.80    1.40
  -3   9  -3   16.50    1.40
  -3   9  -3   15.50    1.50
   3   9   3   17.30    1.10
   3   9   3   13.80    1.20
   3   9   3   16.30    1.10
   3   9   3   16.10    1.20
   3   9   3   16.30    1.60
   3   9   3   15.40    1.40
  -3   9  -3   15.00    1.30
  -3   9  -3   15.60    1.30
  -3   9  -3   14.80    1.50
  -3   9  -3   17.70    1.50
   4  -9   3    1.40    0.80
  -4  -9  -3    1.10    0.60
  -4  -9  -3    2.00    0.80
   4  -9   3    0.40    0.80
   4   9   3    2.10    0.90
  -4   9  -3    1.50    0.80
  -4   9  -3    1.40    0.80
   4   9   3    1.80    0.70
   4   9   3    0.70    0.50
   4   9   3    1.20    0.40
   4   9   3    2.40    0.70
  -4   9  -3    0.70    0.60
  -4   9  -3    0.40    0.70
   4   9   3    1.80    0.60
   5  -9   3   14.90    2.40
   5  -9   3   10.60    1.40
  -5   9  -3   15.50    1.50
   5   9   3   13.20    0.80
  -5   9  -3   16.20    1.70
   5   9   3   13.40    1.30
   5   9   3   13.50    1.30
   5 -10  -3    1.30    0.60
   5 -10  -3    3.00    1.00
  -5  10   3    2.50    0.70
  -5  10   3    0.70    0.70
  -5  10   3    2.80    0.70
   5  10  -3    0.60    0.70
   5  10  -3    3.40    1.00
   4 -10  -3    4.70    0.80
   4 -10  -3    5.60    1.10
  -4 -10   3    5.20    1.10
   4  10  -3    3.50    1.00
   4  10  -3    4.70    0.90
  -4  10   3    5.50    0.80
  -4  10   3    5.70    0.90
   4  10  -3    6.20    1.10
  -4  10   3    4.90    0.90
   4  10  -3    5.00    1.30
  -4  10   3    4.10    0.70
  -3 -10   3    0.80    0.80
   3 -10  -3    0.80    0.70
  -3 -10   3    1.00    0.70
   3 -10  -3    0.30    0.40
  -3 -10   3    0.10    0.60
   3  10  -3   -0.20    0.60
  -3  10   3    0.10    0.60
   3  10  -3   -0.10    0.70
   3  10  -3   -0.60    0.60
  -3  10   3   -0.30    0.40
   3  10  -3    1.00    0.70
   3  10  -3    0.30    0.60
  -3  10   3    0.20    0.50
  -3  10   3   -0.20    0.40
  -3  10   3    0.10    0.40
  -2 -10   3    5.60    0.90
   2 -10  -3    8.20    1.30
  -2 -10   3    7.00    1.20
  -2 -10   3    8.40    1.00
   2  10  -3    7.50    1.10
  -2  10   3   11.80    1.30
  -2  10   3    6.90    0.60
   2  10  -3    7.40    1.10
   2  10  -3    6.80    1.10
  -2  10   3    7.50    0.80
  -2  10   3    7.00    0.80
  -2  10   3    5.50    0.90
   2  10  -3    7.10    1.30
   2  10  -3    7.30    1.10
   1 -10  -3    1.30    0.80
  -1 -10   3    1.30    0.60
  -1 -10   3    2.20    1.00
   1  10  -3    1.80    0.70
   1  10  -3    2.00    0.80
   1  10  -3    0.50    0.70
  -1  10   3    1.00    0.50
  -1  10   3    0.50    0.60
  -1  10   3    0.40    0.40
  -1  10   3    0.80    0.60
   1  10  -3    1.50    0.70
   1  10  -3    1.00    0.70
   0 -10   3   13.80    1.40
   0 -10  -3   15.00    1.60
   0 -10   3   17.00    1.80
   0 -10   3   14.40    1.00
   0 -10  -3   13.00    0.90
   0  10   3   13.50    1.50
   0  10   3   16.10    1.10
   0  10  -3   16.80    1.40
   0  10  -3   15.70    1.50
   0  10  -3   13.00    1.30
   0  10   3   12.90    1.00
   0  10  -3   13.80    1.40
   0  10   3   15.60    1.20
   0  10  -3   15.20    1.50
  -1 -10  -3    1.80    0.60
   1 -10   3    1.60    0.40
   1 -10   3    1.90    1.00
   1 -10   3    0.00    0.60
  -1  10  -3    0.70    0.70
   1  10   3    2.40    0.70
  -1  10  -3    1.30    0.80
  -1  10  -3    1.80    0.80
  -1  10  -3    0.90    0.40
   1  10   3    2.40    0.60
  -1  10  -3    2.30    0.80
   1  10   3    2.20    0.50
  -1  10  -3    3.10    0.80
   1  10   3    0.40    0.70
   1  10   3    2.20    0.60
   1  10   3    2.30    0.60
  -2 -10  -3    2.80    0.70
   2 -10   3    4.70    0.40
   2 -10   3    4.20    0.40
  -2 -10  -3    4.00    0.70
   2 -10   3    4.50    1.00
   2 -10   3    4.70    1.20
   2  10   3    4.60    0.80
   2  10   3    5.20    0.80
  -2  10  -3    5.60    1.00
  -2  10  -3    5.80    0.80
  -2  10  -3    5.90    1.00
   2  10   3    4.20    1.00
   2  10   3    4.40    0.80
  -2  10  -3    7.10    1.10
   2  10   3    5.20    0.70
   2  10   3    4.10    0.80
  -2  10  -3    3.90    0.90
  -3 -10  -3    2.10    0.70
   3 -10   3    3.90    0.90
   3 -10   3    3.00    1.00
   3  10   3    4.20    0.80
  -3  10  -3    4.60    0.80
   3  10   3    2.80    0.80
   3  10   3    2.50    0.60
  -3  10  -3    2.90    0.70
  -3  10  -3    3.20    0.90
  -3  10  -3    3.00    0.90
  -3  10  -3    5.00    1.20
  -3  10  -3    3.00    0.90
   3  10   3    5.00    0.80
   4 -10   3    5.30    1.10
  -4 -10  -3    3.50    1.00
   4  10   3    4.90    0.80
   4  10   3    4.50    0.80
   4  10   3    3.70    0.90
  -4  10  -3    5.50    1.00
   4  10   3    5.30    0.70
  -4  10  -3    4.90    1.00
  -4 -11   3    0.70    0.80
   4 -11  -3    0.70    0.80
   4 -11  -3    1.30    0.60
  -4  11   3    0.10    0.50
  -4  11   3    0.10    0.50
   4  11  -3    0.10    0.70
  -4  11   3    0.10    0.60
  -4  11   3   -0.20    0.50
   3 -11  -3    0.90    0.50
  -3 -11   3    0.30    0.70
   3 -11  -3    1.40    0.90
  -3  11   3   -0.40    0.60
  -3  11   3    0.70    0.50
  -3  11   3    0.70    0.50
  -3  11   3    0.50    0.60
   3  11  -3    0.40    0.70
  -3  11   3    0.20    0.50
   3  11  -3    1.00    0.80
   2 -11  -3    0.10    0.80
  -2 -11   3   -0.10    0.60
  -2  11   3    0.60    0.60
  -2  11   3    0.70    0.60
   2  11  -3    0.70    0.70
   2  11  -3   -0.50    0.60
  -2  11   3    0.30    0.50
   1 -11  -3   21.10    2.00
  -1 -11   3   17.80    1.30
  -1  11   3   17.10    1.20
  -1  11   3   20.40    1.30
   1  11  -3   18.00    1.70
   1  11  -3   17.90    1.60
  -1  11   3   17.50    1.70
   1  11  -3   15.60    1.70
  -1  11   3   22.10    1.50
   0 -11   3    7.90    0.90
   0 -11  -3    9.10    1.30
   0  11   3    7.70    0.80
   0  11   3    9.30    1.00
   0  11   3    6.50    1.10
   0  11  -3    8.50    1.20
   0  11   3    6.70    1.10
   0  11  -3    6.90    1.10
   0  11   3    7.50    0.80
  -1 -11  -3    1.00    0.50
   1 -11   3    0.40    0.30
   1 -11   3    0.20    0.60
  -1  11  -3    0.40    0.40
   1  11   3    0.20    0.50
  -1  11  -3   -0.20    0.60
   1  11   3   -0.20    0.50
   1  11   3    0.70    0.60
   2 -11   3    1.10    0.80
  -2 -11  -3    2.00    0.70
   2  11   3    1.60    0.60
   2  11   3    3.60    0.80
  -2  11  -3    0.20    0.60
   2  11   3    2.30    0.70
  -2  11  -3    2.70    0.70
   2  11   3    1.60    0.60
   3 -11   3    2.30    0.90
  -3 -11  -3    2.70    0.80
   3  11   3    1.20    0.70
   3  11   3    2.60    0.60
   3  11   3    2.60    0.80
  -3  11  -3    3.30    0.90
   3  11   3    3.90    0.80
  -3  11  -3    2.90    0.80
  -2 -12   3    2.90    0.80
   2  12  -3    3.30    0.90
  -2  12   3    3.50    0.70
  -2  12   3    1.80    0.80
  -1 -12   3    9.10    1.00
  -1  12   3    9.90    1.20
   1  12  -3    7.90    1.20
  -1  12   3    8.20    0.90
   0 -12   3    0.70    0.40
   0  12   3    1.90    0.70
   0  12  -3    0.20    0.70
   0  12   3    0.80    0.50
   1 -12   3    0.20    0.80
  -1 -12  -3    0.40    0.40
   1  12   3    0.90    0.60
  -1  12  -3   -0.20    0.60
   1  12   3   -0.60    0.40
   1  12   3   -0.20    0.60
  -9   0   4   -0.40    0.70
  -9   0   4   -0.60    0.50
   9   0  -4   -0.20    0.70
  -9   0   4   -0.40    0.60
  -9   0   4   -0.30    0.50
   9   0  -4   -0.30    0.60
   9   0  -4   -0.10    0.40
   8   0  -4    0.80    0.40
   8   0  -4    1.10    0.60
  -8   0   4    1.10    0.60
   8   0  -4    0.50    0.50
  -8   0   4    1.20    0.60
  -8   0   4    1.90    0.60
  -8   0   4    0.50    0.50
  -7   0   4  137.69    4.10
   7   0  -4  128.39    4.10
  -7   0   4  136.49    4.20
  -7   0   4  134.89    4.00
   7   0  -4  135.49    3.90
  -7   0   4  131.39    4.10
   7   0  -4  129.09    3.70
  -6   0   4   13.80    1.00
  -6   0   4   13.60    1.10
   6   0  -4   14.40    1.00
  -6   0   4   12.50    0.90
  -6   0   4   14.50    1.00
   6   0  -4   12.30    0.70
   6   0  -4   12.20    0.90
   6   0  -4   13.90    1.00
  -5   0   4  129.99    3.70
  -5   0   4  128.59    3.60
   5   0  -4  126.79    3.40
  -5   0   4  129.39    3.80
  -5   0   4  128.49    3.70
   5   0  -4  129.39    3.70
   5   0  -4  128.49    3.50
   5   0  -4  130.09    3.70
   4   0  -4  300.17    7.20
  -4   0   4  296.77    7.60
   4   0  -4  300.57    7.60
  -4   0   4  307.67    7.50
  -4   0   4  285.97    7.60
   4   0  -4  299.67    7.60
   4   0  -4  293.97    7.40
  -4   0   4  312.17    7.60
  -3   0   4  289.47    7.40
  -3   0   4  293.77    7.30
  -3   0   4  297.67    7.20
   3   0  -4  291.47    7.30
   3   0  -4  287.27    7.20
  -3   0   4  308.37    7.30
   3   0  -4  287.47    6.90
   3   0  -4  288.27    7.10
  -2   0   4   11.20    0.60
   2   0  -4   11.10    0.50
  -2   0   4   12.00    0.50
  -2   0   4   10.80    0.60
   2   0  -4   11.80    0.60
  -2   0   4   12.20    0.40
   1   0  -4   92.99    2.40
  -1   0   4   94.99    2.40
  -1   0   4   96.29    2.50
   1   0  -4   87.69    2.50
   1   0  -4   91.99    2.50
  -1   0   4   97.29    2.70
  -1   0   4  105.89    2.60
  -1   0   4   95.49    2.50
   0   0   4  365.96    9.10
   0   0   4  371.76    8.90
   1   0   4    0.90    0.30
  -1   0  -4    1.40    0.20
  -1   0  -4    0.60    0.20
  -1   0  -4    1.20    0.30
   1   0   4    1.10    0.30
   1   0   4    0.70    0.20
   1   0   4    1.40    0.30
  -1   0  -4    1.50    0.20
   2   0   4  530.75   12.80
  -2   0  -4  525.85   12.80
  -2   0  -4  511.95   12.80
   2   0   4  523.55   12.50
   2   0   4  510.05   12.60
  -3   0  -4   24.60    1.20
  -3   0  -4   23.40    1.10
   3   0   4   23.20    1.10
  -3   0  -4   23.30    1.20
   3   0   4   23.00    1.10
   3   0   4   25.70    1.20
  -3   0  -4   22.10    1.00
   3   0   4   23.80    1.00
   4   0   4  435.76   11.00
  -4   0  -4  443.56   11.00
  -4   0  -4  445.56   10.90
   4   0   4  432.16   10.90
  -4   0  -4  433.36   10.40
  -4   0  -4  420.96   10.60
   4   0   4  416.46   10.90
   4   0   4  436.36   10.80
  -4   0  -4  420.96   11.00
   5   0   4    4.00    0.70
  -5   0  -4    2.70    0.40
  -5   0  -4    3.10    0.60
   5   0   4    2.00    0.60
  -5   0  -4    2.80    0.70
  -5   0  -4    2.80    0.70
   5   0   4    3.40    0.60
  -5   0  -4    2.80    0.50
   6   0   4   62.79    2.50
  -6   0  -4   60.99    2.20
  -6   0  -4   60.49    1.90
   6   0   4   58.79    2.40
  -6   0  -4   64.89    2.70
  -6   0  -4   58.59    2.40
  -6   0  -4   56.89    2.50
   6   0   4   62.49    2.40
  -7   0  -4   -0.40    0.50
   7   0   4   -0.60    0.50
  -7   0  -4   -0.10    0.50
  -7   0  -4   -0.40    0.20
  -7   0  -4   -0.70    0.40
  -7   0  -4   -0.20    0.40
   7   0   4    0.60    0.70
   7   0   4    0.20    0.60
   8   0   4    7.30    1.20
  -8   0  -4    8.50    1.30
   8   0   4    8.10    1.20
  -8   0  -4    6.80    0.60
  -8   0  -4    5.30    0.80
  -8   0  -4    7.70    1.10
  -9  -1   4    3.30    0.80
   9  -1  -4    4.60    0.60
   9  -1  -4    4.50    0.80
  -9  -1   4    4.50    1.00
   9  -1  -4    2.90    0.60
  -9  -1   4    4.70    0.90
   9  -1  -4    2.80    0.90
  -9  -1   4    4.40    0.90
  -9   1   4    1.60    0.80
   9   1  -4    3.70    1.00
   9   1  -4    3.60    0.80
  -9   1   4    3.60    0.80
   9   1  -4    3.60    0.70
  -9   1   4    3.20    0.70
   8  -1  -4   18.20    1.00
   8  -1  -4   19.80    1.30
   8  -1  -4   19.00    1.40
  -8  -1   4   18.30    1.30
   8  -1  -4   19.10    1.00
  -8  -1   4   20.40    1.50
  -8  -1   4   18.50    1.40
  -8  -1   4   19.20    1.30
   8   1  -4   18.80    1.30
   8   1  -4   18.00    1.10
  -8   1   4   17.80    1.30
   8   1  -4   17.70    1.40
  -8   1   4   17.60    1.30
  -8   1   4   17.90    1.30
  -8   1   4   18.20    1.40
  -7  -1   4    9.50    1.00
   7  -1  -4    9.70    0.70
   7  -1  -4    7.70    0.70
   7  -1  -4    9.10    0.90
  -7  -1   4    9.60    1.00
  -7  -1   4    8.50    0.90
   7  -1  -4    8.40    1.00
  -7  -1   4    7.60    1.00
   7   1  -4    8.70    0.90
  -7   1   4    9.10    0.90
   7   1  -4    8.50    0.80
  -7   1   4    8.70    0.90
   7   1  -4   10.50    1.00
  -7   1   4    8.50    1.00
  -7   1   4    9.00    0.90
   7   1  -4    8.90    1.00
   6  -1  -4    4.80    0.70
  -6  -1   4    7.40    0.90
   6  -1  -4    5.10    0.60
  -6  -1   4    6.40    0.80
   6  -1  -4    6.70    0.50
  -6  -1   4    6.60    0.80
  -6  -1   4    5.60    0.70
  -6   1   4    5.30    0.70
  -6   1   4    5.80    0.70
   6   1  -4    6.30    0.60
   6   1  -4    6.90    0.70
   6   1  -4    6.90    0.80
  -6   1   4    5.10    0.60
  -6   1   4    5.40    0.70
   6   1  -4    5.60    0.70
   5  -1  -4  267.77    7.00
  -5  -1   4  277.67    7.10
  -5  -1   4  266.57    7.10
   5  -1  -4  270.57    6.80
   5  -1  -4  270.17    6.50
  -5  -1   4  270.97    6.90
   5  -1  -4  256.37    6.90
  -5  -1   4  273.77    7.00
  -5   1   4  265.17    7.00
  -5   1   4  270.37    6.90
  -5   1   4  269.37    6.90
   5   1  -4  263.57    7.00
  -5   1   4  271.47    7.00
   5   1  -4  268.37    6.80
   5   1  -4  271.97    6.80
   5   1  -4  258.97    7.00
   4  -1  -4   29.20    0.80
   4  -1  -4   28.90    1.20
   4  -1  -4   28.70    1.10
  -4  -1   4   29.90    1.30
   4  -1  -4   30.40    0.80
   4  -1  -4   31.00    1.30
  -4  -1   4   27.20    1.20
  -4  -1   4   29.50    1.30
  -4  -1   4   30.00    1.20
  -4   1   4   30.20    1.20
  -4   1   4   28.60    1.20
   4   1  -4   28.50    1.10
   4   1  -4   28.90    1.20
  -4   1   4   29.50    1.20
   4   1  -4   31.30    1.20
   4   1  -4   30.50    1.10
  -4   1   4   31.90    1.10
  -3  -1   4   19.90    1.00
  -3  -1   4   18.40    0.90
  -3  -1   4   20.60    0.90
  -3  -1   4   19.30    0.90
  -3  -1   4   20.00    0.70
   3  -1  -4   19.00    0.70
   3  -1  -4   19.40    0.90
  -3   1   4   20.20    0.90
  -3   1   4   20.30    0.90
   3   1  -4   20.60    0.80
  -3   1   4   20.10    0.80
   3   1  -4   20.10    0.80
   3   1  -4   19.30    0.90
  -3   1   4   19.90    0.90
   3   1  -4   19.80    0.90
  -2  -1   4  261.07    6.50
   2  -1  -4  259.67    6.20
   2  -1  -4  254.57    6.30
  -2  -1   4  267.07    6.30
  -2  -1   4  260.17    6.40
  -2  -1   4  265.87    6.50
   2  -1  -4  259.57    6.50
   2   1  -4  265.47    6.50
   2   1  -4  246.08    6.40
   2   1  -4  247.18    6.50
  -2   1   4  269.47    6.30
  -2   1   4  263.17    6.50
   2   1  -4  258.07    6.30
   1  -1  -4   87.69    2.40
  -1  -1   4   98.49    2.40
  -1  -1   4   90.59    2.50
   1  -1  -4   88.29    2.30
   1  -1  -4   86.39    2.20
  -1  -1   4   88.79    2.40
  -1  -1   4   88.59    2.50
  -1  -1   4   87.79    2.60
  -1  -1   4   91.39    2.50
  -1   1   4   90.99    2.50
   1   1  -4   90.69    2.40
  -1   1   4   91.39    2.20
  -1   1   4   92.09    2.40
   1   1  -4   88.59    2.50
   1   1  -4   86.19    2.40
   1   1  -4   87.29    2.50
   1   1  -4   91.59    2.50
  -1   1   4   92.29    2.30
   0  -1  -4   49.00    1.40
   0  -1   4   49.00    1.50
   0  -1   4   50.69    1.50
   0  -1  -4   48.40    1.60
   0  -1   4   52.49    1.50
   0  -1   4   47.80    1.60
   0  -1  -4   51.49    1.30
   0  -1   4   48.10    1.60
   0   1  -4   46.50    1.50
   0   1  -4   49.99    1.50
   0   1  -4   47.60    1.60
   0   1   4   49.70    1.60
   0   1   4   51.09    1.40
   0   1   4   51.29    1.30
   0   1   4   50.79    1.30
   0   1   4   52.49    1.40
   0   1  -4   50.79    1.50
   0   1   4   51.49    1.60
   1  -1   4  810.72   61.79
  -1  -1  -4  819.02   50.39
  -1   1  -4  862.91   62.09
   1   1   4  884.21   53.49
   2  -1   4  707.53   63.29
   2   1   4  742.63   57.19
   2   1   4  723.83   54.09
  -2   1  -4  753.02   62.39
   3  -1   4  323.17    8.20
   3  -1   4  310.67    7.90
  -3  -1  -4  311.17    7.40
  -3  -1  -4  317.17    7.70
  -3  -1  -4  309.87    7.90
   3  -1   4  319.17    8.00
  -3  -1  -4  305.47    8.00
  -3  -1  -4  301.77    8.10
   3  -1   4  304.77    8.00
   3   1   4  316.87    8.00
   3   1   4  308.57    7.90
  -3   1  -4  310.97    8.20
   3   1   4  317.57    7.80
   3   1   4  323.97    8.10
  -3   1  -4  315.97    8.00
  -3   1  -4  312.57    7.80
  -4  -1  -4   88.29    2.70
  -4  -1  -4   92.19    2.90
   4  -1   4   90.89    3.10
   4  -1   4   90.89    2.80
  -4  -1  -4   94.19    2.40
  -4  -1  -4   91.49    3.00
  -4  -1  -4   91.59    3.00
   4  -1   4   93.59    2.90
   4  -1   4   89.39    2.90
  -4   1  -4   95.09    3.20
   4   1   4   91.99    2.90
  -4   1  -4   94.49    3.00
   4   1   4  100.59    2.80
   4   1   4   91.19    3.00
   4   1   4   84.99    2.90
  -4   1  -4   93.59    2.80
  -4   1  -4   91.59    2.90
   5  -1   4   98.69    3.10
  -5  -1  -4   97.09    3.20
  -5  -1  -4  102.39    3.40
   5  -1   4   98.39    3.30
  -5  -1  -4   97.69    3.40
  -5  -1  -4   96.99    3.00
   5  -1   4   96.79    3.20
  -5  -1  -4  101.99    2.60
  -5   1  -4  102.99    3.30
   5   1   4   91.79    3.20
  -5   1  -4   98.89    2.80
   5   1   4  102.49    3.10
  -5   1  -4  103.79    3.50
  -5   1  -4  100.89    3.30
   5   1   4  101.49    3.40
  -5   1  -4   97.69    3.00
   6  -1   4   99.99    3.30
   6  -1   4   95.19    3.30
  -6  -1  -4   92.99    3.40
  -6  -1  -4   99.89    3.10
  -6  -1  -4   97.99    3.50
  -6  -1  -4   95.19    2.60
  -6  -1  -4   90.99    3.20
   6  -1   4   95.19    3.40
   6   1   4   99.99    3.20
   6   1   4  100.29    3.50
  -6   1  -4  100.79    3.40
  -6   1  -4   94.79    3.10
   6   1   4   97.29    3.40
  -6   1  -4   95.89    3.60
  -6   1  -4   96.39    2.90
  -6   1  -4   94.59    3.40
  -7  -1  -4    1.10    0.70
  -7  -1  -4    0.30    0.30
  -7  -1  -4    0.40    0.50
   7  -1   4    0.90    0.70
  -7  -1  -4    0.90    0.50
   7  -1   4    0.20    0.50
  -7  -1  -4    0.70    0.70
   7  -1   4    1.00    0.60
  -7   1  -4    0.00    0.60
  -7   1  -4    0.60    0.60
  -7   1  -4    0.60    0.50
   7   1   4    0.80    0.60
  -7   1  -4    0.40    0.60
   7   1   4    0.00    0.60
   7   1   4    1.10    0.70
  -7   1  -4   -0.10    0.30
  -8  -1  -4    0.80    0.60
  -8  -1  -4    0.60    0.70
  -8  -1  -4    1.00    0.30
   8  -1   4    0.20    0.80
   8  -1   4    0.50    0.60
  -8  -1  -4    1.20    0.60
  -8   1  -4    0.00    0.70
  -8   1  -4    0.80    0.40
   8   1   4    0.70    0.70
  -8   1  -4    1.30    0.70
   9  -2  -4   14.30    0.90
  -9  -2   4   15.40    1.60
   9  -2  -4   14.60    1.00
  -9  -2   4   16.10    1.30
  -9  -2   4   16.00    1.60
   9  -2  -4   13.80    1.40
   9  -2  -4   15.90    1.30
  -9  -2   4   15.40    1.60
  -9   2   4   13.20    1.30
   9   2  -4   15.20    1.40
  -9   2   4   15.30    1.30
  -9   2   4   16.70    1.50
   9   2  -4   13.50    1.40
   9   2  -4   14.90    1.20
  -8  -2   4   29.70    1.80
   8  -2  -4   28.80    1.50
   8  -2  -4   26.90    1.20
  -8  -2   4   29.30    1.80
  -8  -2   4   27.90    1.60
  -8  -2   4   26.50    1.60
   8  -2  -4   28.80    1.70
  -8   2   4   26.80    1.70
   8   2  -4   26.80    1.70
  -8   2   4   27.30    1.90
   8   2  -4   25.30    1.40
   8   2  -4   28.40    1.60
  -8   2   4   26.30    1.50
  -8   2   4   27.70    1.50
  -8   2   4   25.80    1.60
   8   2  -4   26.10    1.60
   7  -2  -4    5.90    0.80
  -7  -2   4    4.90    0.70
   7  -2  -4    6.30    0.60
  -7  -2   4    5.20    0.80
  -7  -2   4    6.40    0.90
  -7  -2   4    5.30    0.80
   7  -2  -4    5.80    0.70
  -7   2   4    6.50    0.90
   7   2  -4    4.20    0.60
  -7   2   4    5.90    0.80
   7   2  -4    5.60    1.00
   7   2  -4    5.50    0.80
  -7   2   4    4.40    0.70
   7   2  -4    6.90    0.80
  -7   2   4    6.20    0.80
   7   2  -4    5.50    0.70
  -6  -2   4   29.10    1.40
   6  -2  -4   29.30    1.40
  -6  -2   4   31.50    1.60
  -6  -2   4   27.80    1.60
   6  -2  -4   24.20    1.00
   6  -2  -4   27.90    1.30
  -6  -2   4   28.50    1.40
  -6   2   4   30.10    1.30
   6   2  -4   29.40    1.40
   6   2  -4   31.20    1.40
   6   2  -4   30.00    1.40
   6   2  -4   30.40    1.70
  -6   2   4   32.40    1.50
   6   2  -4   32.90    1.60
  -6   2   4   27.50    1.30
  -5  -2   4   64.59    2.30
  -5  -2   4   60.79    2.30
   5  -2  -4   64.19    2.10
   5  -2  -4   62.49    1.80
  -5  -2   4   64.49    2.20
   5  -2  -4   64.09    1.90
  -5  -2   4   62.59    2.20
  -5   2   4   61.19    2.00
   5   2  -4   61.89    2.10
  -5   2   4   64.09    2.00
  -5   2   4   64.39    2.20
   5   2  -4   62.19    2.10
   5   2  -4   61.89    2.10
   5   2  -4   60.99    2.20
  -5   2   4   62.39    2.10
   4  -2  -4  290.37    7.30
  -4  -2   4  298.57    7.50
  -4  -2   4  306.37    7.60
  -4  -2   4  294.57    7.60
  -4  -2   4  288.07    7.50
   4  -2  -4  290.27    7.20
   4  -2  -4  301.97    7.00
   4   2  -4  285.07    7.50
   4   2  -4  288.57    7.40
   4   2  -4  275.27    7.30
  -4   2   4  294.27    7.40
   4   2  -4  282.77    7.40
  -4   2   4  307.27    7.30
  -4   2   4  302.47    7.30
  -4   2   4  295.47    7.50
  -3  -2   4  296.47    8.40
  -3  -2   4  357.76    8.60
  -3  -2   4  354.16    8.60
   3  -2  -4  346.07    8.30
  -3  -2   4  345.97    8.50
  -3  -2   4  350.86    8.70
   3  -2  -4  346.67    8.10
   3   2  -4  337.07    8.40
   3   2  -4  328.47    8.50
  -3   2   4  347.87    8.30
   3   2  -4  343.07    8.50
   3   2  -4  346.97    8.50
  -3   2   4  345.97    8.40
  -3   2   4  352.96    8.40
  -3   2   4  340.37    8.50
  -2  -2   4  249.38    6.10
  -2  -2   4  238.18    6.10
   2  -2  -4  239.48    5.80
  -2  -2   4  233.88    6.10
  -2  -2   4  239.48    6.10
  -2  -2   4  245.98    6.20
  -2   2   4  235.58    6.10
   2   2  -4  238.28    6.10
   2   2  -4  239.98    6.10
   2   2  -4  229.78    6.00
  -2   2   4  250.07    5.80
  -2   2   4  246.78    5.80
   2   2  -4  243.48    6.10
   2   2  -4  242.18    6.20
  -2   2   4  245.68    5.80
  -1  -2   4   66.19    2.10
  -1  -2   4   73.69    2.10
  -1  -2   4   70.89    2.10
  -1  -2   4   73.79    2.10
  -1  -2   4   71.29    2.10
   1   2  -4   70.19    2.10
  -1   2   4   72.39    2.00
   1   2  -4   66.49    2.10
  -1   2   4   71.39    1.90
   1   2  -4   66.49    2.10
  -1   2   4   71.69    2.10
   1   2  -4   69.59    2.10
   1   2  -4   71.79    2.00
   1   2  -4   67.69    2.10
   0  -2   4  623.84   14.80
   0  -2  -4  599.34   14.70
  -1  -2  -4  378.76    9.40
   1  -2   4  370.86    9.40
  -1  -2  -4  375.06    9.00
   1  -2   4  376.06    9.40
   1  -2   4  363.56    9.40
  -1   2  -4  388.36    9.30
   1   2   4  379.96    8.90
  -1   2  -4  376.06    9.20
  -1   2  -4  384.26    9.30
   1   2   4  374.26    9.20
   1   2   4  381.66    9.00
   1   2   4  378.86    9.10
   1   2   4  387.26    9.40
  -1   2  -4  369.36    9.40
  -2  -2  -4   77.69    2.40
   2  -2   4   78.99    2.50
  -2  -2  -4   76.79    2.50
   2  -2   4   78.29    2.40
   2  -2   4   75.69    2.40
   2  -2   4   74.59    2.50
  -2  -2  -4   75.79    2.20
  -2  -2  -4   75.49    2.10
   2   2   4   79.09    2.10
   2   2   4   78.19    2.40
   2   2   4   74.29    2.20
  -2   2  -4   79.29    2.50
  -2   2  -4   78.49    2.40
  -2   2  -4   79.89    2.30
   2   2   4   82.29    2.40
   3  -2   4   31.80    1.40
  -3  -2  -4   34.70    1.20
   3  -2   4   33.20    1.40
   3  -2   4   34.50    1.50
  -3  -2  -4   32.60    1.30
   3  -2   4   34.20    1.40
  -3  -2  -4   31.20    1.50
   3  -2   4   30.30    1.50
  -3  -2  -4   35.20    1.40
   3   2   4   33.00    1.30
   3   2   4   35.20    1.40
   3   2   4   34.90    1.50
  -3   2  -4   30.40    1.30
  -3   2  -4   34.50    1.60
   3   2   4   33.40    1.20
  -3   2  -4   36.40    1.40
  -4  -2  -4   75.19    2.40
   4  -2   4   72.79    2.70
  -4  -2  -4   76.19    2.60
   4  -2   4   79.09    2.70
  -4  -2  -4   72.99    2.30
  -4  -2  -4   75.59    2.70
   4  -2   4   72.99    2.50
   4  -2   4   75.39    2.50
  -4   2  -4   76.39    2.60
   4   2   4   75.69    2.30
   4   2   4   72.99    2.40
  -4   2  -4   74.29    2.70
   4   2   4   75.79    2.70
  -4   2  -4   74.09    2.40
   5  -2   4  101.69    3.50
   5  -2   4  102.09    3.40
  -5  -2  -4  104.89    3.50
   5  -2   4  108.39    3.40
  -5  -2  -4  111.89    3.40
  -5  -2  -4  109.29    3.60
  -5  -2  -4  106.49    3.20
   5   2   4  106.99    3.40
  -5   2  -4  106.39    3.30
  -5   2  -4  111.19    3.50
   5   2   4  104.09    3.60
  -5   2  -4  107.19    3.70
   5   2   4  110.49    3.30
  -5   2  -4  105.89    3.10
   6  -2   4   -0.10    0.60
  -6  -2  -4    0.70    0.60
   6  -2   4    0.80    0.50
  -6  -2  -4    1.00    0.60
  -6  -2  -4    1.10    0.50
  -6  -2  -4    2.10    0.70
   6  -2   4    1.00    0.60
   6  -2   4    0.80    0.60
  -6  -2  -4    1.00    0.20
   6   2   4    0.80    0.60
  -6   2  -4    1.00    0.40
   6   2   4    0.50    0.60
   6   2   4    1.10    0.50
  -6   2  -4    0.80    0.60
  -6   2  -4    0.80    0.70
  -6   2  -4    1.00    0.50
  -7  -2  -4   18.30    1.50
   7  -2   4   19.00    1.40
   7  -2   4   15.20    1.50
  -7  -2  -4   19.80    1.70
  -7  -2  -4   19.20    1.50
  -7  -2  -4   18.50    1.30
  -7  -2  -4   18.40    0.70
   7  -2   4   19.30    1.50
   7  -2   4   20.10    1.50
   7   2   4   16.20    1.50
   7   2   4   19.20    1.40
  -7   2  -4   20.40    1.80
   7   2   4   20.10    1.50
  -7   2  -4   17.10    1.30
  -7   2  -4   16.10    1.10
  -7   2  -4   19.80    1.50
  -8  -2  -4   14.30    1.20
  -8  -2  -4   13.20    1.50
   8  -2   4   14.70    1.40
   8  -2   4   15.40    1.60
   8  -2   4   15.20    1.70
  -8   2  -4   14.80    1.00
  -8   2  -4   14.40    1.50
   9  -3  -4   -0.10    0.60
  -9  -3   4    1.30    0.60
   9  -3  -4    0.50    0.70
  -9  -3   4    0.90    0.60
   9  -3  -4    0.90    0.40
  -9  -3   4    1.50    0.80
  -9   3   4    0.00    0.60
   9   3  -4    0.40    0.50
  -9   3   4    1.20    0.60
   9   3  -4    1.30    0.80
  -9   3   4    0.00    0.60
  -8  -3   4    1.90    0.80
   8  -3  -4    2.80    0.80
   8  -3  -4    2.40    0.60
  -8  -3   4    2.00    0.80
   8  -3  -4    2.50    0.50
  -8  -3   4    2.40    0.60
  -8  -3   4    3.60    0.80
  -8   3   4    2.20    0.60
  -8   3   4    1.90    0.60
   8   3  -4    1.50    0.60
   8   3  -4    1.20    0.60
   8   3  -4    2.40    0.70
  -8   3   4    2.30    0.60
  -8   3   4    2.80    0.80
   8   3  -4    1.60    0.60
  -8   3   4    4.30    0.80
  -7  -3   4    7.70    0.90
   7  -3  -4    5.90    0.80
  -7  -3   4    6.50    1.00
   7  -3  -4    5.80    0.60
  -7  -3   4    6.10    0.90
  -7  -3   4    7.90    1.00
   7  -3  -4    7.50    0.80
  -7   3   4    5.10    0.80
  -7   3   4    5.60    0.70
  -7   3   4    7.10    0.70
   7   3  -4    7.90    1.10
   7   3  -4    6.50    0.80
   7   3  -4    5.70    0.80
   7   3  -4    5.80    0.80
  -7   3   4    5.90    0.80
   7   3  -4    5.90    0.90
   6  -3  -4   31.20    1.50
   6  -3  -4   30.10    1.10
   6  -3  -4   29.30    1.30
  -6  -3   4   31.20    1.50
  -6  -3   4   27.30    1.60
  -6  -3   4   28.30    1.60
  -6  -3   4   30.50    1.50
   6   3  -4   28.10    1.40
  -6   3   4   27.70    1.20
  -6   3   4   29.90    1.30
   6   3  -4   30.60    1.70
   6   3  -4   27.90    1.40
  -6   3   4   29.90    1.50
  -6   3   4   29.70    1.50
   6   3  -4   28.70    1.40
   6   3  -4   27.90    1.60
  -5  -3   4   65.59    2.40
   5  -3  -4   64.79    1.90
  -5  -3   4   64.79    2.30
   5  -3  -4   66.19    2.20
  -5  -3   4   60.09    2.40
  -5  -3   4   64.89    2.30
  -5   3   4   60.69    2.00
   5   3  -4   62.59    2.20
  -5   3   4   62.49    2.10
  -5   3   4   64.19    1.90
   5   3  -4   67.29    2.30
  -5   3   4   62.79    2.30
   5   3  -4   61.59    2.10
   5   3  -4   67.29    2.20
  -4  -3   4  145.39    4.10
  -4  -3   4  140.79    4.00
   4  -3  -4  144.19    3.60
  -4  -3   4  140.59    4.10
  -4  -3   4  142.79    4.00
   4   3  -4  144.89    4.10
  -4   3   4  138.29    3.70
   4   3  -4  139.99    3.90
   4   3  -4  140.99    4.00
  -4   3   4  146.19    3.70
   4   3  -4  141.19    4.00
  -4   3   4  138.79    4.00
  -4   3   4  143.99    3.80
  -3  -3   4  376.56    9.50
  -3  -3   4  383.66    9.60
   3  -3  -4  373.36    9.20
   3  -3  -4  380.96    9.30
  -3  -3   4  374.06    9.50
  -3  -3   4  396.86    9.50
  -3  -3   4  378.96    9.60
  -3  -3   4  389.86    9.60
   3   3  -4  385.96    9.50
   3   3  -4  387.66    9.60
  -3   3   4  387.36    9.20
   3   3  -4  372.96    9.60
   3   3  -4  380.16    9.60
  -3   3   4  387.46    9.20
  -3   3   4  384.96    9.20
  -3   3   4  387.26    9.30
  -3   3   4  381.36    9.50
   3   3  -4  362.96    9.40
   2  -3  -4 1290.77   55.29
   2  -3  -4 1312.17   57.79
  -2  -3   4 1307.87   90.89
   2   3  -4 1364.96   94.39
  -1  -3   4  139.49    3.90
  -1  -3   4  140.29    3.90
  -1  -3   4  145.19    3.80
  -1  -3   4  140.29    3.80
  -1  -3   4  139.79    3.90
  -1  -3   4  146.59    3.90
  -1   3   4  146.29    3.80
   1   3  -4  137.39    3.80
  -1   3   4  151.78    3.70
  -1   3   4  144.89    3.80
  -1   3   4  150.78    3.70
   1   3  -4  137.09    3.80
   1   3  -4  142.49    3.80
   1   3  -4  140.79    3.90
   1   3  -4  145.89    3.90
   1   3  -4  119.69    3.80
   0  -3   4   31.50    1.20
   0  -3   4   28.70    1.30
   0  -3   4   28.90    1.30
   0   3   4   31.90    0.80
   0   3   4   32.20    1.10
   0   3  -4   30.80    1.20
   0   3   4   33.20    1.20
   0   3   4   32.00    1.00
   0   3  -4   30.70    1.30
   0   3  -4   30.20    1.20
   0   3  -4   31.10    1.20
   0   3  -4   29.30    1.20
   0   3  -4   26.50    1.20
   0   3   4   33.90    1.20
   1  -3   4  387.86   10.30
  -1  -3  -4  412.46   10.10
  -1  -3  -4  394.76   10.20
   1  -3   4  423.56   10.30
   1  -3   4  404.46   10.40
  -1  -3  -4  402.86    9.90
  -1   3  -4  392.46   10.30
   1   3   4  456.65   10.10
   1   3   4  422.66   10.30
   1   3   4  423.26    9.90
  -1   3  -4  434.46   10.30
   1   3   4  420.06    9.80
   1   3   4  410.26    9.90
  -1   3  -4  415.76   10.30
   1   3   4  427.16   10.40
  -1   3  -4  401.56   10.20
   2  -3   4  158.08    4.60
   2  -3   4  165.28    4.50
  -2  -3  -4  162.28    4.50
  -2  -3  -4  164.18    4.20
   2  -3   4  160.58    4.50
  -2  -3  -4  159.68    3.90
   2  -3   4  163.98    4.30
  -2  -3  -4  160.88    4.30
   2   3   4  163.78    4.10
   2   3   4  163.88    4.50
  -2   3  -4  160.98    4.60
  -2   3  -4  159.98    4.40
   2   3   4  163.88    4.30
   2   3   4  158.88    4.20
  -2   3  -4  158.08    4.30
   3  -3   4   18.40    1.10
  -3  -3  -4   18.30    1.00
  -3  -3  -4   18.50    1.20
  -3  -3  -4   18.10    0.90
  -3  -3  -4   20.30    0.80
   3  -3   4   18.30    1.00
   3  -3   4   18.90    1.20
   3  -3   4   18.60    1.20
  -3   3  -4   18.80    1.20
  -3   3  -4   20.10    1.00
   3   3   4   19.00    0.90
   3   3   4   19.20    1.10
   3   3   4   18.70    1.00
  -3   3  -4   19.90    1.10
   3   3   4   19.30    0.90
   4  -3   4    6.00    0.80
   4  -3   4    6.70    0.80
   4  -3   4    7.50    0.90
  -4  -3  -4    6.70    0.60
  -4  -3  -4    8.10    0.80
   4  -3   4    7.10    0.70
  -4  -3  -4    5.90    0.80
  -4  -3  -4    7.20    0.80
   4   3   4    6.60    0.70
   4   3   4    7.80    0.80
  -4   3  -4    8.60    1.00
  -4   3  -4    6.80    0.80
   4   3   4    7.80    0.90
  -4   3  -4    6.80    0.70
   5  -3   4   40.80    2.00
  -5  -3  -4   42.00    1.60
  -5  -3  -4   41.90    1.90
  -5  -3  -4   43.80    1.80
  -5  -3  -4   41.80    2.10
   5  -3   4   42.10    1.80
   5  -3   4   41.90    2.00
  -5   3  -4   43.80    2.00
  -5   3  -4   41.80    2.10
  -5   3  -4   41.30    1.70
   5   3   4   42.90    2.00
   5   3   4   42.20    1.80
   5   3   4   42.00    1.70
   6  -3   4   22.60    1.50
   6  -3   4   20.30    1.30
   6  -3   4   22.10    1.60
  -6  -3  -4   22.10    1.30
  -6  -3  -4   22.30    1.50
  -6  -3  -4   24.60    1.70
   6  -3   4   22.10    1.60
  -6  -3  -4   23.40    1.40
   6   3   4   20.80    1.60
  -6   3  -4   20.20    1.30
  -6   3  -4   22.10    1.40
  -6   3  -4   20.30    1.60
  -6   3  -4   19.60    1.20
   6   3   4   22.70    1.40
   6   3   4   22.10    1.40
   7  -3   4   35.60    2.10
  -7  -3  -4   35.30    2.00
  -7  -3  -4   33.60    1.90
  -7  -3  -4   36.90    1.70
   7  -3   4   35.90    1.80
  -7  -3  -4   37.00    2.20
   7  -3   4   35.30    2.10
   7   3   4   37.10    1.90
  -7   3  -4   35.60    1.80
  -7   3  -4   32.60    2.00
   7   3   4   36.70    2.00
   7   3   4   34.70    2.10
  -7   3  -4   32.90    1.60
  -7   3  -4   35.40    2.30
  -8  -3  -4    6.20    0.90
  -8  -3  -4    6.50    1.20
   8  -3   4    6.80    1.30
   8  -3   4    5.50    0.90
  -8   3  -4    6.80    1.10
  -8   3  -4    5.50    0.70
  -9  -4   4   15.10    1.50
   9  -4  -4   17.00    1.00
  -9  -4   4   18.80    1.40
   9  -4  -4   15.90    1.50
  -9  -4   4   17.60    1.70
   9   4  -4   16.10    1.40
   9   4  -4   16.90    1.60
   9   4  -4   17.10    1.40
  -9   4   4   18.10    1.20
  -9   4   4   16.20    1.60
   8  -4  -4    1.60    0.50
  -8  -4   4    0.80    0.70
  -8  -4   4    1.30    0.60
  -8  -4   4    1.60    0.70
   8  -4  -4    2.10    0.70
  -8  -4   4    2.60    0.70
  -8  -4   4    2.30    0.90
  -8   4   4    2.10    0.70
   8   4  -4    1.90    0.60
   8   4  -4    2.40    0.70
  -8   4   4    2.20    0.50
   8   4  -4    2.40    0.80
  -8   4   4    1.20    0.60
  -8   4   4    1.90    0.60
   8   4  -4    3.00    0.90
  -8   4   4    1.00    0.80
  -7  -4   4    2.90    0.80
  -7  -4   4    3.30    0.60
   7  -4  -4    3.30    0.50
  -7  -4   4    3.70    0.70
  -7  -4   4    4.50    0.90
   7  -4  -4    3.30    0.70
   7   4  -4    3.20    0.60
  -7   4   4    2.80    0.80
   7   4  -4    2.50    0.70
   7   4  -4    2.70    0.70
  -7   4   4    3.20    0.70
   7   4  -4    3.30    0.70
  -7   4   4    2.80    0.50
  -7   4   4    3.30    0.60
  -7   4   4    4.00    0.80
  -6  -4   4    7.10    1.00
   6  -4  -4    7.40    0.70
  -6  -4   4    5.70    0.80
   6  -4  -4    7.60    0.90
  -6  -4   4    7.00    0.90
  -6  -4   4    7.00    1.00
   6   4  -4    8.50    0.90
   6   4  -4    6.90    0.90
  -6   4   4    4.00    0.70
   6   4  -4    6.60    0.80
  -6   4   4    7.30    0.80
   6   4  -4    7.50    0.90
  -6   4   4    6.00    0.80
  -6   4   4    6.70    0.60
  -5  -4   4   49.90    2.00
  -5  -4   4   54.89    2.20
  -5  -4   4   53.39    2.20
   5  -4  -4   53.39    1.70
  -5  -4   4   51.89    2.00
  -5   4   4   53.99    2.10
   5   4  -4   51.39    1.90
   5   4  -4   50.39    1.90
   5   4  -4   52.89    2.10
  -5   4   4   50.99    1.80
   5   4  -4   52.29    2.10
  -5   4   4   48.70    1.50
  -5   4   4   47.90    1.80
  -4  -4   4  148.69    4.10
  -4  -4   4  143.39    4.20
  -4  -4   4  139.09    4.10
   4  -4  -4  127.39    3.70
   4  -4  -4  144.39    3.90
  -4  -4   4  142.79    4.10
  -4  -4   4  137.99    4.20
   4   4  -4  140.29    4.00
   4   4  -4  141.69    4.10
   4   4  -4  143.19    4.00
   4   4  -4  144.99    4.20
  -4   4   4  140.99    4.10
  -4   4   4  146.79    3.80
  -4   4   4  140.89    3.80
  -4   4   4  140.39    3.50
   4   4  -4  140.99    4.10
  -3  -4   4   80.49    2.50
  -3  -4   4   77.49    2.40
  -3  -4   4   77.79    2.60
   3  -4  -4   81.59    2.30
  -3  -4   4   77.99    2.60
  -3  -4   4   79.59    2.60
  -3  -4   4   74.89    2.50
   3   4  -4   83.09    2.50
  -3   4   4   80.59    2.10
  -3   4   4   81.09    2.20
   3   4  -4   79.89    2.60
   3   4  -4   84.49    2.60
  -3   4   4   80.99    2.20
   3   4  -4   76.59    2.50
  -3   4   4   82.29    2.60
   3   4  -4   81.59    2.60
  -3   4   4   81.19    2.30
  -2  -4   4   36.50    1.50
  -2  -4   4   36.70    1.40
  -2  -4   4   36.10    1.50
  -2  -4   4   35.30    1.50
  -2  -4   4   34.80    1.30
   2  -4  -4   36.90    1.30
   2  -4  -4   36.70    1.10
  -2  -4   4   35.80    1.50
  -2   4   4   36.40    1.30
   2   4  -4   36.20    1.40
  -2   4   4   36.60    1.10
   2   4  -4   34.50    1.40
   2   4  -4   35.00    1.40
  -2   4   4   37.80    1.40
  -2   4   4   36.40    1.10
   2   4  -4   36.30    1.50
   2   4  -4   35.20    1.50
  -1  -4   4   63.29    2.10
  -1  -4   4   63.19    2.10
  -1  -4   4   65.89    2.20
  -1  -4   4   62.39    2.00
  -1  -4   4   58.99    2.00
  -1   4   4   64.59    1.60
   1   4  -4   63.79    2.20
   1   4  -4   61.39    2.00
  -1   4   4   63.79    2.00
  -1   4   4   64.89    1.60
   1   4  -4   61.49    2.10
   1   4  -4   59.59    2.10
   1   4  -4   64.09    2.00
   1   4  -4   62.09    2.10
   0  -4  -4  140.99    3.40
   0  -4   4  141.09    4.10
   0  -4  -4  139.99    3.80
   0  -4   4  129.39    3.90
   0  -4   4  139.99    3.90
   0   4   4  141.89    3.90
   0   4  -4  139.49    3.90
   0   4  -4  136.89    3.90
   0   4  -4  141.19    3.90
   0   4   4  144.79    3.40
   0   4  -4  139.29    4.00
   0   4   4  148.59    3.40
   0   4  -4  137.79    4.00
   0   4  -4  134.99    3.90
   0   4   4  141.49    3.60
   0   4   4  143.59    3.80
   1  -4   4  130.19    3.90
  -1  -4  -4  133.19    3.70
  -1  -4  -4  125.79    3.30
  -1  -4  -4  128.39    3.40
   1  -4   4  124.69    3.80
   1  -4   4  132.59    3.70
   1   4   4  131.49    3.40
  -1   4  -4  130.89    3.70
   1   4   4  131.89    3.30
   1   4   4  128.49    3.80
  -1   4  -4  129.99    3.80
  -1   4  -4  130.09    3.80
   1   4   4  135.49    3.70
  -1   4  -4  126.79    3.70
   1   4   4  131.59    3.30
  -1   4  -4  133.09    3.80
   2  -4   4    1.70    0.50
  -2  -4  -4    1.90    0.40
   2  -4   4    1.80    0.50
   2  -4   4    1.40    0.30
   2  -4   4    2.70    0.60
  -2  -4  -4    2.10    0.40
  -2  -4  -4    1.40    0.30
   2   4   4    3.00    0.60
   2   4   4    2.20    0.20
  -2   4  -4    2.40    0.50
  -2   4  -4    2.90    0.50
   2   4   4    2.20    0.30
   2   4   4    1.90    0.30
  -2   4  -4    2.10    0.40
   2   4   4    2.30    0.40
   2   4   4    2.30    0.50
   3  -4   4   28.00    1.20
  -3  -4  -4   30.70    1.00
   3  -4   4   29.80    1.60
  -3  -4  -4   27.70    1.20
   3  -4   4   30.40    1.50
   3  -4   4   29.60    1.50
  -3  -4  -4   29.30    1.50
  -3  -4  -4   28.90    1.20
   3   4   4   28.60    1.20
  -3   4  -4   27.70    1.30
   3   4   4   28.40    1.50
  -3   4  -4   30.50    1.60
   3   4   4   29.60    1.20
  -3   4  -4   27.80    1.40
   3   4   4   26.00    1.40
  -4  -4  -4   49.20    1.70
  -4  -4  -4   49.99    1.90
   4  -4   4   47.90    2.20
   4  -4   4   48.00    2.10
  -4  -4  -4   49.50    2.20
   4  -4   4   48.40    1.80
  -4  -4  -4   49.30    1.90
  -4   4  -4   49.70    2.10
   4   4   4   50.49    1.80
  -4   4  -4   49.60    2.20
   4   4   4   50.89    1.90
   4   4   4   49.80    2.20
  -4   4  -4   49.50    1.90
   4   4   4   53.39    2.30
   5  -4   4   21.70    1.50
  -5  -4  -4   21.00    1.30
  -5  -4  -4   21.70    1.10
  -5  -4  -4   19.60    1.50
   5  -4   4   20.20    1.20
  -5  -4  -4   21.50    1.30
   5  -4   4   19.30    1.50
  -5   4  -4   20.70    1.40
   5   4   4   19.90    1.50
   5   4   4   19.10    1.40
   5   4   4   20.30    1.20
  -5   4  -4   19.30    1.20
  -5   4  -4   18.50    1.50
   5   4   4   21.90    1.30
  -6  -4  -4   36.90    1.80
   6  -4   4   37.40    2.10
  -6  -4  -4   36.90    2.10
  -6  -4  -4   37.00    1.60
   6  -4   4   35.70    1.70
  -6  -4  -4   33.80    1.80
   6  -4   4   30.30    2.00
   6   4   4   32.20    2.00
  -6   4  -4   35.00    2.10
  -6   4  -4   32.60    1.70
  -6   4  -4   36.20    1.90
   6   4   4   36.50    1.70
  -6   4  -4   32.50    1.60
   6   4   4   35.90    1.80
   6   4   4   34.50    2.00
  -7  -4  -4    7.30    1.10
  -7  -4  -4    6.50    1.00
  -7  -4  -4    7.80    0.90
  -7  -4  -4    5.10    1.10
   7  -4   4    5.70    1.10
   7  -4   4    7.20    1.20
   7  -4   4    7.70    0.90
   7   4   4    8.70    1.10
  -7   4  -4    6.40    1.00
   7   4   4    7.40    1.10
  -7   4  -4    6.40    1.40
   7   4   4    6.60    1.10
  -7   4  -4    7.80    0.90
  -7   4  -4    6.90    0.90
   7   4   4    6.30    1.00
   8  -4   4    4.80    0.80
  -8  -4  -4    5.60    1.00
  -8  -4  -4    4.50    0.80
   8  -4   4    6.20    1.30
  -8   4  -4    5.60    1.10
  -8   4  -4    5.00    0.80
  -9  -5   4    0.60    0.50
   9  -5  -4    3.00    0.90
  -9  -5   4    1.10    0.70
   9  -5  -4    0.80    0.40
   9   5  -4    0.20    1.10
  -9   5   4    0.70    0.70
   9   5  -4    1.40    0.60
   9   5  -4    1.10    0.60
  -8  -5   4   15.20    1.60
  -8  -5   4   10.20    1.20
   8  -5  -4   11.10    0.90
  -8  -5   4   11.30    1.20
   8  -5  -4   11.10    1.20
  -8  -5   4   11.80    1.20
   8   5  -4   14.20    1.50
  -8   5   4   11.70    0.70
  -8   5   4   10.00    1.10
   8   5  -4   13.10    1.20
  -8   5   4   13.50    1.40
  -8   5   4    8.90    1.10
   8   5  -4   10.80    1.20
  -8   5   4   10.40    1.60
  -7  -5   4   13.20    1.40
  -7  -5   4   13.50    1.30
  -7  -5   4   15.50    1.40
   7  -5  -4   15.50    1.20
  -7  -5   4   15.40    1.20
   7  -5  -4   14.40    1.00
  -7   5   4   15.80    1.10
   7   5  -4   16.50    1.30
   7   5  -4   15.40    1.40
  -7   5   4   15.80    1.20
   7   5  -4   15.40    1.30
  -7   5   4   15.00    1.30
   7   5  -4   15.80    1.20
  -7   5   4   14.80    1.50
  -7   5   4   15.70    0.70
   6  -5  -4   50.59    1.80
  -6  -5   4   47.40    2.30
  -6  -5   4   48.80    2.30
  -6  -5   4   51.19    2.10
  -6  -5   4   51.69    2.20
   6  -5  -4   48.50    2.00
   6   5  -4   47.80    2.00
   6   5  -4   46.20    2.20
   6   5  -4   47.90    2.00
   6   5  -4   49.99    2.20
  -6   5   4   47.40    1.90
  -6   5   4   51.59    1.90
  -6   5   4   50.59    2.20
  -6   5   4   47.70    1.40
  -5  -5   4   83.99    3.00
  -5  -5   4   81.39    2.80
   5  -5  -4   80.59    2.50
  -5  -5   4   81.49    2.80
  -5  -5   4   83.09    3.00
   5   5  -4   81.89    3.00
   5   5  -4   82.09    2.70
  -5   5   4   77.79    2.80
   5   5  -4   81.09    2.90
   5   5  -4   80.29    2.90
  -5   5   4   79.39    2.60
  -5   5   4   80.69    2.50
   5   5  -4   81.69    2.70
   4  -5  -4   27.50    1.20
  -4  -5   4   29.70    1.50
  -4  -5   4   26.70    1.40
   4  -5  -4   28.70    1.20
  -4  -5   4   28.70    1.50
  -4  -5   4   29.10    1.60
  -4  -5   4   29.40    1.50
  -4  -5   4   26.60    1.30
  -4   5   4   29.40    1.20
   4   5  -4   28.20    1.40
   4   5  -4   28.70    1.50
  -4   5   4   28.40    1.20
   4   5  -4   29.60    1.40
  -4   5   4   27.30    1.20
  -4   5   4   27.90    1.50
   4   5  -4   26.90    1.50
   4   5  -4   28.80    1.60
  -3  -5   4  126.39    3.70
  -3  -5   4  124.79    3.80
  -3  -5   4  125.39    3.80
   3  -5  -4  124.29    3.40
  -3  -5   4  121.79    3.80
  -3  -5   4  124.29    3.80
  -3  -5   4  125.29    3.50
   3  -5  -4  122.19    3.50
   3   5  -4  122.99    3.70
   3   5  -4  127.09    3.90
  -3   5   4  124.69    3.30
   3   5  -4  126.59    3.70
  -3   5   4  126.09    3.30
  -3   5   4  123.79    3.70
   3   5  -4  121.99    3.60
  -3   5   4  122.29    3.50
   3   5  -4  132.29    3.90
  -2  -5   4  250.07    6.60
  -2  -5   4  250.97    6.60
  -2  -5   4  246.98    6.40
   2  -5  -4  247.28    6.20
  -2  -5   4  245.88    6.70
  -2  -5   4  253.47    6.80
   2  -5  -4  249.18    6.50
   2   5  -4  253.97    6.60
   2   5  -4  246.38    6.70
   2   5  -4  254.87    6.70
  -2   5   4  252.97    6.10
   2   5  -4  252.07    6.80
   2   5  -4  238.68    6.50
  -2   5   4  255.27    6.20
  -2   5   4  259.17    6.10
  -2   5   4  252.77    6.50
  -1  -5   4  122.79    3.60
  -1  -5   4  126.19    3.80
  -1  -5   4  132.19    3.80
   1  -5  -4  123.49    3.60
  -1  -5   4  123.49    3.50
  -1  -5   4  127.79    3.70
   1   5  -4  126.59    3.70
   1   5  -4  123.59    3.80
   1   5  -4  121.79    3.70
   1   5  -4  131.99    3.80
  -1   5   4  126.49    3.40
  -1   5   4  129.19    3.10
  -1   5   4  128.19    3.30
  -1   5   4  126.59    3.10
   1   5  -4  128.19    3.50
  -1   5   4  127.29    3.70
   1   5  -4  122.79    3.60
   0  -5  -4  311.27    7.80
   0  -5   4  306.17    7.90
   0  -5   4  303.27    8.20
   0  -5   4  318.77    8.10
   0   5  -4  303.27    8.00
   0   5   4  307.57    7.80
   0   5   4  310.87    7.60
   0   5   4  314.17    7.40
   0   5   4  333.67    7.50
   0   5   4  310.17    8.10
   0   5  -4  306.47    8.10
   0   5  -4  304.27    8.00
   0   5  -4  293.37    8.00
   0   5  -4  316.57    8.10
   0   5   4  311.37    7.50
   0   5  -4  312.37    7.90
   1  -5   4   10.50    1.00
   1  -5   4    9.90    0.90
  -1  -5  -4   10.30    0.80
  -1  -5  -4   12.10    0.60
   1  -5   4    9.80    0.80
  -1   5  -4   10.90    0.90
  -1   5  -4   10.40    0.90
  -1   5  -4   10.80    0.90
   1   5   4   11.60    0.80
  -1   5  -4   10.00    0.90
   1   5   4   11.20    0.60
   1   5   4   11.00    0.90
   1   5   4   10.40    0.60
  -1   5  -4   10.60    0.90
   1   5   4   10.00    0.50
   1   5   4   10.40    0.60
  -2  -5  -4   58.09    1.90
  -2  -5  -4   57.99    1.70
   2  -5   4   58.39    2.30
   2  -5   4   55.59    2.20
   2  -5   4   61.69    2.20
  -2  -5  -4   58.79    2.20
  -2   5  -4   59.49    2.20
  -2   5  -4   57.19    2.00
   2   5   4   60.49    1.80
  -2   5  -4   59.79    2.30
   2   5   4   57.69    1.70
   2   5   4   57.49    1.80
   2   5   4   57.19    1.70
   2   5   4   61.19    2.20
   2   5   4   63.29    2.40
  -2   5  -4   59.99    2.20
   3  -5   4   19.70    1.40
   3  -5   4   20.00    1.30
   3  -5   4   20.00    1.30
  -3  -5  -4   18.80    1.30
  -3  -5  -4   18.20    0.90
   3  -5   4   20.80    1.00
  -3  -5  -4   18.90    1.00
   3   5   4   18.60    0.60
   3   5   4   19.70    1.00
  -3   5  -4   21.00    1.20
   3   5   4   19.10    1.40
  -3   5  -4   18.50    1.10
   3   5   4   21.10    1.30
   3   5   4   18.60    1.00
  -3   5  -4   19.50    1.30
  -4  -5  -4    9.50    0.60
  -4  -5  -4   10.50    0.90
  -4  -5  -4    9.30    1.00
   4  -5   4   10.20    1.20
   4  -5   4   10.10    0.80
   4  -5   4    9.00    1.00
  -4  -5  -4    9.60    0.80
  -4   5  -4   10.80    1.20
   4   5   4    9.50    0.80
   4   5   4    9.40    1.10
   4   5   4   10.70    0.90
  -4   5  -4    9.70    0.90
   4   5   4   10.00    1.20
  -4   5  -4   12.50    1.10
   5  -5   4   24.10    1.60
  -5  -5  -4   22.60    1.40
  -5  -5  -4   25.00    1.30
   5  -5   4   24.40    1.70
  -5  -5  -4   23.10    1.60
  -5  -5  -4   23.00    1.10
   5  -5   4   20.60    1.20
   5   5   4   23.80    1.30
   5   5   4   21.70    1.60
  -5   5  -4   23.00    1.70
  -5   5  -4   23.20    1.40
   5   5   4   23.00    1.30
  -5   5  -4   25.50    1.60
   5   5   4   22.60    1.70
   6  -5   4    6.50    1.10
  -6  -5  -4    6.60    1.00
   6  -5   4    7.10    1.20
  -6  -5  -4    7.30    0.90
  -6  -5  -4    7.70    0.80
  -6  -5  -4    5.60    1.00
   6  -5   4    7.40    0.80
   6   5   4    7.10    0.90
  -6   5  -4    6.60    0.90
   6   5   4    7.00    1.10
   6   5   4    4.30    0.90
  -6   5  -4    8.90    1.30
   6   5   4    5.90    0.90
  -6   5  -4    5.90    1.00
  -7  -5  -4    9.00    0.90
  -7  -5  -4   11.90    1.20
   7  -5   4   10.60    1.40
   7  -5   4   11.90    1.50
   7  -5   4   10.60    1.00
  -7   5  -4   10.40    1.10
  -7   5  -4   10.00    1.30
  -8  -6   4   32.00    2.20
  -8  -6   4   29.70    1.70
   8  -6  -4   31.70    1.50
   8  -6  -4   29.10    1.90
  -8  -6   4   29.60    1.80
   8   6  -4   31.60    1.80
   8   6  -4   31.30    2.10
   8   6  -4   28.40    1.90
  -8   6   4   29.50    1.80
  -7  -6   4    1.20    0.50
   7  -6  -4    2.30    0.70
  -7  -6   4    1.10    0.70
   7  -6  -4    1.60    0.50
  -7  -6   4    2.80    0.80
  -7  -6   4    1.40    0.60
  -7  -6   4    0.70    0.70
   7   6  -4    0.80    0.60
   7   6  -4    0.70    0.70
  -7   6   4    1.30    0.60
   7   6  -4    1.20    0.70
   7   6  -4    1.60    0.80
  -7   6   4    2.40    0.60
   7   6  -4    2.30    0.60
  -7   6   4    1.80    0.60
  -7   6   4    1.50    0.70
  -6  -6   4   20.70    1.40
  -6  -6   4   21.00    1.60
   6  -6  -4   21.20    1.20
  -6  -6   4   19.30    1.50
  -6  -6   4   17.40    1.40
  -6  -6   4   20.20    1.20
   6   6  -4   22.00    1.60
   6   6  -4   22.40    1.50
  -6   6   4   20.10    1.20
   6   6  -4   22.60    1.30
  -6   6   4   22.60    1.50
   6   6  -4   18.50    1.50
   6   6  -4   19.80    1.40
  -6   6   4   21.30    1.60
  -6   6   4   20.50    1.20
   5  -6  -4   46.20    1.90
  -5  -6   4   45.70    1.80
   5  -6  -4   48.50    1.90
  -5  -6   4   51.59    2.30
  -5  -6   4   50.49    2.30
  -5  -6   4   46.90    2.10
  -5  -6   4   47.80    2.10
   5   6  -4   47.40    2.20
   5   6  -4   45.70    2.00
  -5   6   4   48.80    1.80
   5   6  -4   45.90    2.20
  -5   6   4   48.50    1.80
  -5   6   4   50.89    2.20
   5   6  -4   48.10    2.10
   5   6  -4   51.09    2.00
  -4  -6   4   88.09    2.70
   4  -6  -4   88.09    2.80
  -4  -6   4   83.79    3.10
  -4  -6   4   83.99    3.00
   4  -6  -4   85.59    2.70
  -4  -6   4   89.09    3.00
  -4  -6   4   84.99    3.10
  -4   6   4   84.39    2.60
  -4   6   4   87.09    2.60
   4   6  -4   91.49    2.90
   4   6  -4   83.99    3.10
   4   6  -4   85.69    3.00
   4   6  -4   89.09    2.90
  -4   6   4   89.29    2.70
  -4   6   4   84.59    3.00
   4   6  -4   86.39    3.20
   3  -6  -4    8.90    0.70
  -3  -6   4   10.40    1.00
  -3  -6   4    9.60    0.90
  -3  -6   4    9.50    1.00
   3  -6  -4    9.10    0.80
  -3  -6   4   11.00    1.10
  -3  -6   4    9.50    0.70
   3   6  -4   11.20    1.00
  -3   6   4    9.50    0.70
  -3   6   4   10.20    0.70
   3   6  -4    9.90    0.90
   3   6  -4    9.00    0.90
  -3   6   4    9.40    0.80
   3   6  -4    8.90    1.00
  -3   6   4   10.70    0.70
   3   6  -4   11.00    0.90
  -2  -6   4   65.39    2.00
  -2  -6   4   61.59    2.30
   2  -6  -4   63.59    2.20
   2  -6  -4   63.29    1.90
  -2  -6   4   64.99    2.50
  -2  -6   4   66.09    2.40
  -2  -6   4   65.19    2.30
   2   6  -4   68.39    2.50
  -2   6   4   64.39    2.30
  -2   6   4   68.39    1.90
  -2   6   4   62.29    1.70
  -2   6   4   55.39    1.80
   2   6  -4   65.59    2.30
   2   6  -4   66.59    2.30
   2   6  -4   64.49    2.30
   2   6  -4   65.19    2.50
  -1  -6   4   19.50    1.10
  -1  -6   4   19.50    1.30
  -1  -6   4   21.90    1.00
  -1  -6   4   20.40    1.20
  -1  -6   4   20.20    1.30
   1  -6  -4   22.90    1.20
  -1   6   4   20.70    0.90
   1   6  -4   20.20    1.30
  -1   6   4   20.70    0.80
   1   6  -4   20.80    1.00
  -1   6   4   20.30    1.20
   1   6  -4   21.00    1.30
   1   6  -4   21.50    1.30
   1   6  -4   21.00    1.20
   1   6  -4   20.90    1.30
  -1   6   4   21.70    0.90
  -1   6   4   20.60    0.80
   0  -6   4   72.09    2.30
   0  -6  -4   71.49    2.20
   0  -6   4   69.89    2.70
   0  -6   4   68.99    2.30
   0  -6   4   73.69    2.60
   0   6  -4   72.99    2.50
   0   6   4   69.69    2.20
   0   6  -4   73.19    2.60
   0   6   4   73.39    2.00
   0   6   4   69.99    2.00
   0   6  -4   67.29    2.40
   0   6  -4   71.29    2.60
   0   6   4   74.99    2.60
   0   6  -4   69.99    2.30
   0   6   4   68.69    1.90
   0   6   4   70.79    2.00
   0   6  -4   67.29    2.60
   1  -6   4  126.19    3.90
  -1  -6  -4  124.89    3.70
  -1  -6  -4  123.19    3.30
   1  -6   4  121.59    3.70
   1  -6   4  126.79    4.10
  -1   6  -4  123.69    3.80
  -1   6  -4  126.19    3.90
  -1   6  -4  121.69    3.90
  -1   6  -4  126.89    3.70
   1   6   4  123.59    3.40
   1   6   4  127.89    3.40
  -1   6  -4  128.29    3.90
   1   6   4  122.99    4.00
   1   6   4  126.29    3.30
   1   6   4  126.79    3.60
  -2  -6  -4   52.39    2.10
  -2  -6  -4   51.89    1.80
   2  -6   4   53.69    2.30
   2  -6   4   54.19    2.10
   2  -6   4   60.19    2.30
  -2   6  -4   53.69    2.20
   2   6   4   55.39    1.80
  -2   6  -4   55.29    2.20
   2   6   4   54.49    2.10
  -2   6  -4   54.59    2.00
   2   6   4   52.79    2.30
   2   6   4   55.19    1.80
   2   6   4   52.89    1.70
   2   6   4   52.59    1.80
  -2   6  -4   57.39    2.30
  -2   6  -4   54.39    2.10
   3  -6   4   83.69    3.10
  -3  -6  -4   83.19    2.60
  -3  -6  -4   78.89    2.90
   3  -6   4   78.09    3.00
   3  -6   4   81.99    2.50
  -3  -6  -4   79.79    2.20
  -3   6  -4   79.79    3.00
   3   6   4   79.09    2.90
   3   6   4   78.19    2.50
   3   6   4   81.19    2.50
  -3   6  -4   85.39    2.80
   3   6   4   85.49    3.20
   3   6   4   79.49    2.20
  -3   6  -4   86.49    2.90
  -3   6  -4   82.69    3.00
   4  -6   4    7.00    1.00
  -4  -6  -4    6.70    0.80
  -4  -6  -4    7.40    0.60
   4  -6   4    7.20    0.70
   4  -6   4    8.80    1.20
  -4  -6  -4    6.20    0.90
  -4   6  -4    8.00    1.00
  -4   6  -4    7.10    0.80
   4   6   4    6.80    1.00
   4   6   4    7.60    1.10
  -4   6  -4    6.50    1.00
   4   6   4    7.10    0.40
   4   6   4    7.20    0.80
   4   6   4    7.00    0.80
  -5  -6  -4    6.50    0.70
  -5  -6  -4    7.10    0.90
   5  -6   4    5.60    1.00
  -5  -6  -4    5.90    1.00
   5  -6   4    5.70    1.00
   5  -6   4    7.30    0.70
  -5  -6  -4    6.60    0.60
  -5   6  -4    5.70    1.00
   5   6   4    6.00    1.10
  -5   6  -4    6.00    0.90
   5   6   4    6.60    0.80
   5   6   4    4.70    0.90
   5   6   4    6.00    0.80
  -5   6  -4    6.90    0.90
  -6  -6  -4   -0.20    0.40
  -6  -6  -4    0.10    0.40
   6  -6   4    0.00    0.40
  -6  -6  -4    0.70    0.60
   6  -6   4   -0.10    0.60
  -6  -6  -4   -0.70    0.60
   6  -6   4    1.10    0.80
   6   6   4   -0.20    0.60
   6   6   4    0.20    0.60
  -6   6  -4   -0.20    0.70
   6   6   4    0.40    0.60
   6   6   4   -0.20    0.50
  -6   6  -4    0.00    0.50
  -6   6  -4    0.20    0.50
  -7  -6  -4    1.70    0.50
   7  -6   4    1.10    0.90
   7  -6   4    1.90    0.50
  -7  -6  -4    1.70    0.60
  -7   6  -4    1.10    0.70
  -7   6  -4    2.00    0.60
   8  -7  -4    5.10    1.00
   8  -7  -4    3.60    0.70
  -8  -7   4    4.50    0.70
  -8  -7   4    4.70    0.80
   8   7  -4    2.00    0.80
  -8   7   4    4.90    0.90
   8   7  -4    3.80    1.10
   8   7  -4    4.30    0.80
   7  -7  -4    8.30    1.00
  -7  -7   4    9.20    1.30
  -7  -7   4    9.80    0.90
  -7  -7   4    9.70    1.30
  -7  -7   4    9.30    0.90
  -7   7   4    7.40    0.90
   7   7  -4   10.40    1.30
   7   7  -4    8.90    1.30
   7   7  -4    8.40    1.00
   7   7  -4    6.70    1.20
  -7   7   4    7.00    0.90
  -7   7   4   10.20    1.40
  -6  -7   4   11.00    1.30
   6  -7  -4   10.80    1.10
  -6  -7   4   12.30    1.30
   6  -7  -4   12.70    1.10
  -6  -7   4    9.90    1.30
  -6  -7   4   10.90    0.90
   6   7  -4   11.20    1.40
   6   7  -4   12.40    1.20
  -6   7   4   10.80    1.20
  -6   7   4   10.80    1.00
   6   7  -4   12.10    1.40
  -6   7   4   12.20    1.30
   6   7  -4   11.00    1.10
   6   7  -4   12.80    1.40
  -6   7   4   11.10    1.00
  -5  -7   4   23.20    1.60
   5  -7  -4   21.90    1.30
  -5  -7   4   19.20    1.40
   5  -7  -4   19.40    1.20
  -5  -7   4   19.90    1.10
  -5  -7   4   21.80    1.60
  -5   7   4   19.10    1.40
  -5   7   4   21.20    1.50
   5   7  -4   21.00    1.30
  -5   7   4   20.40    1.20
   5   7  -4   17.70    1.50
   5   7  -4   18.90    1.50
   5   7  -4   19.40    1.40
   5   7  -4   18.60    1.50
  -5   7   4   21.00    1.20
  -4  -7   4   11.80    1.20
  -4  -7   4    9.00    1.10
   4  -7  -4    9.70    1.00
  -4  -7   4    9.20    1.00
   4  -7  -4    9.40    0.90
  -4  -7   4    9.50    0.70
  -4  -7   4   10.40    1.20
  -4   7   4    9.20    0.90
  -4   7   4    8.90    0.80
   4   7  -4    8.40    1.10
   4   7  -4    8.60    1.00
   4   7  -4   10.60    1.20
   4   7  -4    9.70    1.00
   4   7  -4   10.60    1.00
  -4   7   4   10.80    1.00
  -4   7   4    9.70    0.90
  -4   7   4    9.30    0.80
  -4   7   4   10.80    1.10
   3  -7  -4   20.50    1.30
  -3  -7   4   20.30    0.90
  -3  -7   4   20.00    1.30
  -3  -7   4   20.70    1.50
   3  -7  -4   18.40    1.00
  -3  -7   4   22.30    1.50
  -3  -7   4   21.20    1.30
  -3   7   4   19.50    1.00
   3   7  -4   19.90    1.30
  -3   7   4   20.00    1.00
   3   7  -4   20.00    1.30
   3   7  -4   21.00    1.40
   3   7  -4   19.60    1.50
   3   7  -4   21.20    1.30
  -3   7   4   20.90    1.30
  -3   7   4   19.00    1.00
  -2  -7   4   26.10    1.40
   2  -7  -4   25.30    1.40
  -2  -7   4   27.10    1.50
  -2  -7   4   28.90    1.70
   2  -7  -4   25.50    1.10
  -2  -7   4   25.00    1.10
   2   7  -4   26.20    1.50
   2   7  -4   25.30    1.50
   2   7  -4   27.00    1.60
   2   7  -4   24.40    1.40
  -2   7   4   25.70    1.10
  -2   7   4   25.40    1.00
   2   7  -4   26.50    1.50
  -2   7   4   27.00    1.50
  -1  -7   4   10.90    1.10
   1  -7  -4    9.20    1.00
  -1  -7   4   10.80    1.20
  -1  -7   4   12.60    1.10
  -1  -7   4   10.80    0.80
  -1  -7   4   11.70    1.00
  -1   7   4   10.00    0.60
  -1   7   4   10.60    1.10
   1   7  -4   11.20    1.10
   1   7  -4   12.30    1.00
  -1   7   4   10.30    0.60
   1   7  -4   10.80    0.80
   1   7  -4    9.10    1.00
   1   7  -4   10.50    1.10
   1   7  -4   10.40    1.10
  -1   7   4   10.90    0.60
  -1   7   4   10.80    0.60
   0  -7  -4    5.70    0.60
   0  -7   4    5.70    0.70
   0  -7   4    5.70    0.70
   0  -7   4    5.70    1.00
   0  -7   4    4.10    0.80
   0   7  -4    4.20    0.80
   0   7  -4    5.30    0.80
   0   7  -4    4.70    0.80
   0   7   4    4.70    0.50
   0   7   4    5.20    0.60
   0   7  -4    5.10    0.80
   0   7   4    4.60    0.50
   0   7   4    4.30    0.80
   0   7   4    5.50    0.50
   0   7  -4    5.10    0.60
   0   7  -4    5.50    0.80
  -1  -7  -4   57.69    2.10
   1  -7   4   58.69    2.40
  -1  -7  -4   59.29    1.90
   1  -7   4   58.39    2.10
   1  -7   4   59.99    2.00
   1  -7   4   57.79    2.50
  -1   7  -4   57.59    2.20
  -1   7  -4   57.69    2.30
   1   7   4   54.49    1.90
   1   7   4   55.49    1.90
   1   7   4   60.49    2.50
  -1   7  -4   57.99    2.40
   1   7   4   61.89    1.80
   1   7   4   57.49    2.10
  -1   7  -4   56.69    2.30
  -1   7  -4   59.29    2.50
  -2  -7  -4   24.70    1.20
   2  -7   4   23.40    1.70
  -2  -7  -4   23.50    1.40
   2  -7   4   23.90    1.40
   2  -7   4   25.40    1.60
   2   7   4   25.30    1.20
  -2   7  -4   26.70    1.50
  -2   7  -4   26.60    1.50
   2   7   4   25.20    1.10
  -2   7  -4   25.20    1.60
  -2   7  -4   24.70    1.60
   2   7   4   27.10    1.70
   2   7   4   25.10    1.40
  -2   7  -4   25.40    1.50
   2   7   4   23.60    1.20
   2   7   4   24.40    1.10
  -2   7  -4   25.50    1.40
  -3  -7  -4   29.20    1.70
   3  -7   4   30.50    1.80
  -3  -7  -4   29.10    1.40
   3  -7   4   30.50    1.20
   3  -7   4   32.40    1.90
   3   7   4   28.40    1.40
  -3   7  -4   30.30    1.70
  -3   7  -4   32.10    1.70
  -3   7  -4   31.00    1.60
   3   7   4   28.90    1.10
   3   7   4   30.30    1.40
  -3   7  -4   30.60    1.80
   3   7   4   29.70    1.30
   3   7   4   27.50    1.80
   3   7   4   27.70    1.60
  -4  -7  -4   26.80    1.70
   4  -7   4   25.40    1.80
  -4  -7  -4   25.00    1.40
   4  -7   4   24.90    1.10
   4  -7   4   25.70    1.90
   4   7   4   29.20    1.40
   4   7   4   25.10    1.70
  -4   7  -4   24.80    1.70
  -4   7  -4   25.40    1.60
  -4   7  -4   25.40    1.70
   4   7   4   24.80    0.90
   4   7   4   26.20    1.40
   4   7   4   27.00    1.90
  -4   7  -4   26.90    1.50
  -5  -7  -4    0.80    0.50
   5  -7   4   -0.30    0.70
  -5  -7  -4   -0.20    0.20
  -5  -7  -4   -0.90    0.60
   5  -7   4    1.30    0.70
   5  -7   4   -0.20    0.30
  -5   7  -4    0.10    0.70
  -5   7  -4   -0.30    0.50
   5   7   4   -0.20    0.40
   5   7   4   -0.60    0.60
   5   7   4   -0.20    0.50
   5   7   4   -0.10    0.60
  -5   7  -4    0.80    0.80
  -6  -7  -4   -0.30    0.30
  -6  -7  -4    0.60    0.30
   6  -7   4    0.30    0.80
   6  -7   4   -0.10    0.30
   6  -7   4    0.70    0.80
   6   7   4    0.50    0.60
  -6   7  -4    0.40    0.70
  -7  -8   4    0.80    0.40
   7  -8  -4    0.70    0.60
  -7  -8   4    0.10    0.40
  -7  -8   4   -0.40    0.60
   7  -8  -4    0.80    0.50
  -7   8   4    0.00    0.50
  -7   8   4    0.40    0.50
   7   8  -4    0.20    0.80
   7   8  -4    0.80    0.60
   7   8  -4    0.90    0.70
  -7   8   4    0.60    1.00
   6  -8  -4   23.30    1.50
   6  -8  -4   23.50    1.50
  -6  -8   4   24.80    1.90
  -6  -8   4   21.90    1.10
  -6  -8   4   22.80    1.10
  -6  -8   4   24.00    1.70
  -6  -8   4   21.60    1.70
   6   8  -4   24.30    1.90
  -6   8   4   22.30    1.70
  -6   8   4   24.00    1.40
   6   8  -4   24.20    1.60
  -6   8   4   25.90    1.50
   6   8  -4   24.70    1.90
   6   8  -4   23.20    1.70
  -6   8   4   25.90    1.80
   6   8  -4   23.20    1.60
  -5  -8   4   17.50    1.50
   5  -8  -4   18.10    1.20
  -5  -8   4   17.30    1.60
  -5  -8   4   17.90    1.40
  -5  -8   4   14.90    0.80
   5  -8  -4   16.90    1.30
  -5   8   4   17.50    1.10
  -5   8   4   15.80    1.10
   5   8  -4   17.50    1.30
   5   8  -4   16.30    1.60
   5   8  -4   16.50    1.40
  -5   8   4   14.20    1.40
  -5   8   4   16.50    1.20
   5   8  -4   18.50    1.60
   5   8  -4   19.50    1.50
  -5   8   4   19.40    1.40
   4  -8  -4   75.09    2.80
  -4  -8   4   74.19    3.10
  -4  -8   4   74.89    2.80
  -4  -8   4   76.69    2.20
  -4  -8   4   74.99    3.00
   4  -8  -4   78.09    2.60
  -4  -8   4   74.79    3.00
  -4   8   4   78.69    2.80
   4   8  -4   76.09    2.90
   4   8  -4   78.79    3.00
   4   8  -4   76.69    2.90
  -4   8   4   75.99    2.50
  -4   8   4   78.19    2.60
   4   8  -4   76.89    3.10
   4   8  -4   76.39    3.20
  -4   8   4   74.89    2.50
  -4   8   4   75.19    2.80
   3  -8  -4    4.00    0.70
  -3  -8   4    3.40    0.80
  -3  -8   4    3.60    1.00
  -3  -8   4    3.60    0.40
   3  -8  -4    3.50    0.60
  -3  -8   4    4.70    0.90
   3   8  -4    3.50    0.70
   3   8  -4    3.20    0.70
   3   8  -4    3.50    0.80
  -3   8   4    3.10    0.50
   3   8  -4    1.90    0.80
  -3   8   4    3.80    0.60
   3   8  -4    2.80    0.70
  -3   8   4    4.10    0.80
  -3   8   4    3.50    0.60
  -3   8   4    3.10    0.50
  -2  -8   4   22.10    1.40
  -2  -8   4   20.50    0.90
  -2  -8   4   23.30    1.70
   2  -8  -4   21.90    1.40
   2  -8  -4   20.40    1.00
  -2  -8   4   22.10    1.50
   2   8  -4   19.90    1.40
   2   8  -4   19.20    1.40
   2   8  -4   20.70    1.40
   2   8  -4   21.10    1.60
  -2   8   4   18.10    1.00
  -2   8   4   18.80    1.40
  -2   8   4   19.60    0.90
  -2   8   4   20.00    1.00
   2   8  -4   20.00    1.40
   1  -8  -4   39.30    1.90
  -1  -8   4   39.50    2.10
  -1  -8   4   38.80    1.40
  -1  -8   4   41.80    1.80
  -1  -8   4   37.20    1.90
   1   8  -4   37.30    1.90
   1   8  -4   35.50    2.00
  -1   8   4   37.30    1.50
  -1   8   4   36.30    1.30
  -1   8   4   37.20    1.20
   1   8  -4   36.30    1.80
   1   8  -4   37.10    1.90
   1   8  -4   37.10    1.90
  -1   8   4   35.50    1.20
  -1   8   4   37.70    1.30
  -1   8   4   38.00    1.30
  -1   8   4   37.70    1.90
   0  -8   4   24.40    1.20
   0  -8   4   24.60    1.70
   0  -8   4   23.30    1.30
   0  -8  -4   24.60    1.20
   0  -8   4   26.60    1.60
   0   8   4   24.70    1.20
   0   8   4   22.70    1.20
   0   8  -4   22.10    1.20
   0   8  -4   23.60    1.60
   0   8  -4   24.00    1.60
   0   8   4   23.20    1.60
   0   8   4   24.80    1.00
   0   8  -4   25.10    1.50
   0   8  -4   24.90    1.50
   0   8   4   23.10    1.00
   0   8  -4   22.90    1.50
   1  -8   4   14.90    1.50
  -1  -8  -4   17.00    0.90
  -1  -8  -4   15.00    1.10
   1  -8   4   17.20    1.40
   1  -8   4   17.50    1.00
  -1   8  -4   17.20    1.30
  -1   8  -4   19.70    1.50
  -1   8  -4   15.40    1.40
  -1   8  -4   17.30    1.30
   1   8   4   17.00    1.50
  -1   8  -4   14.20    1.10
  -1   8  -4   15.10    1.40
   1   8   4   14.90    1.10
   1   8   4   16.10    0.90
   1   8   4   17.00    0.90
   1   8   4   16.70    1.00
  -2  -8  -4   65.59    2.30
   2  -8   4   67.49    2.20
   2  -8   4   72.49    2.90
  -2  -8  -4   69.39    2.60
   2  -8   4   71.99    3.10
  -2   8  -4   66.59    2.90
   2   8   4   66.19    2.30
   2   8   4   68.59    2.60
  -2   8  -4   65.59    2.60
  -2   8  -4   68.79    2.80
  -2   8  -4   68.99    2.80
  -2   8  -4   69.59    2.70
   2   8   4   68.29    2.30
   2   8   4   66.59    3.00
  -2   8  -4   67.99    2.60
   2   8   4   66.89    2.30
   2   8   4   68.79    2.20
   3  -8   4    7.10    0.60
   3  -8   4    8.10    1.30
  -3  -8  -4    5.80    0.90
  -3  -8  -4    5.30    0.70
   3  -8   4    5.20    0.60
   3  -8   4    4.50    0.90
   3   8   4    6.20    1.00
   3   8   4    6.10    0.70
  -3   8  -4    5.50    0.80
  -3   8  -4    6.70    1.00
   3   8   4    6.50    0.70
  -3   8  -4    4.10    0.90
   3   8   4    5.30    1.00
   3   8   4    6.20    0.80
  -3   8  -4    5.70    1.00
   3   8   4    5.60    0.70
  -3   8  -4    6.50    1.10
   4  -8   4    1.10    0.80
  -4  -8  -4    0.40    0.50
  -4  -8  -4    0.60    0.60
   4  -8   4    0.40    0.30
   4  -8   4    0.90    0.70
   4   8   4   -0.10    0.50
  -4   8  -4    1.40    0.80
  -4   8  -4   -0.10    0.70
   4   8   4    0.10    0.60
   4   8   4    1.20    0.50
   4   8   4    0.50    0.60
  -4   8  -4    0.40    0.60
   4   8   4    0.40    0.30
  -4   8  -4    0.50    0.50
   4   8   4    0.60    0.50
   5  -8   4    4.10    1.10
   5  -8   4    3.30    0.40
  -5  -8  -4    4.20    1.10
   5  -8   4    4.80    1.10
  -5   8  -4    4.40    1.00
   5   8   4    5.80    0.90
   5   8   4    3.70    0.70
  -5   8  -4    4.30    1.00
   5   8   4    4.60    1.00
  -5   8  -4    3.20    0.90
   6  -8   4   -0.10    0.80
   6   8   4    0.60    0.60
  -6   8  -4    0.80    0.80
   6  -9  -4    3.70    0.80
  -6  -9   4    2.30    0.80
   6  -9  -4    3.00    0.70
   6   9  -4    2.40    0.70
   6   9  -4    2.30    0.90
  -6   9   4    1.20    0.60
  -6   9   4    2.00    0.70
  -6   9   4    2.40    0.90
  -5  -9   4    2.40    0.90
   5  -9  -4    1.60    0.60
  -5  -9   4    1.30    0.70
   5  -9  -4    1.00    0.60
  -5  -9   4    0.90    0.60
   5   9  -4    1.80    0.90
  -5   9   4    1.60    0.60
   5   9  -4    0.20    0.70
   5   9  -4    1.40    0.70
  -5   9   4    2.20    0.60
  -5   9   4    1.60    0.60
   5   9  -4    1.30    0.70
  -5   9   4    1.60    0.60
  -5   9   4    0.80    0.70
   5   9  -4    2.20    0.80
  -5   9   4    1.70    0.60
  -4  -9   4   21.00    1.80
   4  -9  -4   20.10    1.20
   4  -9  -4   22.40    1.60
  -4  -9   4   20.50    1.60
  -4  -9   4   18.80    1.60
   4   9  -4   22.00    1.80
  -4   9   4   20.50    1.30
  -4   9   4   19.80    1.40
  -4   9   4   19.70    1.40
   4   9  -4   21.20    1.50
   4   9  -4   23.40    1.60
   4   9  -4   21.10    1.50
  -4   9   4   19.80    1.20
  -4   9   4   20.90    1.20
   4   9  -4   20.40    1.70
  -3  -9   4    9.00    1.20
   3  -9  -4    6.70    1.00
   3  -9  -4    8.60    0.80
  -3  -9   4    8.30    1.00
  -3  -9   4    7.60    1.20
  -3   9   4    7.90    1.00
  -3   9   4    7.10    0.80
   3   9  -4    8.10    1.20
  -3   9   4    8.30    0.80
   3   9  -4    8.60    1.10
   3   9  -4    9.90    1.20
   3   9  -4    7.80    1.10
  -3   9   4    8.00    0.80
   3   9  -4    6.30    1.10
  -2  -9   4    2.00    0.70
  -2  -9   4    1.80    0.70
  -2  -9   4    1.70    0.80
   2  -9  -4    3.00    0.80
  -2   9   4    1.60    0.40
   2   9  -4    1.10    0.70
   2   9  -4    1.40    0.70
   2   9  -4    2.40    0.70
  -2   9   4    1.60    0.40
   2   9  -4    2.90    0.80
  -2   9   4    1.50    0.40
  -2   9   4    1.90    0.70
   2   9  -4    1.10    0.70
  -1  -9   4   18.70    1.70
   1  -9  -4   24.10    1.70
  -1  -9   4   20.60    1.30
   1   9  -4   17.10    1.60
  -1   9   4   19.10    1.20
   1   9  -4   20.00    1.50
  -1   9   4   19.40    1.00
   1   9  -4   19.80    1.60
  -1   9   4   20.00    1.50
   1   9  -4   21.50    1.50
   1   9  -4   21.10    1.50
  -1   9   4   20.50    1.00
   0  -9   4   27.30    2.00
   0  -9   4   26.80    1.40
   0  -9   4   28.20    1.80
   0  -9  -4   26.60    1.30
   0   9  -4   24.00    1.70
   0   9   4   27.80    1.80
   0   9   4   25.50    1.30
   0   9  -4   24.60    1.80
   0   9   4   26.60    1.30
   0   9  -4   27.60    1.70
   0   9  -4   27.50    1.70
   0   9  -4   26.50    1.60
   0   9   4   27.30    1.20
   0   9   4   25.30    1.20
   0   9  -4   25.80    1.30
   1  -9   4   -0.30    0.70
  -1  -9  -4    0.20    0.40
   1  -9   4    0.00    0.60
   1  -9   4    0.30    0.40
  -1   9  -4    0.00    0.40
   1   9   4    0.10    0.60
  -1   9  -4   -0.10    0.60
   1   9   4   -0.20    0.40
   1   9   4    0.10    0.40
  -1   9  -4   -0.30    0.50
   1   9   4    0.10    0.40
  -1   9  -4   -0.10    0.50
   1   9   4    0.10    0.40
  -1   9  -4   -0.20    0.60
  -1   9  -4   -0.40    0.50
   1   9   4   -0.50    0.30
  -2  -9  -4   11.10    1.10
   2  -9   4   11.90    1.30
   2  -9   4   11.30    0.80
   2  -9   4   10.30    0.70
  -2  -9  -4   11.00    0.90
   2  -9   4   10.60    1.40
  -2   9  -4   10.60    1.20
   2   9   4   12.40    1.20
  -2   9  -4   11.80    1.20
  -2   9  -4   11.90    1.30
  -2   9  -4   10.30    1.30
   2   9   4   11.10    1.40
   2   9   4   11.40    0.90
   2   9   4   10.50    1.00
  -2   9  -4   12.10    1.40
   2   9   4   12.10    1.00
  -2   9  -4   11.50    1.20
   2   9   4   11.40    1.00
  -3  -9  -4    2.00    0.60
   3  -9   4    3.30    0.90
   3  -9   4    3.30    0.40
   3  -9   4    3.50    0.40
   3  -9   4    2.60    1.00
  -3  -9  -4    4.40    0.90
  -3   9  -4    3.60    0.80
   3   9   4    3.40    0.80
  -3   9  -4    2.10    0.80
   3   9   4    3.60    0.60
  -3   9  -4    1.50    0.80
  -3   9  -4    4.10    0.80
   3   9   4    2.80    1.00
  -3   9  -4    2.10    0.70
   3   9   4    2.50    0.60
   3   9   4    3.80    0.60
   3   9   4    2.10    0.60
   4  -9   4    0.20    0.80
  -4  -9  -4    0.80    0.70
   4  -9   4    0.50    0.90
   4   9   4    0.40    0.60
  -4   9  -4   -0.40    0.60
  -4   9  -4    0.40    0.70
   4   9   4    0.50    0.30
  -4   9  -4    1.50    0.80
   4   9   4    0.80    0.60
   4   9   4    0.80    0.60
   5  -9   4    8.00    1.30
  -5   9  -4   10.60    1.40
   5   9   4   10.50    1.20
  -5   9  -4   11.20    1.50
   5   9   4   10.00    1.20
   5 -10  -4    0.20    0.50
   5 -10  -4    0.90    0.70
   5  10  -4   -0.60    0.60
   5  10  -4    0.40    0.80
  -5  10   4    0.40    0.50
  -5  10   4    0.20    0.50
  -5  10   4    0.80    0.60
  -5  10   4    0.40    0.50
  -4 -10   4    4.70    1.10
   4 -10  -4    3.70    0.70
   4 -10  -4    5.70    1.10
   4  10  -4    3.40    1.00
   4  10  -4    3.40    0.90
  -4  10   4    4.40    0.80
  -4  10   4    3.60    0.70
  -4  10   4    3.90    0.80
   4  10  -4    4.80    1.40
  -4  10   4    4.00    0.60
   3 -10  -4   29.40    1.40
   3 -10  -4   33.60    2.00
  -3 -10   4   30.80    1.90
  -3 -10   4   31.20    2.00
  -3 -10   4   33.50    2.30
  -3  10   4   30.00    1.90
   3  10  -4   28.60    2.10
  -3  10   4   30.50    1.40
   3  10  -4   28.10    1.90
  -3  10   4   29.80    1.50
  -3  10   4   31.70    1.50
   3  10  -4   30.60    2.00
   3  10  -4   31.90    1.90
  -3  10   4   30.20    1.50
   3  10  -4   33.60    2.00
   2 -10  -4    7.10    1.10
  -2 -10   4    8.40    1.40
  -2 -10   4    6.90    0.90
  -2 -10   4    8.70    1.20
   2  10  -4    9.00    1.20
  -2  10   4    9.00    0.60
  -2  10   4    6.70    1.10
   2  10  -4    7.00    1.10
  -2  10   4    9.00    0.80
  -2  10   4    7.50    0.60
   2  10  -4    8.30    1.20
   2  10  -4   10.90    1.30
  -2  10   4    9.00    1.00
   2  10  -4    7.90    1.30
  -2  10   4    7.20    0.70
   1 -10  -4   11.20    1.30
  -1 -10   4    8.50    1.30
  -1 -10   4   10.90    1.10
   1  10  -4   11.30    1.40
   1  10  -4   14.70    1.40
   1  10  -4   12.50    1.50
   1  10  -4   12.50    1.40
  -1  10   4   11.00    0.80
  -1  10   4   11.00    0.80
  -1  10   4   11.90    1.40
   1  10  -4   11.20    1.30
  -1  10   4   10.20    1.00
   0 -10   4    4.20    0.90
   0 -10   4    4.90    1.10
   0 -10   4    4.80    0.70
   0  10  -4    3.70    0.90
   0  10   4    5.10    0.80
   0  10  -4    4.10    0.90
   0  10   4    3.80    0.50
   0  10  -4    4.40    0.90
   0  10  -4    5.40    1.10
   0  10   4    4.70    1.00
   0  10  -4    5.00    1.10
   0  10  -4    3.90    0.60
   0  10   4    3.60    0.60
   0  10   4    4.70    0.70
   1 -10   4    1.70    0.90
  -1 -10  -4    0.80    0.50
   1 -10   4    0.60    0.70
   1 -10   4    1.10    0.40
   1  10   4    0.90    0.60
   1  10   4    0.00    0.70
  -1  10  -4    0.90    0.50
   1  10   4    0.80    0.40
  -1  10  -4    0.90    0.80
  -1  10  -4    1.00    0.80
  -1  10  -4    0.60    0.70
  -1  10  -4    0.50    0.70
   1  10   4    1.10    0.60
   1  10   4    0.70    0.50
  -1  10  -4    1.20    0.70
   1  10   4    1.00    0.50
   2 -10   4    1.60    0.40
   2 -10   4    1.20    0.90
   2 -10   4    1.10    0.80
   2 -10   4    0.70    0.30
  -2 -10  -4    1.30    0.60
  -2  10  -4    2.60    0.90
  -2  10  -4    0.30    0.80
   2  10   4    1.30    0.60
   2  10   4    2.00    0.60
  -2  10  -4    0.60    0.60
  -2  10  -4    1.60    0.60
   2  10   4    0.80    0.70
  -2  10  -4    1.40    0.70
   2  10   4    1.40    0.60
   2  10   4    1.60    0.50
   2  10   4    1.10    0.60
  -2  10  -4    1.50    0.80
  -2  10  -4    1.80    0.80
  -3 -10  -4    0.30    0.60
   3 -10   4    1.00    0.80
   3  10   4    0.10    0.50
   3  10   4    0.40    0.50
   3  10   4    1.30    0.50
   3  10   4    0.10    0.60
  -3  10  -4    0.70    0.70
  -3  10  -4    0.60    0.70
   4 -10   4    2.00    1.00
   4  10   4    1.40    0.60
   4  10   4    1.30    0.40
   4  10   4    1.10    0.60
  -4  10  -4    1.00    0.70
  -4  10  -4    1.30    0.80
   4 -11  -4    1.20    0.60
   4 -11  -4    2.00    0.90
  -4  11   4    1.30    0.60
  -4  11   4    2.40    0.60
  -4  11   4    1.10    0.70
   4  11  -4    2.80    1.00
  -4  11   4    2.90    0.70
   3 -11  -4    0.80    0.80
  -3 -11   4    1.20    0.80
  -3  11   4    1.80    0.70
   3  11  -4    1.20    0.90
  -3  11   4    1.30    0.50
  -3  11   4    1.30    0.60
  -3  11   4    1.30    0.50
  -3  11   4    0.90    0.70
   2 -11  -4   12.40    1.60
  -2 -11   4   11.90    1.30
  -2  11   4   11.30    1.20
  -2  11   4    9.60    0.90
   2  11  -4   12.00    1.40
  -2  11   4    8.60    1.30
   1 -11  -4   23.30    1.90
  -1 -11   4   18.30    1.40
   1  11  -4   22.10    1.70
  -1  11   4   22.00    1.50
  -1  11   4   18.80    1.80
  -1  11   4   21.10    1.10
  -1  11   4   21.90    1.10
   0 -11   4    6.40    0.80
   0  11   4    5.00    0.60
   0  11   4    5.00    0.60
   0  11   4    5.30    0.90
   0  11  -4    4.60    1.00
   0  11   4    4.30    1.00
   1 -11   4    0.70    0.40
   1 -11   4    0.30    0.70
  -1 -11  -4    0.40    0.50
   1  11   4   -0.20    0.40
  -1  11  -4    1.00    0.50
   1  11   4    1.20    0.70
   1  11   4    0.30    0.60
   1  11   4    0.40    0.50
  -1  11  -4    1.10    0.70
  -2 -11  -4    1.20    0.60
   2 -11   4    1.30    0.80
  -2  11  -4    1.70    0.80
   2  11   4    1.00    0.50
   2  11   4    0.10    0.60
   2  11   4    1.30    0.60
   2  11   4    0.90    0.60
  -2  11  -4    0.80    0.60
   3 -11   4    1.80    1.00
  -3 -11  -4    2.00    0.80
   3  11   4    1.50    0.70
  -3  11  -4    2.00    0.80
  -3  11  -4    2.00    0.80
   3  11   4    1.50    0.50
   3  11   4    2.70    0.70
   3  11   4    2.50    0.80
  -1 -12   4   -0.50    0.50
  -1  12   4    0.00    0.40
  -1  12   4    0.90    0.60
   9   0  -5   31.40    1.30
  -9   0   5   29.20    1.90
  -9   0   5   28.80    1.90
   9   0  -5   31.40    1.70
  -9   0   5   32.00    1.80
   9   0  -5   32.70    2.00
   9   0  -5   31.10    1.40
  -9   0   5   29.90    2.10
  -8   0   5    2.50    0.70
  -8   0   5    2.20    0.70
   8   0  -5    2.60    0.70
  -8   0   5    3.70    0.90
  -8   0   5    2.90    0.70
   8   0  -5    2.30    0.60
   8   0  -5    3.20    0.50
  -7   0   5  139.49    4.20
   7   0  -5  136.19    4.20
  -7   0   5  132.29    4.10
  -7   0   5  130.99    4.10
   7   0  -5  135.69    4.20
   7   0  -5  131.89    3.60
   7   0  -5  134.49    3.90
  -7   0   5  136.19    4.30
  -6   0   5   82.99    2.70
  -6   0   5   79.69    2.80
   6   0  -5   84.19    2.80
  -6   0   5   84.09    2.80
   6   0  -5   88.39    2.80
   6   0  -5   87.09    2.40
  -6   0   5   80.19    2.80
   6   0  -5   86.19    2.60
   5   0  -5  320.97    8.20
   5   0  -5  328.57    7.80
   5   0  -5  290.17    8.20
   5   0  -5  326.97    8.10
  -5   0   5  328.27    8.30
  -5   0   5  322.67    8.30
  -5   0   5  334.07    8.30
  -5   0   5  330.77    8.20
   4   0  -5    6.60    0.70
  -4   0   5    6.40    0.70
   4   0  -5    6.80    0.50
  -4   0   5    5.90    0.60
  -4   0   5    5.90    0.60
  -4   0   5    5.80    0.60
   4   0  -5    5.90    0.60
   4   0  -5    5.40    0.30
  -3   0   5  495.45   46.00
   3   0  -5  486.85   48.40
   2   0  -5  164.58    4.30
  -2   0   5  170.68    4.10
   2   0  -5  165.48    4.10
  -2   0   5  161.78    4.20
  -2   0   5  164.78    4.30
  -2   0   5  169.48    4.30
  -2   0   5  165.08    4.50
   2   0  -5  162.78    4.30
   1   0  -5   43.10    1.20
  -1   0   5   41.90    1.30
   1   0  -5   40.30    1.50
   1   0  -5   44.00    1.40
  -1   0   5   44.60    1.30
  -1   0   5   44.90    1.60
  -1   0   5   43.70    1.30
   1   0  -5   44.80    1.30
   1   0  -5   41.10    1.20
  -1   0   5   45.20    1.40
   0   0  -5   10.60    0.40
   0   0  -5    9.60    0.50
   0   0  -5    9.70    0.70
   0   0   5   11.00    0.50
   0   0  -5    9.10    0.50
   0   0  -5   10.10    0.60
   0   0   5   10.80    0.60
   0   0   5   11.20    0.60
   0   0   5   11.00    0.70
   1   0   5  692.93   16.60
  -2   0  -5  324.47    8.20
   2   0   5  329.07    8.20
   2   0   5  325.47    7.90
  -2   0  -5  327.07    7.70
   2   0   5  312.07    8.00
   2   0   5  311.77    8.20
  -2   0  -5  308.17    8.00
  -2   0  -5  324.17    7.80
  -3   0  -5  141.99    3.90
  -3   0  -5  140.99    3.50
   3   0   5  131.99    3.90
   3   0   5  132.19    4.00
   3   0   5  138.59    3.80
  -3   0  -5  133.79    4.10
   3   0   5  140.79    4.00
  -3   0  -5  137.39    3.70
  -4   0  -5    9.00    1.00
  -4   0  -5    8.10    0.70
   4   0   5    9.60    0.90
  -4   0  -5    6.10    0.50
  -4   0  -5    9.40    0.90
   4   0   5    8.50    0.80
   4   0   5    8.60    0.90
   4   0   5    9.20    1.00
  -4   0  -5    8.00    0.90
  -5   0  -5   15.30    1.10
  -5   0  -5   18.80    1.30
  -5   0  -5   19.60    1.40
  -5   0  -5   19.00    1.10
   5   0   5   17.30    1.30
   5   0   5   17.70    1.30
  -5   0  -5   18.70    0.80
   5   0   5   17.90    1.20
  -6   0  -5   84.19    3.10
   6   0   5   81.29    3.10
   6   0   5   81.29    3.10
  -6   0  -5   87.89    2.90
  -6   0  -5   87.39    3.40
  -6   0  -5   82.59    2.40
   6   0   5   87.09    3.00
  -6   0  -5   87.39    3.30
  -7   0  -5    9.10    0.60
   7   0   5   12.30    1.30
   7   0   5    8.30    1.10
  -7   0  -5   10.70    1.00
  -7   0  -5    9.30    1.20
   7   0   5   10.90    1.30
  -7   0  -5   11.70    1.40
  -7   0  -5   10.80    1.30
  -8   0  -5    2.80    0.40
   9  -1  -5   19.70    1.60
   9  -1  -5   17.80    0.90
  -9  -1   5   18.00    1.40
  -9  -1   5   16.40    1.50
  -9  -1   5   20.10    1.70
   9  -1  -5   17.60    1.30
   9  -1  -5   17.70    0.90
   9   1  -5   21.00    1.50
  -9   1   5   16.60    1.50
  -9   1   5   16.10    1.40
   9   1  -5   16.60    1.10
  -9   1   5   18.20    1.40
   9   1  -5   18.10    1.60
   8  -1  -5   11.60    1.20
  -8  -1   5   11.90    1.30
   8  -1  -5   12.00    0.70
  -8  -1   5   12.40    1.10
   8  -1  -5   13.20    0.70
  -8  -1   5   13.30    1.30
   8  -1  -5   13.00    1.10
  -8  -1   5   12.00    1.10
   8   1  -5   11.80    0.90
  -8   1   5   12.20    1.30
   8   1  -5   12.30    1.10
  -8   1   5   13.30    1.20
   8   1  -5   11.00    1.10
  -8   1   5   12.90    1.10
  -8   1   5   11.90    1.10
  -7  -1   5   39.00    1.80
   7  -1  -5   36.40    1.20
   7  -1  -5   36.60    1.60
  -7  -1   5   35.30    1.80
   7  -1  -5   36.70    1.70
  -7  -1   5   35.50    1.70
  -7  -1   5   35.10    1.80
   7  -1  -5   37.30    1.20
   7   1  -5   37.10    1.60
  -7   1   5   36.50    1.70
  -7   1   5   33.60    1.70
  -7   1   5   35.10    1.60
   7   1  -5   34.90    1.70
   7   1  -5   36.50    1.70
  -7   1   5   38.50    1.80
   7   1  -5   35.30    1.40
  -6  -1   5   29.30    1.40
   6  -1  -5   27.80    0.90
   6  -1  -5   28.60    1.30
   6  -1  -5   27.70    1.20
  -6  -1   5   25.00    1.40
  -6  -1   5   27.40    1.40
   6  -1  -5   28.00    0.90
  -6  -1   5   26.40    1.50
  -6   1   5   27.00    1.40
   6   1  -5   29.30    1.40
  -6   1   5   27.00    1.40
   6   1  -5   28.30    1.10
  -6   1   5   23.90    1.20
  -6   1   5   30.10    1.50
   6   1  -5   27.20    1.40
   6   1  -5   29.20    1.30
  -5  -1   5  106.99    3.30
   5  -1  -5  110.39    3.00
  -5  -1   5  108.09    3.30
  -5  -1   5  107.39    3.30
   5  -1  -5  106.79    3.10
  -5  -1   5  104.49    3.20
   5  -1  -5  106.39    3.30
  -5   1   5  109.19    3.10
  -5   1   5  106.69    3.20
   5   1  -5  107.89    3.20
   5   1  -5  108.19    3.10
  -5   1   5  107.09    3.20
   5   1  -5  116.49    2.90
   5   1  -5   92.29    3.10
  -5   1   5  101.49    3.10
   4  -1  -5   28.70    1.30
  -4  -1   5   30.10    1.30
   4  -1  -5   28.10    1.10
  -4  -1   5   27.90    1.30
  -4  -1   5   28.30    1.20
  -4  -1   5   29.60    1.20
   4  -1  -5   27.40    1.00
   4   1  -5   26.90    1.20
  -4   1   5   27.00    1.20
   4   1  -5   28.30    1.00
   4   1  -5   27.00    1.10
   4   1  -5   27.70    1.20
  -4   1   5   28.00    1.10
  -4   1   5   27.50    1.10
  -4   1   5   28.30    1.20
  -3  -1   5  293.87    7.00
  -3  -1   5  291.87    7.40
  -3  -1   5  298.07    7.30
  -3  -1   5  287.87    7.20
  -3  -1   5  290.27    7.30
   3  -1  -5  277.17    7.30
   3  -1  -5  292.57    6.90
   3   1  -5  282.87    7.10
   3   1  -5  279.67    7.20
  -3   1   5  293.87    7.10
  -3   1   5  281.77    7.30
  -3   1   5  292.97    7.20
   3   1  -5  285.77    7.00
   3   1  -5  293.77    7.30
  -2  -1   5  133.69    3.50
  -2  -1   5  126.19    3.40
   2  -1  -5  128.29    3.30
   2  -1  -5  130.69    3.50
  -2  -1   5  131.79    3.40
  -2  -1   5  130.49    3.50
   2  -1  -5  129.39    3.30
  -2  -1   5  131.49    3.70
  -2   1   5  133.19    3.30
   2   1  -5  126.59    3.50
   2   1  -5  125.79    3.30
   2   1  -5  129.09    3.50
  -2   1   5  131.99    3.50
  -2   1   5  134.89    3.30
   2   1  -5  131.29    3.30
   2   1  -5  126.59    3.50
  -1  -1   5 1186.18   74.29
   1  -1  -5 1117.59   54.79
   1   1  -5 1282.17   77.19
  -1   1   5 1196.18   55.39
   0  -1   5 1110.49   74.09
   0  -1  -5 1208.28   57.79
   0   1  -5 1204.48   75.59
   0   1   5 1233.38   60.99
  -1  -1  -5  277.47    6.70
  -1  -1  -5  271.67    6.50
   1  -1   5  265.67    6.90
  -1  -1  -5  265.57    6.90
   1  -1   5  265.37    7.00
  -1  -1  -5  267.07    6.50
  -1  -1  -5  273.57    6.50
  -1   1  -5  268.37    6.70
  -1   1  -5  270.47    6.70
   1   1   5  276.47    6.90
   1   1   5  282.87    6.60
   1   1   5  277.07    7.00
   1   1   5  266.87    6.70
  -1   1  -5  270.47    6.80
  -1   1  -5  269.47    6.80
  -1   1  -5  268.47    7.00
  -2  -1  -5   60.89    2.10
   2  -1   5   56.39    2.10
   2  -1   5   60.19    1.90
   2  -1   5   56.89    2.00
  -2  -1  -5   59.19    2.00
  -2  -1  -5   57.89    1.80
   2  -1   5   59.59    2.00
  -2  -1  -5   57.19    1.70
   2   1   5   60.89    2.00
  -2   1  -5   58.59    1.80
  -2   1  -5   57.79    2.10
  -2   1  -5   62.09    2.00
   2   1   5   60.39    1.80
   2   1   5   58.49    1.80
   2   1   5   58.49    2.00
  -3  -1  -5  267.17    6.80
   3  -1   5  256.47    6.90
  -3  -1  -5  267.77    7.00
   3  -1   5  264.67    7.10
   3  -1   5  260.97    6.90
   3  -1   5  260.07    6.80
  -3  -1  -5  272.07    7.10
  -3  -1  -5  255.87    6.60
  -3   1  -5  266.17    7.10
   3   1   5  265.37    7.00
  -3   1  -5  268.67    6.90
  -3   1  -5  262.37    6.70
   3   1   5  258.37    6.70
   3   1   5  261.07    6.80
   3   1   5  259.87    6.90
  -4  -1  -5  218.68    6.20
   4  -1   5  223.48    6.10
  -4  -1  -5  218.78    5.70
   4  -1   5  219.08    6.20
   4  -1   5  227.88    6.00
  -4  -1  -5  218.88    6.20
   4  -1   5  224.18    6.10
  -4  -1  -5  217.08    5.30
  -4  -1  -5  226.88    6.00
   4   1   5  218.28    5.90
   4   1   5  227.08    6.20
  -4   1  -5  217.58    6.30
   4   1   5  218.28    6.10
  -4   1  -5  227.18    6.00
   4   1   5  219.68    6.00
  -4   1  -5  223.48    5.80
  -5  -1  -5    2.70    0.70
  -5  -1  -5    4.10    0.80
   5  -1   5    3.40    0.70
   5  -1   5    2.30    0.60
  -5  -1  -5    3.10    0.30
  -5  -1  -5    3.00    0.60
   5  -1   5    2.70    0.70
  -5  -1  -5    3.00    0.50
  -5   1  -5    2.20    0.50
   5   1   5    3.00    0.60
  -5   1  -5    3.10    0.70
  -5   1  -5    2.30    0.60
   5   1   5    2.70    0.60
   5   1   5    3.30    0.70
  -5   1  -5    3.60    0.50
  -6  -1  -5    2.70    0.30
  -6  -1  -5    3.00    0.70
   6  -1   5    1.90    0.70
   6  -1   5    2.60    0.70
  -6  -1  -5    2.30    0.70
  -6  -1  -5    4.00    0.80
   6  -1   5    3.90    0.80
  -6  -1  -5    2.80    0.60
  -6   1  -5    3.60    0.80
  -6   1  -5    4.10    0.90
  -6   1  -5    1.80    0.50
   6   1   5    2.40    0.70
  -6   1  -5    2.80    0.50
   6   1   5    3.80    0.90
   6   1   5    4.30    0.80
  -7  -1  -5    1.20    0.70
  -7  -1  -5    0.40    0.50
  -7  -1  -5    0.70    0.60
   7  -1   5    0.80    0.60
  -7  -1  -5    0.40    0.70
   7  -1   5    0.40    0.70
   7  -1   5    0.90    0.70
  -7   1  -5    0.10    0.50
  -7   1  -5    1.10    0.70
   7   1   5    1.00    0.60
   7   1   5    1.00    0.60
  -7   1  -5    0.70    0.30
  -7   1  -5    2.40    0.80
   7   1   5    1.50    0.70
  -8  -1  -5   16.70    1.30
   8  -1   5   13.30    1.70
  -8   1  -5   17.40    0.90
  -9  -2   5    6.30    1.10
  -9  -2   5    9.60    1.30
   9  -2  -5    6.10    0.50
  -9  -2   5    5.90    1.10
   9  -2  -5    7.10    1.10
   9  -2  -5    6.50    0.90
   9  -2  -5    7.00    0.60
  -9  -2   5    6.80    1.00
   9   2  -5    7.50    1.10
  -9   2   5    6.50    1.10
  -9   2   5    6.10    0.90
   9   2  -5    6.50    1.10
   9   2  -5    6.80    0.80
  -9   2   5    4.80    0.90
   8  -2  -5    8.10    0.90
  -8  -2   5    7.90    1.20
  -8  -2   5    9.00    1.10
  -8  -2   5    9.00    1.20
   8  -2  -5    7.30    0.50
  -8  -2   5    7.20    1.00
   8  -2  -5    8.00    1.10
   8  -2  -5    8.50    0.60
  -8   2   5   10.20    1.20
   8   2  -5   11.00    1.10
  -8   2   5    7.70    0.90
   8   2  -5    8.20    1.00
   8   2  -5    8.90    0.90
  -8   2   5    7.40    1.00
   8   2  -5    8.00    1.10
  -8   2   5    7.00    0.90
  -7  -2   5    5.40    0.90
   7  -2  -5    6.70    0.50
   7  -2  -5    6.30    0.50
  -7  -2   5    5.40    0.90
   7  -2  -5    6.30    0.80
  -7  -2   5    7.10    0.90
   7  -2  -5    7.70    0.80
  -7  -2   5    5.10    0.80
   7   2  -5    6.60    0.80
   7   2  -5    7.90    1.00
  -7   2   5    7.80    1.00
  -7   2   5    6.50    0.80
   7   2  -5    6.60    0.80
   7   2  -5    7.20    0.80
  -7   2   5    6.90    0.80
  -7   2   5    6.60    0.80
  -6  -2   5   74.59    2.80
  -6  -2   5   77.49    2.70
  -6  -2   5   75.79    2.60
   6  -2  -5   73.99    2.50
   6  -2  -5   78.39    2.30
   6  -2  -5   73.19    2.00
  -6  -2   5   75.19    2.80
   6  -2  -5   74.09    2.00
   6   2  -5   68.89    2.40
  -6   2   5   75.79    2.70
   6   2  -5   76.19    2.40
  -6   2   5   73.99    2.40
   6   2  -5   79.19    2.70
  -6   2   5   74.29    2.40
   6   2  -5   76.99    2.60
  -6   2   5   73.69    2.60
   5  -2  -5   46.40    1.70
  -5  -2   5   53.79    2.00
  -5  -2   5   49.70    1.90
  -5  -2   5   48.50    1.90
   5  -2  -5   49.60    1.60
  -5  -2   5   49.00    2.00
  -5   2   5   45.70    1.80
   5   2  -5   47.80    1.70
  -5   2   5   49.10    1.80
  -5   2   5   48.90    1.70
   5   2  -5   48.90    1.90
   5   2  -5   49.60    1.80
   5   2  -5   46.10    1.70
  -5   2   5   48.10    1.70
  -4  -2   5   17.00    1.00
  -4  -2   5   16.20    0.90
  -4  -2   5   15.30    1.00
   4  -2  -5   16.70    0.70
  -4  -2   5   17.80    1.10
   4   2  -5   16.10    0.90
   4   2  -5   16.30    0.80
  -4   2   5   15.80    0.90
   4   2  -5   16.40    0.90
   4   2  -5   16.60    0.90
  -4   2   5   16.30    0.80
  -4   2   5   15.60    0.80
  -4   2   5   16.60    0.80
  -3  -2   5   87.69    2.60
  -3  -2   5   96.69    2.80
  -3  -2   5   93.59    2.80
  -3  -2   5   97.49    2.90
  -3  -2   5   92.39    2.90
  -3  -2   5  100.99    2.90
   3  -2  -5   94.49    2.50
   3  -2  -5   89.79    2.80
   3   2  -5   93.69    2.70
   3   2  -5   92.69    2.80
   3   2  -5   94.49    2.80
  -3   2   5   95.09    2.50
   3   2  -5   94.69    2.70
  -3   2   5   94.49    2.80
   3   2  -5   98.09    2.80
  -3   2   5   96.59    2.60
  -2  -2   5  597.64   14.80
  -2  -2   5  623.94   14.70
  -2  -2   5  636.14   14.70
   2   2  -5  603.74   14.80
   2   2  -5  596.54   14.70
   2   2  -5  587.84   14.60
   1  -2  -5   20.70    0.60
  -1  -2   5   20.50    1.00
  -1  -2   5   21.70    1.00
   1  -2  -5   20.80    0.80
   1  -2  -5   20.50    0.60
  -1  -2   5   22.10    1.00
  -1  -2   5   19.90    1.00
  -1  -2   5   21.10    1.00
  -1  -2   5   21.50    1.00
   1   2  -5   21.10    1.00
  -1   2   5   20.30    0.80
   1   2  -5   20.30    0.90
  -1   2   5   21.00    1.00
   1   2  -5   19.00    1.00
   1   2  -5   20.00    0.90
   1   2  -5   20.30    1.00
   1   2  -5   19.50    0.90
   0  -2  -5  208.68    5.00
   0  -2   5  205.98    5.50
   0  -2   5  209.08    5.50
   0  -2  -5  196.18    5.40
   0  -2   5  200.98    5.40
   0   2  -5  207.58    5.40
   0   2  -5  210.58    5.40
   0   2   5  214.28    5.10
   0   2  -5  207.88    5.40
   0   2  -5  205.48    5.50
   0   2   5  216.78    5.40
   0   2   5  216.78    5.40
   0   2   5  207.08    5.00
   0   2   5  210.08    5.00
   0   2   5  208.48    5.00
   0   2  -5  213.38    5.40
  -1  -2  -5   53.89    1.80
   1  -2   5   50.39    1.80
  -1  -2  -5   54.09    1.50
   1  -2   5   50.99    1.90
   1  -2   5   53.29    1.90
  -1   2  -5   55.49    1.80
  -1   2  -5   54.09    1.80
  -1   2  -5   54.49    1.70
   1   2   5   52.99    1.60
  -1   2  -5   51.39    1.90
   1   2   5   55.59    1.40
   1   2   5   52.69    1.50
   1   2   5   55.19    1.80
   1   2   5   54.79    1.90
  -1   2  -5   53.69    1.70
   2  -2   5   13.20    0.90
   2  -2   5   13.90    0.90
  -2  -2  -5   13.70    0.60
  -2  -2  -5   14.30    0.90
   2  -2   5   14.30    1.00
  -2  -2  -5   13.50    0.70
  -2  -2  -5   13.90    0.90
   2  -2   5   13.80    0.90
   2   2   5   14.50    0.90
  -2   2  -5   14.90    0.80
   2   2   5   13.60    0.70
   2   2   5   14.20    0.70
  -2   2  -5   14.50    1.00
   2   2   5   15.00    0.90
  -2   2  -5   15.80    0.90
   3  -2   5  110.09    3.30
   3  -2   5  107.69    3.20
   3  -2   5   98.09    3.40
   3  -2   5  104.49    3.30
  -3  -2  -5  107.49    3.10
   3  -2   5  111.39    3.50
  -3  -2  -5  117.49    3.50
  -3  -2  -5  107.09    2.90
  -3  -2  -5  114.09    3.40
   3   2   5  111.09    3.20
  -3   2  -5  109.29    3.30
   3   2   5  110.89    3.40
  -3   2  -5  117.79    3.60
   3   2   5  107.49    3.00
  -3   2  -5  111.39    3.10
   3   2   5  108.19    3.30
  -4  -2  -5   43.60    1.80
   4  -2   5   41.60    1.90
   4  -2   5   35.50    1.60
  -4  -2  -5   41.80    1.50
   4  -2   5   41.70    1.70
  -4  -2  -5   38.80    1.90
   4  -2   5   39.00    1.80
  -4  -2  -5   40.90    1.60
   4   2   5   41.00    1.60
   4   2   5   41.00    1.90
  -4   2  -5   40.70    1.70
  -4   2  -5   36.10    1.90
   4   2   5   41.80    1.70
   4   2   5   41.90    1.80
  -4   2  -5   41.40    1.60
   5  -2   5   11.70    1.10
   5  -2   5   14.30    1.20
   5  -2   5   10.00    1.00
   5  -2   5   10.50    1.20
  -5  -2  -5   12.10    1.20
  -5  -2  -5   10.70    1.10
  -5  -2  -5   12.70    0.90
  -5  -2  -5   11.00    1.00
  -5   2  -5   13.00    1.30
   5   2   5   12.00    0.90
   5   2   5   11.80    1.20
  -5   2  -5   11.70    1.10
   5   2   5   10.90    1.00
  -5   2  -5   12.00    1.00
   6  -2   5   59.99    2.50
  -6  -2  -5   60.49    2.50
   6  -2   5   58.49    2.50
  -6  -2  -5   59.89    2.60
  -6  -2  -5   61.39    2.20
   6  -2   5   60.09    2.70
   6  -2   5   60.99    2.70
  -6  -2  -5   63.99    2.80
   6   2   5   61.49    2.50
  -6   2  -5   60.79    2.80
  -6   2  -5   61.79    2.10
   6   2   5   61.09    2.40
   6   2   5   57.29    2.60
  -6   2  -5   61.79    2.30
  -6   2  -5   63.89    2.60
   7  -2   5    6.60    1.10
  -7  -2  -5    7.00    1.00
  -7  -2  -5    8.00    0.90
   7  -2   5    6.50    1.10
   7  -2   5    5.40    1.00
  -7  -2  -5    8.20    1.40
   7  -2   5    6.50    1.00
  -7  -2  -5    7.90    1.10
  -7   2  -5    7.30    1.10
   7   2   5    7.00    1.00
   7   2   5    8.10    1.10
  -7   2  -5    6.60    0.80
  -7   2  -5    6.30    1.10
   7   2   5    6.30    1.10
  -7   2  -5    6.60    0.70
  -8  -2  -5    5.30    0.80
   8  -2   5    5.50    1.00
   8  -2   5    4.80    1.30
  -8   2  -5    5.30    1.20
  -8   2  -5    6.80    0.70
  -9  -3   5    4.00    0.80
  -9  -3   5    5.90    1.00
   9  -3  -5    5.10    0.50
  -9  -3   5    5.20    1.00
   9  -3  -5    6.20    0.90
   9  -3  -5    7.40    1.10
   9  -3  -5    5.70    0.50
  -9   3   5    5.30    1.00
   9   3  -5    5.10    0.80
   9   3  -5    5.50    0.90
  -9   3   5    5.80    0.80
   9   3  -5    5.50    1.00
  -8  -3   5   12.30    1.40
  -8  -3   5   13.40    1.50
  -8  -3   5   10.90    1.10
   8  -3  -5   10.00    1.10
   8  -3  -5   11.00    1.00
   8  -3  -5   11.10    0.70
  -8  -3   5   12.60    1.30
   8  -3  -5   10.60    0.60
  -8   3   5   12.80    1.20
  -8   3   5   13.20    1.10
  -8   3   5   12.40    1.00
   8   3  -5   11.00    1.10
   8   3  -5   13.70    1.40
   8   3  -5   12.00    1.00
  -8   3   5   11.80    1.20
   8   3  -5   13.10    1.20
  -7  -3   5    1.70    0.60
  -7  -3   5    2.50    0.70
   7  -3  -5    2.40    0.60
  -7  -3   5    2.50    0.80
   7  -3  -5    2.30    0.50
  -7  -3   5    1.80    0.60
   7  -3  -5    2.30    0.30
   7   3  -5    2.50    0.60
   7   3  -5    2.70    0.80
  -7   3   5    2.60    0.50
  -7   3   5    2.20    0.60
  -7   3   5    1.80    0.60
   7   3  -5    2.00    0.60
   7   3  -5    2.70    0.60
  -7   3   5    1.80    0.50
   6  -3  -5   78.09    2.60
  -6  -3   5   75.19    2.90
   6  -3  -5   80.19    2.30
   6  -3  -5   77.59    2.10
  -6  -3   5   79.29    2.70
  -6  -3   5   74.79    2.70
  -6  -3   5   75.69    2.80
  -6   3   5   80.89    2.80
  -6   3   5   75.09    2.40
  -6   3   5   70.59    2.40
  -6   3   5   72.89    2.60
   6   3  -5   73.49    2.50
   6   3  -5   78.89    2.60
   6   3  -5   79.69    2.70
   6   3  -5   73.09    2.70
  -5  -3   5  126.09    4.00
  -5  -3   5  129.99    3.90
  -5  -3   5  133.29    3.90
  -5  -3   5  132.39    4.00
   5  -3  -5  131.19    3.30
  -5   3   5  129.89    3.90
   5   3  -5  132.99    3.90
   5   3  -5  131.59    3.80
   5   3  -5  130.39    3.80
  -5   3   5  125.19    3.70
   5   3  -5  132.19    3.80
  -5   3   5  134.89    3.60
  -5   3   5  129.29    3.60
  -4  -3   5  112.89    3.50
  -4  -3   5  123.39    3.70
  -4  -3   5  125.49    3.60
  -4  -3   5  119.39    3.70
   4  -3  -5  122.59    3.30
  -4  -3   5  123.89    3.50
   4  -3  -5  121.19    3.00
  -4   3   5  119.19    3.60
   4   3  -5  121.79    3.50
   4   3  -5  123.59    3.60
  -4   3   5  121.29    3.30
  -4   3   5  125.59    3.30
   4   3  -5  121.49    3.60
   4   3  -5  123.89    3.50
   4   3  -5  120.89    3.70
  -4   3   5  121.39    3.30
  -3  -3   5   68.19    2.30
   3  -3  -5   67.59    1.90
  -3  -3   5   68.29    2.20
  -3  -3   5   67.99    2.30
  -3  -3   5   69.09    2.30
  -3  -3   5   69.89    2.20
  -3  -3   5   67.19    2.20
   3   3  -5   67.89    2.20
   3   3  -5   64.49    2.10
   3   3  -5   68.39    2.30
  -3   3   5   69.19    1.90
  -3   3   5   69.79    1.80
   3   3  -5   68.09    2.30
  -3   3   5   66.39    2.20
  -3   3   5   70.49    1.90
   3   3  -5   68.29    2.20
   2  -3  -5  266.57    7.20
  -2  -3   5  304.07    7.70
  -2  -3   5  306.87    7.70
  -2  -3   5  310.27    7.70
  -2  -3   5  302.07    7.70
  -2  -3   5  306.37    7.70
   2   3  -5  293.17    7.60
   2   3  -5  304.27    7.70
  -2   3   5  309.07    7.20
   2   3  -5  305.57    7.60
   2   3  -5  293.17    7.60
   2   3  -5  301.47    7.70
  -2   3   5  305.57    7.40
  -2   3   5  310.87    7.60
  -2   3   5  301.07    7.10
  -1  -3   5  478.65   11.10
  -1  -3   5  439.56   11.00
  -1  -3   5  432.76   11.00
  -1  -3   5  437.56   11.00
  -1  -3   5  421.06   11.00
  -1  -3   5  440.66   11.00
   1   3  -5  448.26   11.00
  -1   3   5  458.45   10.90
   1   3  -5  428.26   10.90
   1   3  -5  451.45   11.00
  -1   3   5  462.75   10.90
  -1   3   5  446.96   10.90
   1   3  -5  446.16   11.00
   1   3  -5  443.56   11.00
   1   3  -5  433.36   11.00
   0  -3   5   58.59    2.10
   0  -3   5   59.39    2.10
   0  -3   5   62.19    2.10
   0   3  -5   61.09    2.10
   0   3   5   61.89    1.90
   0   3  -5   56.19    2.00
   0   3   5   61.49    1.90
   0   3  -5   58.39    2.00
   0   3  -5   56.49    1.90
   0   3   5   62.09    1.70
   0   3   5   60.39    2.00
   0   3  -5   60.89    2.00
   0   3  -5   63.79    2.10
  -1  -3  -5  148.69    3.70
   1  -3   5  142.39    4.20
   1  -3   5  149.39    4.20
   1  -3   5  148.19    4.20
  -1  -3  -5  145.79    4.00
  -1  -3  -5  146.59    4.10
  -1   3  -5  145.19    4.10
  -1   3  -5  148.09    4.20
  -1   3  -5  144.99    4.00
   1   3   5  145.89    3.70
   1   3   5  152.88    3.70
  -1   3  -5  146.09    4.20
   1   3   5  151.38    3.60
  -1   3  -5  145.49    4.10
   1   3   5  147.39    3.90
  -1   3  -5  144.99    4.10
   1   3   5  148.19    4.10
   2  -3   5   78.09    2.60
   2  -3   5   81.59    2.70
  -2  -3  -5   74.59    2.60
   2  -3   5   79.09    2.50
  -2  -3  -5   78.89    2.40
   2  -3   5   75.49    2.60
  -2  -3  -5   74.59    2.20
  -2   3  -5   76.59    2.40
   2   3   5   80.59    2.40
  -2   3  -5   74.89    2.60
  -2   3  -5   76.59    2.50
   2   3   5   77.19    2.20
   2   3   5   78.69    2.20
   2   3   5   79.09    2.60
   3  -3   5   47.90    2.00
   3  -3   5   47.80    1.80
  -3  -3  -5   50.79    1.90
  -3  -3  -5   47.80    2.00
   3  -3   5   45.10    2.00
   3  -3   5   45.90    1.90
  -3  -3  -5   46.70    1.70
  -3  -3  -5   50.09    1.50
   3   3   5   48.50    2.00
   3   3   5   49.50    1.70
  -3   3  -5   51.09    1.90
   3   3   5   50.89    1.80
  -3   3  -5   49.60    1.80
  -3   3  -5   47.80    2.10
   3   3   5   48.90    1.60
  -4  -3  -5   21.40    1.30
  -4  -3  -5   19.70    1.40
   4  -3   5   21.70    1.40
   4  -3   5   20.80    1.40
   4  -3   5   22.00    1.20
   4  -3   5   19.60    1.40
  -4  -3  -5   19.60    1.00
  -4  -3  -5   19.50    1.10
   4   3   5   22.20    1.40
   4   3   5   21.10    1.20
  -4   3  -5   18.40    1.20
  -4   3  -5   19.40    1.10
   4   3   5   21.10    1.10
  -4   3  -5   20.10    1.40
  -5  -3  -5   41.30    1.80
   5  -3   5   38.70    2.00
  -5  -3  -5   37.70    1.50
  -5  -3  -5   41.00    1.90
  -5  -3  -5   39.80    2.10
   5  -3   5   40.20    1.80
   5  -3   5   38.80    2.00
  -5   3  -5   41.50    1.70
  -5   3  -5   40.60    1.90
   5   3   5   39.40    1.70
   5   3   5   39.00    1.80
   5   3   5   39.80    2.00
  -5   3  -5   42.10    2.10
  -6  -3  -5   45.40    1.80
  -6  -3  -5   46.00    2.40
   6  -3   5   46.40    2.40
  -6  -3  -5   45.50    2.10
   6  -3   5   51.39    2.40
   6  -3   5   46.70    2.10
  -6  -3  -5   43.20    2.20
  -6   3  -5   44.80    1.80
   6   3   5   46.60    2.00
  -6   3  -5   44.50    2.00
  -6   3  -5   43.60    2.40
   6   3   5   45.20    2.30
  -6   3  -5   46.30    2.20
   6   3   5   48.20    2.20
  -7  -3  -5   15.60    1.50
   7  -3   5   14.40    1.60
  -7  -3  -5   13.80    1.80
   7  -3   5   16.20    1.30
  -7  -3  -5   15.60    1.20
  -7  -3  -5   16.30    1.40
   7  -3   5   17.50    1.70
  -7   3  -5   15.50    1.50
  -7   3  -5   16.90    1.10
   7   3   5   15.80    1.40
  -7   3  -5   16.60    1.30
   7   3   5   15.80    1.70
   7   3   5   14.60    1.40
   8  -3   5    3.70    1.00
   8  -3   5    4.00    0.80
  -8  -3  -5    4.50    0.80
  -8  -3  -5   10.60    1.60
  -8   3  -5    4.30    0.70
  -8   3  -5    3.80    1.00
  -9  -4   5    1.30    0.70
  -9  -4   5    0.20    0.50
   9  -4  -5    0.90    0.70
  -9  -4   5    0.00    0.60
   9  -4  -5    0.00    0.20
   9  -4  -5    0.90    0.30
  -9   4   5    0.30    0.70
   9   4  -5    0.70    0.70
   9   4  -5    0.70    0.50
   9   4  -5   -0.60    0.70
  -9   4   5    0.70    0.50
   8  -4  -5   11.40    1.20
  -8  -4   5   10.50    1.30
  -8  -4   5    9.00    1.10
  -8  -4   5   11.10    1.20
  -8  -4   5    8.40    1.20
   8  -4  -5    9.30    0.60
  -8   4   5   11.00    0.90
   8   4  -5    8.20    1.00
   8   4  -5    9.60    1.20
  -8   4   5   10.20    1.30
   8   4  -5   11.00    1.10
  -8   4   5   10.60    1.00
  -8   4   5    8.40    1.10
  -8   4   5   10.40    1.20
   8   4  -5   10.20    1.10
   7  -4  -5    5.40    0.50
   7  -4  -5    6.90    0.90
  -7  -4   5    8.20    1.00
  -7  -4   5    5.80    0.90
  -7  -4   5    6.70    1.10
  -7  -4   5    6.20    1.00
   7   4  -5    5.50    0.80
  -7   4   5    6.00    0.60
  -7   4   5    5.80    0.90
   7   4  -5    6.30    0.80
   7   4  -5    6.80    1.00
  -7   4   5    6.60    0.90
  -7   4   5    6.40    0.80
   7   4  -5    5.60    0.80
  -6  -4   5  144.09    4.30
  -6  -4   5  143.99    4.50
   6  -4  -5  133.39    4.00
   6  -4  -5  137.89    3.60
  -6  -4   5  141.69    4.50
  -6  -4   5  137.59    4.30
   6   4  -5  133.79    4.20
   6   4  -5  134.49    4.30
   6   4  -5  141.19    4.20
  -6   4   5  139.49    4.30
  -6   4   5  131.59    3.70
  -6   4   5  137.09    3.90
  -6   4   5  132.09    4.00
   6   4  -5  142.39    4.10
  -5  -4   5   97.19    3.30
   5  -4  -5   95.89    2.90
   5  -4  -5   94.19    2.60
  -5  -4   5   95.39    3.10
  -5  -4   5   94.79    3.20
  -5  -4   5   91.99    3.10
   5   4  -5   94.19    3.10
  -5   4   5   94.39    3.10
   5   4  -5   94.89    3.10
   5   4  -5   95.49    3.00
  -5   4   5   95.49    2.80
   5   4  -5   93.19    3.00
   5   4  -5   93.59    3.20
  -5   4   5   91.19    2.80
  -4  -4   5   92.99    3.10
   4  -4  -5  100.69    2.80
   4  -4  -5   95.99    2.60
  -4  -4   5   94.99    3.00
  -4  -4   5   97.89    3.00
  -4  -4   5   95.29    3.10
  -4  -4   5   94.09    3.00
  -4  -4   5   93.79    3.10
  -4   4   5   95.99    3.00
  -4   4   5   94.59    2.50
   4   4  -5   96.79    3.10
   4   4  -5   94.29    3.00
  -4   4   5   95.29    2.70
  -4   4   5   94.59    2.70
   4   4  -5   98.39    3.20
   4   4  -5   93.09    3.00
   4   4  -5   92.89    2.90
   3  -4  -5    4.50    0.40
  -3  -4   5    4.30    0.60
  -3  -4   5    3.50    0.60
   3  -4  -5    3.70    0.40
  -3  -4   5    4.60    0.60
  -3  -4   5    4.20    0.60
  -3  -4   5    4.80    0.70
  -3  -4   5    3.50    0.60
  -3   4   5    4.10    0.40
   3   4  -5    4.60    0.60
  -3   4   5    4.00    0.40
   3   4  -5    4.60    0.70
  -3   4   5    4.20    0.60
   3   4  -5    3.40    0.50
   3   4  -5    4.90    0.70
   3   4  -5    3.30    0.60
  -3   4   5    4.10    0.40
  -2  -4   5   55.69    1.90
  -2  -4   5   56.59    2.00
  -2  -4   5   57.29    2.10
   2  -4  -5   56.99    1.50
  -2  -4   5   55.59    2.00
  -2  -4   5   54.79    2.00
  -2  -4   5   52.99    2.00
   2   4  -5   55.49    2.00
   2   4  -5   56.99    2.00
  -2   4   5   57.59    1.90
   2   4  -5   55.39    1.90
   2   4  -5   54.69    2.00
  -2   4   5   58.59    1.50
   2   4  -5   56.19    2.00
  -2   4   5   54.89    1.80
  -2   4   5   64.89    1.70
  -1  -4   5  116.79    3.50
  -1  -4   5  109.39    3.30
  -1  -4   5  119.99    3.50
  -1  -4   5  116.99    3.40
  -1  -4   5  119.99    3.50
   1   4  -5  119.09    3.40
   1   4  -5  116.99    3.50
   1   4  -5  112.89    3.50
  -1   4   5  114.59    3.20
  -1   4   5  119.49    3.20
   1   4  -5  111.69    3.40
   1   4  -5  113.89    3.40
  -1   4   5  117.79    3.30
   1   4  -5  121.99    3.40
  -1   4   5  116.99    3.20
   0  -4   5   63.49    2.10
   0  -4   5   60.29    2.20
   0  -4   5   62.19    2.20
   0   4   5   62.89    1.80
   0   4   5   59.09    2.10
   0   4   5   64.19    1.90
   0   4  -5   63.79    2.10
   0   4  -5   61.49    2.10
   0   4  -5   58.39    2.10
   0   4   5   62.59    2.00
   0   4  -5   59.89    2.20
   0   4  -5   59.79    2.20
   0   4  -5   58.99    2.10
  -1  -4  -5   22.10    0.80
   1  -4   5   22.30    1.30
   1  -4   5   21.20    1.20
   1  -4   5   22.30    1.20
  -1  -4  -5   21.90    1.00
  -1  -4  -5   21.90    1.10
   1   4   5   22.80    0.80
  -1   4  -5   23.20    1.20
  -1   4  -5   21.20    1.10
   1   4   5   21.60    0.80
  -1   4  -5   21.40    1.00
   1   4   5   25.30    1.30
   1   4   5   21.60    1.10
   1   4   5   22.00    0.90
   1   4   5   21.60    0.80
  -1   4  -5   23.50    1.20
  -1   4  -5   22.30    1.20
  -1   4  -5   22.00    1.20
   2  -4   5   25.30    1.30
   2  -4   5   21.90    1.30
  -2  -4  -5   23.90    1.00
  -2  -4  -5   23.80    1.10
  -2  -4  -5   21.70    1.20
   2  -4   5   24.70    1.20
   2  -4   5   25.00    1.40
   2   4   5   26.10    1.00
   2   4   5   23.30    1.00
   2   4   5   25.00    1.10
  -2   4  -5   24.70    1.20
  -2   4  -5   24.60    1.40
   2   4   5   23.70    1.30
  -2   4  -5   24.00    1.30
  -2   4  -5   25.60    1.30
   2   4   5   24.10    1.40
  -3  -4  -5   52.99    1.40
   3  -4   5   50.19    2.10
  -3  -4  -5   47.30    1.80
   3  -4   5   52.09    1.90
  -3  -4  -5   51.69    1.90
   3  -4   5   54.29    2.20
   3  -4   5   54.29    2.30
  -3  -4  -5   51.29    2.10
  -3   4  -5   51.49    2.20
   3   4   5   54.69    1.80
   3   4   5   52.89    1.80
   3   4   5   53.59    2.20
  -3   4  -5   51.79    1.90
   3   4   5   47.00    2.20
  -3   4  -5   51.49    2.10
   3   4   5   51.39    1.70
   4  -4   5   10.40    1.20
   4  -4   5   11.40    1.20
  -4  -4  -5   10.40    0.70
  -4  -4  -5    9.80    0.90
   4  -4   5   10.60    1.10
  -4  -4  -5    8.30    1.00
  -4  -4  -5   10.80    0.90
   4  -4   5   11.00    0.90
   4   4   5    9.60    0.80
   4   4   5   11.30    1.20
   4   4   5   10.70    0.90
  -4   4  -5   10.90    1.20
  -4   4  -5   10.30    1.00
  -4   4  -5    9.30    0.90
   4   4   5   10.20    1.10
  -5  -4  -5    7.40    1.10
   5  -4   5    9.20    1.10
  -5  -4  -5    8.70    0.90
   5  -4   5    9.40    0.90
  -5  -4  -5    8.20    0.70
  -5  -4  -5    9.10    1.00
   5  -4   5   12.30    1.40
   5   4   5    9.30    1.00
   5   4   5   10.00    1.30
   5   4   5    8.10    0.80
  -5   4  -5    8.60    1.10
   5   4   5    6.90    1.00
  -5   4  -5   10.30    1.30
  -5   4  -5    9.20    0.90
   6  -4   5    3.60    0.70
   6  -4   5    3.30    1.00
   6  -4   5    4.10    0.90
  -6  -4  -5    3.60    0.60
  -6  -4  -5    3.90    0.80
  -6  -4  -5    3.10    0.90
  -6  -4  -5    3.70    0.80
  -6   4  -5    3.90    0.90
   6   4   5    3.70    0.80
  -6   4  -5    4.00    0.70
   6   4   5    3.40    0.90
   6   4   5    4.10    0.80
   6   4   5    4.50    0.90
  -6   4  -5    3.80    0.90
   7  -4   5   14.80    1.70
   7  -4   5   14.20    1.60
  -7  -4  -5   14.00    1.10
   7  -4   5   14.00    1.20
  -7  -4  -5   13.30    1.40
  -7   4  -5   15.20    1.50
  -7   4  -5   13.40    1.10
  -9  -5   5    2.50    0.70
   9  -5  -5    2.60    0.80
  -9  -5   5    1.90    0.70
   9  -5  -5    2.40    0.40
  -9  -5   5    1.90    0.90
   9   5  -5    2.40    0.70
  -9   5   5    2.30    0.40
   9   5  -5    3.40    0.80
  -9   5   5    3.20    0.80
   9   5  -5    2.50    0.90
  -8  -5   5   18.40    1.70
   8  -5  -5   22.20    1.00
   8  -5  -5   20.80    1.50
  -8  -5   5   23.70    1.60
  -8  -5   5   21.20    1.80
  -8   5   5   20.10    2.00
   8   5  -5   21.40    1.50
  -8   5   5   22.90    1.00
   8   5  -5   23.10    1.80
   8   5  -5   18.80    1.50
  -8   5   5   21.60    1.50
  -8   5   5   21.40    1.40
  -8   5   5   17.90    2.20
  -7  -5   5    0.70    0.70
  -7  -5   5    0.90    0.70
   7  -5  -5    0.90    0.60
   7  -5  -5    1.50    0.40
  -7  -5   5    0.30    0.50
  -7  -5   5    0.70    0.60
   7   5  -5    1.00    0.50
  -7   5   5    0.50    0.50
   7   5  -5    1.10    0.60
   7   5  -5    0.80    0.60
  -7   5   5    1.80    0.50
  -7   5   5    2.10    0.60
   7   5  -5    1.00    0.70
  -7   5   5    1.20    0.30
  -6  -5   5   12.70    1.30
  -6  -5   5   13.80    1.30
  -6  -5   5   13.40    1.20
   6  -5  -5   11.30    0.70
  -6  -5   5   11.20    1.10
  -6   5   5   11.70    0.90
  -6   5   5   11.60    0.50
   6   5  -5   13.50    1.20
  -6   5   5    9.90    1.10
   6   5  -5   12.10    1.30
  -6   5   5   11.20    0.90
   6   5  -5   12.90    1.10
   6   5  -5   12.00    1.20
   6   5  -5   11.00    1.10
  -5  -5   5   51.99    2.20
  -5  -5   5   53.39    2.30
  -5  -5   5   54.19    2.30
  -5  -5   5   50.29    2.20
   5  -5  -5   51.79    1.70
   5  -5  -5   52.79    1.90
  -5  -5   5   52.09    2.00
  -5   5   5   52.29    1.80
   5   5  -5   51.59    2.00
   5   5  -5   54.09    2.20
   5   5  -5   53.79    2.10
  -5   5   5   45.80    1.80
   5   5  -5   50.99    2.30
   5   5  -5   52.99    2.20
  -5   5   5   56.39    2.20
  -4  -5   5   94.59    3.20
   4  -5  -5   94.29    2.70
  -4  -5   5   92.09    3.10
  -4  -5   5   96.69    3.20
   4  -5  -5   93.79    2.70
  -4  -5   5   97.09    3.10
  -4  -5   5   94.29    3.10
  -4  -5   5   93.59    2.90
   4   5  -5   94.79    3.20
  -4   5   5   90.59    2.70
  -4   5   5   90.69    2.60
  -4   5   5   89.89    2.70
   4   5  -5   93.79    3.10
   4   5  -5   92.49    3.00
   4   5  -5   88.29    2.90
  -4   5   5   97.09    3.10
   4   5  -5   95.69    3.10
  -3  -5   5  116.89    3.70
   3  -5  -5  115.49    3.30
  -3  -5   5  121.09    3.70
  -3  -5   5  116.79    3.60
   3  -5  -5  121.79    3.20
  -3  -5   5  118.89    3.70
  -3  -5   5  120.49    3.50
  -3  -5   5  118.39    3.70
   3   5  -5  116.39    3.50
  -3   5   5  119.99    3.40
   3   5  -5  116.59    3.70
   3   5  -5  121.89    3.80
  -3   5   5  117.09    3.10
  -3   5   5  118.19    3.10
  -3   5   5  115.79    3.00
  -3   5   5  125.19    3.60
   3   5  -5  116.69    3.60
   3   5  -5  116.69    3.60
  -2  -5   5   88.39    2.80
  -2  -5   5   81.09    2.80
  -2  -5   5   89.69    2.90
   2  -5  -5   85.09    2.20
  -2  -5   5   86.59    2.90
   2  -5  -5   84.79    2.60
  -2  -5   5   81.29    2.60
   2   5  -5   78.29    2.70
  -2   5   5   84.59    2.70
  -2   5   5   87.69    2.60
   2   5  -5   85.19    2.80
   2   5  -5   87.39    2.90
   2   5  -5   73.99    2.70
  -2   5   5   87.29    2.20
   2   5  -5   84.39    2.90
  -2   5   5   85.59    2.20
  -2   5   5   94.59    2.40
  -1  -5   5   62.79    2.30
  -1  -5   5   60.89    2.30
  -1  -5   5   62.39    2.30
  -1  -5   5   65.19    2.10
   1   5  -5   57.89    2.20
   1   5  -5   60.49    2.30
  -1   5   5   65.39    2.00
   1   5  -5   58.69    2.10
   1   5  -5   60.39    2.10
  -1   5   5   61.19    2.00
  -1   5   5   61.59    2.20
  -1   5   5   63.69    1.90
   1   5  -5   60.49    2.30
   1   5  -5   62.99    2.30
   0  -5   5   34.60    1.60
   0  -5   5   33.50    1.50
   0  -5   5   34.20    1.70
   0   5  -5   34.60    1.50
   0   5  -5   35.60    1.60
   0   5  -5   33.80    1.50
   0   5   5   36.00    1.60
   0   5   5   33.10    1.30
   0   5   5   33.40    1.20
   0   5  -5   33.40    1.50
   0   5  -5   33.80    1.60
   0   5  -5   34.80    1.60
   0   5   5   32.90    1.00
  -1  -5  -5   16.90    0.70
  -1  -5  -5   16.10    1.00
   1  -5   5   17.10    1.10
   1  -5   5   17.00    1.10
   1  -5   5   17.00    1.20
   1   5   5   15.80    0.70
  -1   5  -5   17.60    1.20
  -1   5  -5   17.60    1.10
  -1   5  -5   15.80    1.10
   1   5   5   16.10    1.00
   1   5   5   17.30    1.20
   1   5   5   17.80    0.70
   1   5   5   16.60    0.70
  -1   5  -5   16.60    1.10
  -1   5  -5   17.40    1.10
  -1   5  -5   17.20    1.20
   1   5   5   16.00    0.80
  -2  -5  -5   27.30    1.10
  -2  -5  -5   25.70    1.40
  -2  -5  -5   27.50    1.10
   2  -5   5   27.50    1.50
   2  -5   5   24.50    1.50
   2  -5   5   25.90    1.50
   2   5   5   26.30    1.00
  -2   5  -5   28.20    1.50
  -2   5  -5   27.30    1.50
  -2   5  -5   25.80    1.40
   2   5   5   28.20    1.40
   2   5   5   24.50    1.00
   2   5   5   26.20    1.50
   2   5   5   25.10    0.80
   2   5   5   25.60    0.80
  -2   5  -5   24.90    1.30
   2   5   5   27.20    1.00
   3  -5   5   25.80    1.60
   3  -5   5   25.60    1.20
  -3  -5  -5   28.20    1.20
   3  -5   5   27.70    1.60
  -3  -5  -5   25.20    1.50
   3  -5   5   25.50    1.50
  -3  -5  -5   24.80    1.20
   3   5   5   26.30    1.20
  -3   5  -5   24.70    1.40
   3   5   5   25.20    1.60
  -3   5  -5   25.50    1.60
   3   5   5   24.80    1.50
  -3   5  -5   26.90    1.30
   3   5   5   24.50    1.10
   4  -5   5   17.40    1.40
  -4  -5  -5   19.10    1.10
   4  -5   5   17.40    1.40
  -4  -5  -5   16.70    1.10
  -4  -5  -5   19.40    1.40
  -4  -5  -5   18.00    0.70
   4  -5   5   17.10    1.10
   4   5   5   18.70    1.40
  -4   5  -5   17.60    1.30
   4   5   5   16.00    1.00
  -4   5  -5   19.10    1.20
   4   5   5   17.80    1.10
  -4   5  -5   16.30    1.40
   4   5   5   18.30    1.50
   5  -5   5    6.10    1.00
  -5  -5  -5    6.80    1.00
  -5  -5  -5    6.20    0.80
  -5  -5  -5    6.80    0.80
  -5  -5  -5    8.00    0.70
   5  -5   5    6.90    0.80
   5  -5   5    9.00    1.20
  -5   5  -5    6.80    1.10
   5   5   5    6.60    0.80
   5   5   5    7.00    1.10
   5   5   5    7.10    0.90
  -5   5  -5    8.60    1.00
  -5   5  -5    9.40    1.10
   5   5   5    7.90    1.10
   6  -5   5    2.70    0.60
   6  -5   5    1.40    0.80
  -6  -5  -5    2.10    0.60
   6  -5   5    0.00    0.70
  -6  -5  -5    0.40    0.60
  -6  -5  -5    1.10    0.50
  -6  -5  -5    1.40    0.90
   6   5   5    1.00    0.60
   6   5   5    0.90    0.60
  -6   5  -5    1.70    0.80
  -6   5  -5    0.60    0.50
   6   5   5    0.90    0.70
  -6   5  -5    2.00    0.90
   6   5   5    0.30    0.70
   7  -5   5    0.30    0.50
  -7  -5  -5    0.70    0.50
   7  -5   5    0.00    0.80
  -7  -5  -5    0.40    0.50
  -7   5  -5    0.20    0.40
  -7   5  -5   -0.20    0.70
  -8  -6   5    1.50    0.60
   8  -6  -5    0.90    0.70
  -8  -6   5    2.50    0.70
   8  -6  -5    1.80    0.40
  -8  -6   5    1.80    0.90
  -8   6   5    1.70    0.70
   8   6  -5    2.60    1.00
   8   6  -5    1.40    0.70
  -8   6   5    1.50    0.60
   8   6  -5    2.60    1.00
   8   6  -5    2.60    0.70
  -7  -6   5    3.10    0.80
   7  -6  -5    2.30    0.50
  -7  -6   5    3.20    0.80
  -7  -6   5    3.60    1.00
  -7  -6   5    3.50    0.70
  -7  -6   5    3.10    0.90
   7   6  -5    2.50    0.80
   7   6  -5    4.60    1.00
   7   6  -5    2.90    0.80
   7   6  -5    3.10    0.90
  -7   6   5    1.70    0.80
   7   6  -5    2.90    0.70
  -7   6   5    3.30    0.70
  -7   6   5    2.10    0.70
  -7   6   5    2.70    0.70
  -6  -6   5   26.40    1.70
  -6  -6   5   24.60    1.60
  -6  -6   5   23.30    1.50
   6  -6  -5   23.70    1.20
  -6  -6   5   23.60    1.40
   6  -6  -5   22.70    1.30
  -6  -6   5   23.90    1.70
   6   6  -5   23.60    1.50
   6   6  -5   24.80    1.60
   6   6  -5   23.40    1.70
  -6   6   5   21.90    1.20
   6   6  -5   23.80    1.40
  -6   6   5   24.70    1.30
   6   6  -5   24.50    1.60
  -6   6   5   23.70    1.60
  -5  -6   5   38.70    2.00
   5  -6  -5   34.70    1.40
  -5  -6   5   34.40    1.80
  -5  -6   5   38.30    2.00
  -5  -6   5   33.40    1.80
  -5  -6   5   34.20    1.60
  -5  -6   5   35.20    1.80
   5  -6  -5   34.10    1.50
  -5   6   5   35.20    1.50
   5   6  -5   35.00    1.90
   5   6  -5   35.00    1.80
  -5   6   5   36.00    1.50
   5   6  -5   35.40    1.70
   5   6  -5   35.20    1.70
  -5   6   5   34.10    1.80
   5   6  -5   34.90    2.00
  -4  -6   5   23.00    1.40
  -4  -6   5   20.00    1.40
   4  -6  -5   20.70    1.10
  -4  -6   5   23.00    1.50
   4  -6  -5   21.30    1.00
  -4  -6   5   19.70    1.10
  -4  -6   5   20.70    1.40
   4   6  -5   20.80    1.30
  -4   6   5   17.90    1.00
   4   6  -5   18.10    1.30
  -4   6   5   19.40    1.00
  -4   6   5   19.80    1.00
   4   6  -5   18.00    1.30
   4   6  -5   20.70    1.30
   4   6  -5   19.00    1.40
  -4   6   5   20.80    1.30
  -3  -6   5   26.40    1.50
  -3  -6   5   20.80    1.30
  -3  -6   5   23.80    1.40
  -3  -6   5   24.00    1.20
  -3  -6   5   23.80    1.50
   3  -6  -5   23.70    1.00
   3  -6  -5   22.60    1.20
  -3   6   5   25.10    1.00
  -3   6   5   23.60    1.20
   3   6  -5   25.90    1.50
   3   6  -5   26.00    1.50
  -3   6   5   22.80    1.00
   3   6  -5   23.20    1.40
   3   6  -5   26.40    1.40
  -3   6   5   23.00    0.90
   3   6  -5   23.80    1.30
  -3   6   5   23.80    1.30
   2  -6  -5   44.00    1.30
  -2  -6   5   44.10    2.00
  -2  -6   5   44.80    1.90
   2  -6  -5   44.80    1.80
  -2  -6   5   47.40    2.00
  -2  -6   5   46.20    1.90
  -2  -6   5   45.00    1.70
  -2   6   5   44.70    1.80
  -2   6   5   47.40    1.30
   2   6  -5   46.00    2.00
   2   6  -5   45.70    2.00
  -2   6   5   44.70    1.30
  -2   6   5   43.00    1.40
   2   6  -5   43.90    1.90
   2   6  -5   47.40    1.90
   2   6  -5   44.00    1.90
  -1  -6   5   76.39    2.50
  -1  -6   5   76.39    2.70
  -1  -6   5   79.39    2.90
  -1  -6   5   75.09    2.60
  -1  -6   5   76.89    2.70
  -1   6   5   77.79    2.70
   1   6  -5   75.99    2.80
   1   6  -5   74.99    2.50
   1   6  -5   78.09    2.70
   1   6  -5   79.09    2.70
   1   6  -5   81.39    2.80
  -1   6   5   73.39    2.30
  -1   6   5   74.49    2.30
   1   6  -5   78.19    2.60
   0  -6   5    0.30    0.50
   0  -6   5    0.50    0.40
   0  -6   5    0.40    0.50
   0   6   5    0.50    0.20
   0   6  -5    0.60    0.40
   0   6   5    0.60    0.30
   0   6   5    0.50    0.30
   0   6   5    0.10    0.40
   0   6  -5    0.80    0.50
   0   6   5    0.40    0.20
   0   6  -5    1.40    0.60
   0   6   5    0.50    0.30
   0   6  -5    0.20    0.40
   0   6  -5    0.20    0.50
   0   6  -5    1.00    0.50
   1  -6   5   57.89    2.30
   1  -6   5   58.79    2.20
   1  -6   5   59.59    2.50
  -1  -6  -5   58.89    1.70
  -1  -6  -5   59.59    2.20
  -1   6  -5   58.49    2.30
  -1   6  -5   59.69    2.40
   1   6   5   56.79    1.70
   1   6   5   58.99    1.80
   1   6   5   61.29    2.40
  -1   6  -5   58.19    2.20
  -1   6  -5   61.89    2.30
   1   6   5   59.29    1.70
  -1   6  -5   60.79    2.40
   1   6   5   58.19    1.80
   1   6   5   63.19    2.20
  -1   6  -5   52.89    2.30
  -2  -6  -5    6.30    0.80
  -2  -6  -5    6.60    0.60
   2  -6   5    7.50    0.90
   2  -6   5    8.70    1.10
   2  -6   5    8.30    1.10
   2   6   5    8.40    0.70
  -2   6  -5    6.20    0.80
  -2   6  -5   10.20    1.10
  -2   6  -5    7.50    0.80
  -2   6  -5    7.10    1.00
   2   6   5    6.50    0.60
   2   6   5    8.60    0.60
   2   6   5    8.80    1.10
   2   6   5    7.10    0.50
   2   6   5    6.70    0.80
  -2   6  -5    9.20    1.00
  -3  -6  -5   40.70    2.00
   3  -6   5   41.10    2.10
  -3  -6  -5   39.10    1.40
  -3  -6  -5   39.60    1.60
   3  -6   5   43.20    2.00
   3  -6   5   38.60    1.60
   3  -6   5   42.50    2.20
   3   6   5   37.50    1.10
   3   6   5   41.80    1.60
  -3   6  -5   40.00    1.70
   3   6   5   37.80    1.10
   3   6   5   43.00    1.60
  -3   6  -5   41.20    2.00
   3   6   5   42.40    2.00
  -3   6  -5   42.70    2.00
   3   6   5   39.70    2.10
  -3   6  -5   38.20    2.00
  -4  -6  -5   18.80    1.20
   4  -6   5   23.80    1.70
   4  -6   5   19.90    1.50
   4  -6   5   19.60    1.10
  -4  -6  -5   19.20    1.00
  -4  -6  -5   22.40    1.60
   4   6   5   21.30    1.20
   4   6   5   18.70    1.40
  -4   6  -5   21.50    1.40
   4   6   5   20.90    1.20
  -4   6  -5   21.00    1.60
   4   6   5   19.70    1.60
  -4   6  -5   20.10    1.30
  -5  -6  -5    0.30    0.50
   5  -6   5    0.20    0.70
   5  -6   5    0.30    0.70
  -5  -6  -5    0.40    0.40
   5  -6   5    0.10    0.40
  -5  -6  -5    0.20    0.60
   5   6   5   -0.20    0.60
   5   6   5   -0.20    0.40
  -5   6  -5    0.30    0.50
  -5   6  -5    0.50    0.70
   5   6   5    0.30    0.60
   5   6   5    0.20    0.50
  -5   6  -5    0.30    0.70
  -6  -6  -5   11.30    0.70
  -6  -6  -5   11.70    1.10
   6  -6   5   11.40    1.00
   6  -6   5   13.30    1.60
   6  -6   5   13.40    1.60
   6   6   5   11.70    1.10
  -6   6  -5   13.40    2.00
  -6   6  -5   13.30    1.40
   7  -6   5    3.40    1.20
  -7  -6  -5    1.20    0.50
  -7  -6  -5    3.50    0.70
   7  -6   5    3.10    0.60
  -7   6  -5    3.20    1.00
  -7   6  -5    3.00    0.80
   8  -7  -5    8.20    0.80
  -8  -7   5    9.90    1.10
  -8  -7   5    7.70    0.90
   8   7  -5    7.30    1.20
   8   7  -5    6.90    1.10
  -8   7   5    9.30    1.10
   8   7  -5    9.70    1.20
   7  -7  -5   45.00    2.10
  -7  -7   5   51.79    2.60
   7  -7  -5   44.10    1.80
  -7  -7   5   45.10    2.00
  -7  -7   5   45.00    2.30
  -7   7   5   44.40    2.00
   7   7  -5   42.30    2.40
   7   7  -5   48.70    2.20
   7   7  -5   43.10    2.50
  -7   7   5   44.00    2.00
  -7   7   5   44.60    2.50
   7   7  -5   42.40    2.40
   6  -7  -5   14.70    1.00
  -6  -7   5   13.30    1.00
  -6  -7   5   13.20    1.30
  -6  -7   5   13.60    1.50
  -6  -7   5   10.50    1.30
   6  -7  -5   14.90    1.10
   6   7  -5   15.70    1.50
   6   7  -5   12.40    1.20
  -6   7   5   13.00    1.00
  -6   7   5    9.50    1.10
   6   7  -5   14.40    1.20
  -6   7   5   15.40    1.10
   6   7  -5   12.30    1.30
  -6   7   5   14.40    1.40
   6   7  -5   12.10    1.40
  -5  -7   5    2.00    0.70
   5  -7  -5    1.50    0.50
  -5  -7   5    2.10    0.70
  -5  -7   5    1.60    0.70
  -5  -7   5    1.60    0.80
  -5  -7   5    2.70    0.50
   5  -7  -5    1.80    0.50
   5   7  -5    2.20    0.80
   5   7  -5    2.10    0.70
   5   7  -5    1.60    0.60
   5   7  -5    2.00    0.70
   5   7  -5    2.00    0.60
  -5   7   5    2.00    0.50
  -5   7   5    1.60    0.50
  -5   7   5    1.10    0.60
   4  -7  -5    1.30    0.50
  -4  -7   5    1.50    0.40
  -4  -7   5    0.90    0.60
   4  -7  -5    1.90    0.50
  -4  -7   5    2.20    0.80
  -4  -7   5    0.60    0.50
  -4  -7   5    1.50    0.70
  -4   7   5    1.20    0.40
  -4   7   5    1.40    0.60
   4   7  -5    0.80    0.50
   4   7  -5    0.70    0.60
  -4   7   5    1.20    0.40
   4   7  -5    1.10    0.60
  -4   7   5    1.40    0.40
   4   7  -5    1.60    0.60
   4   7  -5    0.70    0.60
  -4   7   5    1.70    0.50
   3  -7  -5   42.20    1.80
  -3  -7   5   45.60    2.10
   3  -7  -5   42.20    1.40
  -3  -7   5   42.40    2.00
  -3  -7   5   39.20    1.50
  -3  -7   5   40.90    1.90
  -3  -7   5   41.10    2.10
   3   7  -5   39.70    2.10
  -3   7   5   40.90    1.50
   3   7  -5   41.20    1.90
  -3   7   5   42.00    1.90
   3   7  -5   41.90    1.90
   3   7  -5   43.20    2.10
  -3   7   5   41.60    1.40
  -3   7   5   40.60    1.40
   3   7  -5   40.60    1.90
  -3   7   5   40.50    1.80
  -2  -7   5   26.90    1.50
   2  -7  -5   26.60    1.40
  -2  -7   5   26.00    1.20
  -2  -7   5   25.90    1.60
  -2  -7   5   26.00    1.60
  -2   7   5   26.50    0.90
  -2   7   5   24.00    0.90
   2   7  -5   22.40    1.40
  -2   7   5   25.30    0.90
   2   7  -5   24.80    1.50
   2   7  -5   27.00    1.50
  -2   7   5   26.40    1.40
   2   7  -5   26.00    1.60
   2   7  -5   24.90    1.50
  -1  -7   5    2.40    0.50
  -1  -7   5    1.40    0.70
  -1  -7   5    1.30    0.60
  -1  -7   5    3.20    0.70
  -1  -7   5    2.10    0.60
  -1   7   5    2.40    0.70
   1   7  -5    1.60    0.50
   1   7  -5    2.60    0.70
   1   7  -5    2.30    0.60
   1   7  -5    1.60    0.60
  -1   7   5    1.90    0.40
   1   7  -5    1.60    0.60
  -1   7   5    2.60    0.40
   1   7  -5    2.00    0.70
  -1   7   5    1.90    0.30
  -1   7   5    2.00    0.30
   0  -7   5   78.19    2.60
   0  -7   5   71.99    2.80
   0  -7   5   79.99    2.60
   0  -7   5   79.79    3.10
   0   7   5   75.99    2.50
   0   7   5   75.19    2.20
   0   7  -5   76.29    2.90
   0   7   5   78.49    2.00
   0   7  -5   79.99    2.90
   0   7  -5   76.99    2.80
   0   7  -5   77.79    2.90
   0   7   5   78.89    2.90
   0   7   5   77.49    2.10
   0   7  -5   77.29    2.60
   0   7  -5   74.29    2.80
   0   7   5   73.19    2.10
   1  -7   5   74.59    3.00
  -1  -7  -5   68.29    2.50
   1  -7   5   77.49    2.90
  -1  -7  -5   74.39    2.10
   1  -7   5   68.79    2.50
  -1   7  -5   75.29    2.70
   1   7   5   70.39    2.20
   1   7   5   74.29    2.90
  -1   7  -5   74.49    2.80
   1   7   5   70.59    2.10
  -1   7  -5   67.59    2.60
   1   7   5   73.19    2.00
  -1   7  -5   73.39    2.90
  -1   7  -5   71.79    2.80
   1   7   5   71.69    2.50
  -1   7  -5   71.39    2.80
  -2  -7  -5   49.99    1.70
   2  -7   5   47.10    2.10
   2  -7   5   51.99    2.50
   2  -7   5   48.20    2.30
  -2  -7  -5   48.80    2.10
  -2   7  -5   47.30    2.20
   2   7   5   49.60    2.10
  -2   7  -5   55.69    2.30
  -2   7  -5   48.90    2.10
  -2   7  -5   46.60    2.20
   2   7   5   46.70    1.60
   2   7   5   48.80    1.70
   2   7   5   48.90    2.40
  -2   7  -5   51.29    2.20
   2   7   5   48.00    1.70
   2   7   5   50.59    1.70
  -2   7  -5   52.99    2.40
  -3  -7  -5   33.70    1.90
   3  -7   5   34.20    1.90
   3  -7   5   36.60    2.10
   3  -7   5   34.20    1.40
  -3  -7  -5   37.50    1.50
  -3   7  -5   36.30    1.70
  -3   7  -5   35.70    1.90
   3   7   5   33.80    1.10
   3   7   5   35.00    1.50
   3   7   5   35.50    1.50
  -3   7  -5   33.80    1.90
  -3   7  -5   37.30    2.00
  -3   7  -5   37.30    2.00
   3   7   5   37.50    1.50
   3   7   5   36.70    2.10
   3   7   5   34.20    1.80
   4  -7   5   13.70    1.50
   4  -7   5   15.00    1.60
  -4  -7  -5   13.50    1.10
  -4  -7  -5   12.80    0.70
  -4  -7  -5   12.50    1.30
   4  -7   5   13.00    0.90
   4   7   5    9.50    1.10
   4   7   5   14.30    1.00
  -4   7  -5   12.80    1.40
   4   7   5   13.50    1.00
  -4   7  -5   12.10    1.10
  -4   7  -5   14.70    1.40
  -4   7  -5   13.60    1.30
   4   7   5   13.40    1.50
   5  -7   5   10.80    0.80
  -5  -7  -5   12.60    1.50
  -5  -7  -5   12.30    1.10
   5  -7   5   10.00    1.40
   5  -7   5   10.70    1.50
  -5  -7  -5   11.30    0.80
  -5   7  -5   11.70    1.20
   5   7   5   11.70    1.50
  -5   7  -5    7.00    1.10
   5   7   5    9.50    1.00
   5   7   5   12.20    1.40
  -5   7  -5   12.60    1.60
   5   7   5   12.20    1.10
  -5   7  -5   14.00    1.40
  -6  -7  -5    4.00    0.60
   6  -7   5    3.30    1.10
   6  -7   5    3.80    0.60
  -6   7  -5    3.30    0.90
  -7  -8   5    7.00    0.80
   7  -8  -5    6.00    0.80
   7  -8  -5    5.60    0.90
  -7  -8   5    6.40    0.80
   7   8  -5    4.30    1.00
  -7   8   5    7.00    0.90
  -7   8   5    6.50    0.90
   7   8  -5    6.00    0.90
   7   8  -5    6.50    1.20
   6  -8  -5    2.80    0.60
  -6  -8   5    1.90    0.80
  -6  -8   5    3.00    0.80
  -6  -8   5    2.00    0.50
   6  -8  -5    2.90    0.70
  -6  -8   5    3.00    1.00
  -6   8   5    2.70    0.60
  -6   8   5    2.40    0.60
  -6   8   5    3.10    0.90
   6   8  -5    3.10    0.90
   6   8  -5    1.50    0.90
   6   8  -5    2.00    0.70
   6   8  -5    3.70    1.00
  -5  -8   5    1.00    0.70
   5  -8  -5    2.00    0.50
  -5  -8   5    0.60    0.70
  -5  -8   5    2.00    0.40
   5  -8  -5    0.90    0.50
  -5  -8   5    0.40    0.60
  -5  -8   5    1.50    0.80
   5   8  -5    1.00    0.70
  -5   8   5    0.50    0.60
  -5   8   5    1.20    0.50
   5   8  -5    1.40    0.70
   5   8  -5    1.10    0.80
  -5   8   5    1.60    0.70
  -5   8   5    1.60    0.50
   5   8  -5   -0.10    0.60
  -5   8   5    1.50    0.60
   5   8  -5    1.70    0.80
  -5   8   5    1.40    0.50
  -4  -8   5    3.90    0.80
  -4  -8   5    4.00    0.80
  -4  -8   5    5.20    0.60
   4  -8  -5    3.90    0.70
  -4  -8   5    5.10    1.00
  -4  -8   5    4.50    0.90
   4  -8  -5    4.50    0.60
  -4   8   5    3.90    0.60
  -4   8   5    4.80    0.80
   4   8  -5    6.20    0.90
  -4   8   5    4.30    0.60
  -4   8   5    3.10    0.70
   4   8  -5    4.30    0.80
  -4   8   5    3.50    0.50
   4   8  -5    4.30    0.80
   4   8  -5    5.10    1.00
   4   8  -5    4.50    0.90
  -4   8   5    4.50    0.70
   3  -8  -5   10.40    0.70
   3  -8  -5    6.90    0.90
  -3  -8   5    9.80    1.20
  -3  -8   5    9.50    0.70
  -3  -8   5    8.30    1.10
  -3  -8   5    9.60    1.30
  -3   8   5    8.80    1.00
   3   8  -5   10.20    1.20
   3   8  -5   11.20    1.10
  -3   8   5    8.50    0.80
  -3   8   5    8.50    0.90
   3   8  -5    8.50    1.00
  -3   8   5    9.90    0.70
  -3   8   5    8.20    0.70
   3   8  -5    8.20    1.00
   3   8  -5    6.00    1.00
  -2  -8   5    6.30    0.70
  -2  -8   5    6.60    1.00
   2  -8  -5    7.00    0.90
  -2  -8   5    6.50    1.10
  -2  -8   5    6.70    0.90
   2   8  -5    6.90    1.00
   2   8  -5    6.90    0.90
  -2   8   5    6.50    0.50
  -2   8   5    5.50    0.60
   2   8  -5    6.70    1.00
  -2   8   5    6.20    0.50
  -2   8   5    5.60    0.60
   2   8  -5    4.00    0.80
  -2   8   5    6.10    0.90
   2   8  -5    5.10    1.00
  -1  -8   5   32.30    1.80
  -1  -8   5   32.50    1.60
  -1  -8   5   32.50    1.40
  -1  -8   5   32.30    2.00
   1   8  -5   34.10    1.90
   1   8  -5   29.90    1.40
   1   8  -5   33.20    1.80
   1   8  -5   31.30    1.80
   1   8  -5   31.50    1.80
  -1   8   5   32.00    1.30
  -1   8   5   31.90    1.10
  -1   8   5   30.70    1.10
  -1   8   5   31.50    1.30
  -1   8   5   33.00    1.20
   1   8  -5   31.70    1.70
  -1   8   5   32.00    1.80
  -1   8   5   33.40    1.10
   0  -8   5   57.29    2.20
   0  -8   5   54.79    2.70
   0  -8   5   55.79    2.10
   0  -8   5   57.49    2.50
   0   8  -5   58.59    2.50
   0   8   5   56.19    1.70
   0   8  -5   57.69    2.50
   0   8   5   56.69    2.50
   0   8   5   58.59    2.10
   0   8  -5   55.39    2.60
   0   8  -5   54.99    2.40
   0   8  -5   58.89    2.50
   0   8   5   57.99    1.90
   0   8   5   58.79    1.70
   0   8  -5   57.39    2.20
   1  -8   5   45.10    2.20
   1  -8   5   44.40    1.90
  -1  -8  -5   41.50    1.90
   1  -8   5   45.80    2.40
   1  -8   5   44.70    1.80
  -1   8  -5   43.50    2.20
   1   8   5   41.80    1.50
  -1   8  -5   43.80    2.10
  -1   8  -5   40.60    1.90
   1   8   5   42.90    1.60
  -1   8  -5   43.00    2.20
   1   8   5   45.50    2.30
  -1   8  -5   42.80    2.10
   1   8   5   43.00    1.40
  -1   8  -5   40.10    2.10
   1   8   5   41.80    1.80
  -2  -8  -5   14.00    1.20
   2  -8   5   16.80    1.40
  -2  -8  -5   15.00    0.90
   2  -8   5   16.10    1.00
   2  -8   5   13.70    1.60
   2   8   5   15.70    1.00
  -2   8  -5   14.50    1.50
  -2   8  -5   13.00    1.40
  -2   8  -5   14.00    1.30
  -2   8  -5   13.70    1.30
  -2   8  -5   14.90    1.30
   2   8   5   13.90    0.90
   2   8   5   14.20    0.90
   2   8   5   15.20    0.90
   2   8   5   13.30    1.40
   2   8   5   15.00    1.20
  -2   8  -5   14.90    1.40
  -2   8  -5   14.90    1.20
   3  -8   5   -0.40    0.70
  -3  -8  -5    0.50    0.40
   3  -8   5    0.30    0.70
   3  -8   5   -0.10    0.30
  -3  -8  -5    0.10    0.50
   3   8   5    0.60    0.40
   3   8   5   -0.10    0.60
  -3   8  -5    0.30    0.60
   3   8   5    0.20    0.40
   3   8   5    0.20    0.50
  -3   8  -5    0.20    0.70
   3   8   5    0.50    0.40
   3   8   5    0.50    0.30
  -3   8  -5    0.10    0.50
  -3   8  -5   -0.40    0.60
  -3   8  -5   -0.50    0.50
   4  -8   5   -0.40    0.70
   4  -8   5    0.10    0.70
  -4  -8  -5    0.10    0.40
   4  -8   5    0.00    0.30
  -4  -8  -5   -0.20    0.60
  -4   8  -5   -0.60    0.60
   4   8   5   -0.10    0.50
   4   8   5   -0.50    0.60
  -4   8  -5    0.30    0.70
   4   8   5   -0.30    0.40
   4   8   5   -0.70    0.40
  -4   8  -5    0.00    0.50
   4   8   5   -0.60    0.40
  -4   8  -5   -0.40    0.60
   5  -8   5    3.50    1.00
   5  -8   5    3.20    0.50
  -5   8  -5    2.80    0.90
  -5   8  -5    2.70    0.90
   5   8   5    4.10    0.80
   5   8   5    3.30    0.80
  -5   8  -5    3.70    0.90
   6  -9  -5    1.80    0.60
  -6  -9   5    2.50    0.80
  -6  -9   5    3.70    0.40
  -6  -9   5    2.00    0.30
   6  -9  -5    2.10    0.70
  -6   9   5    2.80    0.60
  -6   9   5    2.40    0.60
   6   9  -5    4.50    0.90
   6   9  -5    4.10    1.00
  -6   9   5    2.70    0.80
  -5  -9   5    8.80    1.30
   5  -9  -5   10.60    1.20
  -5  -9   5   11.90    1.50
  -5  -9   5    8.10    1.20
  -5  -9   5    9.40    0.60
  -5  -9   5    9.00    1.20
   5  -9  -5    9.80    0.90
  -5   9   5   10.70    1.10
   5   9  -5   10.70    1.20
   5   9  -5   11.50    1.40
  -5   9   5    8.90    0.90
  -5   9   5    9.50    0.90
   5   9  -5   10.70    1.40
  -5   9   5    9.50    0.90
  -5   9   5    8.90    1.40
  -5   9   5   11.80    1.30
   5   9  -5   11.30    1.40
   4  -9  -5   26.40    1.60
  -4  -9   5   28.90    2.00
  -4  -9   5   25.60    1.00
  -4  -9   5   28.90    1.90
   4  -9  -5   28.10    1.30
  -4  -9   5   28.70    1.90
  -4   9   5   27.30    1.60
  -4   9   5   28.00    1.80
  -4   9   5   26.50    1.30
   4   9  -5   26.80    1.90
  -4   9   5   25.50    1.60
   4   9  -5   30.00    1.80
   4   9  -5   25.10    1.90
  -4   9   5   27.30    1.30
  -4   9   5   26.60    1.30
   4   9  -5   28.30    1.80
   4   9  -5   26.40    1.80
  -3  -9   5    9.00    0.60
   3  -9  -5    8.20    0.70
  -3  -9   5    9.00    1.20
   3  -9  -5    8.40    1.00
  -3  -9   5    8.40    1.10
  -3  -9   5    7.70    1.20
  -3   9   5    9.20    0.80
  -3   9   5    8.10    0.70
   3   9  -5    8.10    1.20
   3   9  -5    8.80    1.30
  -3   9   5    8.80    1.10
   3   9  -5    7.20    1.10
  -3   9   5    8.80    0.90
   3   9  -5    9.40    1.10
  -3   9   5    8.50    0.80
   3   9  -5    8.90    1.20
  -2  -9   5   -0.50    0.50
   2  -9  -5    0.20    0.50
  -2  -9   5    0.10    0.70
  -2  -9   5    0.70    0.60
  -2  -9   5    0.20    0.30
  -2   9   5    0.40    0.40
  -2   9   5    0.20    0.30
  -2   9   5    0.20    0.30
   2   9  -5   -0.30    0.60
   2   9  -5    0.40    0.60
  -2   9   5    0.10    0.60
   2   9  -5   -0.10    0.70
   2   9  -5    0.30    0.60
  -2   9   5    0.60    0.30
   2   9  -5    0.40    0.60
  -1  -9   5   75.19    2.50
  -1  -9   5   73.69    2.80
  -1  -9   5   81.49    3.40
  -1   9   5   81.09    3.20
   1   9  -5   80.39    3.20
  -1   9   5   78.59    2.20
   1   9  -5   74.39    3.00
  -1   9   5   74.29    2.20
  -1   9   5   78.09    2.50
  -1   9   5   78.69    2.40
   1   9  -5   75.49    3.20
   1   9  -5   79.39    3.10
   1   9  -5   82.29    3.20
   0  -9   5   10.40    1.00
   0  -9   5    8.90    0.90
   0  -9   5    8.60    1.30
   0  -9   5   11.80    1.30
   0   9  -5    8.30    0.90
   0   9   5    9.20    0.60
   0   9  -5    8.90    1.20
   0   9  -5    9.60    1.20
   0   9  -5    9.50    1.10
   0   9   5   10.00    0.90
   0   9  -5    8.10    1.20
   0   9  -5   10.00    1.20
   0   9   5   10.10    0.60
   0   9   5    8.70    0.90
   0   9   5    9.70    1.30
  -1  -9  -5    2.20    0.60
   1  -9   5    2.80    0.60
   1  -9   5    5.10    1.20
   1  -9   5    1.80    0.80
   1   9   5    2.20    0.60
  -1   9  -5    1.60    0.70
   1   9   5    2.90    0.60
   1   9   5    1.40    0.80
  -1   9  -5    3.30    0.90
  -1   9  -5    1.70    0.80
  -1   9  -5    2.10    0.60
   1   9   5    2.50    0.50
   1   9   5    2.60    0.60
  -1   9  -5    3.70    0.90
   1   9   5    3.10    0.40
  -1   9  -5    2.10    0.70
  -2  -9  -5   12.80    1.20
  -2  -9  -5   10.30    0.80
   2  -9   5   12.50    1.40
   2  -9   5   11.60    0.90
   2  -9   5   11.10    0.80
   2  -9   5   12.40    1.50
   2   9   5   11.00    1.40
   2   9   5   12.70    1.20
   2   9   5   11.20    0.90
  -2   9  -5   12.00    1.30
  -2   9  -5   10.00    1.20
  -2   9  -5   11.30    1.40
   2   9   5   11.20    1.00
  -2   9  -5   10.90    1.30
  -2   9  -5   11.30    1.20
  -2   9  -5   12.60    1.50
  -2   9  -5   12.00    1.30
   2   9   5   12.60    1.00
   2   9   5   10.70    0.80
   3  -9   5    3.00    1.00
   3  -9   5    4.90    1.10
  -3  -9  -5    4.50    0.70
   3  -9   5    4.50    0.60
   3  -9   5    3.90    0.50
  -3  -9  -5    4.60    0.90
   3   9   5    4.40    0.70
  -3   9  -5    3.00    0.80
   3   9   5    4.10    0.60
   3   9   5    4.50    1.00
   3   9   5    5.20    0.90
  -3   9  -5    5.30    1.10
  -3   9  -5    3.20    1.00
  -3   9  -5    4.50    0.90
   3   9   5    5.20    0.70
   3   9   5    3.90    0.50
  -3   9  -5    3.90    0.80
   4  -9   5    9.50    1.40
  -4  -9  -5    6.80    1.20
   4  -9   5    8.30    0.60
   4  -9   5    7.90    0.50
  -4   9  -5    9.50    1.30
   4   9   5    8.60    0.50
  -4   9  -5    7.70    1.20
  -4   9  -5    8.10    1.30
   4   9   5    6.80    1.00
   4   9   5   10.80    1.10
   4   9   5    6.40    0.90
   5  -9   5    2.30    1.00
   5   9   5    1.30    0.60
  -5   9  -5    1.10    0.90
   5 -10  -5   -0.40    0.40
   5 -10  -5    0.70    0.60
   5  10  -5   -0.20    0.70
  -5  10   5    0.70    0.50
  -5  10   5   -0.10    0.40
  -5  10   5    0.00    0.60
  -5  10   5    0.20    0.50
  -4 -10   5   17.90    1.70
   4 -10  -5   15.40    1.40
   4 -10  -5   15.60    1.00
  -4  10   5   17.10    1.30
  -4  10   5   15.10    1.10
   4  10  -5   18.80    1.60
  -4  10   5   15.10    1.00
  -4  10   5   15.40    1.10
   4  10  -5   14.80    1.50
  -4  10   5   14.80    1.30
  -3 -10   5   15.10    1.50
  -3 -10   5   12.60    1.40
  -3 -10   5   11.70    1.50
   3 -10  -5   13.40    1.50
   3  10  -5   14.50    1.40
  -3  10   5   14.70    0.90
  -3  10   5   14.40    1.00
   3  10  -5   14.60    1.50
   3  10  -5   15.90    1.50
   3  10  -5   14.30    1.50
  -3  10   5   14.60    1.10
  -3  10   5   14.90    1.00
   3  10  -5   10.20    1.40
  -3  10   5   13.00    1.30
  -2 -10   5    2.50    0.70
  -2 -10   5    3.30    1.00
   2 -10  -5    4.10    1.00
   2  10  -5    3.30    0.90
  -2  10   5    3.20    0.70
   2  10  -5    2.40    0.90
  -2  10   5    3.40    0.40
  -2  10   5    2.40    0.40
  -2  10   5    2.60    0.80
   2  10  -5    1.90    0.80
   2  10  -5    1.20    0.80
   2  10  -5    1.50    0.80
  -2  10   5    2.30    0.40
  -2  10   5    2.60    0.40
  -1 -10   5   13.10    1.20
  -1 -10   5   16.50    1.90
  -1  10   5   12.10    0.70
   1  10  -5   11.50    1.50
  -1  10   5   13.90    1.50
   1  10  -5   13.80    1.50
   1  10  -5   14.90    1.50
   1  10  -5   13.90    1.40
   1  10  -5   12.70    1.30
  -1  10   5   14.00    1.10
  -1  10   5   12.80    0.70
   0 -10   5    2.00    0.60
   0 -10   5    2.20    0.80
   0 -10   5    2.40    0.90
   0  10  -5    1.70    0.80
   0  10   5    2.20    0.40
   0  10   5    2.40    0.60
   0  10  -5    1.50    0.80
   0  10  -5    4.30    1.00
   0  10  -5    1.60    0.80
   0  10   5    2.70    0.40
   0  10  -5    3.20    0.90
   0  10   5    1.50    0.50
   0  10  -5    1.40    0.50
   0  10   5    1.30    0.80
  -1 -10  -5    2.90    0.60
   1 -10   5    3.80    1.00
   1 -10   5    3.60    0.60
   1 -10   5    2.40    1.00
  -1  10  -5    2.20    0.90
   1  10   5    4.10    1.00
   1  10   5    3.00    0.50
   1  10   5    2.50    0.60
   1  10   5    3.70    0.80
  -1  10  -5    2.00    0.80
  -1  10  -5    2.70    0.90
  -1  10  -5    3.70    0.70
  -1  10  -5    2.30    0.80
  -1  10  -5    2.30    0.80
   1  10   5    2.50    0.60
   1  10   5    3.70    0.50
  -2 -10  -5   11.20    1.30
   2 -10   5    8.50    1.30
   2 -10   5   12.80    0.80
   2 -10   5   11.10    0.80
   2  10   5   12.50    1.20
  -2  10  -5   14.00    1.30
   2  10   5   10.20    1.00
  -2  10  -5   13.60    1.60
   2  10   5   11.90    1.00
   2  10   5   12.40    1.00
   2  10   5   13.30    0.90
  -2  10  -5   11.30    1.40
   3 -10   5   10.10    0.60
  -3 -10  -5    9.20    1.20
   3 -10   5    9.40    1.40
   3 -10   5    9.70    0.60
   3  10   5    9.70    1.00
  -3  10  -5   10.00    1.30
  -3  10  -5   11.70    1.40
   3  10   5   10.80    1.00
   3  10   5    9.10    1.20
   3  10   5   11.50    0.90
   4 -10   5    2.20    1.20
   4  10   5    3.40    0.40
   4  10   5    3.60    0.80
  -4  10  -5    1.90    0.90
  -4  10  -5    1.60    0.90
   4  10   5    2.20    0.70
   4 -11  -5    6.80    1.10
  -4  11   5    6.40    1.00
  -4  11   5    6.40    0.80
   4  11  -5    8.70    1.40
  -4  11   5    8.10    0.90
  -4  11   5    8.80    0.80
  -3 -11   5    7.30    1.10
   3 -11  -5    8.70    1.20
  -3  11   5    8.40    0.80
  -3  11   5    9.10    0.80
   3  11  -5    6.90    1.20
  -3  11   5    9.10    1.20
  -3  11   5    7.80    0.90
  -3  11   5    9.10    0.70
  -3  11   5    7.80    1.10
  -2 -11   5    2.60    0.80
   2  11  -5    3.20    1.00
  -2  11   5    3.80    0.50
  -2  11   5    3.70    0.90
  -2  11   5    3.00    0.40
  -2  11   5    3.80    0.80
  -1 -11   5    2.30    0.70
  -1  11   5    2.20    0.60
   1  11  -5    3.20    1.00
  -1  11   5    2.10    0.90
  -1  11   5    2.20    0.40
  -1  11   5    3.10    0.40
   0 -11   5    0.00    0.80
   0 -11   5    0.00    0.40
   0  11  -5    0.50    0.70
   0  11   5    0.10    0.30
   0  11   5    0.10    0.50
   0  11   5    0.30    0.30
   1 -11   5    0.10    0.40
   1 -11   5    0.40    0.90
  -1  11  -5   -0.50    0.40
   1  11   5   -0.10    0.50
   1  11   5    0.30    0.50
   1  11   5    0.20    0.60
   1  11   5    0.00    0.30
  -1  11  -5    1.10    0.80
  -2 -11  -5    0.50    0.60
   2 -11   5    0.20    0.80
   2 -11   5    0.40    0.30
   2 -11   5    0.00    0.30
   2  11   5    0.00    0.40
   2  11   5   -0.20    0.50
   2  11   5    0.80    0.50
  -2  11  -5   -0.40    0.60
  -2  11  -5    0.40    0.60
   2  11   5    0.40    0.60
   9   0  -6   36.50    1.30
  -9   0   6   38.20    2.00
  -9   0   6   38.70    2.20
   9   0  -6   36.20    1.30
  -9   0   6   36.60    2.10
   9   0  -6   36.40    2.10
   9   0  -6   36.70    1.90
   8   0  -6   29.20    1.10
   8   0  -6   28.20    1.00
  -8   0   6   29.70    1.60
   8   0  -6   30.00    1.50
  -8   0   6   31.10    1.70
  -8   0   6   31.70    1.80
  -8   0   6   29.50    1.70
   8   0  -6   29.80    1.70
  -7   0   6   39.20    1.90
  -7   0   6   41.90    1.80
   7   0  -6   40.80    1.70
   7   0  -6   39.50    1.80
   7   0  -6   39.40    1.20
  -7   0   6   39.60    1.90
  -7   0   6   38.00    1.90
   7   0  -6   42.40    1.90
  -6   0   6  147.39    4.50
  -6   0   6  154.38    4.40
   6   0  -6  150.28    4.50
   6   0  -6  142.49    4.40
   6   0  -6  163.58    4.20
  -6   0   6  155.18    4.50
  -6   0   6  151.58    4.50
   6   0  -6  152.78    3.70
  -5   0   6    4.60    0.60
  -5   0   6    5.70    0.80
   5   0  -6    5.20    0.70
   5   0  -6    5.40    0.70
   5   0  -6    5.20    0.50
  -5   0   6    4.60    0.60
  -5   0   6    6.60    0.70
  -4   0   6    2.60    0.50
   4   0  -6    2.70    0.40
  -4   0   6    3.20    0.50
  -4   0   6    2.80    0.40
   4   0  -6    3.10    0.50
   4   0  -6    2.80    0.50
  -4   0   6    3.50    0.50
   3   0  -6  181.38    4.90
  -3   0   6  189.88    4.50
  -3   0   6  184.98    4.90
  -3   0   6  181.98    4.90
  -3   0   6  190.28    4.80
   3   0  -6  185.98    4.90
  -2   0   6  187.88    4.80
  -2   0   6  183.08    4.50
  -2   0   6  183.18    4.90
  -2   0   6  186.38    4.70
   2   0  -6  177.88    4.40
   2   0  -6  178.28    4.70
   2   0  -6  173.68    4.70
  -2   0   6  180.78    4.60
   1   0  -6  157.58    4.40
   1   0  -6  175.18    4.10
   1   0  -6  165.48    4.60
  -1   0   6  173.88    4.60
   1   0  -6  166.98    4.10
  -1   0   6  173.78    4.40
   1   0  -6  168.18    4.30
  -1   0   6  171.78    4.30
  -1   0   6  168.88    4.40
   1   0  -6  167.28    4.40
  -1   0   6  176.18    4.40
   0   0  -6  174.58    4.20
   0   0  -6  163.68    4.30
   0   0   6  169.48    4.30
   0   0   6  169.68    4.60
   0   0  -6  160.78    4.60
   0   0  -6  164.58    4.10
   0   0  -6  160.98    4.10
   0   0   6  172.28    4.30
  -1   0  -6   58.99    1.70
   1   0   6   54.69    1.80
   1   0   6   56.19    1.70
  -1   0  -6   51.19    2.00
  -1   0  -6   53.09    1.70
   1   0   6   54.89    2.00
  -1   0  -6   53.69    1.50
   1   0   6   54.79    1.90
  -1   0  -6   54.19    1.60
  -2   0  -6   14.80    0.70
   2   0   6   14.90    1.00
   2   0   6   14.00    0.80
  -2   0  -6   15.60    0.60
   2   0   6   16.10    1.00
  -2   0  -6   14.10    1.00
   2   0   6   14.90    0.90
  -2   0  -6   13.60    0.80
   3   0   6   23.90    1.40
   3   0   6   24.30    1.30
  -3   0  -6   24.20    0.80
  -3   0  -6   23.50    1.20
   3   0   6   24.30    1.10
   3   0   6   23.00    1.20
  -3   0  -6   23.20    1.00
  -3   0  -6   25.80    1.40
   4   0   6   49.40    2.10
  -4   0  -6   56.79    1.60
  -4   0  -6   51.29    2.30
  -4   0  -6   55.69    1.90
   4   0   6   53.99    2.20
  -4   0  -6   56.39    1.60
   4   0   6   49.70    2.00
   4   0   6   56.39    2.30
  -4   0  -6   56.59    2.10
  -5   0  -6   15.70    1.40
  -5   0  -6   15.50    0.70
  -5   0  -6   15.50    0.70
  -5   0  -6   16.80    1.20
  -5   0  -6   15.60    1.00
   5   0   6   14.80    1.20
   5   0   6   16.00    1.30
   5   0   6   14.90    1.10
  -6   0  -6    5.20    0.90
  -6   0  -6    6.10    1.10
   6   0   6    5.70    0.90
  -6   0  -6    4.30    0.40
  -6   0  -6    3.20    0.60
   6   0   6    5.00    0.90
   6   0   6    2.90    0.80
   7   0   6   -0.30    0.70
  -7   0  -6    0.60    0.70
  -7   0  -6   -0.20    0.40
   7   0   6    0.20    0.70
  -7   0  -6   -0.10    0.20
  -7   0  -6    0.00    0.20
  -7   0  -6   -0.10    0.50
  -9  -1   6   16.30    1.60
  -9  -1   6   11.50    1.20
   9  -1  -6   11.50    1.10
   9  -1  -6   10.70    1.20
  -9  -1   6   10.90    1.40
   9   1  -6   11.00    1.10
  -9   1   6   12.70    1.40
   9   1  -6   10.40    0.80
  -9   1   6   13.50    1.30
   9   1  -6   10.40    1.30
  -8  -1   6   12.10    1.20
   8  -1  -6   10.30    1.20
  -8  -1   6   11.70    1.20
   8  -1  -6   12.10    1.00
  -8  -1   6    9.10    1.20
  -8  -1   6   10.50    1.10
   8   1  -6   13.90    1.20
   8   1  -6   13.20    1.20
  -8   1   6   12.70    1.20
   8   1  -6   11.50    0.80
  -8   1   6   11.80    1.30
  -8   1   6   10.90    1.10
  -8   1   6   13.00    1.10
   8   1  -6   12.50    1.10
  -7  -1   6   17.00    1.30
  -7  -1   6   16.70    1.30
   7  -1  -6   20.10    1.30
   7  -1  -6   19.50    1.10
  -7  -1   6   18.80    1.40
  -7  -1   6   19.30    1.30
  -7   1   6   17.00    1.20
   7   1  -6   19.10    1.10
  -7   1   6   17.60    1.30
  -7   1   6   19.30    1.30
  -7   1   6   16.70    1.10
   7   1  -6   19.10    1.30
   7   1  -6   18.90    1.30
   7   1  -6   18.60    0.90
  -6  -1   6   15.90    1.10
  -6  -1   6   11.80    1.10
   6  -1  -6   14.00    1.10
   6  -1  -6   13.90    1.00
  -6  -1   6   13.10    1.00
  -6  -1   6   12.00    1.10
   6  -1  -6   13.40    0.90
  -6   1   6   12.20    1.00
  -6   1   6   13.50    1.10
  -6   1   6   14.00    0.90
   6   1  -6   14.00    0.70
   6   1  -6   13.40    0.90
   6   1  -6   14.20    1.10
   6   1  -6   12.30    1.00
  -6   1   6   13.50    1.10
   5  -1  -6   21.70    1.20
  -5  -1   6   21.10    1.20
  -5  -1   6   20.20    1.20
  -5  -1   6   22.50    1.30
   5  -1  -6   21.60    0.90
   5  -1  -6   23.20    1.10
  -5  -1   6   20.10    1.10
   5   1  -6   21.30    1.00
   5   1  -6   23.00    1.10
  -5   1   6   21.50    1.20
   5   1  -6   21.60    0.80
   5   1  -6   23.20    1.20
  -5   1   6   21.00    1.00
  -5   1   6   20.00    1.10
  -5   1   6   23.20    1.20
  -4  -1   6  165.48    4.50
   4  -1  -6  166.88    4.60
  -4  -1   6  162.58    4.60
   4  -1  -6  171.88    4.20
  -4  -1   6  166.78    4.60
  -4  -1   6  172.18    4.70
  -4   1   6  171.48    4.60
  -4   1   6  162.38    4.50
   4   1  -6  164.08    4.20
   4   1  -6  165.78    4.50
  -4   1   6  168.18    4.40
   4   1  -6  166.48    4.40
  -4   1   6  170.98    4.60
   4   1  -6  165.18    4.60
  -3  -1   6  135.19    3.70
  -3  -1   6  131.39    3.60
   3  -1  -6  129.99    3.70
  -3  -1   6  132.39    3.40
   3  -1  -6  131.79    3.20
   3  -1  -6  130.59    3.40
  -3  -1   6  128.29    3.80
  -3  -1   6  130.39    3.70
  -3   1   6  136.69    3.50
  -3   1   6  130.29    3.60
   3   1  -6  130.39    3.40
   3   1  -6  123.59    3.60
   3   1  -6  130.49    3.70
   3   1  -6  129.39    3.40
  -3   1   6  136.29    3.40
   3   1  -6  128.99    3.60
   2  -1  -6   31.00    1.00
  -2  -1   6   31.50    1.10
  -2  -1   6   32.10    1.20
   2  -1  -6   29.50    1.00
  -2  -1   6   30.70    1.40
   2  -1  -6   28.90    1.20
  -2  -1   6   31.60    1.20
  -2  -1   6   31.90    1.20
   2   1  -6   31.30    1.10
   2   1  -6   30.90    1.20
   2   1  -6   29.20    1.20
  -2   1   6   30.40    1.30
  -2   1   6   31.30    1.00
  -2   1   6   31.40    1.20
   2   1  -6   30.10    1.20
  -2   1   6   29.40    1.00
  -1  -1   6 1092.89   75.49
   1  -1  -6 1079.29   58.19
  -1   1   6 1187.68   60.49
   1   1  -6  979.50   72.19
   0  -1  -6  147.79    3.70
   0  -1  -6  143.49    4.10
   0  -1  -6  146.59    3.70
   0  -1   6  148.49    3.90
   0  -1   6  148.59    4.10
   0  -1   6  146.29    4.00
   0  -1   6  143.79    3.90
   0  -1  -6  142.49    3.70
   0   1  -6  147.29    3.80
   0   1   6  143.39    3.70
   0   1   6  153.18    3.70
   0   1   6  153.58    3.70
   0   1  -6  146.49    4.10
   0   1   6  148.09    3.70
   0   1  -6  141.69    3.80
   0   1   6  147.29    4.10
   0   1   6  149.09    4.10
   0   1  -6  143.49    3.80
   0   1  -6  141.69    3.90
   0   1  -6  144.39    3.90
   1  -1   6  479.95   11.80
  -1  -1  -6  481.35   11.30
  -1  -1  -6  473.45   11.60
   1  -1   6  481.45   11.90
  -1  -1  -6  479.45   11.40
   1  -1   6  476.65   12.00
  -1  -1  -6  482.35   11.40
  -1  -1  -6  478.05   11.90
  -1   1  -6  486.85   11.60
  -1   1  -6  475.25   12.00
  -1   1  -6  461.95   11.70
  -1   1  -6  477.45   11.70
   1   1   6  480.35   11.90
   1   1   6  492.75   11.50
   1   1   6  485.75   11.60
   1   1   6  478.15   11.90
  -1   1  -6  473.55   11.60
   2  -1   6   93.79    3.00
  -2  -1  -6   93.69    2.90
  -2  -1  -6   90.29    2.60
  -2  -1  -6   92.59    2.40
  -2  -1  -6   96.19    2.50
   2  -1   6   89.19    2.80
   2  -1   6   91.99    2.90
   2  -1   6   91.09    2.70
  -2   1  -6   89.69    3.00
  -2   1  -6   93.29    2.80
   2   1   6   89.49    2.90
   2   1   6   90.29    2.60
  -2   1  -6   93.99    2.60
   2   1   6   91.49    2.90
   2   1   6   89.89    2.70
  -2   1  -6   89.29    2.60
   3  -1   6   76.69    2.50
   3  -1   6   74.09    2.60
  -3  -1  -6   75.29    2.70
   3  -1   6   77.29    2.60
  -3  -1  -6   75.69    2.20
  -3  -1  -6   73.09    2.40
   3  -1   6   76.39    2.70
   3   1   6   75.79    2.60
   3   1   6   75.39    2.40
  -3   1  -6   76.09    2.70
  -3   1  -6   77.39    2.50
  -3   1  -6   76.59    2.20
  -3   1  -6   75.79    2.30
   3   1   6   74.89    2.60
   3   1   6   75.09    2.50
   4  -1   6   85.89    2.90
   4  -1   6   84.69    2.90
  -4  -1  -6   84.49    2.80
   4  -1   6   87.49    2.80
   4  -1   6   84.29    3.10
  -4  -1  -6   85.69    3.00
  -4  -1  -6   85.69    3.10
  -4  -1  -6   82.89    2.50
   4   1   6   81.89    2.90
  -4   1  -6   80.89    2.60
   4   1   6   83.29    2.80
  -4   1  -6   85.69    3.10
  -4   1  -6   84.29    2.80
   4   1   6   83.79    2.70
   4   1   6   80.29    2.90
   5  -1   6   15.60    1.20
  -5  -1  -6   16.90    1.00
   5  -1   6   17.00    1.30
  -5  -1  -6   15.00    1.30
  -5  -1  -6   18.30    1.20
  -5  -1  -6   17.80    1.40
   5  -1   6   16.60    1.40
   5  -1   6   15.70    1.20
   5   1   6   19.40    1.40
  -5   1  -6   17.30    1.10
  -5   1  -6   16.30    0.80
   5   1   6   14.10    1.20
   5   1   6   17.50    1.20
  -5   1  -6   14.80    1.20
  -5   1  -6   18.10    1.40
  -6  -1  -6    2.40    0.70
   6  -1   6    2.90    0.80
   6  -1   6    3.70    0.80
  -6  -1  -6    2.70    0.60
  -6  -1  -6    3.40    0.80
   6  -1   6    4.40    0.90
  -6  -1  -6    4.20    0.90
   6   1   6    4.00    0.90
   6   1   6    3.50    0.80
  -6   1  -6    2.10    0.60
  -6   1  -6    3.90    0.50
  -6   1  -6    3.60    0.80
   6   1   6    3.70    0.70
  -6   1  -6    3.00    0.90
   7  -1   6    0.50    0.70
  -7  -1  -6    1.40    0.80
  -7  -1  -6    0.50    0.50
  -7  -1  -6    0.70    0.60
   7  -1   6    2.00    0.70
  -7  -1  -6    0.10    0.70
   7   1   6    2.20    0.80
  -7   1  -6    1.60    0.30
  -7   1  -6    1.20    0.60
  -7   1  -6    1.30    0.70
  -7   1  -6    1.00    0.80
   7   1   6    1.00    0.70
   9  -2  -6   37.50    1.80
  -9  -2   6   37.60    2.20
  -9  -2   6   39.10    2.30
   9  -2  -6   36.60    2.10
  -9  -2   6   38.20    2.10
   9   2  -6   37.50    2.00
  -9   2   6   40.30    2.20
  -9   2   6   38.30    1.90
   9   2  -6   37.20    2.10
   9   2  -6   37.60    2.20
   9   2  -6   34.90    1.60
  -8  -2   6   22.50    1.50
   8  -2  -6   23.70    1.30
  -8  -2   6   21.20    1.50
  -8  -2   6   23.00    1.70
  -8  -2   6   21.90    1.60
   8  -2  -6   22.60    1.50
  -8   2   6   24.50    1.40
   8   2  -6   24.50    1.40
   8   2  -6   23.40    1.50
  -8   2   6   25.20    1.60
   8   2  -6   23.00    1.20
  -8   2   6   23.70    1.40
   8   2  -6   22.30    1.50
  -8   2   6   21.40    1.50
  -7  -2   6   96.09    3.20
   7  -2  -6   83.49    2.70
   7  -2  -6   90.89    3.10
  -7  -2   6   91.19    3.20
  -7  -2   6   86.09    3.30
  -7  -2   6   93.59    3.30
  -7   2   6   87.99    3.00
   7   2  -6   89.49    2.80
  -7   2   6   91.39    3.20
  -7   2   6   97.09    3.20
   7   2  -6   95.49    3.00
  -7   2   6   88.49    3.00
   7   2  -6   92.49    3.20
   7   2  -6   95.19    3.20
   6  -2  -6  348.27    8.60
  -6  -2   6  342.87    9.00
  -6  -2   6  343.57    9.20
  -6  -2   6  359.56    9.20
   6  -2  -6  340.37    8.80
  -6  -2   6  343.87    9.10
   6   2  -6  351.26    9.00
  -6   2   6  348.47    8.80
   6   2  -6  350.66    9.00
   6   2  -6  336.57    8.60
  -6   2   6  341.37    8.80
  -6   2   6  336.27    8.90
  -6   2   6  336.17    9.00
   6   2  -6  337.77    8.80
   5  -2  -6  254.17    6.30
  -5  -2   6  258.37    6.80
  -5  -2   6  252.87    6.70
  -5  -2   6  246.58    6.80
  -5  -2   6  252.17    6.90
   5   2  -6  253.77    6.50
   5   2  -6  251.17    6.40
  -5   2   6  255.47    6.60
   5   2  -6  250.47    6.70
  -5   2   6  242.08    6.60
  -5   2   6  252.97    6.70
   5   2  -6  258.47    6.70
  -5   2   6  251.37    6.50
  -4  -2   6   28.00    1.30
  -4  -2   6   26.10    1.40
  -4  -2   6   27.30    1.30
   4  -2  -6   25.80    1.30
   4  -2  -6   27.10    1.10
  -4  -2   6   27.30    1.10
  -4  -2   6   25.90    1.30
  -4   2   6   25.00    1.10
   4   2  -6   26.30    1.30
  -4   2   6   27.50    1.20
  -4   2   6   27.40    1.00
   4   2  -6   27.30    1.40
  -4   2   6   27.30    1.20
   4   2  -6   24.90    1.20
   4   2  -6   25.60    1.10
   4   2  -6   28.10    1.20
  -3  -2   6  128.79    3.40
  -3  -2   6  124.59    3.60
   3  -2  -6  126.69    3.30
  -3  -2   6  127.69    3.60
   3  -2  -6  124.29    3.60
  -3  -2   6  122.69    3.70
  -3  -2   6  128.09    3.60
   3   2  -6  130.19    3.40
   3   2  -6  121.29    3.60
   3   2  -6  124.49    3.40
  -3   2   6  130.99    3.20
  -3   2   6  127.89    3.50
  -3   2   6  125.59    3.30
   3   2  -6  122.29    3.60
   3   2  -6  124.69    3.60
  -2  -2   6  169.78    4.80
  -2  -2   6  181.58    4.60
  -2  -2   6  171.18    4.70
   2  -2  -6  169.28    4.60
  -2  -2   6  165.68    4.60
   2  -2  -6  174.58    4.20
   2  -2  -6  170.88    4.30
  -2  -2   6  181.78    4.70
  -2   2   6  176.58    4.80
   2   2  -6  166.18    4.60
  -2   2   6  176.18    4.20
   2   2  -6  174.18    4.50
   2   2  -6  168.48    4.60
   2   2  -6  172.58    4.50
  -2   2   6  175.58    4.30
  -2   2   6  178.68    4.30
   2   2  -6  175.48    4.70
  -2   2   6  176.88    4.60
  -1  -2   6  185.18    4.90
   1  -2  -6  186.78    4.40
  -1  -2   6  176.18    4.90
  -1  -2   6  185.08    4.90
   1  -2  -6  179.88    4.70
  -1  -2   6  186.58    4.90
  -1  -2   6  187.38    4.80
  -1  -2   6  181.08    5.00
   1  -2  -6  168.08    4.40
  -1   2   6  185.68    4.90
  -1   2   6  187.48    4.70
   1   2  -6  180.58    4.90
   1   2  -6  182.08    4.70
   1   2  -6  180.48    4.90
   1   2  -6  181.68    4.80
   1   2  -6  184.28    5.00
  -1   2   6  187.68    4.40
  -1   2   6  184.58    4.40
   0  -2  -6   54.19    1.90
   0  -2   6   52.59    1.90
   0  -2   6   55.19    1.90
   0  -2   6   53.09    1.90
   0  -2  -6   52.69    1.50
   0  -2  -6   53.89    1.50
   0  -2  -6   51.89    1.40
   0   2   6   53.99    1.40
   0   2  -6   53.59    1.80
   0   2   6   55.89    1.50
   0   2  -6   54.29    1.70
   0   2   6   54.79    1.90
   0   2   6   53.19    1.80
   0   2  -6   53.19    1.90
   0   2  -6   50.79    1.70
   0   2  -6   51.39    1.70
   0   2   6   52.89    1.50
   0   2  -6   50.09    1.80
   1  -2   6   67.79    2.30
   1  -2   6   67.19    2.30
  -1  -2  -6   65.59    2.20
   1  -2   6   68.89    2.20
  -1  -2  -6   64.19    1.90
   1   2   6   65.69    1.80
   1   2   6   69.69    2.30
  -1   2  -6   64.79    2.10
  -1   2  -6   65.89    2.10
   1   2   6   68.29    1.90
  -1   2  -6   64.09    2.10
   1   2   6   68.99    2.20
  -1   2  -6   66.29    2.00
  -1   2  -6   66.49    2.20
  -1   2  -6   64.89    2.30
   1   2   6   67.99    1.70
  -2  -2  -6   34.00    1.00
   2  -2   6   33.00    1.50
   2  -2   6   33.80    1.60
  -2  -2  -6   35.80    1.10
  -2  -2  -6   35.80    1.30
   2  -2   6   38.90    1.60
  -2  -2  -6   35.90    1.50
   2  -2   6   35.50    1.60
  -2   2  -6   33.50    1.30
  -2   2  -6   36.50    1.50
  -2   2  -6   36.50    1.40
   2   2   6   35.90    1.20
  -2   2  -6   33.30    1.60
   2   2   6   33.90    1.50
   2   2   6   35.70    1.50
   2   2   6   34.80    1.30
   3  -2   6   86.69    3.00
   3  -2   6   78.59    2.80
  -3  -2  -6   87.59    2.60
  -3  -2  -6   86.29    2.40
  -3  -2  -6   85.39    3.00
  -3  -2  -6   86.79    2.90
   3  -2   6   84.19    2.80
   3  -2   6   86.19    3.00
   3   2   6   85.79    2.60
   3   2   6   84.09    2.50
  -3   2  -6   87.09    2.60
  -3   2  -6   86.39    2.80
  -3   2  -6   85.29    2.60
  -3   2  -6   81.39    3.00
   3   2   6   83.89    2.90
   3   2   6   84.99    2.80
   4  -2   6   51.09    2.30
  -4  -2  -6   50.09    2.20
  -4  -2  -6   54.89    2.00
  -4  -2  -6   51.89    1.70
  -4  -2  -6   55.49    2.30
   4  -2   6   51.49    2.10
   4  -2   6   49.99    2.10
   4  -2   6   49.70    2.30
   4  -2   6   52.69    2.20
  -4   2  -6   52.39    2.30
   4   2   6   50.89    2.00
  -4   2  -6   51.89    2.10
  -4   2  -6   55.49    1.90
   4   2   6   52.69    1.90
   4   2   6   49.50    2.10
   4   2   6   49.80    2.20
  -5  -2  -6    6.10    0.90
   5  -2   6    4.60    0.80
  -5  -2  -6    5.00    0.60
  -5  -2  -6    4.90    0.90
   5  -2   6    4.20    0.70
   5  -2   6    3.50    0.80
   5  -2   6    4.30    0.80
  -5  -2  -6    4.10    0.70
  -5   2  -6    5.50    0.90
   5   2   6    3.60    0.80
  -5   2  -6    5.30    0.70
  -5   2  -6    4.30    0.80
   5   2   6    4.00    0.80
   5   2   6    4.40    0.70
   6  -2   6    8.20    1.00
  -6  -2  -6   10.10    1.20
  -6  -2  -6    9.50    1.10
   6  -2   6   10.90    1.20
  -6  -2  -6   10.50    1.30
   6  -2   6   10.60    1.30
  -6  -2  -6   11.40    1.00
   6  -2   6    7.70    1.10
  -6   2  -6   10.00    1.00
   6   2   6   11.10    1.20
  -6   2  -6   12.30    1.30
  -6   2  -6    9.10    0.80
   6   2   6   11.30    1.10
  -6   2  -6   10.00    1.30
   6   2   6   10.60    1.30
   7  -2   6    0.40    0.60
  -7  -2  -6    0.60    0.60
   7  -2   6    1.10    0.70
   7  -2   6    1.50    0.80
  -7  -2  -6    0.40    0.50
  -7   2  -6    0.10    0.60
  -7   2  -6    1.10    0.40
  -7   2  -6    0.50    0.50
  -9  -3   6    7.60    1.30
  -9  -3   6    5.10    0.80
   9  -3  -6    6.70    1.00
   9   3  -6    7.60    1.00
  -9   3   6    6.40    0.80
   9   3  -6    7.30    0.90
   9   3  -6    6.10    1.10
  -9   3   6    8.30    1.20
  -8  -3   6    6.90    1.10
  -8  -3   6    5.80    1.10
  -8  -3   6    8.20    1.00
  -8  -3   6    8.80    1.10
   8   3  -6    7.60    0.90
  -8   3   6    7.20    1.00
  -8   3   6    8.50    1.00
   8   3  -6    9.80    1.20
  -8   3   6    9.00    0.90
   8   3  -6    9.80    1.10
  -8   3   6    8.20    0.90
   8   3  -6    8.40    1.10
  -7  -3   6    1.10    0.70
  -7  -3   6    1.30    0.60
  -7  -3   6    2.00    0.70
   7  -3  -6    1.30    0.60
  -7  -3   6    0.60    0.70
   7   3  -6    1.00    0.60
  -7   3   6    1.50    0.60
  -7   3   6    1.70    0.50
   7   3  -6    2.20    0.70
  -7   3   6    1.90    0.50
  -7   3   6    2.00    0.60
   7   3  -6    1.50    0.60
   7   3  -6    1.20    0.50
  -6  -3   6   11.40    1.10
  -6  -3   6   13.80    1.10
  -6  -3   6   12.10    1.20
   6  -3  -6   13.40    0.90
  -6  -3   6   12.60    1.10
   6   3  -6   13.70    1.10
   6   3  -6   13.90    1.10
   6   3  -6   11.50    0.90
  -6   3   6   12.10    0.80
  -6   3   6   12.60    1.10
  -6   3   6   11.30    0.90
  -6   3   6   11.60    1.00
   6   3  -6   12.60    1.00
  -5  -3   6   73.69    2.60
   5  -3  -6   72.79    2.30
  -5  -3   6   73.99    2.70
  -5  -3   6   74.89    2.60
  -5  -3   6   71.69    2.60
   5   3  -6   74.29    2.50
   5   3  -6   75.29    2.40
  -5   3   6   74.69    2.30
  -5   3   6   74.79    2.30
   5   3  -6   74.79    2.60
   5   3  -6   73.29    2.40
  -5   3   6   72.39    2.60
  -5   3   6   68.29    2.30
  -4  -3   6   37.30    1.40
  -4  -3   6   36.50    1.60
  -4  -3   6   36.90    1.70
   4  -3  -6   36.10    1.30
  -4  -3   6   31.60    1.50
  -4  -3   6   38.30    1.60
  -4  -3   6   33.60    1.60
  -4   3   6   36.00    1.50
   4   3  -6   34.90    1.50
  -4   3   6   37.00    1.20
   4   3  -6   35.50    1.40
   4   3  -6   36.20    1.60
  -4   3   6   36.60    1.30
   4   3  -6   37.00    1.70
   4   3  -6   36.80    1.40
  -4   3   6   35.30    1.30
   3  -3  -6   38.90    1.20
  -3  -3   6   37.90    1.50
  -3  -3   6   39.50    1.60
  -3  -3   6   39.50    1.70
  -3  -3   6   36.90    1.50
  -3  -3   6   37.70    1.60
  -3  -3   6   39.10    1.60
   3   3  -6   37.00    1.60
  -3   3   6   39.10    1.10
  -3   3   6   39.40    1.20
  -3   3   6   37.30    1.50
   3   3  -6   39.30    1.50
   3   3  -6   38.20    1.50
   3   3  -6   37.10    1.40
  -3   3   6   37.60    1.20
   3   3  -6   37.40    1.60
  -2  -3   6  211.38    5.60
  -2  -3   6  212.58    5.70
  -2  -3   6  202.28    5.60
  -2  -3   6  213.58    5.60
   2  -3  -6  209.78    5.00
  -2  -3   6  215.48    5.70
   2  -3  -6  208.08    5.00
  -2   3   6  210.28    5.00
  -2   3   6  214.68    5.50
  -2   3   6  200.38    5.30
   2   3  -6  206.58    5.60
   2   3  -6  210.18    5.60
  -2   3   6  213.68    5.10
   2   3  -6  217.78    5.70
  -2   3   6  215.68    5.70
   2   3  -6  206.08    5.50
   2   3  -6  225.28    5.70
  -1  -3   6  211.28    5.60
  -1  -3   6  205.68    5.50
  -1  -3   6  207.28    5.60
  -1  -3   6  206.98    5.60
  -1  -3   6  207.18    5.60
  -1  -3   6  210.08    5.60
   1   3  -6  222.08    5.60
   1   3  -6  204.28    5.60
  -1   3   6  209.68    5.40
  -1   3   6  214.88    5.50
   1   3  -6  210.28    5.60
   1   3  -6  203.38    5.60
   1   3  -6  204.08    5.50
  -1   3   6  214.68    5.50
   1   3  -6  204.08    5.50
  -1   3   6  210.88    5.30
   0  -3  -6  226.48    6.00
   0  -3   6  228.18    6.20
   0  -3   6  229.88    6.10
   0  -3   6  226.38    6.20
   0   3  -6  227.38    6.00
   0   3   6  232.28    5.50
   0   3  -6  244.18    6.20
   0   3   6  235.68    6.10
   0   3  -6  231.98    6.10
   0   3   6  241.28    5.70
   0   3   6  231.08    5.50
   0   3  -6  216.48    6.00
   0   3  -6  230.88    6.20
   0   3   6  232.18    6.00
   1  -3   6  205.48    5.60
   1  -3   6  195.98    5.60
  -1  -3  -6  205.28    5.40
   1  -3   6  209.78    5.70
  -1  -3  -6  198.68    5.10
   1   3   6  211.78    5.00
   1   3   6  205.18    5.40
   1   3   6  212.28    5.10
  -1   3  -6  206.98    5.50
  -1   3  -6  199.08    5.60
  -1   3  -6  208.38    5.70
   1   3   6  208.88    5.60
   1   3   6  203.38    4.90
  -1   3  -6  204.78    5.40
  -1   3  -6  194.68    5.40
  -1   3  -6  204.18    5.50
   2  -3   6   27.60    1.40
   2  -3   6   26.60    1.40
  -2  -3  -6   22.60    1.30
   2  -3   6   27.90    1.50
  -2  -3  -6   27.90    1.30
   2  -3   6   25.40    1.30
  -2  -3  -6   26.60    1.00
  -2   3  -6   26.70    1.30
   2   3   6   29.30    1.10
  -2   3  -6   24.80    1.30
   2   3   6   27.40    1.20
   2   3   6   26.70    1.00
  -2   3  -6   26.60    1.50
  -2   3  -6   26.30    1.20
   2   3   6   26.20    1.40
   3  -3   6  109.79    3.80
   3  -3   6  127.49    3.80
   3  -3   6  119.59    4.00
  -3  -3  -6  128.19    3.60
  -3  -3  -6  123.09    3.80
  -3  -3  -6  126.89    4.00
   3  -3   6  129.29    4.10
  -3  -3  -6  128.99    3.20
  -3   3  -6  126.49    3.60
  -3   3  -6  132.19    3.90
   3   3   6  128.79    3.90
   3   3   6  124.49    3.60
  -3   3  -6  128.69    4.10
   3   3   6  122.29    3.50
   3   3   6  126.69    3.70
  -4  -3  -6   53.39    2.00
  -4  -3  -6   49.99    1.70
  -4  -3  -6   54.59    2.40
   4  -3   6   51.99    2.30
  -4  -3  -6   51.79    2.10
   4  -3   6   49.10    2.20
   4  -3   6   48.20    2.10
   4  -3   6   53.59    2.40
   4   3   6   54.39    2.00
   4   3   6   53.99    1.90
  -4   3  -6   50.09    2.40
  -4   3  -6   53.59    2.00
   4   3   6   52.09    2.30
  -4   3  -6   56.49    2.20
   4   3   6   51.19    2.10
  -5  -3  -6   19.40    1.10
   5  -3   6   22.00    1.60
   5  -3   6   21.90    1.60
   5  -3   6   22.70    1.40
  -5  -3  -6   19.80    1.30
  -5  -3  -6   21.10    1.50
  -5  -3  -6   20.40    1.60
  -5   3  -6   21.20    1.30
   5   3   6   23.20    1.40
  -5   3  -6   22.90    1.70
   5   3   6   23.20    1.60
   5   3   6   22.10    1.30
  -5   3  -6   19.80    1.40
   6  -3   6   25.70    1.60
   6  -3   6   24.20    1.90
  -6  -3  -6   27.90    1.60
  -6  -3  -6   24.80    1.90
  -6  -3  -6   25.70    1.30
  -6  -3  -6   27.10    1.70
   6  -3   6   25.90    1.90
  -6   3  -6   24.90    1.90
  -6   3  -6   24.60    1.50
  -6   3  -6   22.20    1.30
   6   3   6   22.70    1.70
  -6   3  -6   24.40    1.70
   6   3   6   23.80    1.60
   6   3   6   26.10    1.50
  -7  -3  -6   12.30    1.10
  -7  -3  -6   12.30    1.50
   7  -3   6    9.70    1.30
   7  -3   6   11.10    1.20
  -7   3  -6   11.60    0.90
  -7   3  -6   11.70    1.40
   9  -4  -6   17.20    1.50
  -9  -4   6   20.30    1.80
  -9  -4   6   18.60    1.50
   9   4  -6   15.90    1.30
   9   4  -6   17.20    1.60
  -9   4   6   16.90    1.10
   9   4  -6   16.20    1.50
  -9   4   6   18.10    1.50
   8  -4  -6    3.30    0.80
  -8  -4   6    3.90    0.80
  -8  -4   6    4.10    0.90
  -8  -4   6    5.00    1.00
  -8  -4   6    5.00    1.10
   8   4  -6    3.00    0.80
  -8   4   6    6.30    1.00
  -8   4   6    4.40    0.90
   8   4  -6    3.50    0.80
   8   4  -6    4.10    0.80
   8   4  -6    4.10    0.70
  -8   4   6    4.50    0.80
  -8   4   6    5.10    0.60
  -7  -4   6    2.40    0.80
   7  -4  -6    2.20    0.60
  -7  -4   6    2.50    0.70
  -7  -4   6    3.10    0.70
  -7  -4   6    3.20    0.80
   7   4  -6    2.00    0.60
  -7   4   6    2.50    0.50
  -7   4   6    2.40    0.70
   7   4  -6    2.20    0.60
  -7   4   6    2.60    0.60
   7   4  -6    2.90    0.80
   7   4  -6    3.10    0.70
  -7   4   6    1.70    0.50
  -6  -4   6   31.90    1.70
  -6  -4   6   32.60    1.70
  -6  -4   6   30.70    1.80
  -6  -4   6   30.30    1.70
   6   4  -6   35.40    1.60
   6   4  -6   31.00    1.70
   6   4  -6   32.30    1.50
  -6   4   6   31.80    1.40
   6   4  -6   32.40    1.80
  -6   4   6   28.50    1.40
  -6   4   6   26.70    1.20
   6   4  -6   30.20    1.50
  -6   4   6   30.20    1.60
  -5  -4   6   93.29    3.30
  -5  -4   6   94.59    3.20
  -5  -4   6   96.79    3.20
  -5  -4   6   95.69    3.20
   5  -4  -6   95.19    2.80
  -5  -4   6   97.19    3.30
   5   4  -6   93.99    3.30
   5   4  -6   95.99    3.10
   5   4  -6   98.29    3.00
  -5   4   6   90.79    2.70
   5   4  -6   97.99    3.20
  -5   4   6   97.09    2.80
  -5   4   6   91.29    2.80
   5   4  -6   96.49    3.10
  -5   4   6   93.69    3.10
   4  -4  -6   98.29    2.70
  -4  -4   6   92.79    3.10
  -4  -4   6   91.99    3.00
  -4  -4   6   93.39    3.20
  -4  -4   6   94.49    3.10
  -4  -4   6   95.19    3.00
  -4  -4   6   93.89    3.20
  -4   4   6   92.19    2.60
  -4   4   6   92.79    2.60
   4   4  -6   92.99    2.90
   4   4  -6   93.89    3.20
   4   4  -6   95.09    3.00
   4   4  -6   91.69    3.10
  -4   4   6   93.19    2.60
   4   4  -6   90.99    3.00
  -4   4   6   95.29    3.00
  -3  -4   6  117.59    3.60
  -3  -4   6  110.39    3.40
   3  -4  -6  115.69    3.00
  -3  -4   6  112.69    3.50
  -3  -4   6  111.69    3.50
  -3  -4   6  108.99    3.60
  -3  -4   6  117.79    3.60
  -3   4   6  115.39    3.40
   3   4  -6  113.39    3.50
   3   4  -6  116.49    3.50
  -3   4   6  119.29    3.00
   3   4  -6  118.69    3.50
   3   4  -6  112.89    3.40
   3   4  -6  117.29    3.60
  -3   4   6  116.49    3.00
  -3   4   6  120.49    3.10
  -2  -4   6   84.19    2.70
  -2  -4   6   87.69    2.80
  -2  -4   6   83.99    2.80
  -2  -4   6   83.19    2.70
  -2  -4   6   83.59    2.80
   2   4  -6   82.69    2.70
  -2   4   6   85.19    2.70
  -2   4   6   82.69    2.60
   2   4  -6   81.29    2.70
  -2   4   6   86.29    2.50
   2   4  -6   85.99    2.80
   2   4  -6   83.29    2.60
   2   4  -6   87.09    2.80
  -2   4   6   86.89    2.50
  -1  -4   6  120.59    3.60
  -1  -4   6  115.69    3.50
  -1  -4   6  115.89    3.50
  -1  -4   6  120.09    3.60
  -1  -4   6  118.59    3.60
   1   4  -6  116.99    3.50
   1   4  -6  118.09    3.50
   1   4  -6  118.79    3.60
  -1   4   6  122.59    3.40
   1   4  -6  120.39    3.60
   1   4  -6  116.99    3.50
  -1   4   6  120.69    3.40
  -1   4   6  120.99    3.40
  -1   4   6  124.19    3.30
   1   4  -6  121.39    3.60
   0  -4   6   42.90    1.70
   0  -4   6   42.50    1.80
   0  -4   6   43.80    1.80
   0   4  -6   44.50    1.80
   0   4  -6   41.20    1.70
   0   4  -6   41.90    1.70
   0   4  -6   43.10    1.70
   0   4   6   42.90    1.50
   0   4   6   44.00    1.60
   0   4   6   42.50    1.30
   0   4  -6   39.90    1.60
   0   4   6   41.30    1.10
   0   4   6   42.70    1.70
   0   4  -6   41.40    1.70
  -1  -4  -6  100.59    2.90
   1  -4   6   98.09    3.30
   1  -4   6  102.39    3.20
  -1  -4  -6   96.09    2.60
   1  -4   6   99.79    3.20
   1   4   6  101.39    2.60
  -1   4  -6   98.89    3.00
  -1   4  -6  103.39    3.20
  -1   4  -6  102.99    3.20
   1   4   6   97.69    2.50
  -1   4  -6  100.19    3.20
  -1   4  -6   95.29    3.10
   1   4   6  105.49    3.20
   1   4   6   99.79    2.90
   1   4   6   91.99    2.60
  -1   4  -6   98.69    3.10
   1   4   6   98.09    3.10
   2  -4   6    9.10    1.00
   2  -4   6    9.30    1.00
   2  -4   6    9.30    1.00
  -2  -4  -6    8.20    0.60
   2  -4   6    7.60    0.80
  -2  -4  -6    8.40    0.70
  -2  -4  -6    8.80    1.00
   2   4   6    8.40    0.60
   2   4   6    6.80    0.80
  -2   4  -6   10.00    1.00
  -2   4  -6    8.90    0.90
  -2   4  -6   10.00    0.90
  -2   4  -6    9.40    0.90
  -2   4  -6    8.50    1.00
  -2   4  -6    7.40    0.80
   2   4   6   10.30    1.00
   2   4   6    7.80    0.60
   2   4   6    8.80    0.70
   3  -4   6  124.29    4.10
  -3  -4  -6  119.79    3.50
  -3  -4  -6  123.69    3.70
   3  -4   6  123.29    3.70
   3  -4   6  123.09    4.00
   3  -4   6  127.29    4.00
  -3  -4  -6  122.69    4.00
  -3   4  -6  124.69    4.10
   3   4   6  120.29    3.60
  -3   4  -6  125.99    3.90
   3   4   6  124.49    3.40
  -3   4  -6  118.09    3.60
   3   4   6  127.09    3.50
   3   4   6  122.19    3.90
  -4  -4  -6   46.80    1.40
  -4  -4  -6   47.50    2.30
   4  -4   6   47.30    1.90
  -4  -4  -6   47.40    1.90
  -4  -4  -6   45.20    1.90
   4  -4   6   45.10    2.20
   4  -4   6   45.10    2.30
   4  -4   6   51.89    2.30
  -4   4  -6   49.60    2.10
   4   4   6   42.50    1.70
   4   4   6   47.00    1.80
  -4   4  -6   46.50    1.90
   4   4   6   46.00    2.20
  -4   4  -6   49.40    2.30
  -5  -4  -6    3.30    0.50
  -5  -4  -6    4.20    0.80
  -5  -4  -6    4.80    0.80
   5  -4   6    3.50    0.70
   5  -4   6    4.00    0.90
   5  -4   6    5.00    1.00
  -5  -4  -6    4.20    0.90
  -5   4  -6    4.60    0.90
   5   4   6    3.80    0.70
  -5   4  -6    3.70    0.90
  -5   4  -6    4.10    0.70
   5   4   6    4.20    0.70
   5   4   6    3.10    0.80
  -6  -4  -6   24.60    1.20
   6  -4   6   27.40    1.90
   6  -4   6   25.60    2.00
  -6  -4  -6   25.30    1.70
  -6  -4  -6   22.40    1.50
   6  -4   6   22.80    1.50
  -6  -4  -6   23.70    1.90
  -6   4  -6   23.90    1.50
  -6   4  -6   23.20    1.60
   6   4   6   25.20    1.90
  -6   4  -6   25.90    2.00
   6   4   6   24.30    1.50
   6   4   6   25.10    1.60
   6   4   6   19.80    1.70
   7  -4   6   12.40    1.50
   7  -4   6   14.10    1.20
  -7  -4  -6   15.10    1.10
  -7  -4  -6   13.00    1.40
  -7   4  -6   13.20    1.50
  -7   4  -6   14.40    1.10
  -9  -5   6    0.80    0.90
   9  -5  -6    0.30    0.70
  -9   5   6    1.20    0.70
  -9   5   6    1.10    0.40
   9   5  -6    1.50    0.70
   9   5  -6   -0.90    0.80
  -8  -5   6   12.10    1.30
  -8  -5   6   11.80    1.50
   8  -5  -6   11.70    1.20
  -8   5   6   11.60    0.70
   8   5  -6   12.40    1.20
   8   5  -6   11.30    1.40
  -8   5   6   11.70    1.10
   8   5  -6   11.30    1.40
   8   5  -6   13.50    1.30
  -8   5   6   10.90    1.20
  -7  -5   6   14.40    1.50
  -7  -5   6   13.10    1.30
  -7  -5   6   12.40    1.20
  -7  -5   6   13.20    1.40
  -7   5   6   11.50    0.70
  -7   5   6   10.80    1.20
   7   5  -6    9.60    1.10
  -7   5   6   10.40    1.10
   7   5  -6   11.70    1.20
   7   5  -6   13.70    1.40
   7   5  -6   12.00    1.30
  -7   5   6   11.90    1.00
   7   5  -6   12.70    1.20
  -6  -5   6   41.10    2.00
  -6  -5   6   41.40    1.90
  -6  -5   6   46.10    2.20
  -6  -5   6   44.30    2.10
   6  -5  -6   38.60    1.30
  -6  -5   6   43.80    2.20
   6  -5  -6   40.10    1.70
  -6   5   6   41.30    2.00
   6   5  -6   41.20    1.90
   6   5  -6   42.90    1.90
  -6   5   6   42.40    1.70
   6   5  -6   40.60    2.10
   6   5  -6   41.00    2.10
  -6   5   6   40.70    1.30
   6   5  -6   40.50    1.90
  -6   5   6   43.80    1.80
  -5  -5   6   29.70    1.50
  -5  -5   6   26.80    1.50
  -5  -5   6   25.80    1.60
   5  -5  -6   29.20    1.30
  -5  -5   6   28.00    1.70
   5  -5  -6   26.90    1.00
  -5  -5   6   28.30    1.60
  -5  -5   6   28.20    1.60
  -5   5   6   30.90    1.60
  -5   5   6   26.30    0.90
   5   5  -6   30.80    1.70
   5   5  -6   27.70    1.50
  -5   5   6   28.50    1.20
   5   5  -6   29.00    1.50
   5   5  -6   29.70    1.50
  -5   5   6   28.60    1.30
   5   5  -6   27.50    1.60
  -4  -5   6   14.90    1.20
  -4  -5   6   15.00    1.00
  -4  -5   6   15.30    1.20
  -4  -5   6   12.90    1.10
  -4  -5   6   12.60    1.10
   4  -5  -6   14.00    0.80
  -4  -5   6   14.30    1.20
  -4   5   6   13.70    0.70
   4   5  -6   14.90    1.00
  -4   5   6   16.00    1.10
  -4   5   6   14.10    0.60
  -4   5   6   14.80    0.80
  -4   5   6   14.90    0.80
  -4   5   6   13.60    0.60
   4   5  -6   13.60    1.10
   4   5  -6   16.20    1.10
   4   5  -6   15.60    1.20
   4   5  -6   13.10    1.10
   3  -5  -6   51.59    1.40
  -3  -5   6   46.00    2.00
  -3  -5   6   47.70    2.00
  -3  -5   6   51.29    2.10
  -3  -5   6   48.30    2.00
  -3  -5   6   49.70    1.90
  -3  -5   6   52.79    2.10
   3   5  -6   48.40    2.10
  -3   5   6   49.80    1.70
   3   5  -6   49.60    2.00
  -3   5   6   48.50    1.40
  -3   5   6   52.69    2.00
  -3   5   6   47.60    1.50
   3   5  -6   47.30    1.90
  -3   5   6   49.50    1.50
   3   5  -6   49.70    2.00
   3   5  -6   49.40    2.00
  -2  -5   6   70.29    2.60
  -2  -5   6   69.49    2.30
  -2  -5   6   66.29    2.50
  -2  -5   6   70.19    2.50
  -2  -5   6   70.19    2.50
   2   5  -6   70.19    2.50
   2   5  -6   68.49    2.50
  -2   5   6   70.19    2.30
  -2   5   6   70.79    2.10
  -2   5   6   70.09    2.30
   2   5  -6   69.99    2.50
   2   5  -6   68.19    2.50
   2   5  -6   66.59    2.40
  -2   5   6   70.59    2.30
  -1  -5   6   41.50    1.70
  -1  -5   6   39.90    1.80
  -1  -5   6   39.80    1.80
  -1  -5   6   41.40    1.80
   1   5  -6   40.20    1.70
   1   5  -6   40.50    1.80
  -1   5   6   38.00    1.60
   1   5  -6   39.80    1.80
  -1   5   6   41.50    1.50
   1   5  -6   38.10    1.70
   1   5  -6   39.70    1.70
  -1   5   6   39.90    1.50
  -1   5   6   41.30    1.50
   1   5  -6   43.50    1.70
   0  -5   6   20.20    1.30
   0  -5   6   21.20    1.20
   0  -5   6   20.90    1.30
   0   5  -6   21.30    1.30
   0   5   6   21.30    1.00
   0   5   6   21.00    0.90
   0   5  -6   19.60    1.30
   0   5   6   21.70    1.10
   0   5   6   21.60    1.20
   0   5  -6   22.60    1.30
   0   5  -6   20.10    1.20
   0   5  -6   20.20    1.30
   0   5  -6   18.70    1.20
   0   5   6   19.90    0.70
   1  -5   6  100.99    3.50
  -1  -5  -6  110.19    3.30
   1  -5   6  106.09    3.40
  -1  -5  -6  104.99    2.70
   1  -5   6   99.99    3.40
   1   5   6  104.49    3.30
   1   5   6  108.09    2.80
   1   5   6  104.09    2.80
  -1   5  -6  104.79    3.20
  -1   5  -6  101.89    3.40
   1   5   6  103.09    3.00
   1   5   6  104.29    2.80
  -1   5  -6  102.59    3.40
   1   5   6  113.29    3.50
  -1   5  -6  109.59    3.40
   1   5   6  105.99    2.70
  -1   5  -6  105.49    3.30
  -1   5  -6  103.89    3.40
   2  -5   6   38.90    1.80
   2  -5   6   40.10    2.00
  -2  -5  -6   34.70    1.30
  -2  -5  -6   34.90    1.70
   2  -5   6   36.20    1.60
  -2  -5  -6   38.00    1.50
   2  -5   6   41.80    1.90
   2   5   6   39.30    1.90
   2   5   6   38.70    1.30
  -2   5  -6   37.50    1.80
  -2   5  -6   38.70    1.80
   2   5   6   37.80    1.80
  -2   5  -6   37.10    1.90
  -2   5  -6   39.70    1.80
  -2   5  -6   37.60    1.90
  -2   5  -6   37.90    1.60
   2   5   6   37.20    1.30
   2   5   6   35.60    1.40
   3  -5   6   81.29    2.80
  -3  -5  -6   84.69    2.60
  -3  -5  -6   86.99    3.10
  -3  -5  -6   85.79    2.70
   3  -5   6   85.89    3.10
   3  -5   6   84.99    3.10
   3  -5   6   85.29    3.30
  -3   5  -6   87.19    2.90
   3   5   6   84.89    2.60
  -3   5  -6   86.19    3.20
  -3   5  -6   87.69    3.10
  -3   5  -6   85.99    3.10
   3   5   6   86.69    2.60
   3   5   6   85.69    3.10
   3   5   6   84.69    3.20
   3   5   6   83.79    2.60
  -4  -5  -6    0.50    0.40
   4  -5   6    0.90    0.50
   4  -5   6    0.50    0.60
  -4  -5  -6    0.60    0.40
  -4  -5  -6    1.40    0.60
   4  -5   6    0.90    0.60
   4  -5   6    0.30    0.70
  -4   5  -6    1.20    0.60
  -4   5  -6    0.70    0.60
   4   5   6    0.50    0.60
   4   5   6    1.40    0.50
   4   5   6    0.60    0.40
  -4   5  -6    0.70    0.60
   4   5   6    1.20    0.70
  -5  -5  -6    5.20    0.80
  -5  -5  -6    3.50    0.70
  -5  -5  -6    2.80    0.80
   5  -5   6    4.40    1.10
   5  -5   6    2.70    0.60
   5  -5   6    2.20    0.80
  -5  -5  -6    3.30    0.30
   5   5   6    3.30    0.80
  -5   5  -6    5.50    1.10
  -5   5  -6    3.10    0.70
   5   5   6    2.30    0.80
  -5   5  -6    3.10    0.80
   5   5   6    3.20    0.70
   5   5   6    3.90    0.70
  -6  -5  -6   21.90    1.00
   6  -5   6   24.90    1.90
  -6  -5  -6   23.70    1.50
   6  -5   6   22.00    1.40
   6  -5   6   25.70    2.10
  -6   5  -6   22.50    2.20
   6   5   6   24.40    1.50
  -6   5  -6   25.20    1.70
  -7  -5  -6   19.20    1.60
   7  -5   6   17.30    1.30
  -7  -5  -6   19.10    1.10
   7  -5   6   21.00    1.90
  -7   5  -6   20.90    1.70
  -7   5  -6   19.40    1.30
  -8  -6   6    7.60    1.00
  -8  -6   6    9.40    1.50
  -8  -6   6    7.50    1.10
   8   6  -6    9.10    1.10
   8   6  -6    8.40    1.30
  -8   6   6    6.50    0.90
   8   6  -6    9.30    1.40
  -8   6   6    9.30    1.10
   8   6  -6    6.70    1.00
  -7  -6   6    0.30    0.60
  -7  -6   6    0.70    0.70
   7  -6  -6    0.70    0.30
  -7  -6   6    1.10    0.80
   7  -6  -6    0.10    0.50
  -7  -6   6    0.30    0.50
  -7  -6   6    0.40    0.60
   7   6  -6    0.70    0.70
  -7   6   6   -0.40    0.40
   7   6  -6    1.60    0.70
   7   6  -6    0.40    0.60
   7   6  -6   -0.10    0.60
  -7   6   6    0.60    0.60
   7   6  -6    1.60    0.80
  -7   6   6    0.60    0.50
  -6  -6   6   22.80    1.40
   6  -6  -6   21.70    1.00
  -6  -6   6   20.70    1.50
  -6  -6   6   22.50    1.70
   6  -6  -6   21.80    1.30
  -6  -6   6   22.70    1.70
  -6  -6   6   20.60    1.50
  -6   6   6   22.00    1.50
   6   6  -6   24.80    1.80
  -6   6   6   21.70    1.20
   6   6  -6   21.70    1.60
   6   6  -6   22.60    1.40
   6   6  -6   22.30    1.50
   6   6  -6   23.00    1.50
  -6   6   6   21.60    1.20
  -5  -6   6   16.80    1.40
  -5  -6   6   16.80    1.40
  -5  -6   6   16.70    1.30
  -5  -6   6   15.80    1.10
  -5  -6   6   17.20    1.30
   5  -6  -6   16.80    0.90
   5  -6  -6   15.50    1.00
  -5  -6   6   15.50    1.30
   5   6  -6   16.20    1.30
   5   6  -6   15.80    1.20
   5   6  -6   16.40    1.30
  -5   6   6   16.40    0.90
   5   6  -6   14.90    1.40
  -5   6   6   14.10    0.90
  -5   6   6   16.30    1.30
   5   6  -6   15.60    1.20
  -4  -6   6   17.30    1.30
  -4  -6   6   15.70    1.10
  -4  -6   6   18.30    1.40
   4  -6  -6   16.40    0.90
  -4  -6   6   18.40    1.40
  -4  -6   6   17.90    1.30
   4  -6  -6   17.80    0.90
  -4  -6   6   18.70    1.40
   4   6  -6   18.50    1.40
  -4   6   6   19.20    1.30
  -4   6   6   18.50    1.00
   4   6  -6   15.20    1.30
  -4   6   6   18.00    0.90
   4   6  -6   15.60    1.20
   4   6  -6   18.70    1.20
   4   6  -6   15.30    1.20
  -4   6   6   15.90    0.80
   3  -6  -6   45.70    1.30
  -3  -6   6   42.20    1.70
  -3  -6   6   40.30    1.90
  -3  -6   6   49.40    2.00
  -3  -6   6   46.30    2.10
  -3  -6   6   47.20    2.10
  -3   6   6   43.40    1.70
   3   6  -6   43.70    2.00
  -3   6   6   44.70    1.90
   3   6  -6   44.00    1.90
   3   6  -6   46.30    2.00
   3   6  -6   44.70    2.00
  -3   6   6   44.00    1.30
   3   6  -6   45.80    2.10
  -3   6   6   44.90    1.30
  -3   6   6   44.20    1.40
  -3   6   6   44.80    1.40
  -2  -6   6   49.10    2.10
  -2  -6   6   49.99    2.00
  -2  -6   6   47.80    2.00
  -2  -6   6   52.29    2.20
  -2  -6   6   49.60    1.90
   2   6  -6   47.50    2.00
   2   6  -6   47.80    2.10
  -2   6   6   47.10    1.80
  -2   6   6   50.19    1.90
   2   6  -6   50.49    2.10
   2   6  -6   51.09    2.10
  -2   6   6   47.90    1.90
  -2   6   6   45.80    1.50
   2   6  -6   48.40    2.10
  -1  -6   6   12.30    1.00
  -1  -6   6   10.80    1.10
  -1  -6   6   12.20    1.20
  -1  -6   6   11.90    1.00
  -1  -6   6   12.20    1.00
   1   6  -6   11.80    1.10
  -1   6   6   10.30    0.80
   1   6  -6   11.00    1.00
  -1   6   6   11.50    1.00
   1   6  -6   11.50    1.10
  -1   6   6   10.70    0.80
   1   6  -6   11.50    1.00
   1   6  -6   11.30    1.10
  -1   6   6   10.50    0.80
   1   6  -6   13.30    1.00
   0  -6   6  132.29    3.90
   0  -6   6  120.89    4.10
   0  -6   6  129.49    4.10
   0   6  -6  130.19    4.00
   0   6  -6  128.89    3.90
   0   6  -6  127.59    4.10
   0   6   6  124.29    3.70
   0   6   6  130.29    3.50
   0   6  -6  125.39    4.00
   0   6  -6  115.59    3.90
   0   6   6  124.29    3.20
   0   6   6  130.79    4.00
   0   6   6  123.49    3.40
   0   6  -6  126.99    3.90
   1  -6   6   52.69    2.40
   1  -6   6   54.79    2.30
  -1  -6  -6   56.09    1.60
   1  -6   6   55.69    2.20
  -1  -6  -6   54.89    2.20
   1   6   6   58.29    1.60
  -1   6  -6   55.59    2.30
  -1   6  -6   56.29    2.40
  -1   6  -6   54.09    2.30
   1   6   6   54.29    2.10
   1   6   6   55.19    1.60
  -1   6  -6   54.39    2.30
  -1   6  -6   57.69    2.40
   1   6   6   53.79    1.70
   1   6   6   57.79    2.40
   1   6   6   53.59    1.70
   1   6   6   53.79    1.70
  -1   6  -6   54.39    2.20
   2  -6   6    6.30    1.00
   2  -6   6    4.60    0.80
  -2  -6  -6    3.40    0.70
  -2  -6  -6    5.50    0.50
   2  -6   6    7.20    0.90
  -2   6  -6    5.80    0.90
  -2   6  -6    3.60    0.70
  -2   6  -6    6.80    1.00
   2   6   6    4.90    0.80
   2   6   6    4.90    0.50
  -2   6  -6    5.80    0.80
   2   6   6    5.50    0.60
  -2   6  -6    5.00    0.90
   2   6   6    5.10    0.90
   2   6   6    4.60    0.40
   2   6   6    5.90    0.60
   2   6   6    4.00    0.40
   2   6   6    5.50    0.60
  -2   6  -6    5.10    0.90
   3  -6   6    7.40    1.10
   3  -6   6    5.30    0.80
   3  -6   6    3.50    0.90
   3  -6   6    4.50    0.60
  -3  -6  -6    4.20    0.60
  -3  -6  -6    4.30    0.80
  -3  -6  -6    5.30    0.60
  -3   6  -6    6.00    1.00
  -3   6  -6    3.80    0.90
  -3   6  -6    5.00    0.90
  -3   6  -6    7.20    1.00
   3   6   6    5.70    0.60
   3   6   6    6.10    1.00
  -3   6  -6    4.70    0.70
   3   6   6    7.00    1.00
   3   6   6    4.90    0.60
   4  -6   6    0.00    0.70
  -4  -6  -6    1.20    0.70
   4  -6   6    0.40    0.40
   4  -6   6    0.90    0.80
  -4  -6  -6    0.90    0.50
  -4  -6  -6    1.60    0.40
  -4   6  -6    0.30    0.50
   4   6   6    1.50    0.50
  -4   6  -6    1.10    0.70
   4   6   6    0.80    0.50
  -4   6  -6    1.80    0.70
   4   6   6    0.80    0.60
  -4   6  -6    1.20    0.70
   4   6   6    0.40    0.60
  -5  -6  -6   16.50    1.60
  -5  -6  -6   15.70    1.20
   5  -6   6   18.20    1.70
   5  -6   6   19.50    1.90
   5  -6   6   17.50    1.20
  -5  -6  -6   15.90    1.10
   5   6   6   17.50    1.20
   5   6   6   17.30    1.50
  -5   6  -6   16.40    1.70
   5   6   6   16.60    1.60
  -5   6  -6   16.80    1.30
  -5   6  -6   16.50    1.50
   5   6   6   18.00    1.30
   6  -6   6    2.20    1.00
   6  -6   6    0.70    0.50
  -6  -6  -6    2.20    0.60
   6   6   6    0.30    0.60
  -6   6  -6    1.40    0.80
  -8  -7   6    8.00    1.00
   8  -7  -6    8.50    1.00
  -8   7   6    8.70    1.10
   8   7  -6    5.50    1.10
   8   7  -6    6.40    1.00
   7  -7  -6    7.50    0.90
  -7  -7   6    9.50    1.00
  -7  -7   6    8.60    1.30
  -7  -7   6    7.00    1.10
   7  -7  -6    7.60    0.70
  -7  -7   6    9.30    1.50
   7   7  -6    9.60    1.40
   7   7  -6    7.50    1.10
  -7   7   6    8.80    1.00
  -7   7   6    8.90    1.00
  -7   7   6   10.30    1.30
   7   7  -6   11.00    1.30
   7   7  -6   10.60    1.40
   6  -7  -6    2.10    0.50
  -6  -7   6    1.00    0.70
  -6  -7   6    1.90    0.80
   6  -7  -6    3.10    0.60
  -6  -7   6    1.00    0.80
  -6  -7   6    1.70    0.50
   6   7  -6    0.90    0.60
   6   7  -6    3.00    0.70
   6   7  -6    0.40    0.70
   6   7  -6    1.70    0.80
  -6   7   6    0.40    0.50
  -6   7   6    1.30    0.50
   6   7  -6    1.90    0.70
  -6   7   6    2.40    0.50
   5  -7  -6    5.40    0.70
  -5  -7   6    5.10    0.70
  -5  -7   6    5.80    1.00
   5  -7  -6    6.20    0.70
  -5  -7   6    5.90    1.00
  -5  -7   6    7.70    1.20
  -5  -7   6    5.60    0.90
   5   7  -6    6.70    1.00
   5   7  -6    5.10    0.80
  -5   7   6    7.00    0.70
   5   7  -6    5.90    1.00
  -5   7   6    7.30    1.00
   5   7  -6    6.50    0.90
   5   7  -6    4.90    0.90
  -5   7   6    4.90    0.60
  -4  -7   6    4.80    0.90
  -4  -7   6    3.70    0.80
  -4  -7   6    2.90    0.80
  -4  -7   6    4.00    0.80
  -4  -7   6    3.50    0.60
   4  -7  -6    3.10    0.50
   4  -7  -6    2.80    0.60
  -4   7   6    2.80    0.50
   4   7  -6    2.50    0.70
  -4   7   6    4.60    0.50
   4   7  -6    3.40    0.90
  -4   7   6    3.30    0.70
   4   7  -6    3.00    0.70
  -4   7   6    3.60    0.50
   4   7  -6    3.30    0.70
   4   7  -6    3.20    0.80
  -4   7   6    3.30    0.40
   3  -7  -6   48.30    1.40
  -3  -7   6   47.10    2.10
  -3  -7   6   46.70    2.20
  -3  -7   6   46.20    2.20
  -3  -7   6   45.80    2.10
  -3  -7   6   47.60    1.80
  -3   7   6   47.00    1.40
   3   7  -6   46.50    2.20
   3   7  -6   50.39    2.20
  -3   7   6   47.50    2.00
   3   7  -6   49.20    2.10
  -3   7   6   45.90    1.40
   3   7  -6   49.30    2.10
   3   7  -6   43.60    2.20
  -3   7   6   45.40    1.50
  -3   7   6   45.70    1.90
  -2  -7   6   16.70    1.40
  -2  -7   6   19.10    1.10
  -2  -7   6   16.20    1.30
  -2  -7   6   17.90    1.30
   2   7  -6   18.50    1.30
   2   7  -6   16.50    1.20
  -2   7   6   18.90    1.20
  -2   7   6   16.90    0.80
   2   7  -6   17.50    1.40
  -2   7   6   18.10    1.00
  -2   7   6   17.80    1.20
   2   7  -6   20.20    1.40
   2   7  -6   18.90    1.40
  -1  -7   6   69.29    2.60
  -1  -7   6   75.39    2.90
  -1  -7   6   71.09    2.40
  -1  -7   6   76.39    2.80
   1   7  -6   69.39    2.70
  -1   7   6   68.79    2.20
  -1   7   6   71.49    2.40
  -1   7   6   68.69    2.20
  -1   7   6   71.99    2.70
   1   7  -6   66.39    2.40
   1   7  -6   68.59    2.60
   1   7  -6   70.99    2.80
   1   7  -6   68.99    2.80
   1   7  -6   68.19    2.70
   0  -7   6  205.98    5.60
   0  -7   6  205.58    6.10
   0  -7   6  213.18    5.70
   0  -7   6  200.98    5.90
   0   7  -6  205.18    6.00
   0   7  -6  198.78    5.90
   0   7  -6  200.28    5.90
   0   7   6  199.18    5.40
   0   7   6  195.28    5.50
   0   7   6  192.48    5.10
   0   7   6  200.68    5.90
   0   7  -6  202.58    5.70
   0   7  -6  200.98    5.80
   0   7   6  193.38    5.10
   0   7  -6  202.88    5.90
   1  -7   6   20.00    1.60
   1  -7   6   20.50    1.30
  -1  -7  -6   21.30    1.30
   1  -7   6   22.90    1.60
  -1  -7  -6   19.80    0.80
  -1   7  -6   19.90    1.40
  -1   7  -6   19.50    1.50
   1   7   6   20.60    0.80
   1   7   6   19.00    0.80
   1   7   6   19.20    0.80
  -1   7  -6   20.60    1.40
  -1   7  -6   19.50    1.50
   1   7   6   20.60    0.90
   1   7   6   19.30    1.00
  -1   7  -6   18.90    1.50
   1   7   6   19.10    1.50
   1   7   6   19.70    1.20
  -1   7  -6   20.50    1.40
   2  -7   6   34.40    2.10
   2  -7   6   36.70    2.00
  -2  -7  -6   31.00    1.70
   2  -7   6   35.20    1.80
  -2  -7  -6   33.40    1.30
   2   7   6   31.00    1.20
  -2   7  -6   34.90    1.90
  -2   7  -6   32.10    1.60
   2   7   6   31.30    1.10
  -2   7  -6   32.60    1.80
  -2   7  -6   33.20    1.80
   2   7   6   30.60    1.70
   2   7   6   34.50    1.30
  -2   7  -6   37.50    1.90
   2   7   6   34.50    1.20
   2   7   6   32.30    2.00
   2   7   6   31.80    1.30
  -2   7  -6   34.70    1.90
   3  -7   6    9.90    1.30
   3  -7   6    9.40    1.30
   3  -7   6    9.90    0.80
  -3  -7  -6    9.60    0.80
   3  -7   6   10.00    1.20
  -3  -7  -6    8.80    1.10
   3   7   6   11.90    1.40
   3   7   6   10.00    0.90
  -3   7  -6    9.80    1.00
   3   7   6   10.70    0.80
   3   7   6   11.20    0.90
  -3   7  -6   10.50    1.20
   3   7   6   10.50    1.10
  -3   7  -6    9.00    1.20
  -3   7  -6    9.90    1.20
  -3   7  -6    8.70    1.10
   4  -7   6   -0.10    0.60
   4  -7   6    1.10    0.80
  -4  -7  -6    0.60    0.30
  -4  -7  -6    0.50    0.40
   4  -7   6    0.30    0.40
  -4  -7  -6    0.80    0.60
   4   7   6    0.30    0.40
   4   7   6    0.00    0.40
  -4   7  -6   -0.30    0.60
  -4   7  -6    0.50    0.60
  -4   7  -6    0.40    0.50
  -4   7  -6    0.00    0.70
   4   7   6   -0.10    0.70
   4   7   6    0.50    0.60
   5  -7   6    0.00    0.80
  -5  -7  -6    0.10    0.90
   5  -7   6    0.50    0.40
   5  -7   6    0.10    0.90
  -5  -7  -6    0.10    0.30
  -5   7  -6    0.30    0.60
  -5   7  -6   -0.10    0.70
   5   7   6    0.40    0.50
  -5   7  -6    0.40    0.80
  -6  -7  -6   16.00    1.10
   6  -7   6   14.30    1.70
   6  -7   6   14.50    1.10
  -6   7  -6   21.00    1.70
  -7  -8   6    6.00    0.80
   7  -8  -6    5.80    0.70
   7  -8  -6    4.80    0.80
  -7   8   6    5.00    0.80
   7   8  -6    6.50    1.10
   7   8  -6    3.80    0.90
  -7   8   6    5.80    0.80
   7   8  -6    6.50    1.60
  -6  -8   6    7.30    1.50
   6  -8  -6    6.10    0.80
  -6  -8   6    5.50    1.10
   6  -8  -6    6.90    0.80
  -6  -8   6    4.40    0.70
  -6  -8   6    6.00    1.00
  -6   8   6    5.60    0.70
  -6   8   6    4.50    0.70
   6   8  -6    4.30    0.90
   6   8  -6    6.00    1.20
   6   8  -6    5.60    1.10
   6   8  -6    6.70    1.00
  -6   8   6    5.40    1.00
  -5  -8   6    2.80    0.80
  -5  -8   6    3.20    0.90
  -5  -8   6    2.00    0.90
  -5  -8   6    1.00    0.70
   5  -8  -6    3.00    0.60
   5  -8  -6    2.60    0.50
  -5  -8   6    2.60    0.50
  -5   8   6    2.30    0.60
  -5   8   6    3.90    0.60
  -5   8   6    2.90    0.70
   5   8  -6    2.90    0.90
   5   8  -6    3.20    0.90
   5   8  -6    4.10    1.00
  -5   8   6    2.90    0.80
   5   8  -6    3.00    0.80
  -5   8   6    1.70    0.50
   5   8  -6    2.80    0.80
  -5   8   6    2.90    0.60
  -4  -8   6    4.80    0.90
   4  -8  -6    5.70    0.80
   4  -8  -6    6.00    0.60
  -4  -8   6    5.20    1.00
  -4  -8   6    7.20    1.10
  -4  -8   6    6.20    0.70
  -4  -8   6    6.00    1.00
  -4   8   6    5.90    0.60
  -4   8   6    5.50    0.60
  -4   8   6    6.70    0.80
   4   8  -6    6.20    0.90
  -4   8   6    5.10    0.90
  -4   8   6    6.50    0.60
   4   8  -6    8.00    1.10
   4   8  -6    4.60    0.80
   4   8  -6    5.40    1.00
   4   8  -6    6.90    1.10
  -3  -8   6   46.60    2.40
  -3  -8   6   42.20    2.20
  -3  -8   6   43.70    2.20
  -3  -8   6   44.30    1.70
   3   8  -6   43.60    2.30
  -3   8   6   43.60    2.10
  -3   8   6   48.50    1.60
   3   8  -6   46.00    2.20
  -3   8   6   44.90    2.00
   3   8  -6   50.59    2.20
  -3   8   6   46.80    1.40
   3   8  -6   52.29    2.30
  -3   8   6   47.00    1.40
   3   8  -6   46.10    2.30
  -2  -8   6    4.70    0.80
  -2  -8   6    6.70    0.70
  -2  -8   6    4.80    0.90
  -2  -8   6    7.40    1.00
   2   8  -6    7.30    1.00
  -2   8   6    5.40    0.80
  -2   8   6    5.70    0.70
  -2   8   6    5.10    0.50
   2   8  -6    7.10    1.00
  -2   8   6    5.10    0.80
   2   8  -6    4.60    0.80
   2   8  -6    3.90    0.80
   2   8  -6    6.70    1.10
  -1  -8   6   66.49    2.40
  -1  -8   6   67.89    2.80
  -1  -8   6   71.39    3.00
  -1  -8   6   64.99    2.50
  -1   8   6   64.89    2.00
   1   8  -6   66.19    2.40
   1   8  -6   68.39    2.80
  -1   8   6   64.79    2.00
   1   8  -6   64.59    2.80
   1   8  -6   70.49    2.80
  -1   8   6   67.29    2.20
   1   8  -6   66.79    2.70
   1   8  -6   64.69    2.80
  -1   8   6   66.09    2.70
   0  -8   6    2.60    0.90
   0  -8   6    2.70    0.60
   0  -8   6    1.80    0.60
   0  -8   6    3.40    0.90
   0   8  -6    2.20    0.80
   0   8  -6    4.60    0.90
   0   8  -6    2.20    0.80
   0   8  -6    2.10    0.80
   0   8  -6    3.60    0.70
   0   8  -6    3.50    0.80
   0   8   6    2.70    0.50
   0   8   6    3.10    0.60
   0   8   6    2.50    0.30
   0   8   6    2.80    0.80
   1  -8   6    3.90    0.70
   1  -8   6    2.30    0.60
   1  -8   6    3.60    0.90
   1  -8   6    3.90    1.00
  -1  -8  -6    2.10    0.60
  -1   8  -6    3.40    0.80
   1   8   6    1.60    0.60
  -1   8  -6    4.20    0.90
  -1   8  -6    2.90    0.70
   1   8   6    4.90    1.00
  -1   8  -6    1.80    0.70
  -1   8  -6    1.80    0.80
   1   8   6    2.70    0.40
   1   8   6    3.40    0.30
  -1   8  -6    3.10    0.80
   1   8   6    2.70    0.50
   2  -8   6    5.30    1.10
   2  -8   6    4.30    0.80
  -2  -8  -6    7.40    0.70
   2  -8   6    6.20    1.20
   2  -8   6    7.00    0.80
  -2  -8  -6    4.40    0.80
   2   8   6    6.70    0.90
   2   8   6    6.40    0.70
  -2   8  -6    5.00    0.90
  -2   8  -6    8.80    1.20
   2   8   6    6.10    0.60
  -2   8  -6    6.20    1.10
   2   8   6    6.00    1.10
   2   8   6    6.40    0.70
  -2   8  -6    5.80    1.00
   2   8   6    7.00    0.70
   2   8   6    6.50    0.60
  -2   8  -6    4.70    0.80
  -2   8  -6    7.10    1.10
  -3  -8  -6    5.60    0.90
   3  -8   6    7.20    0.80
   3  -8   6    9.30    1.30
   3  -8   6    5.70    1.10
  -3  -8  -6    6.10    0.70
   3   8   6    7.80    0.40
   3   8   6    8.20    0.80
  -3   8  -6    7.20    1.10
  -3   8  -6    8.90    1.20
   3   8   6    9.60    0.90
   3   8   6    9.00    1.30
  -3   8  -6    9.50    1.30
   3   8   6    7.20    1.00
  -3   8  -6    9.40    1.20
  -3   8  -6    8.70    1.20
   3   8   6    8.10    0.50
   3   8   6    8.00    0.80
  -3   8  -6    7.30    1.00
  -4  -8  -6    0.40    0.70
   4  -8   6   -0.60    0.60
  -4  -8  -6    0.30    0.40
   4  -8   6    1.00    0.90
   4  -8   6    0.40    0.40
  -4   8  -6    1.40    0.80
  -4   8  -6    0.30    0.70
   4   8   6    0.20    0.50
   4   8   6    0.70    0.50
   4   8   6    0.00    0.50
   4   8   6    1.40    0.80
  -4   8  -6    0.50    0.70
   5  -8   6    8.10    0.80
   5  -8   6   10.60    1.50
  -5   8  -6   11.80    2.20
  -5   8  -6   12.00    1.40
   5   8   6   12.30    1.20
   5   8   6   11.20    1.20
   6  -9  -6    2.80    0.60
   6  -9  -6    2.80    0.60
  -6  -9   6    3.60    0.50
  -6   9   6    3.70    0.90
  -6   9   6    3.00    0.60
  -6   9   6    3.30    0.70
   6   9  -6    4.00    1.10
  -5  -9   6    1.80    0.80
   5  -9  -6    1.70    0.60
  -5  -9   6    1.40    0.80
  -5  -9   6    1.50    0.80
  -5  -9   6    1.30    0.40
  -5  -9   6    1.50    0.80
   5  -9  -6    0.60    0.40
  -5   9   6    1.80    0.70
   5   9  -6    1.30    0.80
   5   9  -6    3.10    1.00
   5   9  -6    1.70    0.70
  -5   9   6    1.40    0.50
  -5   9   6    1.10    0.50
  -5   9   6    0.90    0.50
   5   9  -6    2.30    0.90
  -5   9   6    1.40    0.50
  -4  -9   6    1.00    0.80
   4  -9  -6    1.40    0.60
   4  -9  -6    1.60    0.40
  -4  -9   6    1.00    0.70
  -4  -9   6    0.60    0.70
  -4  -9   6    0.90    0.40
  -4   9   6    1.20    0.60
  -4   9   6    1.90    0.40
   4   9  -6    0.90    0.70
  -4   9   6    1.20    0.50
   4   9  -6   -0.40    0.70
   4   9  -6    0.60    0.70
  -4   9   6    1.30    0.50
  -4   9   6    2.10    0.60
  -4   9   6    1.60    0.40
   4   9  -6    1.10    0.70
   4   9  -6    0.90    0.70
  -3  -9   6   25.60    2.00
  -3  -9   6   25.50    1.80
  -3  -9   6   23.40    1.10
  -3  -9   6   26.00    1.70
  -3   9   6   25.00    1.40
   3   9  -6   26.20    1.80
  -3   9   6   25.20    1.60
  -3   9   6   25.00    0.90
   3   9  -6   24.70    1.70
  -3   9   6   25.30    1.60
  -3   9   6   24.50    1.20
   3   9  -6   25.40    1.80
   3   9  -6   28.00    1.90
  -3   9   6   23.70    1.30
   3   9  -6   24.80    1.80
  -3   9   6   24.90    0.90
  -2  -9   6    7.10    0.70
  -2  -9   6    7.80    1.20
  -2  -9   6    7.70    1.10
  -2  -9   6    4.60    0.90
  -2   9   6    6.40    0.70
   2   9  -6    6.70    1.10
   2   9  -6    6.80    1.10
  -2   9   6    7.50    0.70
   2   9  -6    5.00    0.90
  -2   9   6    8.30    1.10
   2   9  -6    7.80    1.20
   2   9  -6    6.00    1.00
  -2   9   6    5.90    0.90
  -1  -9   6    4.50    0.90
  -1  -9   6    3.60    0.80
  -1  -9   6    5.50    0.70
  -1  -9   6    5.90    1.10
  -1   9   6    5.50    0.60
   1   9  -6    4.50    0.90
   1   9  -6    6.20    1.10
   1   9  -6    4.20    0.90
  -1   9   6    5.20    0.40
   1   9  -6    6.60    1.10
  -1   9   6    4.30    0.90
  -1   9   6    5.20    0.40
  -1   9   6    4.40    0.60
   1   9  -6    3.90    0.80
   0  -9   6    3.90    0.70
   0  -9   6    3.70    0.90
   0  -9   6    3.30    0.90
   0  -9   6    4.10    0.70
   0   9  -6    2.30    0.60
   0   9  -6    2.30    0.80
   0   9  -6    3.20    0.90
   0   9   6    3.40    0.60
   0   9   6    3.20    0.60
   0   9  -6    2.10    0.80
   0   9  -6    2.10    0.80
   0   9   6    3.00    0.80
   0   9  -6    3.90    0.90
   1  -9   6   44.40    2.40
   1  -9   6   42.70    1.90
   1  -9   6   43.00    2.00
   1  -9   6   42.70    2.60
   1   9   6   42.90    2.40
  -1   9  -6   41.90    2.40
  -1   9  -6   40.50    2.20
   1   9   6   46.00    1.90
   1   9   6   44.20    1.70
  -1   9  -6   45.10    2.30
  -1   9  -6   42.70    2.10
   1   9   6   47.60    2.00
  -1   9  -6   45.70    2.30
   1   9   6   42.40    1.30
   1   9   6   43.10    1.40
  -1   9  -6   40.10    2.30
   2  -9   6    3.00    0.60
   2  -9   6    3.20    1.00
   2  -9   6    1.90    0.90
  -2  -9  -6    2.40    0.40
   2  -9   6    2.20    0.50
  -2  -9  -6    2.70    0.70
   2   9   6    2.20    0.50
  -2   9  -6    2.40    0.70
   2   9   6    2.80    0.60
  -2   9  -6    3.90    1.00
   2   9   6    2.10    0.90
   2   9   6    2.40    0.40
  -2   9  -6    2.60    0.90
  -2   9  -6    2.60    0.70
   2   9   6    2.90    0.70
   2   9   6    2.30    0.50
  -2   9  -6    2.00    0.90
  -2   9  -6    1.90    0.80
   3  -9   6    6.50    1.30
   3  -9   6    5.00    0.70
  -3  -9  -6    3.70    0.90
   3  -9   6    5.40    0.60
  -3  -9  -6    4.70    0.60
   3   9   6    5.10    0.60
   3   9   6    4.80    0.50
  -3   9  -6    5.10    1.20
   3   9   6    5.00    0.70
  -3   9  -6    4.20    1.00
  -3   9  -6    4.20    1.00
  -3   9  -6    5.40    1.40
   3   9   6    5.80    0.80
   3   9   6    5.40    0.90
   3   9   6    6.00    0.50
   4  -9   6    7.90    0.70
   4  -9   6   10.30    1.50
   4  -9   6    7.80    0.70
  -4   9  -6    8.40    1.30
   4   9   6   10.30    1.00
  -4   9  -6    8.30    1.30
   4   9   6    7.40    0.90
   5 -10  -6    4.90    0.60
   5 -10  -6    5.90    0.90
  -5  10   6    5.10    0.80
  -5  10   6    6.00    0.70
  -5  10   6    6.60    1.00
   5  10  -6    7.50    1.30
  -5  10   6    6.00    0.80
   4 -10  -6    1.10    0.60
  -4 -10   6    1.10    0.80
   4  10  -6    0.90    0.90
  -4  10   6    1.20    0.60
  -4  10   6    0.80    0.50
  -4  10   6    1.50    0.40
  -4  10   6    0.80    0.60
  -4  10   6    1.50    0.40
  -3 -10   6    4.70    1.00
  -3 -10   6    2.40    0.40
  -3 -10   6    4.10    1.40
  -3 -10   6    1.40    0.70
   3  10  -6    1.20    0.80
   3  10  -6    1.50    1.10
  -3  10   6    2.60    0.60
  -3  10   6    2.10    0.80
  -3  10   6    2.70    0.30
   3  10  -6    2.80    0.90
  -3  10   6    2.20    0.70
   3  10  -6    1.40    0.90
  -3  10   6    2.30    0.50
  -3  10   6    2.10    0.50
  -2 -10   6    0.10    0.30
  -2 -10   6    0.60    0.70
  -2 -10   6   -0.20    0.70
  -2  10   6    0.20    0.30
   2  10  -6    1.00    0.80
   2  10  -6    0.10    0.60
  -2  10   6    0.10    0.30
   2  10  -6   -0.20    0.70
  -2  10   6    0.20    0.50
  -2  10   6   -0.50    0.40
  -2  10   6    0.50    0.60
   2  10  -6    1.00    0.80
   2  10  -6   -0.40    0.60
  -1 -10   6    8.30    1.10
  -1 -10   6    8.70    1.40
  -1 -10   6    6.20    0.70
  -1  10   6    5.80    1.00
  -1  10   6    6.20    0.70
   1  10  -6    6.70    1.10
   1  10  -6    7.20    1.20
   1  10  -6    7.60    1.20
   1  10  -6    8.10    1.20
   1  10  -6    5.20    1.00
  -1  10   6    6.70    0.80
   0 -10   6    1.00    0.60
   0 -10   6    0.80    0.80
   0 -10   6    0.70    0.80
   0  10   6    0.70    0.50
   0  10  -6    0.90    0.70
   0  10   6    0.30    0.60
   0  10   6    0.10    0.40
   0  10  -6    0.80    0.80
   0  10  -6    0.30    0.70
   0  10  -6    0.10    0.70
   0  10  -6    0.00    0.70
   0  10  -6    0.10    0.50
   1 -10   6   10.50    1.00
   1 -10   6    8.90    1.20
  -1  10  -6    7.20    1.10
   1  10   6   11.30    1.10
   1  10   6    9.00    0.50
   1  10   6   11.40    1.00
   1  10   6   10.40    1.50
  -1  10  -6   13.40    1.60
  -1  10  -6    9.30    1.10
   1  10   6    9.40    0.60
   1  10   6    8.00    1.00
   2 -10   6    1.00    0.80
   2 -10   6    0.60    0.40
   2 -10   6    0.30    0.40
  -2 -10  -6    1.20    0.70
   2  10   6    1.60    0.70
   2  10   6    1.30    0.50
   2  10   6    1.20    0.50
  -2  10  -6    1.30    0.70
  -2  10  -6    2.60    0.90
   2  10   6    1.50    0.40
   2  10   6    0.90    0.40
   2  10   6    2.10    0.40
   3 -10   6    2.50    1.00
   3 -10   6    1.90    0.50
  -3 -10  -6    1.60    0.70
   3 -10   6    2.60    0.50
   3  10   6    2.40    0.40
   3  10   6    1.20    0.70
  -3  10  -6    3.40    1.00
   3  10   6    3.20    0.60
  -3  10  -6    3.10    0.90
   3  10   6    3.10    0.50
   3  10   6    3.60    0.70
  -3 -11   6    0.70    0.80
  -3  11   6    1.80    0.70
  -3  11   6    1.10    0.50
  -3  11   6    2.20    0.70
  -3  11   6    2.00    0.50
   3  11  -6    0.60    0.80
  -3  11   6    2.00    0.50
  -2 -11   6    2.00    0.70
  -2  11   6    1.30    0.70
  -2  11   6    0.90    0.60
   2  11  -6    0.90    0.90
  -2  11   6    1.00    0.60
  -1 -11   6    1.80    0.70
  -1  11   6    1.00    0.60
  -1  11   6    0.90    0.70
   1  11  -6    0.00    0.80
   0 -11   6    0.90    0.80
   0 -11   6    0.80    0.60
   0  11  -6    0.60    0.70
   0  11   6    0.10    0.40
   0  11   6   -0.60    0.40
   1 -11   6    0.00    0.40
   1 -11   6    0.10    0.80
   1  11   6    0.30    0.50
  -1  11  -6    1.20    0.60
   1  11   6   -0.20    0.50
  -1  11  -6    0.90    0.80
   1  11   6    0.20    0.50
   9   0  -7    3.10    0.80
  -9   0   7    3.00    0.90
   9   0  -7    3.10    0.70
  -9   0   7    3.60    0.90
  -9   0   7    3.30    0.90
  -8   0   7    5.10    0.80
   8   0  -7    5.30    0.90
  -8   0   7    3.60    0.80
   8   0  -7    6.00    0.80
  -8   0   7    3.40    0.90
  -8   0   7    4.50    0.90
   7   0  -7   29.40    1.50
  -7   0   7   28.70    1.60
  -7   0   7   27.20    1.60
  -7   0   7   27.90    1.50
   7   0  -7   30.20    1.40
   7   0  -7   27.90    1.60
  -7   0   7   26.60    1.60
  -6   0   7  224.28    6.10
  -6   0   7  233.08    6.30
  -6   0   7  224.28    6.30
   6   0  -7  223.68    6.10
  -6   0   7  224.48    6.30
   6   0  -7  223.08    6.30
   6   0  -7  220.68    5.80
   5   0  -7   72.09    2.50
   5   0  -7   72.79    2.20
  -5   0   7   73.09    2.50
   5   0  -7   73.69    2.40
  -5   0   7   76.99    2.60
  -5   0   7   73.79    2.40
  -5   0   7   74.99    2.60
  -4   0   7   41.80    1.50
  -4   0   7   41.70    1.60
  -4   0   7   44.40    1.70
   4   0  -7   43.00    1.40
   4   0  -7   46.20    1.70
   4   0  -7   43.10    1.60
  -4   0   7   42.90    1.80
   3   0  -7  175.68    4.70
  -3   0   7  171.48    5.00
  -3   0   7  177.58    4.30
  -3   0   7  177.68    4.70
   3   0  -7  175.38    4.40
  -3   0   7  176.68    4.60
   3   0  -7  172.08    4.70
  -3   0   7  177.28    4.80
   2   0  -7  699.33   16.80
  -1   0   7  105.29    2.90
   1   0  -7  104.09    3.20
   1   0  -7  103.49    2.60
  -1   0   7  105.19    2.90
   1   0  -7  105.29    2.90
   1   0  -7  104.79    2.60
   1   0  -7  106.89    2.90
   1   0  -7  102.49    2.90
  -1   0   7  108.99    3.00
  -1   0   7  104.39    3.20
   0   0  -7    7.90    0.80
   0   0  -7    8.40    0.40
   0   0  -7    8.40    0.50
   0   0   7    8.60    0.60
   0   0  -7    7.80    0.60
   0   0  -7    8.90    0.80
   0   0  -7    8.00    0.50
   0   0   7    8.40    0.80
   0   0   7    8.10    0.60
  -1   0  -7   57.99    2.20
   1   0   7   58.79    1.80
  -1   0  -7   57.79    1.60
   1   0   7   57.49    2.10
  -1   0  -7   59.79    1.70
   1   0   7   57.19    2.10
   1   0   7   59.19    1.90
  -1   0  -7   56.19    1.70
  -1   0  -7   58.49    1.90
   2   0   7    1.60    0.50
  -2   0  -7    2.10    0.50
   2   0   7    1.30    0.40
  -2   0  -7    1.90    0.40
   2   0   7    1.70    0.50
  -2   0  -7    2.70    0.30
  -2   0  -7    2.90    0.40
   2   0   7    1.50    0.40
  -2   0  -7    2.00    0.40
  -3   0  -7   97.29    3.10
  -3   0  -7   99.49    2.80
  -3   0  -7   97.89    2.60
  -3   0  -7   99.39    3.40
   3   0   7  103.79    3.30
   3   0   7  100.49    3.30
   3   0   7   99.49    3.10
   3   0   7  101.39    3.00
   4   0   7   81.59    2.70
  -4   0  -7   78.19    3.00
   4   0   7   82.79    2.90
  -4   0  -7   79.69    2.50
  -4   0  -7   79.79    2.10
  -4   0  -7   81.89    2.80
   4   0   7   81.19    3.00
  -4   0  -7   79.49    2.10
   4   0   7   80.79    2.90
  -5   0  -7    1.80    0.70
   5   0   7    0.20    0.60
   5   0   7    0.60    0.50
   5   0   7    1.10    0.60
  -5   0  -7    0.50    0.50
  -5   0  -7    0.70    0.20
  -5   0  -7    1.40    0.50
  -5   0  -7    0.70    0.20
   5   0   7   -0.70    0.50
   6   0   7    0.70    0.60
  -6   0  -7    1.70    0.80
  -6   0  -7    0.70    0.60
   6   0   7    1.30    0.70
  -6   0  -7    0.10    0.40
   6   0   7    1.30    0.70
  -7   0  -7    4.70    0.70
  -9  -1   7   33.30    2.10
   9  -1  -7   35.00    2.00
   9  -1  -7   35.10    1.70
  -9  -1   7   32.10    2.00
  -9  -1   7   32.40    1.90
   9   1  -7   33.40    2.00
  -9   1   7   33.90    2.10
   9   1  -7   33.80    1.10
   9   1  -7   33.70    1.10
  -9   1   7   34.00    1.90
   9   1  -7   32.40    1.80
   8  -1  -7   23.00    1.30
  -8  -1   7   24.30    1.50
  -8  -1   7   22.70    1.60
  -8  -1   7   23.70    1.60
  -8  -1   7   24.00    1.70
   8  -1  -7   21.40    1.50
  -8   1   7   21.30    1.40
   8   1  -7   22.90    1.60
   8   1  -7   23.90    1.40
   8   1  -7   20.80    0.90
   8   1  -7   23.60    1.60
  -8   1   7   25.10    1.60
  -8   1   7   23.40    1.50
  -8   1   7   24.10    1.50
   7  -1  -7   17.80    1.20
   7  -1  -7   16.50    1.00
  -7  -1   7   17.10    1.30
  -7  -1   7   15.20    1.20
  -7  -1   7   17.80    1.30
  -7  -1   7   16.10    1.30
   7   1  -7   17.40    0.70
  -7   1   7   18.10    1.30
   7   1  -7   17.40    1.30
   7   1  -7   16.90    1.30
  -7   1   7   18.00    1.30
  -7   1   7   18.70    1.20
  -7   1   7   19.60    1.30
   7   1  -7   17.30    1.10
  -6  -1   7   74.09    2.70
  -6  -1   7   67.99    2.70
  -6  -1   7   71.99    2.70
  -6  -1   7   76.79    2.60
   6  -1  -7   72.49    2.20
   6  -1  -7   72.99    2.70
   6  -1  -7   71.79    2.50
  -6   1   7   73.39    2.60
   6   1  -7   70.89    2.60
  -6   1   7   71.09    2.60
  -6   1   7   74.69    2.60
   6   1  -7   74.49    2.60
   6   1  -7   71.19    2.00
   6   1  -7   74.19    2.40
  -6   1   7   75.89    2.50
  -5  -1   7  131.99    3.90
   5  -1  -7  132.19    3.70
   5  -1  -7  133.19    3.90
  -5  -1   7  127.99    3.90
  -5  -1   7  129.79    3.90
  -5  -1   7  131.49    3.80
   5  -1  -7  127.69    3.40
   5   1  -7  130.89    3.90
  -5   1   7  127.69    3.60
   5   1  -7  131.09    3.80
  -5   1   7  132.29    3.90
  -5   1   7  120.29    3.70
   5   1  -7  131.59    3.60
   5   1  -7  127.49    3.30
  -5   1   7  125.69    3.80
  -4  -1   7  211.88    5.60
  -4  -1   7  209.38    5.60
   4  -1  -7  208.98    5.00
  -4  -1   7  195.88    5.40
   4  -1  -7  202.28    5.60
  -4  -1   7  203.28    5.10
  -4  -1   7  210.78    5.70
  -4   1   7  203.88    5.40
   4   1  -7  207.98    5.30
   4   1  -7  193.08    5.50
   4   1  -7  201.08    5.50
  -4   1   7  205.98    5.50
   4   1  -7  205.48    5.60
   4   1  -7  206.98    5.10
  -4   1   7  212.68    5.30
   3  -1  -7   49.30    1.80
  -3  -1   7   49.00    1.80
   3  -1  -7   50.29    1.60
  -3  -1   7   49.00    1.80
  -3  -1   7   47.80    1.90
   3  -1  -7   49.20    1.60
  -3  -1   7   49.30    1.50
  -3  -1   7   49.30    1.70
  -3   1   7   49.00    1.60
   3   1  -7   48.90    1.70
  -3   1   7   48.60    1.70
   3   1  -7   47.50    1.70
   3   1  -7   48.90    1.80
  -3   1   7   49.99    1.50
   3   1  -7   48.00    1.50
  -3   1   7   48.20    1.90
  -2  -1   7   30.20    1.30
   2  -1  -7   29.40    1.00
  -2  -1   7   32.40    1.20
  -2  -1   7   31.00    1.30
   2  -1  -7   29.30    1.10
   2  -1  -7   31.30    1.20
  -2  -1   7   28.90    1.40
  -2  -1   7   30.90    1.20
   2   1  -7   29.60    1.20
  -2   1   7   31.30    1.10
  -2   1   7   30.50    1.00
  -2   1   7   31.30    1.20
   2   1  -7   28.10    1.20
   2   1  -7   30.70    1.20
  -2   1   7   30.40    1.40
   2   1  -7   32.50    1.10
  -1  -1   7  111.99    3.50
   1  -1  -7  114.49    3.00
  -1  -1   7  118.29    3.30
   1  -1  -7  113.49    3.10
  -1  -1   7  117.49    3.20
  -1  -1   7  117.59    3.30
   1  -1  -7  115.29    3.00
  -1  -1   7  112.49    3.20
  -1  -1   7  115.59    3.20
   1   1  -7  113.69    3.20
   1   1  -7  113.39    3.10
   1   1  -7  114.49    3.00
   1   1  -7  110.09    3.20
  -1   1   7  114.49    3.40
  -1   1   7  119.89    3.20
   1   1  -7  109.99    3.20
  -1   1   7  125.89    3.00
   1   1  -7  116.29    3.50
  -1   1   7  111.79    3.00
   0  -1   7   43.10    1.80
   0  -1   7   44.80    1.70
   0  -1   7   44.90    1.60
   0  -1  -7   44.20    1.80
   0  -1  -7   44.10    1.40
   0  -1  -7   41.40    1.40
   0  -1   7   49.00    1.60
   0  -1  -7   46.10    1.40
   0   1  -7   45.60    1.60
   0   1   7   46.90    1.50
   0   1   7   42.80    1.70
   0   1   7   46.20    1.40
   0   1  -7   43.80    1.50
   0   1  -7   44.60    1.40
   0   1  -7   45.80    1.80
   0   1   7   45.70    1.70
   0   1   7   46.00    1.40
   0   1  -7   43.50    1.50
   0   1  -7   46.10    1.60
  -1  -1  -7  206.78    5.10
   1  -1   7  210.08    5.60
  -1  -1  -7  203.88    5.70
   1  -1   7  211.08    5.70
  -1  -1  -7  211.28    5.20
   1  -1   7  211.48    5.80
  -1  -1  -7  212.18    5.10
  -1  -1  -7  212.98    5.40
  -1   1  -7  209.98    5.30
  -1   1  -7  208.28    5.80
   1   1   7  211.88    5.40
  -1   1  -7  212.68    5.60
   1   1   7  206.68    5.70
  -1   1  -7  212.58    5.40
   1   1   7  214.58    5.30
  -1   1  -7  208.68    5.40
   1   1   7  211.18    5.70
  -1   1  -7  216.88    5.60
   2  -1   7    6.70    0.70
  -2  -1  -7    5.70    0.80
  -2  -1  -7    5.20    0.30
   2  -1   7    4.60    0.70
  -2  -1  -7    4.40    0.50
  -2  -1  -7    4.30    0.40
   2  -1   7    5.80    0.80
   2  -1   7    4.20    0.60
  -2  -1  -7    4.90    0.50
   2   1   7    5.50    0.60
  -2   1  -7    5.70    0.60
  -2   1  -7    5.00    0.70
   2   1   7    4.30    0.60
   2   1   7    5.50    0.60
  -2   1  -7    5.70    0.70
  -2   1  -7    4.70    0.50
   2   1   7    5.90    0.80
  -2   1  -7    4.30    0.50
  -3  -1  -7   67.39    2.10
  -3  -1  -7   70.29    2.60
   3  -1   7   72.19    2.70
   3  -1   7   72.59    2.60
   3  -1   7   70.59    2.40
  -3  -1  -7   69.49    2.30
   3  -1   7   72.79    2.60
   3   1   7   71.89    2.40
   3   1   7   71.99    2.30
  -3   1  -7   70.49    2.40
  -3   1  -7   70.59    2.70
   3   1   7   73.69    2.70
  -3   1  -7   70.79    2.20
   3   1   7   73.59    2.60
  -3   1  -7   71.59    2.10
   4  -1   7   31.00    1.70
   4  -1   7   31.90    1.60
  -4  -1  -7   32.10    1.80
  -4  -1  -7   33.20    1.30
   4  -1   7   31.80    1.60
   4  -1   7   34.50    1.80
  -4  -1  -7   33.50    1.50
   4   1   7   32.10    1.70
   4   1   7   33.70    1.50
  -4   1  -7   30.30    1.80
  -4   1  -7   35.20    1.60
  -4   1  -7   33.00    1.20
   4   1   7   35.10    1.80
   4   1   7   31.90    1.60
  -4   1  -7   30.80    1.40
   5  -1   7    2.50    0.60
   5  -1   7    3.00    0.80
  -5  -1  -7    2.30    0.80
  -5  -1  -7    2.70    0.70
   5  -1   7    3.70    0.80
   5  -1   7    2.50    0.70
  -5  -1  -7    1.80    0.50
  -5   1  -7    3.80    0.70
  -5   1  -7    3.40    0.60
   5   1   7    2.10    0.60
   5   1   7    2.80    0.80
  -5   1  -7    3.40    0.40
  -5   1  -7    3.40    0.50
   5   1   7    3.00    0.70
   5   1   7    4.00    0.80
  -5   1  -7    3.70    0.80
  -6  -1  -7    1.60    0.50
   6  -1   7    5.40    1.00
   6  -1   7    2.80    0.80
  -6  -1  -7    3.40    0.80
   6  -1   7    2.90    0.80
  -6  -1  -7    5.00    1.00
  -6   1  -7    3.80    0.80
   6   1   7    2.20    0.90
   6   1   7    3.70    0.80
  -6   1  -7    4.10    1.00
  -6   1  -7    3.80    0.40
   6   1   7    3.10    0.80
  -6   1  -7    3.70    0.50
  -6   1  -7    3.10    0.60
  -7  -1  -7    2.00    1.20
  -7  -1  -7    2.10    0.60
   7  -1   7    2.30    0.70
  -7   1  -7    2.10    0.40
  -7   1  -7    2.80    0.70
  -7   1  -7    2.00    0.40
  -9  -2   7    4.80    1.10
  -9  -2   7    4.80    1.00
  -9  -2   7    4.60    0.90
   9  -2  -7    4.20    0.90
   9  -2  -7    5.60    0.80
   9   2  -7    4.60    0.90
  -9   2   7    5.50    1.10
  -9   2   7    3.30    0.70
   9   2  -7    2.90    0.90
   9   2  -7    4.60    0.60
   9   2  -7    4.60    1.00
  -8  -2   7    6.60    1.00
  -8  -2   7    6.70    1.10
   8  -2  -7    4.00    0.80
   8  -2  -7    6.40    0.70
  -8  -2   7    4.20    0.80
  -8  -2   7    3.80    0.80
  -8   2   7    7.50    1.10
  -8   2   7    4.60    0.90
   8   2  -7    6.00    0.90
  -8   2   7    5.50    0.80
   8   2  -7    5.40    0.60
  -8   2   7    5.90    0.80
   8   2  -7    6.90    1.00
   8   2  -7    4.60    0.80
  -7  -2   7   15.00    1.20
   7  -2  -7   13.50    0.90
  -7  -2   7   12.20    1.20
  -7  -2   7   14.10    1.20
   7  -2  -7   12.80    1.10
  -7  -2   7   14.00    1.20
  -7   2   7   13.00    1.00
  -7   2   7   11.60    1.00
  -7   2   7   14.00    1.20
   7   2  -7   11.70    1.00
   7   2  -7   13.40    0.80
  -7   2   7   13.50    1.20
   7   2  -7   11.80    1.20
   7   2  -7   14.50    1.20
  -6  -2   7   23.80    1.40
  -6  -2   7   22.70    1.40
   6  -2  -7   22.90    1.20
  -6  -2   7   23.30    1.40
   6  -2  -7   22.00    1.00
  -6  -2   7   22.00    1.50
   6   2  -7   23.50    1.00
  -6   2   7   25.20    1.20
  -6   2   7   22.90    1.40
   6   2  -7   24.10    1.40
  -6   2   7   22.60    1.20
   6   2  -7   23.80    1.20
  -6   2   7   20.90    1.30
   6   2  -7   23.50    1.40
   5  -2  -7  172.18    4.30
  -5  -2   7  185.08    5.00
  -5  -2   7  171.38    5.00
  -5  -2   7  166.08    5.00
  -5  -2   7  168.18    4.80
  -5   2   7  161.98    4.70
   5   2  -7  175.08    4.90
  -5   2   7  172.78    4.60
  -5   2   7  173.68    4.90
   5   2  -7  172.98    4.90
  -5   2   7  169.88    4.70
   5   2  -7  172.58    4.50
   5   2  -7  176.28    4.70
   4  -2  -7  186.48    5.10
  -4  -2   7  186.88    5.30
  -4  -2   7  181.18    4.80
   4  -2  -7  183.38    4.80
  -4  -2   7  179.28    5.10
  -4  -2   7  189.38    5.10
  -4  -2   7  184.28    5.30
  -4  -2   7  182.88    5.20
   4   2  -7  187.28    5.10
   4   2  -7  184.68    4.90
  -4   2   7  181.88    4.80
  -4   2   7  182.48    4.70
  -4   2   7  188.48    5.10
   4   2  -7  179.78    5.10
   4   2  -7  180.98    5.10
   4   2  -7  182.28    4.80
  -3  -2   7  158.88    4.40
   3  -2  -7  161.98    4.10
   3  -2  -7  156.78    4.10
  -3  -2   7  159.68    4.50
   3  -2  -7  159.18    4.40
  -3  -2   7  159.88    4.30
  -3  -2   7  157.58    4.60
  -3  -2   7  161.48    4.50
   3   2  -7  153.88    4.40
  -3   2   7  162.88    4.10
  -3   2   7  163.38    4.40
   3   2  -7  156.28    4.20
   3   2  -7  161.38    4.20
  -3   2   7  159.88    4.00
   3   2  -7  152.18    4.40
   3   2  -7  160.78    4.40
  -3   2   7  159.18    3.80
  -2  -2   7   27.50    1.20
   2  -2  -7   27.60    0.90
  -2  -2   7   30.50    1.30
   2  -2  -7   28.60    1.20
  -2  -2   7   28.60    1.20
  -2  -2   7   28.60    1.30
  -2  -2   7   25.90    1.30
   2  -2  -7   26.50    0.90
  -2   2   7   27.70    1.10
   2   2  -7   28.50    1.30
   2   2  -7   27.50    1.30
  -2   2   7   27.10    1.30
   2   2  -7   26.00    1.10
  -2   2   7   28.10    0.90
  -2   2   7   28.60    0.90
  -2   2   7   28.10    1.00
   2   2  -7   27.10    1.20
  -1  -2   7    6.40    0.70
  -1  -2   7    5.50    0.60
   1  -2  -7    6.40    0.40
   1  -2  -7    6.20    0.30
  -1  -2   7    6.20    0.70
  -1  -2   7    7.80    0.70
  -1  -2   7    7.50    0.70
   1  -2  -7    6.20    0.50
  -1  -2   7    7.50    0.80
   1   2  -7    5.50    0.60
   1   2  -7    6.70    0.70
   1   2  -7    5.70    0.60
   1   2  -7    4.70    0.60
  -1   2   7    6.50    0.40
  -1   2   7    6.30    0.70
  -1   2   7    6.80    0.50
   1   2  -7    5.50    0.70
   0  -2  -7   57.49    1.70
   0  -2  -7   59.19    1.60
   0  -2  -7   57.49    1.70
   0  -2  -7   57.49    2.10
   0  -2   7   59.09    2.10
   0  -2   7   57.79    2.00
   0  -2   7   57.69    2.10
   0   2  -7   56.49    1.90
   0   2   7   61.89    1.70
   0   2  -7   57.19    1.90
   0   2   7   60.09    1.60
   0   2   7   59.29    2.10
   0   2   7   60.99    2.10
   0   2  -7   57.99    2.20
   0   2  -7   56.69    2.00
   0   2  -7   55.99    1.80
   0   2  -7   56.19    2.00
   0   2   7   57.39    1.70
  -1  -2  -7   40.40    1.30
   1  -2   7   40.70    1.80
   1  -2   7   41.60    1.70
   1  -2   7   41.60    1.70
  -1  -2  -7   40.40    1.70
  -1   2  -7   41.20    1.80
  -1   2  -7   37.70    1.60
  -1   2  -7   39.80    1.50
  -1   2  -7   39.60    1.40
   1   2   7   40.90    1.30
   1   2   7   40.80    1.20
   1   2   7   40.60    1.70
  -1   2  -7   40.80    1.50
   1   2   7   39.40    1.40
  -1   2  -7   39.20    1.60
   1   2   7   41.80    1.70
  -2  -2  -7   87.89    2.90
   2  -2   7   79.49    2.90
   2  -2   7   87.99    3.00
  -2  -2  -7   87.39    2.60
   2  -2   7   86.69    3.00
   2  -2   7   87.49    2.90
  -2   2  -7   92.39    2.90
   2   2   7   90.59    2.60
   2   2   7   90.89    3.00
  -2   2  -7   88.59    2.80
  -2   2  -7   87.89    2.60
  -2   2  -7   89.69    2.70
   2   2   7   93.49    2.70
  -2   2  -7   90.69    3.10
   2   2   7   90.39    2.90
   3  -2   7   18.60    1.20
   3  -2   7   19.30    1.40
   3  -2   7   18.90    1.40
  -3  -2  -7   18.30    0.80
   3  -2   7   18.30    1.30
  -3  -2  -7   20.50    1.30
  -3  -2  -7   16.90    1.00
  -3  -2  -7   18.60    0.80
  -3   2  -7   18.70    1.00
  -3   2  -7   19.60    1.10
  -3   2  -7   19.10    1.20
  -3   2  -7   18.90    1.40
   3   2   7   18.70    1.20
   3   2   7   19.00    1.10
   3   2   7   17.20    1.30
   3   2   7   17.60    1.00
   4  -2   7   59.79    2.40
   4  -2   7   59.49    2.60
   4  -2   7   62.59    2.50
  -4  -2  -7   60.09    2.20
  -4  -2  -7   60.99    2.50
   4  -2   7   61.79    2.60
  -4  -2  -7   62.39    1.90
  -4   2  -7   60.99    2.10
  -4   2  -7   59.39    2.10
   4   2   7   58.99    2.30
   4   2   7   60.99    2.40
  -4   2  -7   59.19    2.60
   4   2   7   57.59    2.50
   4   2   7   59.89    2.20
  -4   2  -7   65.09    2.40
   5  -2   7   17.50    1.50
   5  -2   7   16.80    1.40
  -5  -2  -7   15.60    1.00
  -5  -2  -7   14.20    1.40
   5  -2   7   14.70    1.40
  -5  -2  -7   13.90    1.10
   5  -2   7   15.30    1.30
   5  -2   7   15.40    1.30
  -5  -2  -7   14.00    1.30
  -5   2  -7   15.50    1.30
   5   2   7   14.10    1.20
   5   2   7   16.00    1.10
   5   2   7   15.20    1.30
  -5   2  -7   13.30    1.00
  -5   2  -7   14.70    1.00
  -5   2  -7   16.30    1.50
  -6  -2  -7    6.80    0.90
   6  -2   7    9.60    1.30
  -6  -2  -7    7.30    1.10
   6  -2   7   10.90    1.30
   6  -2   7    7.30    1.00
  -6  -2  -7    8.90    0.90
  -6  -2  -7    8.90    1.40
   6  -2   7    8.50    1.20
  -6   2  -7   10.40    1.20
   6   2   7    8.80    1.00
  -6   2  -7    9.40    1.40
   6   2   7    8.80    1.20
  -6   2  -7    7.30    0.90
  -6   2  -7    8.80    0.70
   6   2   7    8.60    1.10
  -6   2  -7    8.10    0.80
  -7  -2  -7    3.10    1.00
   7  -2   7    4.40    0.90
  -7  -2  -7    2.10    0.60
  -7   2  -7    5.00    0.60
  -7   2  -7    6.00    0.60
  -9  -3   7   17.80    1.70
  -9  -3   7   16.30    2.10
   9  -3  -7   16.80    1.40
   9   3  -7   16.00    1.60
  -9   3   7   18.30    1.50
   9   3  -7   18.90    2.20
  -9   3   7   16.40    1.20
   9   3  -7   16.10    1.10
  -8  -3   7   28.60    1.90
   8  -3  -7   27.40    1.60
  -8  -3   7   26.40    1.80
  -8  -3   7   26.20    1.70
  -8  -3   7   28.90    1.80
   8   3  -7   29.90    1.60
   8   3  -7   23.20    1.70
  -8   3   7   25.30    1.60
   8   3  -7   25.00    1.30
  -8   3   7   25.20    1.50
   8   3  -7   26.80    1.70
  -8   3   7   27.10    1.40
  -8   3   7   24.40    1.60
  -7  -3   7   24.80    1.60
   7  -3  -7   26.30    1.40
  -7  -3   7   28.70    1.80
  -7  -3   7   28.40    1.60
  -7  -3   7   27.30    1.70
  -7   3   7   27.80    1.40
  -7   3   7   27.50    1.60
   7   3  -7   26.70    1.60
   7   3  -7   26.00    1.50
   7   3  -7   27.20    1.30
  -7   3   7   27.80    1.50
  -7   3   7   25.80    1.40
   7   3  -7   26.50    1.70
  -6  -3   7    5.20    0.80
  -6  -3   7    3.80    0.80
  -6  -3   7    4.20    0.80
  -6  -3   7    5.90    0.90
   6   3  -7    6.00    0.70
  -6   3   7    6.10    0.90
  -6   3   7    5.10    0.60
  -6   3   7    4.20    0.60
   6   3  -7    5.10    0.70
   6   3  -7    4.60    0.70
  -6   3   7    3.80    0.70
   6   3  -7    5.70    0.90
  -5  -3   7   91.79    3.10
  -5  -3   7   95.79    3.20
  -5  -3   7   90.59    3.20
  -5  -3   7   94.79    3.10
  -5  -3   7   93.59    3.20
   5  -3  -7   91.39    2.70
   5   3  -7   93.89    3.00
  -5   3   7   91.99    2.70
   5   3  -7   93.59    3.10
  -5   3   7   93.69    2.80
   5   3  -7   89.59    3.10
  -5   3   7   86.69    2.80
   5   3  -7   91.19    2.80
   5   3  -7   91.39    2.90
  -5   3   7   90.29    3.00
   4  -3  -7   35.00    1.20
  -4  -3   7   35.90    1.60
  -4  -3   7   34.20    1.60
  -4  -3   7   35.50    1.40
  -4  -3   7   37.20    1.70
  -4  -3   7   36.90    1.70
  -4  -3   7   33.30    1.60
   4   3  -7   36.20    1.60
   4   3  -7   34.20    1.60
   4   3  -7   35.90    1.70
  -4   3   7   37.40    1.60
   4   3  -7   36.00    1.40
  -4   3   7   36.80    1.30
   4   3  -7   32.30    1.40
  -4   3   7   35.40    1.20
  -3  -3   7    7.60    0.80
   3  -3  -7    7.50    0.40
  -3  -3   7    8.90    0.80
  -3  -3   7    8.60    0.80
  -3  -3   7    6.30    0.70
  -3  -3   7    6.30    0.70
   3   3  -7    7.70    0.80
   3   3  -7    7.90    0.70
  -3   3   7    6.40    0.50
  -3   3   7    7.80    0.40
  -3   3   7    8.30    0.40
   3   3  -7    8.50    0.70
   3   3  -7    7.40    0.70
   3   3  -7    7.20    0.80
  -3   3   7    8.60    0.70
  -2  -3   7   22.60    1.20
  -2  -3   7   23.30    1.20
  -2  -3   7   23.20    1.20
  -2  -3   7   23.50    1.20
  -2  -3   7   22.30    1.20
  -2  -3   7   22.30    1.20
  -2   3   7   23.00    0.70
   2   3  -7   23.50    1.20
  -2   3   7   23.60    1.20
  -2   3   7   22.20    1.00
   2   3  -7   22.30    1.20
   2   3  -7   22.50    1.10
   2   3  -7   21.80    1.10
  -2   3   7   22.70    0.90
  -1  -3   7   25.70    1.30
  -1  -3   7   27.00    1.30
  -1  -3   7   26.20    1.30
  -1  -3   7   25.60    1.20
  -1  -3   7   25.80    1.30
  -1  -3   7   25.10    1.30
   1   3  -7   27.20    1.30
   1   3  -7   26.80    1.40
  -1   3   7   26.80    1.00
   1   3  -7   26.00    1.20
  -1   3   7   28.10    1.20
  -1   3   7   27.30    1.30
  -1   3   7   25.40    1.10
   1   3  -7   30.30    1.40
   1   3  -7   27.90    1.20
   0  -3   7   43.40    1.80
   0  -3  -7   41.40    1.10
   0  -3  -7   41.20    1.60
   0  -3   7   43.60    1.80
   0  -3   7   45.40    1.80
   0  -3  -7   41.90    1.20
   0   3  -7   40.60    1.60
   0   3   7   43.60    1.70
   0   3  -7   42.10    1.60
   0   3   7   42.30    1.70
   0   3   7   42.20    1.20
   0   3  -7   44.50    1.80
   0   3   7   42.00    1.30
   0   3  -7   42.50    1.80
   0   3  -7   44.30    1.70
   0   3   7   42.30    1.20
   0   3  -7   41.30    1.50
  -1  -3  -7  248.38    6.40
   1  -3   7  235.48    6.50
   1  -3   7  228.98    6.60
   1  -3   7  244.98    6.60
  -1  -3  -7  245.98    5.90
  -1   3  -7  238.08    6.40
  -1   3  -7  238.58    6.20
  -1   3  -7  245.58    6.50
   1   3   7  246.78    6.40
   1   3   7  243.18    5.90
  -1   3  -7  246.28    6.40
  -1   3  -7  240.78    6.30
   1   3   7  244.38    6.50
   1   3   7  248.48    6.00
  -1   3  -7  216.88    6.60
   1   3   7  236.28    5.80
  -2  -3  -7   94.39    3.00
   2  -3   7   93.29    3.10
   2  -3   7   94.59    3.20
   2  -3   7   93.69    3.10
   2  -3   7   93.09    3.20
  -2  -3  -7   93.59    2.70
   2   3   7   92.09    2.60
  -2   3  -7   93.59    3.10
  -2   3  -7   98.09    3.10
   2   3   7   96.39    2.70
   2   3   7   97.49    3.00
  -2   3  -7   93.09    3.00
  -2   3  -7   92.09    2.90
   2   3   7   92.19    3.10
  -2   3  -7   93.29    3.30
  -2   3  -7   96.09    2.90
  -3  -3  -7  178.18    5.30
   3  -3   7  174.68    5.30
   3  -3   7  175.98    5.00
   3  -3   7  172.98    5.20
   3  -3   7  179.48    5.30
  -3  -3  -7  174.88    5.10
  -3  -3  -7  171.98    4.70
  -3   3  -7  176.78    4.90
   3   3   7  177.28    5.00
  -3   3  -7  171.08    5.30
   3   3   7  167.78    4.60
  -3   3  -7  171.38    5.00
   3   3   7  177.28    4.80
  -3   3  -7  172.58    4.80
   3   3   7  173.08    5.20
  -4  -3  -7   13.00    1.20
   4  -3   7   13.10    1.20
  -4  -3  -7   13.20    1.30
   4  -3   7   12.10    1.10
   4  -3   7   12.30    1.30
  -4  -3  -7   12.70    1.00
   4  -3   7    9.80    1.10
  -4  -3  -7   14.30    0.70
  -4   3  -7   12.40    1.00
   4   3   7   14.00    1.10
   4   3   7   13.10    0.90
   4   3   7   11.10    1.00
   4   3   7   11.20    1.20
  -4   3  -7   12.50    1.30
  -4   3  -7   12.70    1.20
  -4   3  -7   13.60    1.00
   5  -3   7    0.70    0.70
   5  -3   7    0.70    0.60
   5  -3   7    1.20    0.60
  -5  -3  -7    0.80    0.60
   5  -3   7    1.40    0.70
  -5  -3  -7    0.90    0.50
  -5  -3  -7    1.30    0.70
  -5  -3  -7    1.60    0.40
  -5   3  -7    0.70    0.50
   5   3   7    0.80    0.50
   5   3   7    0.80    0.70
  -5   3  -7    1.80    0.60
   5   3   7    0.60    0.50
  -5   3  -7    0.90    0.70
  -6  -3  -7    3.90    0.60
   6  -3   7    5.00    1.10
  -6  -3  -7    3.80    0.70
   6  -3   7    3.80    0.80
  -6  -3  -7    2.80    0.90
  -6  -3  -7    4.50    0.90
   6  -3   7    4.00    1.00
  -6   3  -7    2.40    0.80
   6   3   7    4.20    0.80
   6   3   7    3.50    0.80
  -6   3  -7    5.20    0.80
   6   3   7    5.70    1.10
  -6   3  -7    3.70    0.60
  -6   3  -7    2.80    0.90
  -7  -3  -7    4.10    1.00
   7  -3   7    3.80    1.50
  -7  -3  -7    4.80    0.70
   7  -3   7    4.10    0.80
  -7   3  -7    3.30    0.60
  -7   3  -7    3.70    0.70
   9  -4  -7   19.40    1.60
  -9  -4   7   20.40    1.70
   9   4  -7   19.60    1.80
  -9   4   7   25.90    1.70
   9   4  -7   19.20    1.30
  -9   4   7   21.70    1.20
  -8  -4   7   15.30    1.50
   8  -4  -7   17.80    1.30
  -8  -4   7   14.80    1.40
  -8  -4   7   14.50    1.50
  -8  -4   7   13.90    1.40
  -8   4   7   12.50    1.10
   8   4  -7   15.30    1.40
   8   4  -7   12.50    1.30
  -8   4   7   14.50    1.00
  -8   4   7   13.10    1.30
  -8   4   7   13.60    1.30
   8   4  -7   14.00    1.10
   8   4  -7   14.80    1.50
  -7  -4   7   48.70    2.40
  -7  -4   7   44.50    2.20
  -7  -4   7   45.60    2.40
  -7  -4   7   46.00    2.20
   7   4  -7   46.40    2.00
  -7   4   7   49.20    2.00
   7   4  -7   45.00    1.90
  -7   4   7   46.70    1.70
  -7   4   7   48.10    2.20
   7   4  -7   46.30    2.40
  -7   4   7   47.50    1.90
   7   4  -7   48.40    2.20
   7   4  -7   51.79    2.30
  -6  -4   7  172.48    5.10
  -6  -4   7  167.18    5.20
   6  -4  -7  167.28    4.70
  -6  -4   7  167.98    5.20
  -6  -4   7  165.68    5.10
  -6  -4   7  168.38    5.10
   6   4  -7  167.18    4.80
  -6   4   7  161.58    4.50
  -6   4   7  169.88    4.70
   6   4  -7  175.18    4.90
   6   4  -7  171.78    5.10
  -6   4   7  161.88    5.00
   6   4  -7  162.98    5.20
  -6   4   7  163.28    4.60
   6   4  -7  175.38    5.00
  -5  -4   7   77.59    2.60
   5  -4  -7   80.49    2.40
  -5  -4   7   79.99    2.90
  -5  -4   7   80.89    3.00
  -5  -4   7   82.79    2.90
  -5  -4   7   73.79    2.80
  -5  -4   7   81.59    3.00
  -5   4   7   82.19    2.80
  -5   4   7   76.49    2.40
  -5   4   7   80.49    2.40
   5   4  -7   84.29    3.00
   5   4  -7   79.79    2.90
   5   4  -7   78.49    2.60
   5   4  -7   83.09    2.80
   5   4  -7   78.09    2.70
  -5   4   7   76.69    2.40
  -4  -4   7    9.90    1.00
   4  -4  -7    9.30    0.60
  -4  -4   7    8.20    0.90
  -4  -4   7   10.30    0.90
  -4  -4   7    9.60    0.90
  -4  -4   7   10.90    1.00
  -4  -4   7    8.80    0.90
  -4   4   7    7.70    0.60
   4   4  -7    8.80    1.00
   4   4  -7    9.20    0.90
  -4   4   7    7.90    0.40
   4   4  -7    9.50    0.90
   4   4  -7   10.00    0.90
  -4   4   7    8.40    0.60
  -4   4   7    9.80    0.90
   4   4  -7    9.40    0.80
  -3  -4   7   11.70    1.10
  -3  -4   7   11.40    1.00
  -3  -4   7   12.50    1.00
  -3  -4   7   11.70    1.00
   3  -4  -7   12.10    0.50
  -3  -4   7   11.80    1.00
  -3  -4   7   11.20    1.00
  -3   4   7   12.70    0.50
   3   4  -7   12.20    0.90
  -3   4   7   11.10    0.70
   3   4  -7   13.80    1.00
  -3   4   7   11.80    0.50
   3   4  -7   10.90    0.90
   3   4  -7   11.50    1.00
   3   4  -7   12.00    0.90
  -3   4   7   12.60    0.90
  -2  -4   7   39.30    1.70
  -2  -4   7   40.00    1.70
  -2  -4   7   41.40    1.80
  -2  -4   7   39.20    1.70
  -2  -4   7   39.20    1.70
  -2  -4   7   42.70    1.80
   2   4  -7   39.00    1.70
  -2   4   7   39.00    1.60
  -2   4   7   39.20    1.50
   2   4  -7   39.50    1.70
  -2   4   7   39.50    1.50
   2   4  -7   36.60    1.60
  -2   4   7   38.30    1.50
   2   4  -7   40.60    1.80
   2   4  -7   39.40    1.60
  -1  -4   7   50.69    2.00
  -1  -4   7   50.99    2.00
  -1  -4   7   51.39    2.00
  -1  -4   7   49.60    2.00
   1   4  -7   52.19    2.00
   1   4  -7   50.09    1.90
   1   4  -7   49.30    2.00
   1   4  -7   50.29    2.00
   1   4  -7   47.70    1.90
  -1   4   7   50.69    1.80
  -1   4   7   49.70    1.80
   1   4  -7   48.80    1.90
  -1   4   7   49.70    1.80
  -1   4   7   49.00    1.60
   0  -4   7   86.49    2.90
   0  -4   7   88.09    2.90
   0  -4   7   76.89    2.90
   0   4  -7   84.89    2.90
   0   4   7   85.79    2.40
   0   4  -7   85.49    2.80
   0   4  -7   86.29    2.90
   0   4   7   87.29    2.80
   0   4   7   87.09    2.70
   0   4   7   82.59    2.10
   0   4   7   84.39    2.70
   0   4  -7   85.79    2.90
   0   4  -7   90.49    2.80
   1  -4   7  156.08    4.70
   1  -4   7  148.59    4.60
   1  -4   7  164.48    4.80
  -1  -4  -7  160.28    4.00
  -1  -4  -7  158.08    4.40
  -1   4  -7  161.18    4.50
   1   4   7  154.28    4.00
  -1   4  -7  155.98    4.60
  -1   4  -7  161.88    4.80
  -1   4  -7  158.38    4.40
   1   4   7  159.88    4.70
  -1   4  -7  159.18    4.50
   1   4   7  163.28    4.60
   1   4   7  151.08    3.90
   1   4   7  155.58    4.40
   1   4   7  151.88    4.00
  -1   4  -7  155.98    4.60
   2  -4   7   11.90    1.20
  -2  -4  -7   11.40    0.90
  -2  -4  -7   12.10    0.70
   2  -4   7   10.00    0.90
   2  -4   7   11.30    1.10
   2  -4   7   11.50    1.20
   2   4   7   11.80    0.90
  -2   4  -7   12.80    1.10
  -2   4  -7   11.20    1.00
   2   4   7   12.10    0.70
  -2   4  -7   11.00    1.00
  -2   4  -7   10.90    0.90
   2   4   7   11.40    1.00
  -2   4  -7   12.10    1.20
  -2   4  -7   11.10    1.00
   2   4   7   11.90    0.70
   3  -4   7   17.10    1.40
   3  -4   7   19.60    1.20
   3  -4   7   18.10    1.40
  -3  -4  -7   20.20    1.30
  -3  -4  -7   16.90    1.40
  -3  -4  -7   19.50    1.00
   3  -4   7   22.20    1.60
   3   4   7   20.00    1.00
   3   4   7   18.50    1.00
  -3   4  -7   19.80    1.20
  -3   4  -7   20.00    1.50
   3   4   7   19.00    1.20
  -3   4  -7   19.90    1.30
  -3   4  -7   21.00    1.40
   3   4   7   20.90    1.40
   4  -4   7   42.70    1.90
   4  -4   7   41.30    2.20
  -4  -4  -7   42.90    2.20
  -4  -4  -7   42.60    1.70
   4  -4   7   39.40    2.10
  -4  -4  -7   40.10    1.90
   4  -4   7   43.70    2.30
   4   4   7   41.90    2.10
  -4   4  -7   40.80    2.20
  -4   4  -7   41.40    2.00
   4   4   7   40.10    1.70
   4   4   7   40.00    1.80
   4   4   7   40.30    1.70
  -4   4  -7   39.70    1.80
  -4   4  -7   43.40    1.80
   5  -4   7    6.00    0.90
   5  -4   7    8.10    1.30
   5  -4   7    5.80    1.00
  -5  -4  -7    5.90    0.80
  -5  -4  -7    5.60    0.50
  -5  -4  -7    6.30    1.10
  -5  -4  -7    6.30    0.90
   5   4   7    5.90    0.90
  -5   4  -7    6.90    1.20
   5   4   7    5.50    1.00
   5   4   7    7.60    0.90
  -5   4  -7    5.80    1.00
  -5   4  -7    5.90    0.80
   6  -4   7    4.60    1.20
   6  -4   7    4.10    0.80
  -6  -4  -7    5.90    1.00
   6  -4   7    4.50    1.00
  -6  -4  -7    4.70    0.60
   6   4   7    4.80    0.80
  -6   4  -7    4.20    0.80
  -6   4  -7    5.20    1.00
  -7  -4  -7    3.40    0.60
   7  -4   7    4.50    0.90
  -7  -4  -7    4.60    0.90
  -7   4  -7    2.60    0.60
  -8  -5   7   23.80    1.70
  -8  -5   7   23.20    1.80
  -8  -5   7   24.30    1.70
  -8   5   7   22.50    1.40
   8   5  -7   23.50    1.90
   8   5  -7   24.70    1.90
  -8   5   7   22.40    1.00
   8   5  -7   23.90    1.50
   8   5  -7   24.50    1.70
  -8   5   7   23.60    1.50
   7  -5  -7    4.80    0.70
  -7  -5   7    4.80    1.10
  -7  -5   7    4.50    0.90
  -7  -5   7    4.90    1.00
  -7  -5   7    3.00    0.70
  -7  -5   7    4.20    0.90
   7   5  -7    4.90    0.80
   7   5  -7    5.40    0.90
   7   5  -7    6.20    1.10
  -7   5   7    5.70    0.80
   7   5  -7    6.60    1.00
  -7   5   7    5.10    0.50
  -7   5   7    5.40    0.80
  -7   5   7    3.80    0.70
   7   5  -7    6.10    0.90
  -6  -5   7    0.20    0.60
  -6  -5   7   -0.20    0.40
  -6  -5   7   -0.30    0.50
   6  -5  -7    0.90    0.40
  -6  -5   7   -0.40    0.50
  -6  -5   7    0.80    0.50
   6   5  -7    1.00    0.70
   6   5  -7    0.60    0.60
   6   5  -7    1.30    0.60
  -6   5   7    0.60    0.30
  -6   5   7    0.60    0.40
   6   5  -7    0.40    0.50
   6   5  -7    0.50    0.60
  -6   5   7    0.60    0.40
  -6   5   7    0.30    0.50
  -5  -5   7    7.10    0.90
   5  -5  -7    8.60    0.70
  -5  -5   7    9.80    1.10
  -5  -5   7    9.20    1.20
  -5  -5   7    8.60    1.00
  -5  -5   7    7.70    1.00
  -5  -5   7    8.60    1.20
  -5   5   7    8.20    0.70
  -5   5   7    7.60    0.60
   5   5  -7    6.20    0.90
   5   5  -7    8.20    1.00
   5   5  -7   10.60    1.00
  -5   5   7    8.50    0.70
   5   5  -7    7.30    1.10
  -5   5   7    6.50    0.80
   5   5  -7    8.70    1.00
  -4  -5   7   13.60    1.10
  -4  -5   7   12.60    1.10
  -4  -5   7   13.70    1.20
   4  -5  -7   12.60    0.70
  -4  -5   7   15.20    1.30
  -4  -5   7   11.90    1.10
  -4  -5   7   13.50    1.10
  -4   5   7   14.90    1.10
  -4   5   7   13.60    0.70
   4   5  -7   13.60    1.10
  -4   5   7   12.60    0.70
  -4   5   7   12.50    0.70
   4   5  -7   12.00    1.10
  -4   5   7   13.00    0.70
  -4   5   7   12.70    0.70
   4   5  -7   12.50    1.10
   4   5  -7   11.50    1.00
   4   5  -7   12.70    1.00
  -3  -5   7   18.50    1.30
  -3  -5   7   19.70    1.30
  -3  -5   7   18.30    1.30
  -3  -5   7   19.20    1.20
  -3  -5   7   18.70    1.30
  -3  -5   7   17.70    1.30
   3   5  -7   18.30    1.20
  -3   5   7   18.30    0.90
  -3   5   7   19.10    1.10
   3   5  -7   20.00    1.30
  -3   5   7   18.80    0.90
  -3   5   7   16.10    0.70
   3   5  -7   19.80    1.20
   3   5  -7   20.90    1.40
   3   5  -7   19.30    1.20
  -2  -5   7   35.10    1.70
  -2  -5   7   34.30    1.70
  -2  -5   7   35.30    1.70
  -2  -5   7   35.60    1.60
  -2  -5   7   33.80    1.70
  -2   5   7   32.80    1.50
  -2   5   7   35.60    1.40
  -2   5   7   34.40    1.50
   2   5  -7   35.30    1.60
   2   5  -7   35.60    1.70
   2   5  -7   36.30    1.70
  -2   5   7   36.00    1.50
   2   5  -7   33.40    1.60
   2   5  -7   37.90    1.80
  -1  -5   7   27.50    1.40
  -1  -5   7   29.50    1.60
  -1  -5   7   27.60    1.60
  -1  -5   7   28.40    1.50
   1   5  -7   24.60    1.30
  -1   5   7   29.90    1.20
  -1   5   7   28.00    1.40
   1   5  -7   29.10    1.50
  -1   5   7   28.70    1.30
   1   5  -7   28.40    1.60
   1   5  -7   29.40    1.50
  -1   5   7   29.30    1.30
   1   5  -7   27.80    1.50
   1   5  -7   27.70    1.50
   0  -5   7  431.76   11.30
   0  -5   7  455.35   11.30
   0  -5   7  428.66   11.40
   0   5  -7  459.45   11.30
   0   5  -7  439.56   11.30
   0   5   7  432.96   10.70
   0   5  -7  441.86   11.20
   0   5   7  416.96   10.40
   0   5   7  447.56   11.20
   0   5  -7  425.06   11.20
   0   5   7  434.86   11.00
   0   5   7  427.56   10.90
   0   5  -7  453.25   11.30
   0   5  -7  439.86   11.30
   1  -5   7    9.90    1.10
  -1  -5  -7    9.90    0.50
   1  -5   7   11.40    1.10
   1  -5   7   10.40    1.20
   1   5   7    9.90    0.50
  -1   5  -7    9.70    1.10
  -1   5  -7    8.20    0.90
   1   5   7    9.70    0.80
  -1   5  -7   10.40    0.90
  -1   5  -7   10.30    1.10
   1   5   7    8.30    0.50
   1   5   7   11.00    1.10
  -1   5  -7   12.10    1.20
  -1   5  -7    9.50    1.00
   1   5   7    8.30    0.50
   1   5   7   10.30    0.90
   2  -5   7   59.99    2.50
  -2  -5  -7   55.29    2.00
   2  -5   7   60.19    2.60
  -2  -5  -7   60.59    1.80
   2  -5   7   55.09    2.40
  -2  -5  -7   57.99    2.40
   2  -5   7   57.49    2.20
  -2   5  -7   57.69    2.30
  -2   5  -7   57.79    2.40
  -2   5  -7   57.89    2.20
  -2   5  -7   53.79    2.40
  -2   5  -7   57.69    2.50
   2   5   7   57.19    1.80
   2   5   7   57.19    2.00
   2   5   7   58.19    2.30
   2   5   7   56.79    1.80
  -2   5  -7   55.59    2.30
   2   5   7   60.99    2.50
  -3  -5  -7   17.20    1.40
   3  -5   7   17.60    1.50
   3  -5   7   15.60    1.10
   3  -5   7   16.10    1.40
  -3  -5  -7   16.50    1.00
  -3  -5  -7   16.20    1.10
   3  -5   7   17.10    1.50
  -3   5  -7   15.40    1.10
  -3   5  -7   16.80    1.40
   3   5   7   16.80    1.00
  -3   5  -7   18.10    1.50
   3   5   7   16.50    1.30
  -3   5  -7   15.70    1.30
  -3   5  -7   18.90    1.30
   3   5   7   15.70    1.40
  -3   5  -7   16.80    1.30
   3   5   7   16.50    1.00
   3   5   7   16.60    1.00
  -4  -5  -7   11.70    1.00
  -4  -5  -7   12.60    1.30
   4  -5   7   11.90    1.40
   4  -5   7    7.60    1.10
   4  -5   7   11.50    1.40
  -4  -5  -7   10.00    1.00
   4  -5   7   11.20    1.00
   4   5   7   12.40    1.40
  -4   5  -7   11.80    1.40
  -4   5  -7   10.90    1.10
   4   5   7   10.50    0.90
   4   5   7   10.30    1.20
   4   5   7   12.40    1.00
  -4   5  -7   13.30    1.20
  -4   5  -7   13.30    1.10
   5  -5   7   10.40    1.40
  -5  -5  -7   12.20    1.50
  -5  -5  -7   10.30    1.00
   5  -5   7    9.60    1.00
  -5  -5  -7   11.10    1.10
   5  -5   7   11.90    1.50
  -5   5  -7   10.40    1.40
  -5   5  -7   11.60    1.10
   5   5   7   11.40    1.00
   5   5   7   11.10    1.50
   5   5   7   10.50    1.10
   5   5   7    8.50    1.20
  -5   5  -7   10.90    1.30
   6  -5   7    7.40    1.20
  -6  -5  -7    7.80    1.10
   6  -5   7    8.50    1.00
  -6   5  -7    6.80    1.10
   6   5   7    8.90    1.10
   8  -6  -7   -0.50    0.50
  -8  -6   7    1.70    0.90
  -8  -6   7    0.90    0.60
   8   6  -7    2.10    0.90
  -8   6   7    0.70    0.60
   8   6  -7    0.60    0.50
   8   6  -7   -0.20    0.70
  -8   6   7    0.90    0.50
  -7  -6   7    6.40    1.00
  -7  -6   7   10.60    1.30
  -7  -6   7    9.80    1.40
   7  -6  -7   12.20    1.00
  -7  -6   7    6.30    1.10
  -7  -6   7    9.60    1.10
   7   6  -7    9.80    1.20
  -7   6   7    8.80    1.00
   7   6  -7   10.50    1.20
   7   6  -7    9.20    1.10
   7   6  -7   10.30    1.20
  -7   6   7    9.50    1.20
  -7   6   7   11.20    1.00
   7   6  -7   10.60    1.50
   6  -6  -7   13.70    1.00
  -6  -6   7   14.30    1.40
  -6  -6   7   14.60    1.20
  -6  -6   7   15.30    1.40
  -6  -6   7   14.90    1.50
  -6  -6   7   14.40    1.30
  -6   6   7   15.30    1.00
  -6   6   7   13.60    1.00
   6   6  -7   15.50    1.30
   6   6  -7   15.30    1.50
  -6   6   7   13.10    1.30
   6   6  -7   14.20    1.30
   6   6  -7   14.00    1.30
   6   6  -7   15.20    1.40
  -5  -6   7   20.20    1.30
  -5  -6   7   19.00    1.40
  -5  -6   7   19.00    1.50
  -5  -6   7   18.40    1.40
  -5  -6   7   20.10    1.50
   5  -6  -7   19.30    1.00
  -5  -6   7   21.30    1.60
  -5   6   7   19.50    1.00
   5   6  -7   22.30    1.60
   5   6  -7   20.10    1.30
   5   6  -7   19.10    1.40
   5   6  -7   22.70    1.60
  -5   6   7   18.50    1.40
  -5   6   7   20.20    1.00
   5   6  -7   21.20    1.40
  -4  -6   7   15.20    1.30
  -4  -6   7   15.10    1.20
  -4  -6   7   16.10    1.30
  -4  -6   7   16.30    1.10
   4  -6  -7   15.20    0.70
  -4  -6   7   13.50    1.20
  -4  -6   7   14.80    1.30
   4   6  -7   16.40    1.30
  -4   6   7   15.90    0.90
   4   6  -7   15.30    1.20
  -4   6   7   15.30    0.70
  -4   6   7   14.40    0.60
   4   6  -7   14.40    1.20
  -4   6   7   14.30    0.60
   4   6  -7   15.30    1.20
  -4   6   7   15.70    1.20
   4   6  -7   17.60    1.40
  -4   6   7   15.10    0.80
  -3  -6   7    6.10    0.90
  -3  -6   7    6.10    0.90
  -3  -6   7    6.80    1.00
  -3  -6   7    6.70    0.80
  -3  -6   7    6.80    1.00
   3   6  -7    6.30    0.90
   3   6  -7    4.70    0.80
  -3   6   7    4.40    0.40
  -3   6   7    5.90    0.80
  -3   6   7    5.40    0.70
   3   6  -7    6.60    0.90
   3   6  -7    6.80    1.00
  -3   6   7    5.30    0.50
   3   6  -7    4.00    0.70
  -2  -6   7   80.09    2.70
  -2  -6   7   79.29    3.00
  -2  -6   7   74.79    2.80
  -2  -6   7   81.49    2.90
  -2  -6   7   76.59    2.80
   2   6  -7   78.89    2.80
   2   6  -7   81.69    3.00
  -2   6   7   75.89    2.40
   2   6  -7   79.19    2.90
  -2   6   7   78.19    2.70
  -2   6   7   78.59    2.60
  -2   6   7   79.19    2.60
   2   6  -7   79.59    2.90
   2   6  -7   80.09    2.90
  -1  -6   7  144.69    4.60
  -1  -6   7  152.18    4.40
  -1  -6   7  140.29    4.50
   1   6  -7  144.79    4.50
   1   6  -7  141.39    4.50
   1   6  -7  148.89    4.50
   1   6  -7  145.79    4.40
  -1   6   7  141.39    4.10
   1   6  -7  144.59    4.50
  -1   6   7  143.99    4.10
  -1   6   7  148.19    4.10
  -1   6   7  147.49    4.40
   1   6  -7  148.79    4.40
   0  -6   7  147.39    4.60
   0  -6   7  144.99    4.50
   0  -6   7  145.89    4.30
   0   6  -7  137.99    4.30
   0   6  -7  140.69    4.40
   0   6  -7  142.19    4.40
   0   6   7  133.29    3.50
   0   6  -7  143.49    4.50
   0   6   7  137.49    3.80
   0   6  -7  137.89    4.30
   0   6   7  140.39    4.40
   0   6   7  141.69    4.10
   0   6   7  139.39    3.90
   0   6  -7  137.19    4.40
   1  -6   7   60.89    2.40
   1  -6   7   59.29    2.60
   1  -6   7   57.39    2.50
  -1   6  -7   60.09    2.30
   1   6   7   56.69    2.50
  -1   6  -7   56.99    2.40
   1   6   7   58.59    1.70
   1   6   7   60.19    2.30
  -1   6  -7   54.79    2.40
   1   6   7   58.59    1.90
  -1   6  -7   60.59    2.40
   1   6   7   59.59    1.60
   1   6   7   58.29    1.80
  -1   6  -7   56.79    2.40
  -1   6  -7   58.19    2.40
   2  -6   7   10.30    1.30
  -2  -6  -7   10.90    0.70
   2  -6   7   10.30    1.20
   2  -6   7    7.20    0.90
  -2  -6  -7   10.10    1.10
   2  -6   7    9.90    0.90
  -2   6  -7   11.40    1.20
   2   6   7   11.90    1.30
  -2   6  -7   10.40    1.10
   2   6   7   10.20    0.70
  -2   6  -7    9.90    1.10
   2   6   7    9.80    0.70
  -2   6  -7    9.40    1.00
   2   6   7   10.30    1.10
   2   6   7   10.40    0.70
  -2   6  -7   13.20    1.30
  -2   6  -7   13.20    1.20
   3  -6   7    1.60    0.50
  -3  -6  -7    1.40    0.40
  -3  -6  -7    0.70    0.40
   3  -6   7    2.50    0.80
   3  -6   7    1.40    0.80
  -3  -6  -7    0.60    0.60
   3  -6   7    1.10    0.70
   3   6   7    1.30    0.70
  -3   6  -7    2.50    0.80
   3   6   7    1.70    0.40
  -3   6  -7    1.30    0.70
   3   6   7    1.30    0.70
  -3   6  -7    1.00    0.60
  -3   6  -7    1.80    0.70
   3   6   7    1.00    0.40
  -3   6  -7    1.80    0.60
   3   6   7    1.10    0.40
  -3   6  -7    0.80    0.50
   4  -6   7    0.90    0.50
   4  -6   7   -0.50    0.70
  -4  -6  -7   -0.70    0.50
  -4  -6  -7    0.90    0.40
  -4  -6  -7    1.50    0.50
   4  -6   7    1.10    0.60
   4  -6   7    1.00    0.70
  -4   6  -7    0.80    0.70
  -4   6  -7    0.50    0.70
   4   6   7    0.70    0.50
  -4   6  -7    1.60    0.80
   4   6   7    1.60    0.60
   4   6   7    1.80    0.80
   4   6   7    0.40    0.50
  -4   6  -7    0.60    0.70
  -4   6  -7    0.10    0.50
  -4   6  -7   -0.10    0.50
  -5  -6  -7    1.20    0.50
   5  -6   7    1.20    0.50
   5  -6   7    2.60    1.00
  -5  -6  -7    2.00    0.80
   5  -6   7    1.90    0.90
   5   6   7    0.80    0.90
  -5   6  -7    1.40    0.80
  -5   6  -7    1.00    1.00
  -5   6  -7    1.50    0.80
   5   6   7    2.30    0.60
  -5   6  -7    1.30    0.80
  -6  -6  -7   46.40    2.10
   6  -6   7   49.00    2.90
   6  -6   7   44.90    2.10
  -6   6  -7   46.00    2.50
   7  -7  -7    8.30    0.90
  -7  -7   7    6.70    1.10
  -7  -7   7    7.90    1.20
  -7  -7   7    8.50    1.00
   7   7  -7    8.20    1.30
   7   7  -7    9.50    1.40
   7   7  -7    6.10    1.00
   7   7  -7   10.20    1.20
  -7   7   7    9.90    1.00
  -7   7   7    7.50    0.90
   6  -7  -7    3.60    0.60
  -6  -7   7    3.40    0.90
  -6  -7   7    3.70    1.00
  -6  -7   7    4.00    0.70
  -6  -7   7    2.90    0.80
  -6  -7   7    3.60    0.90
  -6   7   7    4.40    0.60
   6   7  -7    3.80    0.80
   6   7  -7    4.40    1.00
   6   7  -7    3.20    0.80
   6   7  -7    4.50    1.10
   6   7  -7    4.40    0.90
  -6   7   7    4.00    0.80
  -6   7   7    4.70    0.70
  -5  -7   7    0.20    0.60
  -5  -7   7    0.70    0.50
  -5  -7   7    0.30    0.60
   5  -7  -7    0.80    0.40
  -5  -7   7    0.70    0.60
  -5  -7   7    0.00    0.60
   5   7  -7   -0.10    0.50
  -5   7   7   -0.80    0.40
  -5   7   7    0.70    0.40
   5   7  -7    0.30    0.60
   5   7  -7    1.10    0.60
   5   7  -7    0.70    0.60
   5   7  -7    0.50    0.60
  -5   7   7    0.60    0.40
  -4  -7   7    5.10    0.90
  -4  -7   7    5.60    1.00
   4  -7  -7    5.40    0.50
  -4  -7   7    6.40    1.00
  -4  -7   7    4.90    0.70
  -4  -7   7    6.90    1.10
   4   7  -7    5.30    0.90
  -4   7   7    6.10    0.50
   4   7  -7    4.50    0.80
   4   7  -7    3.90    0.80
  -4   7   7    5.80    0.60
  -4   7   7    5.40    0.50
   4   7  -7    6.40    1.00
  -4   7   7    4.70    0.60
  -4   7   7    5.40    0.80
   4   7  -7    6.10    1.10
  -3  -7   7   39.40    2.10
  -3  -7   7   42.20    2.00
  -3  -7   7   38.40    1.90
  -3  -7   7   41.50    2.10
  -3  -7   7   37.30    1.70
   3   7  -7   43.80    2.00
   3   7  -7   39.30    1.90
   3   7  -7   42.60    2.10
   3   7  -7   38.00    2.00
  -3   7   7   39.80    1.80
  -3   7   7   37.90    1.20
  -3   7   7   38.40    1.80
   3   7  -7   42.80    2.20
  -3   7   7   38.90    1.30
  -3   7   7   39.10    1.70
  -2  -7   7    3.80    0.80
  -2  -7   7    6.40    1.00
  -2  -7   7    4.00    0.60
  -2  -7   7    3.40    0.80
  -2   7   7    4.60    0.50
   2   7  -7    5.30    0.90
  -2   7   7    5.00    0.70
   2   7  -7    3.10    0.80
   2   7  -7    4.60    0.80
  -2   7   7    4.80    0.70
  -2   7   7    5.30    0.80
   2   7  -7    5.70    0.90
   2   7  -7    6.60    1.00
  -1  -7   7   88.19    3.00
  -1  -7   7   92.59    3.30
  -1  -7   7   86.59    3.10
  -1  -7   7   86.19    3.40
   1   7  -7   85.59    3.30
   1   7  -7   86.39    3.00
   1   7  -7   90.29    3.30
   1   7  -7   81.59    3.00
  -1   7   7   87.69    2.80
  -1   7   7   84.99    2.70
   1   7  -7   88.29    3.20
  -1   7   7   84.89    2.30
  -1   7   7   88.99    3.10
  -1   7   7   86.69    2.70
   1   7  -7   91.29    3.30
   0  -7   7   15.30    1.40
   0  -7   7   15.10    1.20
   0  -7   7   16.40    1.50
   0   7  -7   16.20    1.30
   0   7  -7   16.30    1.40
   0   7  -7   16.80    1.30
   0   7  -7   18.50    1.40
   0   7  -7   16.90    1.40
   0   7   7   15.90    1.10
   0   7   7   16.30    0.90
   0   7   7   16.50    1.30
   0   7   7   15.20    0.70
   0   7  -7   16.70    1.40
   0   7   7   15.10    0.90
   1  -7   7   25.40    1.80
   1  -7   7   23.10    1.50
   1  -7   7   28.30    1.90
   1   7   7   26.10    1.70
  -1   7  -7   25.70    1.70
   1   7   7   24.60    1.00
   1   7   7   25.20    1.10
  -1   7  -7   24.30    1.60
  -1   7  -7   26.90    1.60
   1   7   7   26.80    1.50
  -1   7  -7   24.00    1.60
  -1   7  -7   28.40    1.70
  -1   7  -7   23.40    1.40
   1   7   7   26.00    1.00
  -2  -7  -7   11.50    0.70
   2  -7   7   10.70    1.00
   2  -7   7   11.70    1.40
  -2  -7  -7   11.60    1.20
   2  -7   7   10.90    1.20
   2  -7   7   10.80    1.30
  -2   7  -7   11.00    1.20
   2   7   7   10.90    0.70
  -2   7  -7   10.10    1.20
   2   7   7   10.60    0.50
   2   7   7   13.00    1.40
   2   7   7   12.20    0.70
  -2   7  -7    9.90    1.20
   2   7   7   11.00    0.60
  -2   7  -7    9.50    1.10
   2   7   7   11.00    0.80
  -2   7  -7   13.80    1.50
   2   7   7   10.40    0.70
  -2   7  -7   12.00    1.10
   2   7   7   12.40    1.20
   3  -7   7    5.10    1.10
   3  -7   7    3.00    0.80
  -3  -7  -7    2.80    0.70
   3  -7   7    3.30    0.60
   3  -7   7    1.90    0.90
  -3  -7  -7    2.70    0.50
  -3   7  -7    2.70    0.80
   3   7   7    4.20    0.60
  -3   7  -7    3.10    0.90
   3   7   7    2.90    0.50
   3   7   7    3.80    1.00
   3   7   7    2.00    0.70
   3   7   7    3.30    0.60
  -3   7  -7    2.50    0.80
  -3   7  -7    2.60    0.80
  -3   7  -7    3.00    0.80
  -3   7  -7    2.60    0.70
  -4  -7  -7    1.10    0.50
   4  -7   7    1.20    0.90
   4  -7   7    1.40    0.90
   4  -7   7    1.00    0.50
  -4  -7  -7    0.40    0.70
  -4  -7  -7    0.60    0.30
   4   7   7    0.10    0.60
   4   7   7    0.50    0.50
  -4   7  -7    1.40    0.70
  -4   7  -7    0.50    0.50
  -4   7  -7    0.70    0.80
   4   7   7    0.10    0.40
  -4   7  -7    0.70    0.70
  -4   7  -7    0.40    0.70
  -4   7  -7    1.40    0.80
   4   7   7    0.10    0.50
   5  -7   7   15.60    1.10
  -5  -7  -7   14.30    1.00
   5  -7   7   14.30    1.80
  -5   7  -7   15.90    1.60
  -5   7  -7   16.00    1.60
   5   7   7   13.80    1.20
  -5   7  -7   11.60    1.60
   7  -8  -7    2.70    0.60
  -7  -8   7    3.80    0.70
  -7   8   7    2.80    0.70
  -7   8   7    2.30    0.60
   7   8  -7    4.30    1.00
   7   8  -7    1.90    0.90
  -6  -8   7    3.30    1.00
  -6  -8   7    3.00    0.90
  -6  -8   7    3.20    0.60
   6  -8  -7    5.30    0.70
  -6   8   7    4.70    0.60
   6   8  -7    3.50    0.90
  -6   8   7    4.80    0.70
   6   8  -7    4.30    1.00
   6   8  -7    5.90    1.00
   6   8  -7    2.90    0.90
  -6   8   7    4.70    1.10
  -5  -8   7   16.70    1.50
  -5  -8   7   18.00    1.50
  -5  -8   7   17.60    1.20
  -5  -8   7   16.50    1.60
  -5  -8   7   15.20    1.50
   5  -8  -7   16.10    0.90
  -5   8   7   15.50    1.40
  -5   8   7   15.10    1.00
   5   8  -7   16.40    1.50
   5   8  -7   17.80    1.60
   5   8  -7   16.30    1.40
   5   8  -7   15.10    1.50
  -5   8   7   16.10    1.00
   5   8  -7   17.50    1.50
  -5   8   7   15.00    0.90
  -5   8   7   16.30    1.00
   4  -8  -7    6.70    0.50
  -4  -8   7    7.80    1.20
  -4  -8   7    6.80    1.20
  -4  -8   7    5.10    0.90
  -4  -8   7    5.80    1.00
  -4  -8   7    8.40    0.90
  -4   8   7    5.40    0.60
   4   8  -7    5.70    1.00
  -4   8   7    5.40    0.70
  -4   8   7    7.40    0.50
   4   8  -7    8.80    1.20
   4   8  -7    6.30    1.00
  -4   8   7    5.50    0.90
   4   8  -7    7.50    1.20
   4   8  -7    5.40    0.90
  -4   8   7    6.30    0.50
  -3  -8   7   33.30    1.90
  -3  -8   7   33.40    2.10
  -3  -8   7   33.30    2.00
  -3  -8   7   33.10    1.50
   3   8  -7   31.50    2.00
  -3   8   7   29.90    1.60
   3   8  -7   32.90    1.90
   3   8  -7   31.40    1.90
  -3   8   7   33.10    1.60
   3   8  -7   30.60    1.80
  -3   8   7   31.60    1.70
  -3   8   7   34.50    1.30
   3   8  -7   32.80    1.90
  -2  -8   7    5.50    1.10
  -2  -8   7    4.30    0.70
  -2  -8   7    5.40    1.00
  -2  -8   7    3.80    0.90
  -2   8   7    4.60    0.80
   2   8  -7    5.40    1.00
   2   8  -7    3.40    0.90
  -2   8   7    4.20    0.70
   2   8  -7    7.20    1.10
   2   8  -7    5.60    1.00
   2   8  -7    3.50    0.80
  -2   8   7    3.60    0.60
  -2   8   7    5.20    0.50
  -1  -8   7    4.10    0.80
  -1  -8   7    3.40    0.90
  -1  -8   7    2.80    0.90
  -1  -8   7    4.00    0.70
  -1   8   7    4.50    0.90
   1   8  -7    3.80    0.90
  -1   8   7    3.20    0.50
   1   8  -7    3.70    0.90
  -1   8   7    2.70    0.50
  -1   8   7    2.90    0.40
   1   8  -7    2.90    0.80
   1   8  -7    3.60    0.90
   1   8  -7    2.00    0.60
   1   8  -7    2.20    0.70
  -1   8   7    3.40    0.60
   0  -8   7   -0.10    0.60
   0  -8   7    1.10    0.80
   0  -8   7    1.70    0.60
   0  -8   7    0.60    0.50
   0   8  -7    1.80    0.80
   0   8  -7    2.60    0.80
   0   8   7    1.30    0.40
   0   8  -7    0.60    0.50
   0   8  -7    2.00    0.80
   0   8  -7    1.10    0.70
   0   8  -7    0.90    0.70
   0   8   7    2.50    0.80
   0   8   7    1.10    0.30
   0   8   7    1.10    0.40
   0   8   7    1.30    0.50
   1  -8   7   34.50    2.00
   1  -8   7   30.30    2.20
   1  -8   7   33.70    1.80
   1   8   7   33.60    1.40
   1   8   7   30.70    2.00
  -1   8  -7   35.20    2.00
  -1   8  -7   36.30    2.00
  -1   8  -7   33.10    1.90
  -1   8  -7   31.10    2.00
  -1   8  -7   33.10    2.00
   1   8   7   34.00    1.30
  -1   8  -7   33.00    2.00
   1   8   7   31.70    1.70
  -2  -8  -7    9.30    0.60
  -2  -8  -7    5.90    0.90
   2  -8   7    7.50    1.20
   2  -8   7    6.80    0.80
   2  -8   7    7.10    1.00
   2  -8   7   12.00    1.60
  -2   8  -7    8.60    1.20
  -2   8  -7   10.30    1.30
   2   8   7    5.30    1.00
   2   8   7    5.50    0.80
   2   8   7    8.60    0.60
  -2   8  -7    9.90    1.20
   2   8   7    7.90    0.80
  -2   8  -7    6.10    0.90
   2   8   7    7.60    0.60
   2   8   7    8.10    0.60
   2   8   7    7.30    0.60
  -2   8  -7    9.50    1.20
  -2   8  -7    7.90    1.20
  -3  -8  -7   -0.30    0.30
   3  -8   7    0.50    0.40
   3  -8   7    0.70    0.90
  -3  -8  -7    0.30    0.60
   3  -8   7    1.00    0.90
  -3   8  -7    0.20    0.70
   3   8   7    0.90    0.40
   3   8   7    0.30    0.40
  -3   8  -7    0.50    0.70
  -3   8  -7    0.50    0.60
  -3   8  -7    0.50    0.70
  -3   8  -7    0.20    0.60
   3   8   7    0.50    0.60
   3   8   7    0.10    0.40
   3   8   7    1.00    0.70
  -3   8  -7    0.20    0.70
   4  -8   7    7.90    0.90
  -4  -8  -7    7.20    1.50
   4  -8   7   10.50    1.50
   4   8   7    9.70    1.00
  -4   8  -7    6.10    1.20
  -4   8  -7    9.40    1.40
   4   8   7    9.70    1.60
  -4   8  -7    7.10    1.30
   4   8   7    7.80    0.90
  -4   8  -7    7.50    1.20
   5  -8   7   35.00    2.50
   5  -8   7   31.30    1.50
   5   8   7   34.70    1.80
   5   8   7   35.00    2.30
  -5   8  -7   35.60    2.30
   6  -9  -7    2.70    0.50
  -6  -9   7    1.90    0.50
  -6   9   7    3.20    0.60
   6   9  -7    0.70    0.80
  -6   9   7    1.50    0.50
  -6   9   7    1.30    0.80
  -5  -9   7    1.40    0.40
   5  -9  -7    1.70    0.40
  -5  -9   7    1.00    0.80
  -5  -9   7    1.40    0.80
  -5  -9   7    0.50    0.70
   5   9  -7    0.90    0.70
   5   9  -7    3.00    0.90
  -5   9   7    2.40    0.40
  -5   9   7    1.60    0.50
  -5   9   7    2.30    0.50
  -5   9   7    1.90    0.60
   5   9  -7    0.60    0.70
  -5   9   7    1.30    0.70
  -4  -9   7    9.40    1.30
  -4  -9   7    9.50    1.30
  -4  -9   7    9.70    1.20
  -4  -9   7    9.70    0.90
  -4   9   7   10.50    0.80
   4   9  -7   11.10    1.30
   4   9  -7   10.20    1.30
   4   9  -7    8.60    1.20
  -4   9   7   10.30    1.10
   4   9  -7    9.80    1.30
  -4   9   7   12.00    1.30
   4   9  -7   11.40    1.50
  -4   9   7   11.20    1.10
  -3  -9   7   10.50    1.20
  -3  -9   7    8.80    1.40
  -3  -9   7   10.00    1.30
  -3  -9   7    7.80    0.80
   3   9  -7    6.80    1.20
  -3   9   7    8.60    0.70
   3   9  -7    8.30    1.20
   3   9  -7    9.10    1.10
  -3   9   7   11.70    1.00
  -3   9   7    7.60    1.00
   3   9  -7   10.70    1.30
   3   9  -7   11.10    1.40
  -3   9   7    9.40    1.10
  -2  -9   7    6.60    1.20
  -2  -9   7    8.40    1.10
  -2  -9   7    5.50    0.80
  -2   9   7    4.90    0.80
   2   9  -7    5.00    1.00
   2   9  -7    5.10    1.00
   2   9  -7    7.50    1.20
   2   9  -7    5.30    0.90
  -2   9   7    7.30    1.00
  -2   9   7    5.80    0.50
  -2   9   7    7.00    0.70
   2   9  -7    6.10    1.10
  -1  -9   7    2.80    0.90
  -1  -9   7    1.30    0.60
  -1  -9   7    1.30    0.80
  -1  -9   7    1.70    0.60
   1   9  -7    2.90    0.80
  -1   9   7    2.20    0.60
  -1   9   7    1.90    0.40
   1   9  -7    3.80    1.00
  -1   9   7    2.50    0.80
   1   9  -7    1.80    0.80
   1   9  -7    2.60    0.90
  -1   9   7    2.30    0.50
  -1   9   7    2.10    0.50
   1   9  -7    1.70    0.80
   0  -9   7    0.00    0.50
   0  -9   7    0.60    0.80
   0  -9   7    0.40    0.50
   0  -9   7   -0.80    0.60
   0   9  -7    0.30    0.60
   0   9   7    0.10    0.40
   0   9  -7    1.00    0.70
   0   9  -7    0.80    0.70
   0   9  -7   -0.60    0.60
   0   9   7    0.90    0.50
   0   9  -7   -0.10    0.70
   0   9   7    1.30    0.40
   0   9   7    1.00    0.70
   0   9  -7    0.20    0.50
   1  -9   7    6.00    0.90
   1  -9   7    5.70    1.30
   1  -9   7    4.70    0.80
   1  -9   7    5.40    1.20
   1   9   7    6.50    0.70
  -1   9  -7    5.30    1.10
   1   9   7    6.90    0.80
  -1   9  -7    4.90    1.10
   1   9   7    5.90    1.10
   1   9   7    4.70    0.80
  -1   9  -7    5.10    1.10
  -1   9  -7    5.70    1.00
  -1   9  -7    6.60    1.00
  -1   9  -7    3.20    0.90
   1   9   7    7.20    0.80
   2  -9   7    2.90    0.70
   2  -9   7    5.30    1.20
   2  -9   7    3.40    0.70
   2  -9   7    4.10    0.70
   2   9   7    3.20    0.40
   2   9   7    4.30    0.80
  -2   9  -7    3.30    1.00
   2   9   7    3.60    0.60
   2   9   7    2.10    0.90
  -2   9  -7    3.00    1.00
   2   9   7    3.70    0.40
  -2   9  -7    4.50    1.00
   2   9   7    3.20    0.50
   2   9   7    3.30    0.50
  -2   9  -7    2.50    0.80
  -3  -9  -7    1.30    0.40
   3  -9   7    0.40    0.90
  -3  -9  -7    0.60    0.70
   3  -9   7    0.60    0.50
   3  -9   7    0.80    0.50
   3   9   7    0.50    0.40
  -3   9  -7    0.70    0.70
   3   9   7    0.10    0.40
   3   9   7    1.30    0.70
  -3   9  -7   -0.40    0.60
  -3   9  -7    0.60    0.90
   3   9   7    0.40    0.50
   4  -9   7    9.80    0.80
   4  -9   7    7.90    1.40
   4   9   7   10.60    1.10
   4   9   7   12.00    1.20
  -4   9  -7   11.10    1.40
  -5 -10   7    2.80    0.40
   5  10  -7    3.40    1.10
  -5  10   7    4.30    0.80
  -5  10   7    3.00    0.60
  -5  10   7    3.80    0.40
  -5  10   7    2.30    0.80
  -4 -10   7    2.00    0.40
  -4 -10   7    2.40    1.20
  -4  10   7    2.40    0.50
  -4  10   7    2.00    0.70
   4  10  -7    0.00    0.80
  -4  10   7    1.00    0.60
  -4  10   7    1.10    0.60
  -3 -10   7   -0.10    0.60
  -3 -10   7    2.00    0.80
  -3 -10   7    0.80    0.40
  -3  10   7    0.10    0.50
   3  10  -7   -0.50    0.70
   3  10  -7    0.50    0.80
  -3  10   7    1.20    0.60
  -3  10   7    0.00    0.40
  -3  10   7   -0.10    0.40
  -3  10   7   -0.10    0.40
  -2 -10   7    1.80    0.50
  -2 -10   7    3.40    0.80
  -2  10   7    2.90    0.60
  -2  10   7    2.00    0.40
  -2  10   7    3.00    0.40
  -2  10   7    1.30    0.70
   2  10  -7    2.10    0.80
   2  10  -7    2.30    0.90
  -2  10   7    3.10    0.70
  -1 -10   7    0.80    0.60
  -1 -10   7    1.20    0.50
   1  10  -7    1.30    0.80
  -1  10   7    0.90    0.50
  -1  10   7    1.00    0.40
   1  10  -7    0.90    0.80
  -1  10   7    0.60    0.70
  -1  10   7    0.30    0.50
   0 -10   7    1.40    0.60
   0 -10   7    2.10    0.70
   0 -10   7    1.50    0.90
   0  10  -7    1.70    0.60
   0  10   7    1.40    0.80
   0  10  -7    0.70    0.80
   0  10   7    1.30    0.50
   0  10   7    2.20    0.50
   0  10   7    3.00    0.60
   0  10  -7    0.00    0.70
   1 -10   7    3.60    1.00
   1 -10   7    3.70    0.70
  -1  10  -7    2.90    0.80
   1  10   7    3.30    0.80
  -1  10  -7    2.60    0.90
   1  10   7    4.10    0.60
  -1  10  -7    4.40    1.10
   1  10   7    2.60    0.60
   1  10   7    3.00    0.60
   2 -10   7   22.40    1.40
   2 -10   7   23.70    1.30
   2 -10   7   25.80    2.10
  -2  10  -7   25.10    1.90
   2  10   7   24.80    1.30
  -2  10  -7   26.30    1.90
   2  10   7   21.60    1.10
   2  10   7   24.60    1.20
   2  10   7   24.00    1.70
  -3 -11   7    3.00    1.40
  -3  11   7    2.30    0.50
  -3  11   7    3.70    0.80
  -3  11   7    1.50    0.50
  -3  11   7    2.30    0.60
  -2 -11   7   -0.20    0.60
  -2  11   7    0.20    0.60
   2  11  -7    0.20    0.80
  -2  11   7   -0.50    0.40
  -2  11   7    0.90    0.70
  -1 -11   7    0.40    0.60
  -1  11   7    1.90    0.60
  -1  11   7    0.30    0.50
   1  11  -7    0.40    0.70
   0 -11   7    2.10    0.60
   0 -11   7    0.80    0.90
   0  11  -7    2.10    0.90
   0  11   7    2.00    0.60
   0  11  -7    2.60    0.70
   0  11   7    1.50    0.50
   0  11   7    2.30    0.60
   9   0  -8    0.10    0.50
  -9   0   8    0.00    0.60
  -9   0   8   -0.30    0.60
   9   0  -8    1.10    0.70
  -8   0   8   15.00    1.30
   8   0  -8   13.40    1.00
   8   0  -8   13.90    1.40
  -8   0   8   12.40    1.20
  -8   0   8   15.30    1.30
  -8   0   8   15.50    1.30
   8   0  -8   15.20    1.20
  -7   0   8   13.60    1.10
   7   0  -8   14.80    1.30
  -7   0   8   15.10    1.20
  -7   0   8   14.70    1.20
   7   0  -8   13.50    1.10
   7   0  -8   13.60    0.90
  -7   0   8   14.40    1.20
  -6   0   8    1.70    0.60
   6   0  -8    1.40    0.50
  -6   0   8    1.80    0.60
  -6   0   8    1.50    0.50
  -6   0   8    1.00    0.50
   6   0  -8    1.40    0.50
   6   0  -8    0.90    0.40
  -5   0   8  142.39    4.20
  -5   0   8  143.99    4.30
  -5   0   8  141.19    4.00
   5   0  -8  138.49    4.20
   5   0  -8  141.19    4.00
   5   0  -8  144.79    3.70
  -5   0   8  129.59    4.10
   4   0  -8  222.88    5.50
  -4   0   8  225.28    5.80
   4   0  -8  222.48    5.90
   4   0  -8  222.78    6.00
  -4   0   8  223.28    6.00
  -4   0   8  225.98    6.30
  -4   0   8  216.68    5.90
  -3   0   8  191.48    5.20
   3   0  -8  194.88    5.20
  -3   0   8  188.78    5.10
   3   0  -8  184.38    5.10
  -3   0   8  195.88    5.00
  -3   0   8  190.68    4.80
   3   0  -8  195.08    4.70
  -3   0   8  186.58    5.40
  -2   0   8   87.49    2.50
   2   0  -8   83.89    2.20
  -2   0   8   84.19    2.60
  -2   0   8   90.69    2.50
   2   0  -8   83.19    2.50
   2   0  -8   82.99    2.60
   2   0  -8   85.39    2.50
  -2   0   8   84.19    2.80
  -2   0   8   83.79    2.50
   2   0  -8   84.99    2.20
   1   0  -8  110.59    2.70
   1   0  -8  111.49    3.10
  -1   0   8  105.29    3.10
  -1   0   8  109.19    3.10
   1   0  -8  110.39    3.10
  -1   0   8  109.99    3.10
  -1   0   8  111.69    3.40
   1   0  -8  108.59    2.70
   1   0  -8  108.89    3.10
   1   0  -8  106.89    3.40
  -1   0   8  110.59    3.10
   0   0   8    2.90    0.60
   0   0  -8    2.60    0.40
   0   0  -8    2.30    0.40
   0   0  -8    2.80    0.30
   0   0  -8    3.10    0.30
   0   0  -8    2.10    0.60
   0   0   8    3.50    0.40
   0   0  -8    2.60    0.40
   0   0   8    2.60    0.40
  -1   0  -8    0.50    0.50
   1   0   8    0.90    0.40
  -1   0  -8    1.00    0.30
   1   0   8    0.80    0.50
  -1   0  -8    1.00    0.30
  -1   0  -8    1.70    0.30
  -1   0  -8    0.70    0.30
   1   0   8    2.20    0.60
   2   0   8   16.50    1.00
  -2   0  -8   15.10    0.90
  -2   0  -8   15.30    0.70
  -2   0  -8   16.10    0.90
   2   0   8   15.20    1.00
   2   0   8   16.70    1.20
   2   0   8   15.20    1.10
  -2   0  -8   16.00    0.80
  -2   0  -8   14.80    1.20
   3   0   8   66.79    2.40
  -3   0  -8   66.49    2.10
  -3   0  -8   69.99    1.90
  -3   0  -8   69.79    2.80
  -3   0  -8   72.29    2.30
   3   0   8   70.29    2.70
   3   0   8   71.09    2.70
  -3   0  -8   70.89    2.40
   3   0   8   67.19    2.50
  -4   0  -8   35.00    1.00
  -4   0  -8   36.50    1.10
  -4   0  -8   36.30    1.70
   4   0   8   36.50    1.90
   4   0   8   38.20    1.70
   4   0   8   40.40    1.90
   4   0   8   33.70    1.90
  -4   0  -8   36.20    1.40
  -4   0  -8   36.90    2.00
   5   0   8   -0.60    0.50
   5   0   8   -0.70    0.50
  -5   0  -8   -0.10    0.60
   5   0   8    0.70    0.60
  -5   0  -8    0.10    0.40
   5   0   8   -0.20    0.50
  -5   0  -8    0.20    0.50
  -6   0  -8    4.00    0.70
   6   0   8    6.60    1.10
  -6   0  -8    5.10    0.90
  -6   0  -8    5.90    1.10
   6   0   8    4.40    0.90
   6   0   8    5.30    1.00
  -7   0  -8    0.60    0.60
  -9  -1   8    2.70    1.00
   9  -1  -8    2.80    0.80
  -9  -1   8    1.20    0.60
   9  -1  -8    2.90    0.60
  -9   1   8    1.10    0.70
   9   1  -8    3.70    0.90
   9   1  -8    3.10    0.70
  -9   1   8    2.00    0.70
   8  -1  -8    2.00    0.60
  -8  -1   8    0.80    0.60
  -8  -1   8    2.90    0.80
  -8  -1   8    2.90    0.70
  -8  -1   8    2.50    0.80
   8  -1  -8    2.50    0.50
   8   1  -8    1.10    0.70
   8   1  -8    2.60    0.80
  -8   1   8    1.60    0.60
  -8   1   8    1.70    0.60
  -8   1   8    1.50    0.70
  -8   1   8    1.50    0.60
   8   1  -8    1.90    0.60
   7  -1  -8    4.20    0.70
   7  -1  -8    4.40    0.80
   7  -1  -8    3.00    0.50
  -7  -1   8    4.10    0.80
  -7  -1   8    4.70    0.80
  -7  -1   8    4.50    0.80
  -7  -1   8    2.90    0.80
  -7   1   8    3.30    0.70
   7   1  -8    3.90    0.60
  -7   1   8    4.20    0.70
   7   1  -8    4.40    0.80
  -7   1   8    3.40    0.70
   7   1  -8    3.20    0.70
  -7   1   8    4.50    0.80
  -6  -1   8   37.10    1.90
  -6  -1   8   37.90    1.80
  -6  -1   8   35.50    1.80
   6  -1  -8   39.40    1.60
   6  -1  -8   38.20    1.40
  -6  -1   8   35.40    1.70
   6  -1  -8   37.90    1.80
  -6   1   8   40.80    1.80
  -6   1   8   38.10    1.70
  -6   1   8   36.90    1.60
   6   1  -8   38.70    1.50
  -6   1   8   36.10    1.80
   6   1  -8   38.40    1.80
   6   1  -8   39.90    1.80
   5  -1  -8  146.39    3.70
   5  -1  -8  143.39    4.30
  -5  -1   8  147.39    4.40
  -5  -1   8  139.89    4.10
  -5  -1   8  138.39    4.20
  -5  -1   8  138.49    4.20
   5   1  -8  148.89    3.90
  -5   1   8  139.09    4.00
   5   1  -8  142.29    4.20
  -5   1   8  137.99    4.20
   5   1  -8  143.49    4.20
  -5   1   8  134.19    4.10
  -5   1   8  145.99    4.30
   5   1  -8  138.39    4.10
   4  -1  -8  358.06    8.50
   4  -1  -8  354.46    9.10
  -4  -1   8  355.36    8.60
  -4  -1   8  354.96    9.20
   4  -1  -8  358.76    8.80
  -4  -1   8  363.76    9.00
  -4  -1   8  346.57    9.10
   4  -1  -8  352.06    8.90
  -4  -1   8  354.26    9.40
   4   1  -8  358.16    9.10
   4   1  -8  362.56    9.10
  -4   1   8  358.06    8.80
   4   1  -8  348.67    9.00
   4   1  -8  360.76    8.80
  -4   1   8  342.17    8.90
  -4   1   8  354.46    9.10
  -3  -1   8   39.40    1.50
  -3  -1   8   39.20    1.60
  -3  -1   8   37.50    1.60
   3  -1  -8   39.40    1.40
  -3  -1   8   35.30    1.30
  -3  -1   8   39.00    1.80
   3  -1  -8   38.60    1.50
   3  -1  -8   39.60    1.30
  -3   1   8   39.90    1.30
  -3   1   8   39.40    1.40
   3   1  -8   39.90    1.60
   3   1  -8   38.20    1.50
  -3   1   8   38.50    1.10
  -3   1   8   39.70    1.80
   3   1  -8   37.00    1.30
   3   1  -8   39.80    1.50
  -3   1   8   38.80    1.50
  -2  -1   8   65.59    2.20
  -2  -1   8   66.49    2.10
  -2  -1   8   68.19    2.40
   2  -1  -8   64.59    2.00
   2  -1  -8   66.99    2.10
   2  -1  -8   67.79    1.90
  -2  -1   8   69.19    2.10
  -2  -1   8   67.49    2.20
  -2   1   8   63.59    2.00
   2   1  -8   64.49    2.10
   2   1  -8   65.09    1.90
  -2   1   8   63.19    2.40
   2   1  -8   65.99    2.20
   2   1  -8   64.89    2.10
  -2   1   8   68.29    2.10
  -2   1   8   69.19    2.00
   1  -1  -8  183.28    4.70
   1  -1  -8  186.78    4.80
  -1  -1   8  183.38    4.90
  -1  -1   8  188.38    4.90
  -1  -1   8  184.28    4.90
  -1  -1   8  179.78    5.20
   1  -1  -8  180.28    5.20
   1  -1  -8  183.18    4.70
  -1  -1   8  186.98    5.00
  -1   1   8  185.88    5.20
  -1   1   8  186.58    4.70
   1   1  -8  185.08    4.90
   1   1  -8  182.78    4.70
   1   1  -8  176.58    5.20
   1   1  -8  180.38    4.60
   1   1  -8  183.08    4.90
  -1   1   8  180.78    4.70
   1   1  -8  184.88    4.90
  -1   1   8  185.48    4.80
   0  -1  -8   47.70    1.50
   0  -1   8   44.30    1.90
   0  -1  -8   45.00    1.50
   0  -1   8   46.80    1.60
   0  -1   8   45.90    1.80
   0  -1   8   45.80    1.70
   0  -1  -8   45.80    1.90
   0  -1  -8   45.80    1.40
   0   1  -8   45.40    1.70
   0   1  -8   44.70    1.60
   0   1  -8   46.40    1.70
   0   1  -8   45.50    1.40
   0   1   8   46.60    1.50
   0   1   8   48.20    1.90
   0   1  -8   45.80    1.90
   0   1   8   45.30    1.80
   0   1   8   47.60    1.50
   0   1  -8   46.00    1.50
   1  -1   8   15.90    1.10
  -1  -1  -8   16.70    0.80
  -1  -1  -8   18.90    1.20
   1  -1   8   17.10    1.00
   1  -1   8   17.70    1.20
  -1  -1  -8   18.50    0.70
  -1   1  -8   18.30    1.00
  -1   1  -8   18.80    1.00
   1   1   8   16.40    1.10
  -1   1  -8   16.30    0.80
   1   1   8   16.80    1.10
  -1   1  -8   17.30    1.20
  -1   1  -8   18.10    0.80
   1   1   8   16.60    0.90
   1   1   8   18.30    0.90
  -1   1  -8   16.50    0.90
   2  -1   8  275.97    7.40
  -2  -1  -8  267.17    7.40
  -2  -1  -8  258.07    6.90
   2  -1   8  252.87    7.20
  -2  -1  -8  267.57    6.50
  -2  -1  -8  276.37    6.40
   2  -1   8  271.17    7.20
  -2  -1  -8  269.67    6.60
  -2   1  -8  273.27    6.90
  -2   1  -8  264.27    7.00
   2   1   8  268.27    6.90
  -2   1  -8  267.77    6.80
   2   1   8  268.87    7.00
  -2   1  -8  274.07    7.50
   2   1   8  273.67    7.30
  -2   1  -8  272.27    6.70
   2   1   8  256.07    7.30
   3  -1   8  100.89    3.40
  -3  -1  -8  106.29    3.60
   3  -1   8  102.79    3.30
   3  -1   8  105.69    3.50
  -3  -1  -8  106.19    3.00
  -3  -1  -8  111.59    3.20
   3  -1   8  102.89    3.60
  -3  -1  -8  104.49    2.90
  -3   1  -8  108.99    3.30
  -3   1  -8  106.49    3.30
  -3   1  -8  103.59    3.00
   3   1   8  106.09    3.60
   3   1   8  103.89    3.50
  -3   1  -8  107.79    3.70
   3   1   8  100.99    3.20
   3   1   8  105.09    3.30
  -3   1  -8  103.09    2.90
   4  -1   8   40.40    2.00
   4  -1   8   37.20    2.00
   4  -1   8   40.50    1.80
  -4  -1  -8   38.10    1.70
  -4  -1  -8   40.20    2.10
   4  -1   8   40.30    2.00
  -4  -1  -8   40.40    1.50
  -4   1  -8   42.20    1.60
   4   1   8   38.60    1.80
  -4   1  -8   40.20    1.80
   4   1   8   41.80    1.80
  -4   1  -8   41.00    1.40
  -4   1  -8   40.10    2.20
   4   1   8   40.10    2.00
   4   1   8   38.50    2.00
   5  -1   8   17.20    1.40
  -5  -1  -8   20.20    1.10
  -5  -1  -8   16.90    1.30
   5  -1   8   19.00    1.40
   5  -1   8   18.50    1.50
  -5  -1  -8   20.80    1.70
   5  -1   8   20.10    1.60
  -5   1  -8   17.40    1.10
  -5   1  -8   18.70    1.40
   5   1   8   18.10    1.50
   5   1   8   20.30    1.50
  -5   1  -8   19.00    0.90
  -5   1  -8   18.30    0.80
  -5   1  -8   18.50    1.70
   5   1   8   20.50    1.30
   5   1   8   20.90    1.40
  -6  -1  -8   10.40    1.30
  -6  -1  -8   12.30    1.20
   6  -1   8   10.80    1.40
   6  -1   8   11.10    1.40
   6  -1   8   10.70    1.40
  -6  -1  -8    9.90    0.90
   6   1   8   10.10    1.30
  -6   1  -8   13.30    1.70
   6   1   8   11.70    1.20
  -6   1  -8    8.90    0.60
  -6   1  -8    9.40    1.20
  -6   1  -8    9.90    1.00
   6   1   8   10.00    1.30
  -6   1  -8    9.80    0.60
  -7  -1  -8    7.30    0.90
  -7   1  -8    5.20    0.90
   9  -2  -8   28.50    1.70
   9  -2  -8   26.60    1.40
  -9  -2   8   30.20    2.10
  -9   2   8   27.90    1.70
  -9   2   8   29.20    1.90
   9   2  -8   30.40    1.70
   9   2  -8   28.70    1.90
   9   2  -8   27.40    1.00
  -8  -2   8   21.40    1.60
  -8  -2   8   21.40    1.70
  -8  -2   8   24.60    1.70
   8  -2  -8   25.30    1.50
   8  -2  -8   21.70    1.10
  -8  -2   8   21.20    1.50
   8   2  -8   20.10    1.50
  -8   2   8   20.20    1.40
  -8   2   8   24.60    1.60
  -8   2   8   19.90    1.50
   8   2  -8   20.60    1.60
  -8   2   8   23.10    1.40
   8   2  -8   22.30    1.40
   8   2  -8   21.10    0.90
  -7  -2   8   24.90    1.50
  -7  -2   8   21.40    1.50
   7  -2  -8   22.80    1.00
  -7  -2   8   22.60    1.60
  -7  -2   8   19.60    1.50
   7  -2  -8   21.80    1.30
   7   2  -8   22.10    1.50
   7   2  -8   22.00    0.90
   7   2  -8   23.70    1.30
   7   2  -8   23.00    1.50
  -7   2   8   23.00    1.30
  -7   2   8   21.60    1.30
  -7   2   8   22.30    1.40
  -7   2   8   22.70    1.50
  -6  -2   8   37.20    1.90
  -6  -2   8   39.90    1.80
  -6  -2   8   37.30    1.90
  -6  -2   8   39.90    2.00
   6  -2  -8   39.80    1.30
  -6   2   8   41.00    1.90
  -6   2   8   40.00    1.70
   6   2  -8   39.40    1.30
   6   2  -8   41.40    2.00
   6   2  -8   41.70    1.90
   6   2  -8   40.60    1.80
  -6   2   8   38.00    1.70
   6   2  -8   41.90    1.60
  -6   2   8   34.30    1.60
  -5  -2   8  197.18    5.60
  -5  -2   8  195.48    5.50
   5  -2  -8  196.48    5.60
  -5  -2   8  194.88    5.70
  -5  -2   8  194.08    5.70
  -5  -2   8  196.28    5.60
   5  -2  -8  199.08    5.20
  -5   2   8  182.28    5.20
   5   2  -8  195.78    5.50
   5   2  -8  202.88    5.60
  -5   2   8  196.08    5.40
   5   2  -8  194.48    5.00
   5   2  -8  196.98    5.20
  -5   2   8  194.58    5.50
  -5   2   8  191.28    5.10
   5   2  -8  192.98    5.50
  -4  -2   8   15.20    0.80
   4  -2  -8   16.50    0.80
  -4  -2   8   17.20    1.20
  -4  -2   8   15.50    1.00
   4  -2  -8   16.00    1.10
  -4  -2   8   16.20    1.10
  -4  -2   8   15.10    1.10
  -4  -2   8   15.00    1.20
   4   2  -8   15.10    1.00
  -4   2   8   16.90    1.00
   4   2  -8   16.50    0.90
   4   2  -8   13.90    1.10
   4   2  -8   16.10    1.00
  -4   2   8   15.50    0.80
  -4   2   8   16.10    0.90
   4   2  -8   15.20    0.80
  -3  -2   8   68.19    2.40
  -3  -2   8   70.79    2.40
   3  -2  -8   70.89    2.00
  -3  -2   8   70.29    2.60
   3  -2  -8   68.09    2.30
   3  -2  -8   69.99    2.00
  -3  -2   8   66.89    2.30
  -3  -2   8   70.49    2.20
   3   2  -8   70.49    2.30
  -3   2   8   71.89    2.10
  -3   2   8   70.79    2.60
   3   2  -8   68.09    2.30
   3   2  -8   73.29    2.20
  -3   2   8   68.79    1.90
  -3   2   8   69.79    2.00
  -3   2   8   69.79    1.80
   3   2  -8   68.29    2.40
  -3   2   8   72.69    2.30
   2  -2  -8   28.60    0.90
  -2  -2   8   29.10    1.40
  -2  -2   8   28.90    1.50
   2  -2  -8   29.30    1.00
  -2  -2   8   29.90    1.30
  -2  -2   8   30.70    1.30
  -2  -2   8   30.10    1.40
   2  -2  -8   28.70    1.20
   2   2  -8   29.70    1.30
  -2   2   8   28.70    1.00
  -2   2   8   29.30    1.20
  -2   2   8   29.10    1.50
   2   2  -8   28.90    1.30
   2   2  -8   30.30    1.40
   2   2  -8   31.80    1.20
  -1  -2   8   28.80    1.30
  -1  -2   8   29.60    1.50
  -1  -2   8   30.40    1.30
   1  -2  -8   29.40    1.10
   1  -2  -8   30.20    1.00
   1  -2  -8   28.00    0.90
  -1  -2   8   30.50    1.30
  -1  -2   8   29.70    1.40
  -1   2   8   29.40    1.00
   1   2  -8   28.10    1.30
   1   2  -8   29.90    1.50
   1   2  -8   29.90    1.30
   1   2  -8   28.40    1.20
  -1   2   8   29.20    1.10
  -1   2   8   28.70    1.40
   1   2  -8   31.30    1.40
   0  -2  -8   11.90    0.60
   0  -2   8   11.10    0.90
   0  -2   8   11.30    0.90
   0  -2   8   12.10    1.00
   0  -2  -8   11.60    0.90
   0  -2  -8    8.70    0.60
   0  -2  -8   11.10    0.60
   0   2   8   11.00    0.60
   0   2  -8   12.80    0.90
   0   2   8    9.30    0.90
   0   2  -8   11.70    0.70
   0   2  -8   11.30    0.80
   0   2   8   11.60    0.60
   0   2  -8   11.60    1.00
   0   2   8    9.90    0.90
   0   2   8   12.00    0.60
   0   2  -8   10.70    0.90
   0   2  -8   12.10    0.80
  -1  -2  -8   97.49    3.30
   1  -2   8  106.39    3.40
   1  -2   8  104.29    3.20
   1  -2   8  104.09    3.30
  -1  -2  -8  104.79    2.80
   1   2   8  104.09    2.90
   1   2   8  102.09    2.80
   1   2   8  100.39    2.60
   1   2   8  101.79    3.30
  -1   2  -8  100.89    2.90
  -1   2  -8  106.49    3.30
  -1   2  -8  102.49    3.20
   1   2   8  102.39    3.30
  -1   2  -8   99.39    3.00
  -1   2  -8   99.59    3.40
  -1   2  -8  101.19    3.00
   2  -2   8   49.60    2.10
   2  -2   8   51.39    2.20
  -2  -2  -8   51.29    1.70
   2  -2   8   50.29    2.20
  -2  -2  -8   50.39    2.10
   2  -2   8   49.10    2.00
  -2   2  -8   50.39    1.90
   2   2   8   49.50    1.70
   2   2   8   52.39    2.10
   2   2   8   51.49    2.10
   2   2   8   48.90    1.80
  -2   2  -8   52.79    1.80
  -2   2  -8   50.69    2.00
  -2   2  -8   52.59    1.80
  -2   2  -8   48.50    2.20
  -3  -2  -8  148.19    3.80
  -3  -2  -8  148.29    3.80
   3  -2   8  147.59    4.60
  -3  -2  -8  155.58    4.70
   3  -2   8  148.29    4.70
  -3  -2  -8  148.99    4.20
   3  -2   8  151.48    4.60
   3  -2   8  144.29    4.70
  -3   2  -8  146.09    4.40
  -3   2  -8  149.49    4.40
   3   2   8  140.09    4.50
  -3   2  -8  145.59    4.10
  -3   2  -8  152.68    4.10
   3   2   8  149.79    4.30
  -3   2  -8  151.28    4.80
   3   2   8  153.58    4.20
   3   2   8  147.79    4.60
  -4  -2  -8   35.10    1.40
   4  -2   8   32.40    1.80
  -4  -2  -8   36.10    1.90
   4  -2   8   36.70    1.90
   4  -2   8   37.60    2.00
   4  -2   8   37.70    2.00
  -4  -2  -8   34.80    1.60
  -4  -2  -8   37.10    1.30
   4   2   8   36.00    1.60
  -4   2  -8   38.90    2.20
   4   2   8   38.00    2.00
   4   2   8   36.30    1.70
   4   2   8   36.30    1.90
  -4   2  -8   35.10    1.60
  -4   2  -8   35.50    1.50
  -4   2  -8   35.90    1.80
  -5  -2  -8   12.50    1.40
   5  -2   8   12.80    1.40
   5  -2   8    9.80    1.20
  -5  -2  -8   11.30    1.00
   5  -2   8   10.90    1.20
   5  -2   8   13.70    1.40
  -5  -2  -8   10.80    0.80
  -5   2  -8   11.40    1.40
  -5   2  -8   12.70    1.20
   5   2   8   11.60    1.20
   5   2   8   12.00    1.20
  -5   2  -8   10.90    1.00
   5   2   8   11.30    1.10
  -5   2  -8   12.00    0.90
   5   2   8   12.10    1.30
  -6  -2  -8    3.90    0.90
   6  -2   8    3.40    0.90
  -6  -2  -8    3.70    0.60
   6  -2   8    2.00    0.70
  -6   2  -8    3.40    0.70
   6   2   8    4.20    0.80
  -6   2  -8    2.70    0.80
  -6   2  -8    3.20    0.50
  -6   2  -8    3.20    0.50
  -7  -2  -8    2.50    0.60
  -7   2  -8    2.10    0.40
  -7   2  -8    2.20    0.40
   9  -3  -8   13.10    1.30
  -9  -3   8   13.40    1.60
   9   3  -8   18.40    1.70
  -9   3   8   14.70    1.20
  -9   3   8   14.20    1.40
   9   3  -8   13.60    0.90
  -8  -3   8   22.60    1.80
  -8  -3   8   19.20    1.50
  -8  -3   8   24.80    1.80
   8  -3  -8   23.00    1.40
  -8  -3   8   21.30    1.60
  -8   3   8   21.80    1.50
   8   3  -8   20.90    1.60
  -8   3   8   21.40    1.30
   8   3  -8   22.60    1.60
  -8   3   8   21.30    1.60
  -8   3   8   23.30    1.40
   8   3  -8   22.20    1.10
   8   3  -8   24.50    1.50
  -7  -3   8   10.40    1.20
  -7  -3   8   10.70    1.20
  -7  -3   8   10.00    1.20
  -7  -3   8    8.30    1.10
   7   3  -8    8.30    1.10
  -7   3   8   10.00    1.00
   7   3  -8    9.70    1.10
   7   3  -8    9.90    0.80
  -7   3   8    9.30    0.90
  -7   3   8    9.70    0.90
   7   3  -8    9.20    1.00
  -7   3   8    8.70    1.00
   7   3  -8    9.30    1.10
  -6  -3   8   69.89    2.80
  -6  -3   8   73.09    2.70
   6  -3  -8   69.49    2.30
  -6  -3   8   69.89    2.80
  -6  -3   8   70.59    2.70
  -6  -3   8   71.19    2.80
   6   3  -8   67.29    2.20
   6   3  -8   67.09    2.60
  -6   3   8   68.99    2.30
   6   3  -8   71.39    2.40
   6   3  -8   67.29    2.70
  -6   3   8   70.79    2.70
  -6   3   8   67.89    2.40
  -6   3   8   66.79    2.40
   6   3  -8   70.69    2.70
   5  -3  -8   60.79    2.00
  -5  -3   8   58.39    2.30
  -5  -3   8   56.79    2.00
  -5  -3   8   55.89    2.40
  -5  -3   8   60.69    2.40
  -5  -3   8   59.99    2.40
  -5  -3   8   57.69    2.40
  -5   3   8   59.79    1.90
   5   3  -8   56.29    2.40
  -5   3   8   58.79    2.00
   5   3  -8   60.79    2.30
   5   3  -8   57.69    2.30
  -5   3   8   61.69    2.10
   5   3  -8   62.59    2.10
  -5   3   8   59.89    2.30
   5   3  -8   61.69    2.00
  -4  -3   8   40.90    1.80
  -4  -3   8   36.00    1.70
  -4  -3   8   38.40    1.80
  -4  -3   8   39.90    1.90
  -4  -3   8   39.60    1.80
  -4  -3   8   37.80    1.50
   4  -3  -8   41.60    1.30
   4   3  -8   40.30    1.50
  -4   3   8   37.00    1.40
  -4   3   8   42.00    1.70
   4   3  -8   42.00    1.80
  -4   3   8   38.60    1.30
   4   3  -8   41.20    1.60
   4   3  -8   41.70    1.90
   4   3  -8   34.90    1.70
  -3  -3   8   86.49    2.90
   3  -3  -8   85.19    2.20
  -3  -3   8   87.99    3.00
  -3  -3   8   82.69    2.90
  -3  -3   8   85.89    2.80
   3  -3  -8   86.99    2.30
  -3  -3   8   84.79    2.70
  -3   3   8   86.49    2.30
   3   3  -8   84.89    2.80
   3   3  -8   89.19    2.70
  -3   3   8   91.09    3.00
   3   3  -8   87.59    2.90
  -3   3   8   85.59    2.70
   3   3  -8   84.89    2.80
  -3   3   8   85.99    2.30
  -3   3   8   84.79    2.30
   3   3  -8   81.09    2.60
  -2  -3   8   22.70    1.30
  -2  -3   8   24.10    1.20
  -2  -3   8   22.60    1.30
  -2  -3   8   23.70    1.20
  -2  -3   8   24.30    1.30
  -2  -3   8   21.40    1.30
  -2   3   8   21.90    1.30
   2   3  -8   23.10    1.30
   2   3  -8   22.10    1.20
   2   3  -8   21.30    1.10
   2   3  -8   23.10    1.20
  -2   3   8   23.20    1.00
  -2   3   8   23.00    1.10
  -2   3   8   21.70    0.70
   2   3  -8   24.50    1.10
  -1  -3   8  135.29    4.00
  -1  -3   8  129.89    4.10
  -1  -3   8  135.69    4.00
  -1  -3   8  135.29    4.00
  -1  -3   8  134.99    4.00
  -1   3   8  140.79    4.00
   1   3  -8  132.89    3.80
  -1   3   8  134.79    3.70
  -1   3   8  134.39    4.00
   1   3  -8  145.89    4.10
   1   3  -8  140.39    4.20
   1   3  -8  133.19    4.00
  -1   3   8  131.89    3.30
   1   3  -8  140.59    4.00
  -1   3   8  131.89    3.30
   0  -3   8  260.27    6.80
   0  -3  -8  247.98    5.90
   0  -3  -8  247.98    6.00
   0  -3   8  250.27    6.80
   0  -3   8  237.28    6.70
   0  -3  -8  242.78    6.60
   0   3  -8  243.98    6.50
   0   3   8  251.67    6.60
   0   3   8  253.97    6.70
   0   3  -8  247.88    6.60
   0   3   8  242.18    6.10
   0   3   8  246.28    6.00
   0   3  -8  248.18    6.40
   0   3  -8  243.48    6.50
   0   3  -8  253.27    6.70
   0   3  -8  248.78    6.80
   0   3   8  242.88    6.00
   1  -3   8  341.07    9.40
  -1  -3  -8  355.96    8.70
  -1  -3  -8  354.16    9.20
   1  -3   8  355.06    9.30
   1  -3   8  356.16    9.40
   1   3   8  373.66    9.30
  -1   3  -8  364.06    9.20
   1   3   8  353.16    9.20
  -1   3  -8  363.36    9.50
  -1   3  -8  359.76    9.00
  -1   3  -8  352.96    9.30
   1   3   8  356.16    8.70
   1   3   8  339.97    8.50
  -1   3  -8  358.16    9.10
   1   3   8  358.26    8.70
  -1   3  -8  355.06    9.10
  -2  -3  -8   73.29    2.60
   2  -3   8   66.29    2.70
   2  -3   8   70.49    2.70
   2  -3   8   70.89    2.70
  -2  -3  -8   65.99    2.10
   2  -3   8   72.79    2.60
  -2   3  -8   69.59    2.30
  -2   3  -8   65.39    2.30
  -2   3  -8   68.79    2.50
   2   3   8   70.79    2.50
  -2   3  -8   69.49    2.80
   2   3   8   67.89    2.20
   2   3   8   68.29    2.10
  -2   3  -8   67.99    2.60
  -2   3  -8   67.29    2.40
   2   3   8   69.19    2.60
   3  -3   8    7.40    1.00
   3  -3   8    4.90    0.90
  -3  -3  -8    4.40    0.70
   3  -3   8    5.20    0.90
  -3  -3  -8    4.10    0.60
   3  -3   8    6.50    1.00
  -3   3  -8    5.00    0.70
   3   3   8    4.00    0.70
  -3   3  -8    4.60    0.60
  -3   3  -8    4.60    0.80
   3   3   8    3.60    0.60
   3   3   8    4.70    0.60
  -3   3  -8    5.20    0.80
  -3   3  -8    5.80    1.00
   3   3   8    4.90    0.80
   4  -3   8    5.50    1.00
  -4  -3  -8    6.90    0.40
   4  -3   8    7.60    1.00
  -4  -3  -8    7.40    1.00
  -4  -3  -8    7.00    0.40
   4  -3   8    8.10    1.20
   4  -3   8    9.70    1.30
  -4  -3  -8    5.90    0.70
  -4   3  -8    9.00    1.30
  -4   3  -8    6.90    0.90
   4   3   8    6.40    0.80
  -4   3  -8    7.70    0.80
  -4   3  -8    7.00    0.80
   4   3   8    6.00    0.90
   4   3   8    7.10    0.80
   4   3   8    6.60    0.90
   5  -3   8    3.30    1.00
   5  -3   8    2.60    0.80
   5  -3   8    1.20    0.60
   5  -3   8    3.50    0.70
  -5  -3  -8    3.40    0.50
  -5  -3  -8    3.70    0.80
  -5  -3  -8    2.70    0.60
  -5  -3  -8    2.80    0.40
  -5   3  -8    2.80    0.60
  -5   3  -8    4.20    1.00
   5   3   8    3.00    0.70
  -5   3  -8    3.60    0.60
   5   3   8    2.80    0.80
  -5   3  -8    2.60    0.70
   5   3   8    3.30    0.70
  -6  -3  -8    0.10    0.40
  -6  -3  -8    0.10    0.60
   6  -3   8    0.50    0.60
   6  -3   8    0.60    0.80
  -6   3  -8    0.50    0.40
  -6   3  -8    0.10    0.60
   6   3   8    1.60    0.70
  -6   3  -8    0.90    0.40
  -6   3  -8    1.10    0.60
  -9  -4   8    3.90    1.10
   9  -4  -8    4.60    0.90
  -9   4   8    3.60    0.90
   9   4  -8    3.90    0.60
  -9   4   8    4.50    0.70
   9   4  -8    3.70    1.00
  -8  -4   8    2.60    1.30
  -8  -4   8    5.20    1.00
  -8  -4   8    1.70    0.90
   8   4  -8    1.50    0.80
   8   4  -8    2.30    0.50
   8   4  -8    3.70    0.90
  -8   4   8    2.90    0.60
   8   4  -8    1.60    0.90
  -8   4   8    5.10    0.90
  -8   4   8    2.80    0.70
   8   4  -8    4.60    0.90
   7  -4  -8    1.50    0.50
  -7  -4   8    1.40    0.60
  -7  -4   8    1.20    0.60
  -7  -4   8    0.80    0.70
  -7  -4   8    1.30    0.70
  -7  -4   8    1.20    0.80
  -7   4   8    0.70    0.60
  -7   4   8    1.40    0.40
  -7   4   8    1.30    0.50
   7   4  -8    0.80    0.70
   7   4  -8    0.60    0.70
   7   4  -8    1.30    0.50
   7   4  -8    2.10    0.60
  -7   4   8    1.20    0.60
   7   4  -8    0.90    0.70
  -6  -4   8    1.40    0.60
  -6  -4   8    0.60    0.60
  -6  -4   8    1.90    0.70
  -6  -4   8    1.50    0.60
   6  -4  -8    0.80    0.40
  -6  -4   8    1.50    0.60
   6   4  -8    1.80    0.50
   6   4  -8    1.80    0.60
  -6   4   8    1.10    0.50
   6   4  -8    1.10    0.60
  -6   4   8    1.60    0.50
  -6   4   8    1.30    0.40
   6   4  -8    2.30    0.70
  -6   4   8    1.90    0.40
   6   4  -8    0.50    0.50
  -5  -4   8   18.80    1.30
   5  -4  -8   17.60    0.90
  -5  -4   8   17.90    1.30
  -5  -4   8   19.40    1.40
  -5  -4   8   17.60    1.40
  -5  -4   8   17.60    1.30
  -5  -4   8   16.80    1.10
  -5   4   8   18.50    1.00
   5   4  -8   19.50    1.30
   5   4  -8   16.80    1.30
   5   4  -8   19.10    1.40
  -5   4   8   18.80    0.90
  -5   4   8   19.40    1.00
   5   4  -8   17.90    1.10
   5   4  -8   18.40    1.20
  -5   4   8   17.80    1.20
  -4  -4   8    8.90    1.10
  -4  -4   8    6.00    0.80
  -4  -4   8    9.20    1.00
   4  -4  -8    8.80    0.60
  -4  -4   8    9.70    1.00
  -4  -4   8    7.40    0.80
  -4  -4   8    9.20    1.10
   4   4  -8    7.70    0.80
   4   4  -8    7.30    0.90
   4   4  -8   10.50    0.90
   4   4  -8    7.90    0.90
  -4   4   8    8.20    0.60
  -4   4   8    8.40    0.90
  -4   4   8    7.40    0.60
   4   4  -8    9.10    1.10
  -3  -4   8   62.39    2.50
  -3  -4   8   61.59    2.30
  -3  -4   8   63.49    2.40
  -3  -4   8   58.89    2.30
  -3  -4   8   57.79    2.40
  -3  -4   8   62.09    2.40
   3   4  -8   65.09    2.50
  -3   4   8   66.59    2.20
   3   4  -8   59.09    2.30
  -3   4   8   62.39    1.70
   3   4  -8   64.19    2.20
  -3   4   8   63.19    1.90
   3   4  -8   61.29    2.30
  -3   4   8   66.09    2.40
   3   4  -8   61.09    2.20
  -2  -4   8   32.20    1.60
  -2  -4   8   29.90    1.60
  -2  -4   8   31.60    1.60
  -2  -4   8   31.50    1.50
  -2  -4   8   29.40    1.50
  -2  -4   8   29.40    1.50
   2   4  -8   32.20    1.60
   2   4  -8   30.10    1.40
  -2   4   8   31.50    1.30
   2   4  -8   31.40    1.50
  -2   4   8   31.10    1.40
  -2   4   8   31.60    1.50
   2   4  -8   31.50    1.60
   2   4  -8   30.50    1.50
  -2   4   8   31.00    1.30
  -1  -4   8   43.70    1.90
  -1  -4   8   41.10    1.90
  -1  -4   8   44.00    1.90
   1   4  -8   42.50    1.90
   1   4  -8   45.30    1.80
  -1   4   8   46.00    1.80
   1   4  -8   45.40    1.80
  -1   4   8   41.90    1.50
  -1   4   8   43.40    1.70
  -1   4   8   45.60    1.70
   1   4  -8   45.30    2.00
   1   4  -8   42.60    1.90
   0  -4   8  324.47    8.60
   0  -4   8  320.37    8.60
   0  -4   8  317.27    8.50
   0   4   8  321.97    8.30
   0   4  -8  323.97    8.20
   0   4   8  325.87    8.40
   0   4  -8  314.17    8.30
   0   4  -8  333.77    8.50
   0   4  -8  324.57    8.60
   0   4  -8  322.87    8.40
   0   4   8  314.87    8.40
   0   4  -8  321.87    8.50
   0   4   8  310.57    7.90
   0   4   8  307.87    7.60
   1  -4   8   41.40    1.90
   1  -4   8   40.80    2.00
   1  -4   8   43.60    2.00
  -1  -4  -8   40.80    1.30
  -1  -4  -8   41.70    1.80
  -1   4  -8   40.20    1.80
   1   4   8   40.50    1.20
  -1   4  -8   43.60    1.80
  -1   4  -8   42.30    2.00
   1   4   8   43.60    1.30
   1   4   8   41.10    1.70
  -1   4  -8   43.40    1.70
  -1   4  -8   40.60    1.90
   1   4   8   41.40    1.90
   1   4   8   40.60    1.30
  -1   4  -8   42.60    1.80
   2  -4   8   51.59    2.40
   2  -4   8   50.09    2.20
  -2  -4  -8   50.39    2.00
  -2  -4  -8   50.59    1.60
   2  -4   8   49.10    2.10
   2  -4   8   48.40    2.20
   2   4   8   49.90    1.70
  -2   4  -8   48.80    2.00
   2   4   8   51.39    2.20
  -2   4  -8   49.10    2.30
   2   4   8   49.60    1.60
  -2   4  -8   51.19    2.10
  -2   4  -8   49.90    1.90
  -2   4  -8   48.70    2.10
  -2   4  -8   52.09    2.30
   2   4   8   49.80    2.00
   3  -4   8   10.60    1.20
  -3  -4  -8    7.80    0.80
   3  -4   8    9.90    1.20
  -3  -4  -8    8.90    1.00
   3  -4   8   11.20    1.20
   3  -4   8   10.50    1.00
  -3   4  -8    9.50    1.10
  -3   4  -8    9.90    1.20
   3   4   8    9.30    0.80
  -3   4  -8   10.20    1.20
   3   4   8   11.40    0.80
  -3   4  -8    8.70    0.90
   3   4   8    9.30    0.90
  -3   4  -8   10.60    1.00
   3   4   8   10.00    1.10
  -3   4  -8   10.50    1.10
  -4  -4  -8   11.40    0.90
   4  -4   8   11.00    1.30
   4  -4   8   12.10    1.40
  -4  -4  -8   11.60    1.10
   4  -4   8   15.00    1.70
   4  -4   8   11.00    1.10
   4   4   8   10.90    1.00
   4   4   8   13.00    1.40
  -4   4  -8   13.80    1.50
   4   4   8   11.20    0.90
   4   4   8   13.00    1.10
  -4   4  -8   12.90    1.30
  -4   4  -8   11.30    1.00
  -4   4  -8   12.40    1.00
   5  -4   8    3.70    0.90
  -5  -4  -8    2.80    0.70
   5  -4   8    5.90    1.10
   5  -4   8    4.30    1.00
  -5  -4  -8    5.50    0.90
   5  -4   8    4.80    0.90
   5   4   8    4.60    0.80
  -5   4  -8    4.70    0.90
  -5   4  -8    5.90    0.80
  -5   4  -8    5.90    1.20
  -5   4  -8    5.60    0.80
   5   4   8    4.10    0.80
   5   4   8    7.10    1.10
  -6  -4  -8    7.70    0.50
   6  -4   8    8.50    1.40
  -6  -4  -8    7.30    1.10
  -6  -4  -8    8.10    0.50
   6  -4   8    7.20    1.00
  -6   4  -8    8.50    1.00
  -6   4  -8    6.70    1.10
   8  -5  -8   19.30    1.30
  -8  -5   8   19.20    1.70
  -8  -5   8   20.20    2.50
  -8  -5   8   20.30    1.60
   8   5  -8   19.20    1.70
  -8   5   8   16.90    1.40
   8   5  -8   21.10    1.70
   8   5  -8   24.80    2.80
  -8   5   8   20.10    1.30
  -8   5   8   19.60    1.00
   8   5  -8   15.90    1.30
  -7  -5   8    8.30    1.10
  -7  -5   8   13.40    1.50
  -7  -5   8    9.10    1.30
  -7  -5   8   10.70    1.30
  -7  -5   8    7.50    1.00
   7  -5  -8    9.50    0.90
   7   5  -8   10.60    1.20
   7   5  -8   11.40    1.40
   7   5  -8   10.30    1.10
  -7   5   8    9.80    1.20
   7   5  -8   11.60    1.40
  -7   5   8    9.60    0.90
  -7   5   8    9.70    0.70
   7   5  -8    9.00    1.00
  -7   5   8   10.70    1.00
  -6  -5   8   17.40    1.50
  -6  -5   8   17.30    1.50
  -6  -5   8   15.30    1.30
  -6  -5   8   15.60    1.40
   6  -5  -8   18.10    1.00
  -6  -5   8   15.70    1.30
   6   5  -8   16.30    1.30
   6   5  -8   15.90    1.50
   6   5  -8   14.50    1.10
  -6   5   8   14.00    0.80
   6   5  -8   16.70    1.30
  -6   5   8   15.90    1.30
  -6   5   8   17.90    1.10
  -6   5   8   15.80    1.00
   6   5  -8   15.70    1.30
   5  -5  -8   18.50    0.90
  -5  -5   8   17.50    1.30
  -5  -5   8   18.30    1.20
  -5  -5   8   16.70    1.40
  -5  -5   8   18.40    1.40
  -5  -5   8   18.50    1.30
  -5  -5   8   18.40    1.50
   5   5  -8   18.00    1.30
  -5   5   8   16.40    0.90
  -5   5   8   16.40    0.90
  -5   5   8   19.20    1.30
   5   5  -8   17.30    1.40
   5   5  -8   18.10    1.20
  -5   5   8   18.40    0.90
   5   5  -8   16.40    1.20
   5   5  -8   18.50    1.50
  -4  -5   8    7.90    1.00
  -4  -5   8    8.60    1.00
  -4  -5   8    6.90    0.90
   4  -5  -8    7.30    0.50
  -4  -5   8    6.70    0.90
  -4  -5   8    6.60    1.00
  -4  -5   8    7.90    1.00
  -4   5   8    6.70    0.60
   4   5  -8    6.80    0.90
   4   5  -8    7.20    0.80
  -4   5   8    6.00    0.50
   4   5  -8    4.90    0.70
  -4   5   8    7.00    0.50
   4   5  -8    5.80    0.90
  -4   5   8    6.30    0.80
  -4   5   8    7.10    0.50
   4   5  -8    7.20    0.90
  -3  -5   8   61.29    2.30
  -3  -5   8   58.29    2.40
  -3  -5   8   60.39    2.40
  -3  -5   8   56.69    2.40
  -3  -5   8   61.39    2.50
  -3  -5   8   57.79    2.30
   3   5  -8   60.59    2.40
  -3   5   8   55.09    1.60
   3   5  -8   55.59    2.30
   3   5  -8   56.69    2.30
  -3   5   8   61.09    2.20
   3   5  -8   59.09    2.20
  -3   5   8   52.39    2.20
  -3   5   8   54.89    1.90
   3   5  -8   60.39    2.30
  -3   5   8   55.99    1.90
  -2  -5   8  110.19    3.60
  -2  -5   8  108.69    3.60
  -2  -5   8  107.39    3.60
  -2  -5   8  109.19    3.60
  -2  -5   8  111.49    3.70
  -2   5   8  111.09    3.30
   2   5  -8  109.99    3.60
   2   5  -8  113.89    3.70
  -2   5   8  113.59    3.50
  -2   5   8  113.19    3.30
   2   5  -8  113.99    3.60
  -2   5   8  113.89    3.30
   2   5  -8  111.99    3.60
   2   5  -8  103.59    3.40
  -1  -5   8   11.20    1.10
  -1  -5   8   10.50    1.00
  -1  -5   8   11.60    1.20
   1   5  -8   12.60    1.20
   1   5  -8   11.90    1.10
  -1   5   8   11.50    1.00
  -1   5   8   10.70    0.90
   1   5  -8   11.70    1.10
  -1   5   8   11.60    0.80
  -1   5   8   10.20    0.90
   1   5  -8   11.90    1.00
   1   5  -8    8.80    1.00
   1   5  -8   11.70    1.10
   0  -5   8  267.07    7.40
   0  -5   8  266.07    7.30
   0  -5   8  274.87    7.50
   0   5  -8  268.67    7.40
   0   5   8  261.47    6.60
   0   5  -8  258.97    7.20
   0   5   8  274.57    7.10
   0   5   8  269.67    7.30
   0   5   8  268.57    7.00
   0   5   8  260.67    6.40
   0   5  -8  269.87    7.30
   0   5  -8  245.38    7.20
   0   5  -8  268.47    7.40
   1  -5   8   27.20    1.60
   1  -5   8   26.00    1.60
   1  -5   8   27.60    1.70
  -1  -5  -8   27.00    0.80
  -1   5  -8   26.40    1.50
   1   5   8   26.40    1.50
  -1   5  -8   25.80    1.40
   1   5   8   25.40    0.90
   1   5   8   30.80    1.60
  -1   5  -8   25.60    1.60
   1   5   8   26.00    1.00
  -1   5  -8   26.90    1.60
   1   5   8   26.50    0.80
   1   5   8   25.80    1.30
  -1   5  -8   26.80    1.60
  -1   5  -8   24.60    1.50
  -2  -5  -8   65.09    2.40
   2  -5   8   68.29    2.60
   2  -5   8   73.49    2.90
   2  -5   8   69.49    2.80
  -2  -5  -8   71.89    2.10
   2  -5   8   69.39    3.00
  -2   5  -8   68.39    2.60
  -2   5  -8   70.59    2.70
  -2   5  -8   72.19    2.70
  -2   5  -8   70.99    2.90
  -2   5  -8   71.79    2.80
   2   5   8   70.09    2.10
   2   5   8   71.29    2.90
   2   5   8   69.89    2.40
   2   5   8   71.29    2.10
   2   5   8   71.29    2.70
  -2   5  -8   71.59    2.50
  -3  -5  -8    5.10    0.60
   3  -5   8    4.70    0.80
   3  -5   8    5.30    1.00
   3  -5   8    3.90    0.80
  -3  -5  -8    3.90    0.70
   3  -5   8    5.30    1.10
  -3   5  -8    4.10    0.90
  -3   5  -8    5.60    0.90
   3   5   8    4.00    0.80
   3   5   8    4.90    0.60
   3   5   8    3.90    0.80
  -3   5  -8    4.00    0.80
  -3   5  -8    5.80    1.00
   3   5   8    4.60    0.60
  -3   5  -8    4.00    0.70
  -3   5  -8    3.80    0.80
   3   5   8    5.20    0.70
   4  -5   8    7.90    1.10
   4  -5   8   10.80    1.40
   4  -5   8    9.00    1.00
  -4  -5  -8    9.50    1.00
  -4  -5  -8   11.30    1.40
   4  -5   8   10.60    1.40
   4   5   8    9.40    0.90
  -4   5  -8    6.10    1.00
  -4   5  -8    9.80    1.20
   4   5   8   10.00    1.30
  -4   5  -8    7.90    0.90
   4   5   8    9.80    1.00
   4   5   8    8.40    1.20
  -4   5  -8   11.00    1.30
  -4   5  -8    8.20    1.00
  -4   5  -8    9.20    1.30
   5  -5   8    9.30    1.40
   5  -5   8    5.20    0.80
  -5  -5  -8    5.30    0.90
   5   5   8    6.30    0.90
  -5   5  -8    4.90    0.90
  -5   5  -8    4.80    0.80
  -5   5  -8    5.50    0.90
  -6  -5  -8   30.30    1.90
   6  -5   8   30.00    2.30
   6  -5   8   28.50    1.70
  -6   5  -8   29.20    1.80
  -6   5  -8   28.20    2.00
  -8  -6   8    0.70    0.50
  -8  -6   8    1.90    0.80
   8  -6  -8    2.20    0.60
   8   6  -8    1.90    0.90
  -8   6   8    0.00    0.50
  -8   6   8    2.00    0.60
   8   6  -8    1.30    0.60
   8   6  -8    0.30    0.80
   7  -6  -8   18.90    1.20
  -7  -6   8   17.40    1.40
  -7  -6   8   19.30    1.80
  -7  -6   8   16.80    1.50
   7   6  -8   17.70    1.50
   7   6  -8   19.00    1.70
   7   6  -8   17.20    1.40
  -7   6   8   16.70    1.20
   7   6  -8   18.40    1.70
   7   6  -8   19.60    1.60
  -7   6   8   17.50    1.20
  -6  -6   8    7.80    1.10
  -6  -6   8    4.80    1.00
  -6  -6   8    5.60    1.10
   6  -6  -8    5.30    0.70
  -6  -6   8    6.60    1.10
  -6  -6   8    6.40    0.90
   6   6  -8    5.50    0.90
  -6   6   8    5.80    0.70
   6   6  -8    6.70    1.00
  -6   6   8    3.70    0.80
  -6   6   8    4.60    0.60
   6   6  -8    5.70    1.10
   6   6  -8    5.40    0.80
   6   6  -8    5.50    1.00
   5  -6  -8   12.00    0.70
  -5  -6   8   12.10    1.30
  -5  -6   8   11.00    1.30
  -5  -6   8   11.50    1.20
  -5  -6   8   12.70    1.30
  -5  -6   8   11.70    1.10
  -5  -6   8   10.30    1.10
   5   6  -8   11.80    1.20
  -5   6   8   10.90    0.60
  -5   6   8   10.90    0.70
   5   6  -8   11.30    1.10
   5   6  -8   11.90    1.30
  -5   6   8   11.40    0.80
   5   6  -8    8.10    1.10
  -5   6   8   10.30    0.60
   5   6  -8   12.00    1.10
  -4  -6   8   20.60    1.50
  -4  -6   8   23.20    1.60
  -4  -6   8   24.70    1.40
  -4  -6   8   24.70    1.60
  -4  -6   8   22.80    1.50
  -4  -6   8   20.70    1.40
   4   6  -8   20.20    1.50
   4   6  -8   22.10    1.40
  -4   6   8   21.70    1.00
   4   6  -8   23.00    1.60
   4   6  -8   23.40    1.40
  -4   6   8   21.40    0.90
  -4   6   8   22.40    0.90
  -4   6   8   21.90    1.40
   4   6  -8   21.20    1.40
  -3  -6   8   58.59    2.50
  -3  -6   8   57.59    2.50
  -3  -6   8   63.39    2.60
  -3  -6   8   58.29    2.30
  -3  -6   8   56.49    2.40
   3   6  -8   58.49    2.50
   3   6  -8   56.89    2.30
   3   6  -8   56.69    2.50
  -3   6   8   56.79    1.90
  -3   6   8   59.19    2.20
   3   6  -8   57.09    2.40
  -3   6   8   58.39    1.60
  -3   6   8   57.89    2.30
  -3   6   8   55.89    2.00
   3   6  -8   57.59    2.40
  -2  -6   8    8.30    1.00
  -2  -6   8   11.80    1.30
  -2  -6   8   11.00    1.20
  -2  -6   8    9.20    1.00
  -2  -6   8    9.40    1.10
   2   6  -8    9.10    1.00
  -2   6   8    8.50    0.80
  -2   6   8    8.60    0.80
   2   6  -8    7.30    1.00
   2   6  -8   11.10    1.20
  -2   6   8    8.40    0.90
   2   6  -8    9.70    1.10
  -2   6   8    9.20    0.90
   2   6  -8    8.00    0.90
  -1  -6   8   59.79    2.30
  -1  -6   8   55.39    2.40
  -1  -6   8   57.39    2.50
   1   6  -8   56.69    2.40
  -1   6   8   54.99    2.00
   1   6  -8   57.59    2.50
  -1   6   8   57.69    2.10
   1   6  -8   60.99    2.50
   1   6  -8   58.49    2.50
  -1   6   8   55.89    2.10
  -1   6   8   57.89    2.30
   1   6  -8   57.99    2.40
   1   6  -8   54.89    2.30
   0  -6   8    5.00    0.80
   0  -6   8    6.20    1.10
   0  -6   8    4.50    0.90
   0   6   8    5.10    0.80
   0   6  -8    4.80    0.90
   0   6  -8    5.60    0.90
   0   6  -8    4.80    0.80
   0   6  -8    4.80    0.90
   0   6   8    4.80    0.50
   0   6  -8    7.90    1.00
   0   6   8    4.80    0.60
   0   6   8    3.50    0.60
   0   6   8    4.80    0.40
   1  -6   8   26.60    1.80
   1  -6   8   26.90    1.60
   1  -6   8   27.70    1.80
   1   6   8   26.30    1.00
  -1   6  -8   27.00    1.50
  -1   6  -8   26.60    1.70
   1   6   8   25.90    1.00
   1   6   8   23.90    1.60
  -1   6  -8   28.90    1.70
  -1   6  -8   25.90    1.60
  -1   6  -8   27.50    1.60
   1   6   8   28.10    1.30
  -1   6  -8   26.80    1.60
   1   6   8   27.30    1.50
   2  -6   8    4.70    0.90
  -2  -6  -8    6.40    0.50
   2  -6   8    7.50    0.90
   2  -6   8    8.30    1.20
   2  -6   8    6.10    1.20
  -2   6  -8    7.40    1.10
  -2   6  -8    6.80    0.90
  -2   6  -8    8.00    1.20
  -2   6  -8   10.20    1.30
   2   6   8    6.00    0.70
   2   6   8    6.60    0.60
   2   6   8    6.40    0.90
  -2   6  -8    5.20    0.80
   2   6   8    7.60    1.20
  -2   6  -8    5.70    0.90
   2   6   8    6.20    0.60
  -3  -6  -8    1.30    0.50
   3  -6   8    2.70    0.90
   3  -6   8    1.10    0.70
   3  -6   8    1.10    0.80
  -3  -6  -8    0.90    0.40
   3  -6   8    0.90    0.50
   3   6   8    1.60    0.50
   3   6   8    1.20    0.40
  -3   6  -8    1.60    0.80
  -3   6  -8    1.20    0.70
   3   6   8    1.50    0.70
  -3   6  -8    1.30    0.70
   3   6   8    1.30    0.60
  -3   6  -8    1.10    0.60
  -3   6  -8    1.70    0.70
  -3   6  -8    1.10    0.50
   3   6   8    1.10    0.40
  -4  -6  -8   10.50    0.90
   4  -6   8   11.60    1.60
  -4  -6  -8   10.80    1.00
   4  -6   8   10.20    1.40
   4  -6   8   10.00    1.30
   4  -6   8   10.50    1.10
  -4  -6  -8   10.20    1.30
  -4   6  -8   11.80    1.40
   4   6   8   11.30    1.00
  -4   6  -8   11.60    1.20
  -4   6  -8   11.40    1.40
   4   6   8   12.80    1.60
   4   6   8   10.60    1.00
   4   6   8   10.30    1.30
  -4   6  -8   11.00    1.30
  -4   6  -8   10.80    1.30
  -4   6  -8   13.90    1.30
  -5  -6  -8   14.00    1.20
   5  -6   8   12.30    1.10
   5  -6   8   14.90    1.80
  -5   6  -8   12.60    1.60
  -5   6  -8   16.20    1.40
  -5   6  -8   17.50    1.50
   5   6   8   17.30    1.30
  -7  -7   8   -0.30    0.40
  -7  -7   8    1.50    0.90
   7  -7  -8   -0.60    0.40
  -7   7   8   -0.10    0.40
   7   7  -8   -0.60    0.50
   7   7  -8   -0.10    0.80
   7   7  -8    0.50    0.80
  -7   7   8    0.80    0.50
  -6  -7   8    2.00    0.90
  -6  -7   8    2.30    0.80
  -6  -7   8    1.20    0.60
   6  -7  -8    2.30    0.50
  -6  -7   8    2.60    0.80
  -6  -7   8    1.90    0.80
   6   7  -8    4.10    1.00
   6   7  -8    2.40    0.70
  -6   7   8    1.90    0.60
  -6   7   8    2.40    0.60
   6   7  -8    2.40    1.00
   6   7  -8    2.70    0.70
   6   7  -8    1.80    0.70
  -6   7   8    2.50    0.50
  -5  -7   8    3.20    1.00
  -5  -7   8    2.00    0.60
  -5  -7   8    2.30    0.80
  -5  -7   8    4.30    0.90
  -5  -7   8    3.20    0.80
   5   7  -8    3.80    0.90
   5   7  -8    4.10    0.90
  -5   7   8    2.60    0.40
   5   7  -8    3.50    0.80
  -5   7   8    3.20    0.50
  -5   7   8    3.80    0.40
  -5   7   8    3.40    0.80
   5   7  -8    3.10    0.80
   5   7  -8    4.10    0.90
  -4  -7   8   14.70    1.50
  -4  -7   8   13.90    1.50
  -4  -7   8   12.30    1.30
  -4  -7   8   12.50    1.30
  -4  -7   8   12.70    1.10
   4   7  -8   13.40    1.30
   4   7  -8   11.80    1.40
   4   7  -8   13.10    1.40
  -4   7   8   12.30    0.70
   4   7  -8   13.90    1.30
  -4   7   8   11.60    1.10
  -4   7   8   13.00    0.90
  -4   7   8   12.30    0.50
   4   7  -8   12.80    1.20
  -4   7   8   12.20    0.50
  -3  -7   8   20.80    1.60
  -3  -7   8   18.00    1.50
  -3  -7   8   17.80    1.40
  -3  -7   8   15.50    1.20
  -3  -7   8   16.20    1.40
   3   7  -8   17.30    1.30
  -3   7   8   15.80    1.10
   3   7  -8   19.00    1.40
   3   7  -8   18.80    1.40
   3   7  -8   19.30    1.50
  -3   7   8   15.70    1.20
  -3   7   8   16.40    0.70
  -3   7   8   16.00    1.20
  -3   7   8   17.80    0.80
   3   7  -8   18.30    1.40
  -2  -7   8   36.00    2.00
  -2  -7   8   34.80    2.00
  -2  -7   8   35.00    1.70
  -2  -7   8   36.60    1.90
   2   7  -8   34.30    2.00
   2   7  -8   36.30    1.80
   2   7  -8   33.90    1.90
  -2   7   8   36.40    1.60
   2   7  -8   36.00    2.00
   2   7  -8   35.70    1.90
  -2   7   8   34.20    1.40
  -2   7   8   33.30    1.60
  -2   7   8   33.40    1.70
  -1  -7   8    4.90    1.00
  -1  -7   8    4.10    0.90
  -1  -7   8    4.40    0.70
  -1  -7   8    5.20    0.90
   1   7  -8    4.40    0.90
  -1   7   8    4.00    0.60
   1   7  -8    4.40    0.90
  -1   7   8    4.90    0.70
  -1   7   8    5.30    0.70
  -1   7   8    4.10    0.80
   1   7  -8    5.20    0.80
   1   7  -8    5.20    0.80
   1   7  -8    5.50    0.90
  -1   7   8    4.60    0.40
   1   7  -8    5.20    1.00
   0  -7   8   37.10    2.20
   0  -7   8   33.70    1.90
   0  -7   8   34.50    1.80
   0   7  -8   34.00    1.90
   0   7   8   34.10    1.40
   0   7  -8   35.50    2.00
   0   7  -8   36.90    1.90
   0   7  -8   34.80    1.90
   0   7   8   36.20    1.40
   0   7   8   34.20    1.60
   0   7  -8   36.40    1.90
   0   7   8   34.90    1.10
   0   7   8   33.30    1.90
   0   7  -8   36.80    2.00
   1  -7   8    5.00    1.00
   1  -7   8    3.60    0.80
   1  -7   8    6.00    1.10
  -1   7  -8    4.30    0.80
   1   7   8    5.40    0.90
  -1   7  -8    5.70    1.00
  -1   7  -8    4.30    0.80
   1   7   8    5.40    0.60
   1   7   8    4.70    0.50
   1   7   8    7.40    0.90
  -1   7  -8    5.70    1.00
  -1   7  -8    6.10    1.00
  -1   7  -8    6.60    1.00
   1   7   8    5.30    0.50
   2  -7   8   22.10    1.90
   2  -7   8   23.00    1.60
  -2  -7  -8   24.60    0.90
   2  -7   8   24.40    1.80
   2  -7   8   23.00    1.40
   2   7   8   22.90    1.10
   2   7   8   23.80    0.90
   2   7   8   22.60    1.10
   2   7   8   24.50    0.90
  -2   7  -8   23.70    1.70
  -2   7  -8   21.30    1.70
  -2   7  -8   22.80    1.50
   2   7   8   23.40    1.80
  -2   7  -8   25.70    1.70
  -2   7  -8   23.90    1.80
   2   7   8   24.60    1.60
  -2   7  -8   24.80    1.70
   3  -7   8    2.20    0.80
   3  -7   8    3.00    0.70
   3  -7   8    3.60    1.00
  -3  -7  -8    3.40    0.50
   3  -7   8    0.50    0.80
   3   7   8    3.70    0.80
   3   7   8    3.10    0.50
   3   7   8    2.90    0.50
  -3   7  -8    3.70    1.00
  -3   7  -8    3.20    0.90
   3   7   8    3.90    0.60
  -3   7  -8    2.70    0.70
   3   7   8    3.70    0.90
  -3   7  -8    3.90    0.90
  -3   7  -8    2.20    0.90
  -3   7  -8    2.80    0.80
   4  -7   8    5.20    0.80
   4  -7   8    5.80    1.20
  -4  -7  -8    4.00    1.10
   4   7   8    6.00    1.40
  -4   7  -8    7.60    1.10
   4   7   8    7.60    0.90
  -4   7  -8    4.00    0.90
  -4   7  -8    7.00    1.20
  -4   7  -8    4.50    1.10
   5  -7   8   13.80    1.20
   5  -7   8   12.90    1.70
  -5  -7  -8   13.40    1.00
   5   7   8   15.40    1.30
  -5   7  -8   16.80    1.70
  -5   7  -8   11.30    1.90
   7  -8  -8    3.60    0.70
  -7  -8   8    2.20    0.60
  -7   8   8    3.20    0.60
   7   8  -8    3.60    1.10
  -7   8   8    2.60    0.60
  -6  -8   8    5.20    1.10
   6  -8  -8    4.60    0.60
  -6  -8   8    4.80    0.80
   6   8  -8    2.90    0.80
  -6   8   8    4.80    0.60
   6   8  -8    3.60    1.00
   6   8  -8    4.20    1.10
  -6   8   8    3.40    0.60
  -6   8   8    5.40    1.00
   5  -8  -8    5.10    0.40
  -5  -8   8    3.60    1.00
  -5  -8   8    6.20    1.00
  -5  -8   8    5.30    1.20
  -5  -8   8    5.60    1.10
  -5  -8   8    5.20    0.80
  -5   8   8    5.20    0.50
   5   8  -8    2.90    0.90
   5   8  -8    5.40    1.10
  -5   8   8    5.00    0.50
  -5   8   8    4.40    0.80
   5   8  -8    4.90    0.90
   5   8  -8    6.40    1.00
  -5   8   8    5.30    0.60
   5   8  -8    6.40    1.00
  -5   8   8    5.40    0.60
  -4  -8   8    0.70    0.70
  -4  -8   8   -0.40    0.60
  -4  -8   8    0.30    0.50
  -4  -8   8    0.80    0.70
  -4  -8   8    0.80    0.70
  -4   8   8    1.00    0.60
  -4   8   8    0.70    0.50
   4   8  -8    0.30    0.70
  -4   8   8    0.20    0.40
   4   8  -8    0.40    0.80
  -4   8   8    0.50    0.30
   4   8  -8    0.60    0.60
   4   8  -8    1.00    0.70
   4   8  -8    0.50    0.60
  -3  -8   8   11.20    1.40
  -3  -8   8    7.80    1.20
  -3  -8   8    9.70    1.00
  -3  -8   8    7.90    1.10
   3   8  -8    7.40    1.00
   3   8  -8   10.00    1.30
  -3   8   8    9.60    1.10
   3   8  -8    7.00    1.10
  -3   8   8    8.50    1.00
  -3   8   8    7.70    0.50
   3   8  -8    6.20    1.10
   3   8  -8    9.90    1.20
  -3   8   8    9.40    1.00
  -3   8   8    9.20    0.60
  -2  -8   8    8.90    1.10
  -2  -8   8    8.10    0.90
  -2  -8   8    8.10    1.20
   2   8  -8    9.20    1.20
   2   8  -8    9.40    1.20
   2   8  -8    8.40    1.20
  -2   8   8    7.20    0.90
   2   8  -8    9.80    1.30
  -2   8   8    8.80    0.90
  -2   8   8    8.30    1.10
  -2   8   8    8.40    0.70
   2   8  -8   10.20    1.30
  -1  -8   8   13.70    1.30
  -1  -8   8   15.80    1.20
  -1  -8   8   16.30    1.70
  -1  -8   8   15.20    1.50
   1   8  -8   16.50    1.50
   1   8  -8   13.70    1.20
   1   8  -8   14.90    1.40
   1   8  -8   14.70    1.30
  -1   8   8   14.50    0.70
   1   8  -8   12.50    1.40
   1   8  -8   19.30    1.60
  -1   8   8   13.90    0.90
  -1   8   8   16.80    1.40
  -1   8   8   16.00    1.10
  -1   8   8   14.70    1.00
   0  -8   8   18.90    1.70
   0  -8   8   14.70    1.60
   0  -8   8   16.70    1.30
   0  -8   8   15.90    1.30
   0   8  -8   13.60    1.40
   0   8   8   16.30    0.90
   0   8  -8   16.70    1.60
   0   8   8   14.90    1.10
   0   8   8   16.00    1.00
   0   8  -8   17.40    1.50
   0   8  -8   16.10    1.50
   0   8  -8   15.80    1.40
   0   8  -8   17.50    1.40
   0   8   8   17.40    0.80
   0   8   8   13.40    1.40
   1  -8   8    7.40    1.20
   1  -8   8    6.50    1.30
   1  -8   8    4.00    0.80
  -1   8  -8    5.50    0.90
  -1   8  -8    7.50    1.20
  -1   8  -8    5.40    0.90
   1   8   8    6.00    1.10
   1   8   8    5.50    0.90
   1   8   8    4.80    0.50
  -1   8  -8    4.70    1.00
  -1   8  -8    6.40    1.10
   1   8   8    6.10    0.60
  -1   8  -8    5.70    1.10
   1   8   8    5.20    0.50
   2  -8   8    1.70    0.80
   2  -8   8    2.20    0.90
   2  -8   8    0.40    0.80
   2  -8   8    1.10    0.50
   2   8   8    1.00    0.20
   2   8   8    0.70    0.60
  -2   8  -8    0.50    0.70
  -2   8  -8    1.00    0.70
  -2   8  -8    1.30    0.80
  -2   8  -8    0.30    0.70
   2   8   8    2.00    0.70
  -2   8  -8   -0.10    0.70
  -2   8  -8    1.60    0.80
   2   8   8    0.80    0.40
  -3  -8  -8    4.60    0.50
   3  -8   8    4.40    1.00
   3  -8   8    3.80    0.70
   3  -8   8    6.10    1.10
  -3   8  -8    4.60    1.00
  -3   8  -8    2.70    1.00
   3   8   8    3.50    0.80
  -3   8  -8    4.80    1.00
  -3   8  -8    4.60    1.00
   3   8   8    3.80    0.50
   3   8   8    4.40    0.60
   3   8   8    4.40    0.70
   4  -8   8   -0.30    1.00
   4  -8   8    0.20    0.50
   4   8   8    0.90    0.60
  -4   8  -8    1.50    0.90
   4   8   8    0.90    0.50
  -4   8  -8    2.50    0.90
  -6  -9   8   -0.20    0.40
   6  -9  -8    0.30    0.30
  -6   9   8   -0.50    0.60
  -6   9   8    0.10    0.40
   6   9  -8   -0.70    0.70
  -5  -9   8   -0.60    0.60
  -5  -9   8    1.90    0.50
  -5  -9   8    0.00    0.70
   5   9  -8    1.60    1.00
  -5   9   8    0.50    0.50
   5   9  -8    1.20    0.80
   5   9  -8    1.20    0.60
  -5   9   8    1.20    0.50
  -4  -9   8    3.70    0.70
  -4  -9   8    3.60    1.00
  -4  -9   8    6.40    1.20
  -4  -9   8    3.90    0.90
  -4   9   8    5.50    0.90
   4   9  -8    4.10    1.00
  -4   9   8    5.40    0.60
   4   9  -8    5.00    1.10
  -4   9   8    3.70    0.80
  -4   9   8    4.40    0.70
   4   9  -8    4.40    1.00
  -3  -9   8    0.60    0.50
  -3  -9   8    0.40    0.80
  -3  -9   8    0.30    0.60
  -3  -9   8   -0.20    0.70
   3   9  -8    0.40    0.70
   3   9  -8    0.30    0.80
  -3   9   8    0.30    0.50
   3   9  -8    0.50    0.70
   3   9  -8   -0.40    0.60
   3   9  -8   -0.40    0.60
  -3   9   8    0.50    0.50
  -3   9   8   -0.10    0.30
  -3   9   8    0.60    0.50
  -2  -9   8    2.60    0.70
  -2  -9   8    4.20    0.90
  -2  -9   8    4.10    1.10
  -2   9   8    2.40    0.60
   2   9  -8    1.80    0.80
   2   9  -8    2.10    0.70
   2   9  -8    2.90    0.90
  -2   9   8    2.40    0.70
   2   9  -8    1.80    0.80
  -2   9   8    2.70    0.50
  -2   9   8    3.20    0.60
   2   9  -8    4.50    0.90
  -2   9   8    4.40    0.50
  -1  -9   8    7.20    1.30
  -1  -9   8    7.40    0.90
  -1  -9   8    5.00    1.10
  -1  -9   8    8.60    1.10
   1   9  -8    6.90    1.20
  -1   9   8    3.30    0.80
   1   9  -8    5.20    1.10
  -1   9   8    6.60    0.70
   1   9  -8    7.90    1.20
   1   9  -8    3.90    1.00
  -1   9   8    5.50    0.80
  -1   9   8    6.30    0.60
  -1   9   8    6.00    0.60
   1   9  -8    6.60    1.10
   0  -9   8    8.50    1.10
   0  -9   8    7.90    1.00
   0  -9   8    9.40    1.40
   0  -9   8   10.90    1.60
   0   9   8    8.50    1.20
   0   9  -8    9.10    1.20
   0   9  -8   10.40    1.40
   0   9   8    9.10    0.70
   0   9   8    8.20    1.00
   0   9  -8    5.90    1.00
   0   9  -8    7.10    1.20
   0   9  -8    8.40    1.20
   0   9  -8    7.40    1.20
   0   9   8    8.60    0.90
   1  -9   8   12.50    1.50
   1  -9   8   11.70    1.20
   1  -9   8    9.00    1.10
   1   9   8   11.40    0.90
  -1   9  -8   14.50    1.40
   1   9   8   11.90    1.60
  -1   9  -8   11.60    1.40
   1   9   8   13.20    1.20
   1   9   8   10.40    0.80
  -1   9  -8   11.70    1.50
  -1   9  -8   11.30    1.60
   1   9   8   11.40    0.80
   2  -9   8   15.30    1.30
   2  -9   8   13.20    1.10
   2  -9   8   16.80    1.50
   2  -9   8   16.10    1.80
  -2   9  -8   20.70    1.80
  -2   9  -8   14.60    1.50
   2   9   8   14.50    1.40
   2   9   8   14.90    0.70
   2   9   8   18.10    1.10
   2   9   8   15.00    0.70
  -2   9  -8   12.70    1.60
   3  -9   8    1.00    0.80
   3  -9   8    1.30    0.50
  -3   9  -8    1.00    1.50
  -3   9  -8    3.00    0.90
   3   9   8    2.50    0.40
   3   9   8    2.70    0.60
  -3   9  -8    2.90    1.50
  -4 -10   8    1.10    0.40
  -4  10   8   -0.70    0.30
  -4  10   8    0.90    0.60
   4  10  -8   -0.50    0.70
  -4  10   8   -0.10    0.50
  -4  10   8   -0.60    0.40
  -3 -10   8    5.40    1.10
  -3 -10   8    3.80    0.60
   3  10  -8    4.80    1.10
  -3  10   8    5.70    0.80
  -3  10   8    5.30    0.70
   3  10  -8    6.30    1.30
  -3  10   8    5.40    1.00
  -3  10   8    5.60    0.60
  -3  10   8    3.10    0.80
  -2 -10   8    1.10    0.50
  -2 -10   8    1.10    0.80
   2  10  -8    1.60    0.90
  -2  10   8    0.90    0.60
  -2  10   8    1.40    0.30
  -2  10   8    2.90    0.80
  -2  10   8    2.10    0.50
   2  10  -8    0.90    0.80
  -2  10   8    1.80    0.50
  -2  10   8    2.30    0.50
  -1 -10   8    5.40    0.80
  -1 -10   8    5.40    1.00
  -1  10   8    5.50    0.70
   1  10  -8    6.80    1.20
   1  10  -8    6.00    1.20
  -1  10   8    4.70    1.00
  -1  10   8    5.30    0.80
  -1  10   8    6.60    0.70
   0 -10   8    2.80    0.80
   0 -10   8    1.60    0.70
   0 -10   8    1.60    0.90
   0  10   8    1.80    0.60
   0  10  -8    1.50    0.90
   0  10  -8    1.50    0.70
   0  10   8    3.40    0.90
   0  10   8    1.40    0.50
   0  10  -8    1.60    0.80
   0  10   8    2.00    0.60
   1 -10   8    2.70    1.10
   1 -10   8    2.70    0.70
   1 -10   8    2.40    0.70
   1  10   8    3.60    0.60
   1  10   8    2.20    0.50
  -1  10  -8    3.00    0.90
   1  10   8    1.60    0.60
   1  10   8    2.50    0.60
  -1  10  -8    2.60    0.90
   2 -10   8    1.30    0.70
   2 -10   8    1.30    0.50
   2 -10   8    0.60    0.90
  -2  10  -8    0.20    0.70
  -2  10  -8    5.00    1.10
   2  10   8    0.70    0.50
   2  10   8    1.20    0.30
   2  10   8    0.90    0.70
   2  10   8    0.90    0.30
  -9   0   9    3.10    0.90
   9   0  -9    4.20    0.70
   9   0  -9    3.50    0.80
  -9   0   9    3.60    0.80
   8   0  -9   18.80    1.60
   8   0  -9   18.50    1.40
  -8   0   9   17.00    1.50
  -8   0   9   16.90    1.40
   8   0  -9   19.40    1.20
  -8   0   9   18.00    1.30
   7   0  -9    0.20    0.50
  -7   0   9    0.20    0.50
  -7   0   9    0.80    0.50
   7   0  -9    2.50    0.70
  -7   0   9    0.30    0.50
  -7   0   9   -0.30    0.50
   7   0  -9    0.70    0.40
  -6   0   9   26.40    1.40
  -6   0   9   26.80    1.50
   6   0  -9   26.70    1.10
  -6   0   9   27.30    1.60
   6   0  -9   25.60    1.50
  -6   0   9   30.50    1.60
   6   0  -9   25.60    1.40
   5   0  -9  651.03   15.80
  -5   0   9  638.54   15.80
   5   0  -9  634.64   15.20
  -5   0   9  625.74   15.80
  -5   0   9  617.14   16.10
   5   0  -9  628.64   15.50
  -5   0   9  624.04   15.70
   5   0  -9  642.94   15.70
  -5   0   9  626.14   15.50
  -4   0   9  376.56    9.50
   4   0  -9  366.46    8.80
  -4   0   9  343.77    9.30
   4   0  -9  368.66    9.30
  -4   0   9  381.36    9.80
   4   0  -9  365.36    9.40
  -4   0   9  357.76    9.20
   3   0  -9   10.80    0.80
  -3   0   9   10.00    1.00
  -3   0   9   11.50    0.90
  -3   0   9   10.00    0.60
   3   0  -9    9.70    0.80
  -3   0   9   10.90    0.80
  -3   0   9   10.10    0.80
   3   0  -9    9.90    0.50
   3   0  -9    9.80    0.70
  -2   0   9    6.40    0.70
  -2   0   9    6.40    0.90
  -2   0   9    6.50    0.60
  -2   0   9    6.70    0.60
   2   0  -9    6.70    0.60
   2   0  -9    6.00    0.60
   2   0  -9    6.10    0.60
  -2   0   9    7.20    0.60
   2   0  -9    5.80    0.30
   2   0  -9    5.50    0.30
   1   0  -9  144.59    3.50
  -1   0   9  138.49    4.30
   1   0  -9  141.29    3.90
  -1   0   9  139.19    4.00
  -1   0   9  147.39    4.00
   1   0  -9  142.59    3.50
  -1   0   9  148.19    4.00
  -1   0   9  143.89    3.90
   1   0  -9  143.59    4.40
   1   0  -9  146.29    4.00
   1   0  -9  147.69    3.90
   0   0   9    1.60    0.50
   0   0  -9    1.90    0.30
   0   0   9    1.80    0.60
   0   0  -9    1.50    0.40
   0   0  -9    1.50    0.50
   0   0  -9    2.00    0.20
   0   0  -9    1.50    0.30
   0   0   9    1.80    0.40
   0   0  -9    1.10    0.40
  -1   0  -9    7.10    1.00
   1   0   9    6.90    0.70
  -1   0  -9    5.70    0.50
  -1   0  -9    5.90    0.50
   1   0   9    5.60    0.80
   1   0   9    6.30    0.90
  -1   0  -9    6.30    0.50
  -1   0  -9    5.20    0.60
  -2   0  -9  159.48    4.10
   2   0   9  157.18    4.60
  -2   0  -9  159.48    4.40
  -2   0  -9  156.38    4.20
   2   0   9  154.88    4.40
  -2   0  -9  155.78    4.00
   2   0   9  160.38    4.90
  -2   0  -9  159.68    4.90
   2   0   9  150.58    4.80
  -3   0  -9   50.59    1.70
   3   0   9   50.29    2.00
  -3   0  -9   48.50    1.40
   3   0   9   48.80    2.20
   3   0   9   48.20    2.10
  -3   0  -9   50.79    2.40
  -3   0  -9   53.39    1.90
   3   0   9   49.30    2.30
  -3   0  -9   48.30    1.90
   4   0   9   79.49    3.10
   4   0   9   82.79    2.90
  -4   0  -9   80.49    2.50
   4   0   9   79.99    3.00
  -4   0  -9   79.19    2.80
  -4   0  -9   80.19    3.30
   4   0   9   78.69    3.20
  -4   0  -9   80.09    2.70
   5   0   9    1.10    0.60
   5   0   9    1.80    0.80
  -5   0  -9    2.30    0.60
   5   0   9    3.30    0.80
   5   0   9    2.90    0.80
  -5   0  -9    1.70    0.50
  -5   0  -9    1.50    0.60
  -5   0  -9    2.80    0.90
  -6   0  -9    0.40    0.50
   9  -1  -9    3.60    0.80
  -9  -1   9    4.60    1.00
   9  -1  -9    3.50    0.60
  -9  -1   9    4.40    1.00
   9   1  -9    4.20    0.80
  -9   1   9    3.70    0.90
   9   1  -9    3.60    0.90
  -9   1   9    2.50    0.70
  -8  -1   9   19.10    1.60
   8  -1  -9   21.50    1.40
  -8  -1   9   21.70    1.50
  -8  -1   9   21.60    1.70
  -8  -1   9   25.10    1.60
   8  -1  -9   21.70    1.10
  -8   1   9   21.20    1.60
   8   1  -9   21.90    1.60
   8   1  -9   20.70    1.50
  -8   1   9   21.70    1.40
   8   1  -9   23.20    1.30
  -8   1   9   23.10    1.60
  -8   1   9   21.00    1.50
  -7  -1   9   39.20    2.00
  -7  -1   9   35.40    1.90
  -7  -1   9   42.00    2.10
   7  -1  -9   39.60    1.80
   7  -1  -9   39.10    1.40
   7  -1  -9   37.40    2.00
  -7  -1   9   39.10    1.90
   7   1  -9   39.10    1.60
  -7   1   9   38.10    1.80
  -7   1   9   40.50    1.90
  -7   1   9   38.40    1.90
  -7   1   9   38.40    1.90
   7   1  -9   39.30    1.90
   7   1  -9   40.30    2.00
  -6  -1   9    6.20    0.80
  -6  -1   9    6.40    0.90
   6  -1  -9    6.40    0.50
   6  -1  -9    7.00    0.80
   6  -1  -9    5.20    0.80
  -6  -1   9    6.80    0.90
  -6  -1   9    6.60    0.90
   6   1  -9    7.50    0.90
  -6   1   9    6.60    0.80
   6   1  -9    8.10    1.00
   6   1  -9    8.10    0.70
  -6   1   9    5.40    0.80
   6   1  -9    7.60    0.90
  -6   1   9    7.50    1.00
  -6   1   9    5.90    0.80
  -5  -1   9  194.28    5.80
   5  -1  -9  193.68    4.70
  -5  -1   9  191.68    5.60
   5  -1  -9  188.68    5.30
  -5  -1   9  203.18    5.40
   5  -1  -9  194.08    5.20
  -5  -1   9  188.28    5.50
   5  -1  -9  187.88    5.50
  -5  -1   9  184.58    5.50
  -5   1   9  196.58    5.50
  -5   1   9  189.58    5.30
   5   1  -9  190.88    5.40
  -5   1   9  195.18    5.50
  -5   1   9  195.38    5.20
   5   1  -9  197.38    5.10
   5   1  -9  199.18    5.50
   5   1  -9  194.78    5.50
  -4  -1   9  451.55   11.40
  -4  -1   9  426.66   11.10
   4  -1  -9  459.95   10.90
  -4  -1   9  408.66   11.00
  -4  -1   9  440.06   10.90
   4  -1  -9  434.86   10.70
   4  -1  -9  437.46   11.10
  -4  -1   9  414.16   10.50
   4   1  -9  440.46   10.60
  -4   1   9  433.26   11.40
   4   1  -9  436.76   11.00
  -4   1   9  444.76   11.10
   4   1  -9  436.46   11.10
  -4   1   9  416.06   10.80
  -4   1   9  431.46   10.70
   4   1  -9  443.56   10.90
  -3  -1   9    2.40    0.50
  -3  -1   9    2.90    0.40
   3  -1  -9    2.20    0.40
   3  -1  -9    1.60    0.40
  -3  -1   9    2.70    0.60
  -3  -1   9    2.50    0.50
   3  -1  -9    2.10    0.40
  -3  -1   9    2.40    0.50
   3   1  -9    1.70    0.40
   3   1  -9    1.80    0.50
  -3   1   9    3.20    0.60
  -3   1   9    2.20    0.40
   3   1  -9    2.20    0.30
  -3   1   9    2.60    0.70
  -3   1   9    2.30    0.30
   3   1  -9    3.00    0.50
  -3   1   9    2.80    0.40
  -2  -1   9   13.40    0.90
   2  -1  -9   12.90    0.70
  -2  -1   9   14.00    0.90
  -2  -1   9   13.70    0.90
  -2  -1   9   14.40    1.00
   2  -1  -9   14.20    0.90
   2  -1  -9   13.30    0.70
  -2  -1   9   14.80    1.10
  -2   1   9   14.30    0.90
  -2   1   9   13.50    0.80
   2   1  -9   13.40    0.70
   2   1  -9   14.70    0.70
   2   1  -9   15.70    0.90
  -2   1   9   14.00    1.10
  -2   1   9   12.90    0.70
   2   1  -9   13.90    0.90
   2   1  -9   13.80    0.90
  -1  -1   9   97.39    3.00
   1  -1  -9   98.49    2.80
  -1  -1   9   98.49    3.30
   1  -1  -9   97.59    2.80
  -1  -1   9   97.69    3.00
   1  -1  -9  100.69    3.30
  -1  -1   9   98.89    3.10
   1  -1  -9   96.99    2.80
  -1  -1   9  103.49    3.00
   1   1  -9  100.49    3.00
  -1   1   9   96.09    2.80
   1   1  -9  100.69    2.70
   1   1  -9   99.79    3.00
  -1   1   9   98.79    2.90
   1   1  -9   98.79    2.70
   1   1  -9  100.69    3.00
   1   1  -9   97.89    3.30
  -1   1   9  106.89    2.80
  -1   1   9   99.89    3.30
   0  -1   9  112.39    3.20
   0  -1  -9  107.99    3.10
   0  -1   9  106.59    3.30
   0  -1  -9  108.49    3.00
   0  -1   9  104.79    3.50
   0  -1  -9  108.69    3.00
   0  -1  -9  105.79    3.50
   0  -1   9  110.29    3.40
   0   1   9  110.99    3.50
   0   1  -9  107.19    3.60
   0   1   9  110.19    3.00
   0   1  -9  103.69    3.20
   0   1  -9  108.39    2.90
   0   1   9  111.89    3.10
   0   1   9  110.39    3.50
   0   1  -9  104.09    3.10
   0   1  -9  105.69    3.00
   0   1  -9  112.29    3.30
   1  -1   9  530.65   12.90
  -1  -1  -9  529.85   13.20
   1  -1   9  534.15   13.10
   1  -1   9  503.85   13.10
  -1  -1  -9  485.75   12.60
  -1  -1  -9  467.85   12.30
  -1  -1  -9  536.85   12.70
   1  -1   9  467.85   13.10
   1   1   9  505.75   13.10
  -1   1  -9  527.15   12.60
   1   1   9  525.75   13.20
   1   1   9  528.85   12.60
  -1   1  -9  535.95   12.60
  -1   1  -9  534.25   13.30
   1   1   9  541.95   12.70
  -1   1  -9  477.05   12.80
  -1   1  -9  535.15   12.50
  -1   1  -9  520.65   12.90
  -2  -1  -9   53.59    1.50
  -2  -1  -9   52.59    1.90
   2  -1   9   59.69    2.40
  -2  -1  -9   45.10    2.20
  -2  -1  -9   51.29    1.50
   2  -1   9   52.19    2.30
   2  -1   9   53.99    2.20
  -2  -1  -9   55.19    1.40
   2   1   9   53.69    2.30
  -2   1  -9   52.89    1.70
  -2   1  -9   55.69    2.40
   2   1   9   54.69    1.90
   2   1   9   56.09    2.00
  -2   1  -9   52.59    1.80
  -2   1  -9   55.49    1.90
   2   1   9   55.09    2.30
  -2   1  -9   54.29    2.00
   3  -1   9   39.70    2.10
  -3  -1  -9   38.80    1.30
  -3  -1  -9   41.80    1.40
   3  -1   9   38.20    1.90
  -3  -1  -9   42.60    2.10
   3  -1   9   37.60    2.00
  -3  -1  -9   41.70    1.70
  -3   1  -9   41.00    1.40
  -3   1  -9   41.70    1.70
   3   1   9   39.00    2.00
  -3   1  -9   40.90    1.50
   3   1   9   44.20    1.70
   3   1   9   40.60    1.80
  -3   1  -9   38.20    1.80
   3   1   9   39.50    2.00
  -3   1  -9   43.40    2.20
  -4  -1  -9   60.39    2.00
   4  -1   9   59.69    2.40
  -4  -1  -9   56.79    2.70
  -4  -1  -9   59.29    1.90
   4  -1   9   60.79    2.60
   4  -1   9   55.79    2.50
  -4  -1  -9   57.39    2.30
   4  -1   9   54.99    2.60
   4   1   9   57.39    2.60
  -4   1  -9   56.69    1.80
  -4   1  -9   61.59    2.30
  -4   1  -9   58.59    2.10
  -4   1  -9   58.69    2.40
  -4   1  -9   63.09    2.80
   4   1   9   57.79    2.60
   4   1   9   58.39    2.30
   4   1   9   62.29    2.50
  -5  -1  -9    1.00    0.70
  -5  -1  -9    0.90    0.40
   5  -1   9    0.80    0.70
   5  -1   9    2.50    0.70
   5  -1   9    1.20    0.70
  -5  -1  -9    1.30    0.50
   5  -1   9    0.70    0.70
  -5  -1  -9    1.00    0.60
  -5   1  -9    1.80    0.80
  -5   1  -9    1.20    0.30
   5   1   9    0.70    0.60
  -5   1  -9    2.40    0.70
  -5   1  -9    2.00    0.30
   5   1   9    1.90    0.80
  -5   1  -9    1.10    0.50
   5   1   9    3.40    0.80
   5   1   9    0.50    0.60
  -6  -1  -9    5.30    1.60
  -6  -1  -9    5.90    0.70
  -6   1  -9    5.70    0.80
   9  -2  -9    2.50    0.70
  -9  -2   9    1.70    0.90
   9   2  -9    2.00    0.70
   9   2  -9    1.50    0.80
  -9   2   9    3.20    0.80
  -9   2   9    2.70    0.70
  -8  -2   9   10.80    1.30
  -8  -2   9    8.90    1.20
  -8  -2   9    8.50    1.10
   8  -2  -9    8.40    1.00
   8  -2  -9    9.50    0.70
  -8  -2   9   10.50    1.20
  -8   2   9   10.40    1.10
   8   2  -9   10.80    1.00
   8   2  -9   11.00    1.30
  -8   2   9    8.90    1.00
  -8   2   9    8.90    1.10
  -8   2   9   11.90    1.20
   8   2  -9   10.10    1.20
  -7  -2   9   27.40    1.80
  -7  -2   9   30.90    1.80
  -7  -2   9   29.20    1.80
  -7  -2   9   28.90    1.70
  -7   2   9   29.80    1.60
  -7   2   9   30.20    1.70
  -7   2   9   28.70    1.50
  -7   2   9   30.80    1.50
   7   2  -9   31.90    1.80
   7   2  -9   30.90    1.80
   7   2  -9   28.30    1.70
   7   2  -9   29.20    1.50
  -6  -2   9   49.90    2.30
   6  -2  -9   48.00    1.90
  -6  -2   9   50.99    2.20
  -6  -2   9   53.09    2.40
  -6  -2   9   50.59    2.30
  -6  -2   9   51.89    2.40
   6   2  -9   52.59    2.30
  -6   2   9   50.99    2.20
   6   2  -9   52.99    1.60
  -6   2   9   50.79    2.00
   6   2  -9   52.39    2.20
   6   2  -9   51.89    1.90
   6   2  -9   47.70    2.20
  -6   2   9   51.79    2.10
  -6   2   9   51.79    1.90
   5  -2  -9    5.30    0.80
   5  -2  -9    4.70    0.60
  -5  -2   9    3.60    0.70
  -5  -2   9    6.20    1.00
  -5  -2   9    6.20    0.90
  -5  -2   9    4.20    0.80
  -5  -2   9    4.30    0.80
  -5  -2   9    4.30    0.50
  -5   2   9    4.50    0.70
   5   2  -9    4.60    0.70
   5   2  -9    4.20    0.60
   5   2  -9    4.30    0.70
  -5   2   9    4.10    0.70
  -5   2   9    4.10    0.60
   5   2  -9    5.50    0.80
  -5   2   9    3.90    0.60
  -4  -2   9  157.08    4.40
   4  -2  -9  168.28    4.40
  -4  -2   9  164.08    5.00
  -4  -2   9  166.68    4.70
   4  -2  -9  170.28    4.80
   4  -2  -9  160.88    4.30
  -4  -2   9  169.58    4.90
  -4  -2   9  158.78    4.80
   4   2  -9  163.58    4.80
  -4   2   9  167.88    5.10
   4   2  -9  165.78    4.80
   4   2  -9  165.38    4.40
  -4   2   9  163.18    4.40
  -4   2   9  156.58    4.70
   4   2  -9  167.48    4.70
  -4   2   9  163.88    4.30
   3  -2  -9  228.28    6.00
  -3  -2   9  226.28    6.10
   3  -2  -9  224.98    5.50
  -3  -2   9  221.48    5.90
   3  -2  -9  221.18    5.60
  -3  -2   9  215.38    6.10
  -3  -2   9  211.98    6.30
  -3  -2   9  223.88    6.00
  -3   2   9  215.88    5.50
   3   2  -9  219.48    6.00
  -3   2   9  223.08    6.00
   3   2  -9  226.68    6.00
   3   2  -9  226.88    5.70
  -3   2   9  221.48    5.60
   3   2  -9  220.28    6.10
  -3   2   9  219.38    5.50
  -3   2   9  223.38    5.60
  -3   2   9  228.98    6.30
  -2  -2   9  340.67    8.60
  -2  -2   9  340.67    8.70
   2  -2  -9  339.37    8.40
  -2  -2   9  320.07    8.50
  -2  -2   9  329.47    8.90
  -2  -2   9  333.57    8.60
   2  -2  -9  337.27    8.10
  -2  -2   9  321.67    8.60
   2  -2  -9  336.67    8.00
   2   2  -9  319.97    8.60
   2   2  -9  330.67    8.30
   2   2  -9  333.47    8.60
  -2   2   9  332.17    8.80
  -2   2   9  326.17    8.10
   2   2  -9  343.37    8.60
  -2   2   9  331.07    8.40
  -1  -2   9   93.19    3.00
  -1  -2   9   97.59    3.30
   1  -2  -9   95.19    2.70
  -1  -2   9   99.59    3.00
   1  -2  -9   95.69    2.50
  -1  -2   9   96.49    3.00
   1  -2  -9   94.39    2.50
  -1  -2   9   95.29    3.00
   1   2  -9   94.39    3.20
   1   2  -9   96.19    2.80
   1   2  -9   92.29    2.90
   1   2  -9   94.09    2.70
  -1   2   9   92.89    2.70
  -1   2   9   95.19    3.20
  -1   2   9   91.19    2.60
   1   2  -9   92.89    3.00
   1   2  -9   94.69    3.00
  -1   2   9   92.89    3.10
   0  -2   9  179.48    5.00
   0  -2  -9  176.48    5.20
   0  -2  -9  178.48    4.50
   0  -2   9  182.68    5.30
   0  -2  -9  184.18    4.60
   0  -2   9  175.28    5.10
   0  -2  -9  177.08    4.60
   0   2  -9  183.38    4.80
   0   2   9  177.88    5.10
   0   2  -9  174.48    5.30
   0   2  -9  180.98    5.00
   0   2  -9  177.58    4.70
   0   2  -9  175.08    4.80
   0   2  -9  173.48    5.00
   0   2   9  171.78    4.60
   0   2   9  183.48    4.60
   0   2   9  178.78    5.10
   0   2   9  174.88    4.60
   1  -2   9  158.98    4.50
  -1  -2  -9  148.39    4.00
  -1  -2  -9  135.89    3.90
   1  -2   9  151.58    4.60
   1  -2   9  145.59    4.60
   1  -2   9  150.28    4.50
  -1  -2  -9  145.09    4.50
  -1   2  -9  147.89    4.70
   1   2   9  147.29    4.00
   1   2   9  150.48    4.10
   1   2   9  148.09    4.50
  -1   2  -9  150.78    4.20
  -1   2  -9  150.28    4.20
  -1   2  -9  148.59    4.00
  -1   2  -9  147.89    4.40
   1   2   9  156.18    4.50
  -1   2  -9  150.78    4.30
  -2  -2  -9   24.50    1.50
   2  -2   9   25.90    1.50
   2  -2   9   28.50    1.60
  -2  -2  -9   26.90    1.20
   2  -2   9   28.80    1.60
   2  -2   9   28.10    1.70
  -2   2  -9   27.40    1.50
  -2   2  -9   27.90    1.50
  -2   2  -9   27.40    1.40
  -2   2  -9   24.10    1.70
   2   2   9   26.20    1.50
  -2   2  -9   28.10    1.20
  -2   2  -9   25.10    1.20
   2   2   9   25.90    1.20
   2   2   9   26.60    1.60
   2   2   9   26.40    1.30
   3  -2   9    2.90    0.70
   3  -2   9    4.10    0.80
   3  -2   9    4.20    0.80
  -3  -2  -9    4.10    0.60
  -3  -2  -9    4.50    0.90
   3  -2   9    3.50    0.80
   3   2   9    3.60    0.70
  -3   2  -9    3.40    0.50
  -3   2  -9    5.30    0.80
   3   2   9    3.60    0.70
   3   2   9    4.40    0.70
   3   2   9    3.40    0.70
  -3   2  -9    5.80    1.00
  -3   2  -9    4.00    0.60
  -3   2  -9    3.40    0.70
   4  -2   9    9.00    1.10
  -4  -2  -9   10.90    1.30
  -4  -2  -9    8.90    0.60
  -4  -2  -9    8.60    0.90
  -4  -2  -9    8.90    0.60
   4  -2   9   11.50    1.30
   4  -2   9    7.40    1.10
   4  -2   9    8.40    1.20
  -4   2  -9    6.90    0.80
  -4   2  -9    8.10    1.00
   4   2   9    7.20    0.90
   4   2   9    8.00    1.10
   4   2   9    7.00    1.00
  -4   2  -9    9.30    0.70
  -4   2  -9    8.10    1.00
   4   2   9    9.90    1.00
  -4   2  -9    8.60    1.20
  -5  -2  -9   10.30    1.00
   5  -2   9   13.00    1.60
  -5  -2  -9   10.40    0.80
  -5  -2  -9   11.10    0.80
   5  -2   9   11.40    1.40
  -5  -2  -9   10.00    1.20
   5  -2   9   11.50    1.30
   5  -2   9    9.70    1.20
   5   2   9    9.40    1.20
   5   2   9   13.30    1.20
   5   2   9   10.00    1.20
  -5   2  -9   10.50    1.00
   5   2   9    9.50    1.20
  -5   2  -9   11.20    1.50
  -5   2  -9    9.50    0.70
  -5   2  -9   11.20    1.10
  -6  -2  -9    2.10    0.50
   6  -2   9    2.40    1.10
  -6  -2  -9    0.70    0.80
  -6  -2  -9    2.90    0.60
  -6   2  -9    1.60    0.60
  -6   2  -9    2.70    0.40
  -6   2  -9    2.90    0.40
   9  -3  -9    9.50    1.10
  -9  -3   9    8.90    1.40
   9   3  -9    8.70    1.30
  -9   3   9    8.00    1.20
  -9   3   9    9.40    1.10
   9   3  -9    9.00    0.60
  -8  -3   9    5.20    0.90
  -8  -3   9    5.10    1.00
  -8  -3   9    4.40    1.00
  -8   3   9    6.10    0.90
   8   3  -9    5.60    0.80
   8   3  -9    6.60    1.10
   8   3  -9    7.50    1.10
  -8   3   9    6.10    0.90
   8   3  -9    5.80    1.10
  -8   3   9    9.30    1.00
   8   3  -9    5.80    0.60
  -7  -3   9    8.30    1.00
  -7  -3   9    8.70    1.20
  -7  -3   9    8.40    1.10
   7  -3  -9    7.80    0.80
  -7  -3   9    6.80    1.00
  -7  -3   9    6.70    1.00
  -7   3   9    8.60    0.90
   7   3  -9    8.30    0.70
  -7   3   9    7.80    0.90
   7   3  -9    8.80    1.00
   7   3  -9   10.80    1.20
   7   3  -9    8.80    1.20
  -7   3   9    9.50    1.10
  -7   3   9    7.10    0.90
   7   3  -9    7.70    1.00
  -6  -3   9    1.00    0.60
  -6  -3   9    1.00    0.70
  -6  -3   9    1.10    0.60
  -6  -3   9    1.30    0.60
   6  -3  -9    1.30    0.40
  -6  -3   9    0.30    0.60
   6   3  -9    1.40    0.60
  -6   3   9    1.00    0.50
   6   3  -9    1.40    0.60
  -6   3   9    1.20    0.50
   6   3  -9    0.80    0.40
  -6   3   9    0.70    0.50
   6   3  -9    1.40    0.50
   6   3  -9    0.10    0.60
  -6   3   9    0.50    0.40
  -5  -3   9  213.08    6.20
  -5  -3   9  201.48    5.50
  -5  -3   9  206.28    6.00
  -5  -3   9  199.68    6.00
   5  -3  -9  205.38    5.40
  -5  -3   9  204.08    5.90
  -5  -3   9  202.88    6.10
   5   3  -9  209.48    5.90
  -5   3   9  204.48    5.90
   5   3  -9  217.58    5.60
  -5   3   9  205.78    5.70
   5   3  -9  210.68    5.50
  -5   3   9  196.98    5.50
   5   3  -9  221.88    6.10
  -5   3   9  205.18    5.40
   5   3  -9  212.78    5.90
  -4  -3   9    8.20    0.80
  -4  -3   9    8.90    1.00
  -4  -3   9    6.20    0.90
   4  -3  -9    9.20    0.60
   4  -3  -9   10.00    0.60
  -4  -3   9    9.80    1.10
  -4  -3   9    7.70    1.00
  -4  -3   9    9.60    1.00
   4   3  -9   10.50    1.00
  -4   3   9   12.60    1.20
  -4   3   9    8.60    0.90
   4   3  -9    8.70    0.80
   4   3  -9    7.90    0.80
   4   3  -9   10.10    1.00
   4   3  -9    8.40    0.90
  -4   3   9    7.70    0.60
  -4   3   9    8.50    0.70
  -3  -3   9  124.79    3.70
  -3  -3   9  122.19    3.90
   3  -3  -9  128.49    3.20
   3  -3  -9  124.19    3.10
  -3  -3   9  123.79    3.80
  -3  -3   9  125.89    4.00
  -3  -3   9  124.59    3.90
  -3   3   9  118.49    3.20
  -3   3   9  126.59    4.00
  -3   3   9  121.89    3.20
   3   3  -9  130.49    3.80
   3   3  -9  122.89    3.60
  -3   3   9  123.79    3.70
   3   3  -9  125.39    3.90
  -3   3   9  122.19    3.30
   3   3  -9  130.09    3.90
  -2  -3   9   75.19    2.70
  -2  -3   9   84.49    2.80
  -2  -3   9   80.29    2.90
  -2  -3   9   78.29    2.80
  -2  -3   9   82.39    2.80
  -2  -3   9   80.89    2.80
  -2   3   9   79.99    2.50
   2   3  -9   81.69    2.60
  -2   3   9   81.39    2.50
   2   3  -9   80.09    2.80
   2   3  -9   78.59    2.70
   2   3  -9   90.79    2.90
  -2   3   9   80.29    2.10
  -2   3   9   78.79    2.80
  -1  -3   9   64.29    2.60
  -1  -3   9   65.69    2.40
  -1  -3   9   70.89    2.50
  -1  -3   9   64.69    2.40
   1   3  -9   70.99    2.30
   1   3  -9   67.19    2.40
  -1   3   9   68.69    2.10
  -1   3   9   70.59    2.50
  -1   3   9   63.79    1.90
  -1   3   9   71.49    2.50
   1   3  -9   68.59    2.50
   1   3  -9   69.09    2.60
   1   3  -9   69.89    2.50
   0  -3   9  186.98    5.60
   0  -3  -9  202.08    5.60
   0  -3   9  200.78    5.60
   0  -3   9  189.18    5.50
   0  -3  -9  198.68    4.70
   0  -3  -9  193.88    4.80
   0   3   9  195.58    5.50
   0   3   9  195.68    5.50
   0   3   9  187.88    4.80
   0   3  -9  174.38    5.30
   0   3   9  200.08    4.80
   0   3  -9  193.08    5.30
   0   3  -9  195.48    5.20
   0   3  -9  195.58    5.50
   0   3  -9  192.18    5.70
   0   3  -9  205.18    5.50
   0   3   9  190.48    4.90
   1  -3   9   77.69    2.90
  -1  -3  -9   88.59    2.50
   1  -3   9   86.19    3.10
  -1  -3  -9   87.89    3.00
   1  -3   9   81.49    3.10
  -1  -3  -9   86.59    2.40
  -1   3  -9   89.19    2.70
  -1   3  -9   87.59    3.20
   1   3   9   80.09    2.20
   1   3   9   85.19    2.40
  -1   3  -9   90.49    2.80
   1   3   9   87.99    3.00
  -1   3  -9   82.89    2.80
  -1   3  -9   84.69    2.90
   1   3   9   82.19    2.90
  -1   3  -9   86.59    3.00
   1   3   9   86.69    2.50
  -2  -3  -9   78.59    2.40
   2  -3   9   79.79    3.10
   2  -3   9   80.99    2.90
  -2  -3  -9   75.69    2.90
   2  -3   9   73.29    3.00
   2  -3   9   78.59    2.90
  -2   3  -9   81.29    3.20
   2   3   9   79.49    2.90
  -2   3  -9   77.39    2.50
  -2   3  -9   78.89    2.90
  -2   3  -9   79.99    2.80
   2   3   9   79.49    2.40
   2   3   9   83.99    2.50
  -2   3  -9   83.99    2.80
  -2   3  -9   79.39    2.60
   2   3   9   77.79    3.00
  -3  -3  -9    3.50    0.80
  -3  -3  -9    2.80    0.50
   3  -3   9    3.20    0.70
   3  -3   9    4.20    1.00
   3  -3   9    3.20    0.80
   3  -3   9    3.50    0.80
  -3   3  -9    3.70    0.60
  -3   3  -9    3.30    0.70
  -3   3  -9    3.60    0.60
  -3   3  -9    3.70    0.70
  -3   3  -9    4.10    0.80
   3   3   9    3.90    0.70
   3   3   9    3.40    0.70
   3   3   9    3.70    0.60
  -3   3  -9    4.20    0.90
   3   3   9    2.60    0.50
   4  -3   9    5.10    0.90
  -4  -3  -9    5.10    0.70
   4  -3   9    4.90    1.10
   4  -3   9    5.60    1.00
  -4  -3  -9    5.60    0.90
   4  -3   9    6.90    1.10
  -4   3  -9    5.20    0.70
  -4   3  -9    4.10    0.60
   4   3   9    4.60    0.90
  -4   3  -9    4.60    0.90
   4   3   9    5.60    0.80
   4   3   9    5.00    0.80
  -4   3  -9    5.00    0.90
   4   3   9    6.50    1.00
  -4   3  -9    7.20    1.20
   5  -3   9   12.80    1.50
   5  -3   9    9.50    1.30
   5  -3   9   13.00    1.60
   5  -3   9   11.60    1.20
  -5  -3  -9   11.20    1.10
  -5  -3  -9   13.20    1.40
  -5   3  -9    9.20    1.40
   5   3   9   12.80    1.30
   5   3   9   10.90    1.10
  -5   3  -9   11.20    0.90
   5   3   9   11.70    1.30
   5   3   9   12.50    1.50
  -5   3  -9   12.90    1.10
  -5   3  -9   13.00    1.40
  -5   3  -9   12.60    1.30
  -6  -3  -9    1.20    0.40
   6  -3   9    0.30    0.60
  -6  -3  -9    1.30    0.30
  -6  -3  -9   -0.10    0.70
  -6   3  -9    1.70    0.50
  -6   3  -9    1.10    0.40
  -8  -4   9   27.60    1.90
  -8  -4   9   24.30    2.00
   8  -4  -9   29.10    1.60
   8   4  -9   29.80    1.90
   8   4  -9   27.20    2.00
  -8   4   9   27.90    1.60
   8   4  -9   27.40    1.30
   8   4  -9   29.30    1.70
  -8   4   9   25.10    1.50
  -8   4   9   29.50    1.40
  -7  -4   9    1.60    0.80
  -7  -4   9    1.90    0.70
  -7  -4   9    2.20    0.80
  -7  -4   9    1.70    0.70
   7  -4  -9    3.10    0.60
  -7  -4   9    2.70    0.90
   7   4  -9    1.70    0.60
  -7   4   9    2.10    0.60
   7   4  -9    3.20    0.90
  -7   4   9    3.00    0.60
  -7   4   9    2.60    0.70
   7   4  -9    2.80    0.60
  -7   4   9    2.40    0.60
   7   4  -9    2.50    0.70
   7   4  -9    0.90    0.60
  -6  -4   9   12.30    1.20
  -6  -4   9   11.50    1.30
   6  -4  -9   14.10    0.90
  -6  -4   9    9.60    1.20
  -6  -4   9   11.70    1.20
  -6  -4   9   11.50    1.20
   6   4  -9   11.20    1.00
  -6   4   9   11.50    0.90
   6   4  -9   13.50    1.30
   6   4  -9   10.90    0.90
  -6   4   9   12.80    0.90
   6   4  -9   10.10    1.10
  -6   4   9   12.60    1.20
  -6   4   9   13.50    0.90
   6   4  -9   10.50    1.20
  -5  -4   9   -0.20    0.40
  -5  -4   9    0.20    0.50
  -5  -4   9    0.10    0.50
  -5  -4   9   -0.10    0.40
  -5  -4   9    0.00    0.50
   5  -4  -9    0.50    0.30
  -5  -4   9   -0.10    0.50
  -5   4   9    0.50    0.50
  -5   4   9    0.30    0.40
   5   4  -9    0.40    0.40
  -5   4   9   -0.30    0.30
   5   4  -9    0.10    0.50
   5   4  -9    0.70    0.60
   5   4  -9   -0.10    0.50
  -5   4   9    0.30    0.30
   5   4  -9    0.70    0.50
   4  -4  -9   19.50    0.80
  -4  -4   9   21.50    1.40
  -4  -4   9   17.80    1.40
  -4  -4   9   19.20    1.30
   4  -4  -9   20.30    0.80
  -4  -4   9   21.30    1.40
  -4  -4   9   20.80    1.40
  -4  -4   9   19.00    1.20
   4   4  -9   19.50    1.20
   4   4  -9   19.60    1.20
  -4   4   9   18.30    0.80
  -4   4   9   18.40    1.20
  -4   4   9   18.50    1.40
  -4   4   9   19.20    0.80
   4   4  -9   20.80    1.40
   4   4  -9   17.10    1.30
   4   4  -9   21.60    1.40
  -3  -4   9   90.99    3.20
  -3  -4   9   91.79    3.10
  -3  -4   9   98.19    3.30
  -3  -4   9   91.59    3.10
  -3  -4   9   93.89    3.20
  -3   4   9   93.09    3.00
  -3   4   9   90.99    2.70
   3   4  -9   94.69    3.10
   3   4  -9   94.09    3.20
  -3   4   9   94.09    3.20
   3   4  -9   92.09    3.20
  -3   4   9   92.89    2.90
   3   4  -9   93.39    3.00
   3   4  -9   92.89    3.00
  -2  -4   9  123.99    4.00
  -2  -4   9  128.59    4.00
  -2  -4   9  128.59    4.00
  -2  -4   9  123.19    3.90
  -2  -4   9  123.49    4.00
  -2  -4   9  127.89    4.00
   2   4  -9  127.79    4.00
   2   4  -9  127.79    3.90
  -2   4   9  126.39    3.60
   2   4  -9  128.29    3.70
   2   4  -9  120.89    3.90
  -2   4   9  128.89    4.00
  -2   4   9  125.49    3.60
  -2   4   9  118.59    3.10
  -2   4   9  125.39    3.80
  -1  -4   9  127.49    4.10
  -1  -4   9  131.79    4.10
  -1  -4   9  131.59    4.20
  -1   4   9  124.19    3.20
  -1   4   9  132.89    3.90
   1   4  -9  132.79    4.10
  -1   4   9  132.19    3.60
   1   4  -9  128.69    3.90
  -1   4   9  136.59    4.00
   1   4  -9  132.49    4.10
   1   4  -9  127.19    3.90
   1   4  -9  135.39    4.20
  -1   4   9  131.89    4.00
  -1   4   9  122.79    3.20
   0  -4   9  124.69    4.10
   0  -4   9  127.09    4.10
   0  -4   9  127.39    4.10
   0   4   9  130.39    3.90
   0   4  -9  131.89    3.90
   0   4  -9  130.39    4.10
   0   4  -9  126.19    3.80
   0   4  -9  131.79    4.20
   0   4   9  126.59    3.90
   0   4   9  122.99    3.40
   0   4   9  109.19    3.20
   0   4  -9  120.79    3.90
   0   4   9  131.09    4.00
   0   4  -9  133.39    3.70
  -1  -4  -9   20.60    0.80
  -1  -4  -9   19.50    0.80
  -1  -4  -9   19.30    1.30
   1  -4   9   21.20    1.50
   1  -4   9   21.40    1.50
   1  -4   9   19.90    1.40
   1   4   9   21.20    1.30
   1   4   9   18.80    0.90
  -1   4  -9   21.00    1.50
  -1   4  -9   21.30    1.30
   1   4   9   19.60    0.70
  -1   4  -9   20.90    1.30
  -1   4  -9   23.60    1.20
   1   4   9   20.90    1.40
   1   4   9   18.40    0.80
  -1   4  -9   23.20    1.50
  -1   4  -9   20.10    1.30
   2  -4   9   25.00    1.70
  -2  -4  -9   27.00    1.10
   2  -4   9   26.80    1.60
  -2  -4  -9   26.70    1.50
   2  -4   9   26.90    1.70
   2  -4   9   28.90    1.80
  -2   4  -9   25.40    1.70
   2   4   9   25.40    1.40
   2   4   9   24.30    1.10
  -2   4  -9   26.30    1.50
  -2   4  -9   27.50    1.80
   2   4   9   29.30    1.20
  -2   4  -9   26.10    1.50
   2   4   9   26.40    1.60
  -2   4  -9   26.60    1.40
  -2   4  -9   28.70    1.40
  -3  -4  -9    2.20    0.50
   3  -4   9    1.80    0.70
  -3  -4  -9    2.20    0.60
   3  -4   9    2.30    0.80
   3  -4   9    1.60    0.70
   3  -4   9    1.60    0.60
  -3   4  -9    2.10    0.60
   3   4   9    1.90    0.60
   3   4   9    2.00    0.70
  -3   4  -9    2.20    0.70
   3   4   9    2.40    0.50
   3   4   9    1.90    0.50
  -3   4  -9    1.50    0.60
  -3   4  -9    0.60    0.60
  -3   4  -9    1.60    0.50
  -3   4  -9    1.80    0.80
   4  -4   9    3.50    0.90
   4  -4   9    3.80    1.00
  -4  -4  -9    3.30    0.60
   4  -4   9    5.20    1.00
   4  -4   9    3.50    0.70
  -4  -4  -9    2.70    0.70
   4   4   9    3.30    0.70
  -4   4  -9    4.00    0.90
   4   4   9    3.50    0.70
   4   4   9    3.00    0.60
  -4   4  -9    2.60    0.60
  -4   4  -9    4.20    0.90
  -4   4  -9    2.40    0.60
  -4   4  -9    3.30    0.80
   4   4   9    2.20    0.70
  -4   4  -9    2.80    0.80
  -5  -4  -9    6.90    1.10
   5  -4   9    7.50    1.10
   5  -4   9    6.90    1.20
   5   4   9    7.40    1.00
  -5   4  -9    7.10    1.10
  -5   4  -9    5.50    0.80
  -5   4  -9    6.30    0.80
  -5   4  -9    6.70    1.10
   6  -4   9   19.50    1.60
  -6  -4  -9   24.30    1.90
  -6   4  -9   22.00    1.40
  -8  -5   9   21.10    1.80
  -8  -5   9   18.30    1.60
   8  -5  -9   18.90    1.30
   8   5  -9   20.10    1.30
  -8   5   9   20.20    1.00
  -8   5   9   19.50    1.40
   8   5  -9   23.40    1.80
   8   5  -9   20.10    1.80
  -8   5   9   19.40    1.30
  -7  -5   9    4.10    1.00
  -7  -5   9    5.10    1.00
  -7  -5   9    2.80    0.70
  -7  -5   9    2.70    0.90
   7  -5  -9    4.00    0.60
  -7  -5   9    6.10    1.10
   7   5  -9    3.80    0.80
   7   5  -9    4.40    1.00
   7   5  -9    2.30    0.80
  -7   5   9    3.60    0.60
   7   5  -9    5.60    0.90
   7   5  -9    2.70    0.60
  -7   5   9    4.60    0.60
  -7   5   9    3.70    0.70
  -7   5   9    3.80    0.90
   6  -5  -9    2.60    0.50
  -6  -5   9    3.40    0.80
  -6  -5   9    2.60    0.70
  -6  -5   9    2.30    0.80
  -6  -5   9    3.90    0.90
  -6  -5   9    1.90    0.60
   6   5  -9    2.10    0.70
  -6   5   9    1.80    0.60
  -6   5   9    3.00    0.50
   6   5  -9    3.80    0.90
  -6   5   9    2.90    0.50
   6   5  -9    3.50    0.70
   6   5  -9    2.90    0.60
  -6   5   9    2.00    0.50
   6   5  -9    4.20    0.90
   5  -5  -9   16.40    0.80
  -5  -5   9   14.80    1.40
  -5  -5   9   14.20    1.30
  -5  -5   9   18.30    1.40
  -5  -5   9   14.90    1.20
  -5  -5   9   16.30    1.30
  -5  -5   9   15.30    1.30
   5   5  -9   14.40    1.30
   5   5  -9   15.80    1.20
   5   5  -9   15.80    1.20
   5   5  -9   19.50    1.50
  -5   5   9   14.60    0.80
  -5   5   9   15.00    0.90
   5   5  -9   16.20    1.40
  -5   5   9   15.70    1.20
  -5   5   9   17.00    0.90
  -4  -5   9   38.20    1.90
  -4  -5   9   39.90    1.90
  -4  -5   9   36.60    2.00
  -4  -5   9   40.00    2.00
  -4  -5   9   39.70    2.10
  -4  -5   9   38.20    1.80
  -4   5   9   37.60    1.90
  -4   5   9   36.10    1.20
   4   5  -9   38.20    1.80
  -4   5   9   39.50    1.50
   4   5  -9   36.00    1.80
   4   5  -9   38.60    2.00
  -4   5   9   38.70    1.80
  -4   5   9   38.10    1.30
   4   5  -9   36.70    1.80
   4   5  -9   36.50    1.90
  -3  -5   9   19.70    1.40
  -3  -5   9   15.90    1.30
  -3  -5   9   17.90    1.40
  -3  -5   9   19.50    1.40
  -3  -5   9   20.00    1.40
  -3  -5   9   21.00    1.50
  -3   5   9   17.90    1.10
   3   5  -9   17.90    1.40
   3   5  -9   20.30    1.30
  -3   5   9   18.20    1.10
  -3   5   9   17.90    1.00
   3   5  -9   19.60    1.40
   3   5  -9   18.70    1.30
   3   5  -9   20.80    1.30
  -3   5   9   18.90    1.30
  -3   5   9   18.10    0.70
  -2  -5   9    3.70    0.80
  -2  -5   9    2.40    0.70
  -2  -5   9    3.20    0.70
  -2  -5   9    4.10    0.80
  -2  -5   9    4.10    0.70
   2   5  -9    4.90    0.80
  -2   5   9    4.80    0.70
   2   5  -9    3.20    0.80
   2   5  -9    4.70    0.90
  -2   5   9    4.10    0.60
  -2   5   9    4.60    0.70
   2   5  -9    3.40    0.70
   2   5  -9    4.10    0.70
  -2   5   9    4.40    0.60
  -1  -5   9    9.60    1.10
  -1  -5   9   10.30    1.10
  -1  -5   9   11.90    1.10
  -1   5   9   10.30    0.90
  -1   5   9   10.90    1.00
   1   5  -9   10.70    1.10
   1   5  -9   10.50    1.00
   1   5  -9   10.00    1.00
   1   5  -9   11.60    1.20
  -1   5   9   10.90    1.00
   1   5  -9   10.70    1.10
  -1   5   9   10.30    0.70
   0  -5   9   42.70    2.10
   0  -5   9   40.60    2.00
   0  -5   9   45.00    2.20
   0   5   9   42.20    1.40
   0   5   9   38.30    1.80
   0   5  -9   41.40    2.00
   0   5  -9   41.30    1.90
   0   5  -9   40.60    1.80
   0   5   9   42.10    1.80
   0   5   9   42.60    1.90
   0   5  -9   42.60    2.10
   0   5   9   39.30    1.20
   0   5  -9   45.70    2.20
   0   5  -9   41.50    1.90
   1  -5   9   34.40    1.90
   1  -5   9   32.70    1.90
   1  -5   9   33.80    1.90
  -1   5  -9   32.80    1.70
  -1   5  -9   32.40    1.90
   1   5   9   34.40    1.70
  -1   5  -9   35.20    1.80
  -1   5  -9   33.40    1.60
   1   5   9   33.50    1.60
   1   5   9   33.70    1.80
   1   5   9   31.40    1.10
   1   5   9   30.80    1.00
  -1   5  -9   33.50    1.70
  -1   5  -9   30.20    1.70
   2  -5   9    9.00    1.20
  -2  -5  -9    8.30    0.90
  -2  -5  -9    7.80    0.60
   2  -5   9   10.10    1.30
   2  -5   9    6.10    0.90
   2  -5   9    7.10    1.00
  -2   5  -9    8.50    1.00
  -2   5  -9    8.80    1.10
   2   5   9    8.00    0.90
   2   5   9    7.00    0.90
  -2   5  -9    9.00    1.20
  -2   5  -9    8.00    0.90
  -2   5  -9    7.20    0.90
   2   5   9    9.00    1.10
  -2   5  -9    7.70    1.10
   2   5   9    6.30    0.60
   2   5   9    8.80    0.70
   3  -5   9   11.10    1.10
  -3  -5  -9   10.50    1.00
   3  -5   9    9.40    1.30
   3  -5   9    9.70    1.30
   3  -5   9   10.70    1.40
  -3  -5  -9   10.10    0.80
  -3   5  -9    8.50    1.10
  -3   5  -9    9.60    1.00
   3   5   9   11.40    1.40
  -3   5  -9   11.70    1.20
   3   5   9    9.60    1.00
   3   5   9    9.10    0.80
  -3   5  -9    9.40    1.30
  -3   5  -9   10.70    1.40
   3   5   9   10.10    0.80
  -3   5  -9    9.50    1.10
   3   5   9    6.50    1.00
  -4  -5  -9    2.90    0.60
   4  -5   9    1.30    0.70
   4  -5   9    2.80    0.80
   4  -5   9    2.70    1.00
   4  -5   9    1.80    0.90
  -4  -5  -9    2.20    0.70
  -4   5  -9    1.80    0.80
  -4   5  -9    1.60    0.80
   4   5   9    2.50    0.90
  -4   5  -9    3.80    0.90
  -4   5  -9    2.30    0.90
  -4   5  -9    2.40    0.60
   4   5   9    1.80    0.70
  -4   5  -9    2.20    0.60
   4   5   9    2.30    0.60
   4   5   9    4.00    0.70
   4   5   9    2.20    0.60
  -5  -5  -9    9.40    1.10
   5  -5   9   11.60    1.60
   5  -5   9    7.80    1.10
  -5   5  -9   10.20    1.10
  -5   5  -9    9.40    1.40
   5   5   9    9.20    1.00
  -5   5  -9    9.90    1.30
  -8  -6   9   12.40    1.50
  -8  -6   9   14.40    1.70
   8  -6  -9   14.30    1.20
  -8   6   9   15.30    1.20
  -8   6   9   13.50    1.20
   8   6  -9   16.10    1.70
   8   6  -9   12.70    1.20
   7  -6  -9    8.70    0.90
  -7  -6   9    7.90    1.30
  -7  -6   9    7.60    1.10
   7   6  -9   10.20    1.40
   7   6  -9   14.90    2.00
  -7   6   9    9.50    0.90
   7   6  -9    9.10    1.00
   7   6  -9   10.00    1.40
  -7   6   9    9.10    0.90
   6  -6  -9   15.30    0.90
  -6  -6   9   14.90    1.30
  -6  -6   9   15.20    1.60
  -6  -6   9   15.60    1.40
  -6  -6   9   15.10    1.30
  -6  -6   9   14.70    1.60
  -6  -6   9   14.60    1.50
   6   6  -9   15.10    1.40
  -6   6   9   16.90    1.00
   6   6  -9   14.80    1.20
  -6   6   9   15.10    0.70
  -6   6   9   17.20    0.80
  -6   6   9   15.40    1.00
   6   6  -9   15.40    1.60
  -6   6   9   14.60    1.30
   6   6  -9   17.60    1.40
   6   6  -9   15.70    1.50
  -5  -6   9   11.40    1.10
  -5  -6   9   10.20    1.20
  -5  -6   9   11.20    1.20
   5  -6  -9   11.40    0.60
  -5  -6   9    8.40    1.10
  -5  -6   9    8.80    1.20
  -5  -6   9    8.10    1.10
   5   6  -9   12.30    1.30
  -5   6   9   10.20    0.70
   5   6  -9    9.50    1.20
  -5   6   9   10.30    0.70
   5   6  -9   11.10    1.10
  -5   6   9   10.70    0.70
   5   6  -9   10.10    1.30
  -5   6   9   10.50    0.60
   5   6  -9    9.80    1.10
  -5   6   9   10.70    1.10
  -4  -6   9    1.10    0.60
  -4  -6   9    1.60    0.70
  -4  -6   9    0.60    0.60
  -4  -6   9    1.10    0.70
  -4  -6   9    0.60    0.60
  -4  -6   9    0.20    0.50
   4   6  -9    1.60    0.70
   4   6  -9    1.30    0.60
  -4   6   9    0.70    0.30
   4   6  -9    1.10    0.60
   4   6  -9    1.80    0.80
  -4   6   9    1.70    0.60
  -4   6   9    2.30    0.60
  -4   6   9    1.50    0.40
  -4   6   9    1.80    0.40
   4   6  -9    1.50    0.70
  -3  -6   9   18.30    1.50
  -3  -6   9   18.10    1.40
  -3  -6   9   20.80    1.40
  -3  -6   9   16.30    1.50
  -3  -6   9   17.70    1.30
  -3   6   9   17.30    1.10
  -3   6   9   18.10    1.30
  -3   6   9   18.50    1.00
   3   6  -9   20.50    1.40
   3   6  -9   18.90    1.40
   3   6  -9   17.20    1.30
   3   6  -9   20.50    1.50
  -3   6   9   18.00    0.70
  -3   6   9   19.60    1.20
   3   6  -9   17.10    1.50
  -2  -6   9   18.00    1.50
  -2  -6   9   20.70    1.50
  -2  -6   9   18.20    1.50
  -2  -6   9   18.70    1.30
   2   6  -9   16.50    1.30
   2   6  -9   18.10    1.30
  -2   6   9   18.30    1.20
   2   6  -9   18.20    1.30
  -2   6   9   18.60    1.20
   2   6  -9   15.30    1.40
  -2   6   9   18.10    1.10
   2   6  -9   16.20    1.40
  -2   6   9   19.20    1.10
  -1  -6   9   12.10    1.20
  -1  -6   9   12.70    1.20
  -1  -6   9   13.10    1.30
  -1   6   9   14.30    1.10
  -1   6   9   12.60    1.00
   1   6  -9   12.40    1.20
  -1   6   9   13.10    0.90
   1   6  -9   12.70    1.20
   1   6  -9   12.50    1.20
   1   6  -9   13.40    1.20
   1   6  -9   12.10    1.20
  -1   6   9   12.90    1.00
   1   6  -9   12.30    1.20
   0  -6   9   18.10    1.40
   0  -6   9   18.10    1.50
   0  -6   9   15.20    1.50
   0   6   9   17.90    1.30
   0   6  -9   18.60    1.40
   0   6   9   19.20    1.10
   0   6  -9   18.40    1.50
   0   6   9   17.50    0.90
   0   6   9   16.20    1.20
   0   6   9   16.80    0.70
   0   6  -9   18.40    1.50
   0   6  -9   18.40    1.40
   0   6  -9   16.10    1.20
   0   6  -9   19.40    1.30
   1  -6   9    2.20    0.80
   1  -6   9    1.90    0.70
   1  -6   9    1.50    0.80
  -1   6  -9    1.50    0.60
  -1   6  -9    2.60    0.70
   1   6   9    0.40    0.60
   1   6   9    2.00    0.50
   1   6   9    2.40    0.40
   1   6   9    1.40    0.60
   1   6   9    1.70    0.30
  -1   6  -9    2.00    0.60
  -1   6  -9    0.90    0.70
  -1   6  -9    0.90    0.60
  -1   6  -9    2.10    0.70
   2  -6   9    5.10    0.90
  -2  -6  -9    8.10    0.50
   2  -6   9    9.40    1.30
   2  -6   9   11.40    1.40
   2  -6   9    7.80    0.90
  -2   6  -9    8.80    1.10
  -2   6  -9   10.70    1.40
   2   6   9    6.20    1.00
   2   6   9    8.80    0.60
   2   6   9    8.60    1.10
   2   6   9    8.40    0.80
  -2   6  -9    8.50    1.10
   2   6   9    8.60    0.70
  -2   6  -9    7.60    1.10
  -2   6  -9    9.10    1.20
  -2   6  -9    9.30    1.00
  -3  -6  -9   10.60    0.80
   3  -6   9   11.60    1.40
   3  -6   9    8.10    1.10
   3  -6   9   12.50    1.60
   3  -6   9   10.40    1.20
  -3  -6  -9   10.40    1.00
  -3   6  -9   11.10    1.40
  -3   6  -9    8.00    1.10
   3   6   9    9.80    0.80
   3   6   9   11.50    1.40
  -3   6  -9   11.20    1.20
  -3   6  -9   11.40    1.40
  -3   6  -9   10.20    1.30
   3   6   9    8.30    1.10
   3   6   9   10.90    0.90
  -3   6  -9    9.20    1.00
   3   6   9    9.80    1.00
   4  -6   9    6.60    1.00
  -4  -6  -9    6.20    0.90
   4  -6   9    5.90    1.20
  -4   6  -9    5.50    1.10
  -4   6  -9    6.10    1.20
   4   6   9    6.90    0.80
  -4   6  -9    5.00    0.90
  -4   6  -9    4.30    0.90
   5  -6   9    4.20    1.10
  -5  -6  -9    5.70    0.80
   5  -6   9    5.00    0.80
   5   6   9    7.50    1.00
  -5   6  -9    4.10    0.80
  -5   6  -9    5.80    1.20
  -5   6  -9    4.90    1.10
  -7  -7   9   10.40    1.40
   7  -7  -9   11.50    0.90
  -7  -7   9   11.40    1.20
  -7   7   9   13.20    1.00
  -7   7   9   14.20    1.00
   7   7  -9   13.20    1.60
   7   7  -9   11.00    1.50
   7   7  -9   10.40    1.20
  -6  -7   9    7.40    1.20
  -6  -7   9    5.40    0.90
  -6  -7   9    7.40    1.10
  -6  -7   9    4.90    1.30
   6  -7  -9    8.70    0.70
   6   7  -9    7.30    1.20
   6   7  -9    6.20    1.10
   6   7  -9    5.80    1.20
   6   7  -9    6.60    1.00
  -6   7   9    6.80    0.70
   6   7  -9    7.10    1.20
  -6   7   9    6.70    0.70
  -5  -7   9    8.80    1.30
  -5  -7   9    5.50    0.90
  -5  -7   9   11.20    1.30
  -5  -7   9    8.80    1.30
  -5  -7   9   10.20    1.10
   5   7  -9    9.80    1.40
   5   7  -9    8.00    1.20
   5   7  -9    9.20    1.20
   5   7  -9    7.40    1.00
  -5   7   9    7.50    1.00
   5   7  -9    9.50    1.20
  -5   7   9    9.60    0.70
  -4  -7   9    0.70    0.70
  -4  -7   9    1.50    0.70
  -4  -7   9    1.20    0.50
  -4  -7   9    1.50    0.70
  -4  -7   9    0.40    0.70
  -4   7   9    1.50    0.30
  -4   7   9    0.30    0.50
   4   7  -9    2.50    0.80
   4   7  -9    2.90    0.80
  -4   7   9    1.00    0.40
   4   7  -9    0.30    0.60
  -4   7   9    1.30    0.30
   4   7  -9    0.10    0.70
   4   7  -9    0.80    0.70
  -4   7   9    0.80    0.60
  -3  -7   9    0.10    0.70
  -3  -7   9    1.00    0.60
  -3  -7   9   -0.10    0.50
  -3  -7   9    1.10    0.70
  -3   7   9    0.10    0.40
   3   7  -9    0.50    0.60
  -3   7   9   -0.20    0.40
  -3   7   9    0.40    0.20
   3   7  -9    0.00    0.50
  -3   7   9    0.60    0.30
   3   7  -9    0.60    0.60
   3   7  -9    1.40    0.70
   3   7  -9    1.20    0.60
  -3   7   9   -0.20    0.40
  -2  -7   9   17.30    1.50
  -2  -7   9   16.60    1.30
  -2  -7   9   17.40    1.60
   2   7  -9   21.60    1.50
   2   7  -9   15.90    1.40
  -2   7   9   18.60    1.10
   2   7  -9   17.70    1.40
   2   7  -9   17.60    1.50
  -2   7   9   17.30    1.20
   2   7  -9   18.60    1.50
  -2   7   9   18.50    1.20
  -2   7   9   18.20    1.20
  -1  -7   9    5.10    1.00
  -1  -7   9    5.80    1.00
  -1  -7   9    6.70    1.00
  -1   7   9    6.60    0.90
   1   7  -9    6.30    1.00
   1   7  -9    6.30    1.10
   1   7  -9    7.50    1.00
   1   7  -9    6.80    1.10
   1   7  -9    6.70    1.00
  -1   7   9    7.10    0.80
  -1   7   9    5.80    0.80
  -1   7   9    5.20    0.60
   1   7  -9    5.40    0.80
   0  -7   9   24.70    1.90
   0  -7   9   23.10    1.60
   0  -7   9   21.50    1.80
   0   7   9   23.00    1.20
   0   7   9   23.80    0.90
   0   7  -9   26.50    1.80
   0   7  -9   23.70    1.70
   0   7   9   24.70    1.10
   0   7  -9   24.50    1.70
   0   7   9   23.20    1.40
   0   7  -9   22.60    1.60
   0   7  -9   25.00    1.70
   0   7   9   25.10    1.60
   1  -7   9   12.20    1.30
   1  -7   9   11.50    1.40
   1  -7   9   10.10    1.40
  -1   7  -9   12.60    1.30
   1   7   9    7.90    1.10
   1   7   9    9.60    1.10
   1   7   9   10.70    0.80
  -1   7  -9   13.60    1.50
  -1   7  -9    9.10    1.20
  -1   7  -9    8.30    1.10
   1   7   9   10.70    0.70
   1   7   9   10.00    0.60
  -1   7  -9    8.00    1.00
  -1   7  -9    9.30    1.10
   2  -7   9   11.30    1.30
   2  -7   9    9.80    1.40
   2  -7   9   10.00    1.30
   2  -7   9   11.70    1.10
  -2   7  -9    9.50    1.30
   2   7   9    8.60    1.10
  -2   7  -9   13.70    1.40
   2   7   9    8.50    1.20
  -2   7  -9    8.90    1.10
   2   7   9   10.40    0.80
   2   7   9   10.60    0.80
  -2   7  -9    7.80    1.00
  -2   7  -9   10.90    1.40
  -2   7  -9    7.10    1.10
  -3  -7  -9    4.00    0.50
   3  -7   9    4.80    0.80
   3  -7   9    2.90    0.80
   3  -7   9    4.30    1.10
  -3   7  -9    4.00    1.00
   3   7   9    3.60    0.80
  -3   7  -9    4.00    1.00
  -3   7  -9    4.40    1.10
   3   7   9    3.90    1.00
   3   7   9    6.70    0.70
  -3   7  -9    4.10    1.00
   3   7   9    4.80    0.70
  -3   7  -9    4.00    0.90
   3   7   9    4.80    0.60
  -3   7  -9    4.40    0.90
   4  -7   9    4.90    1.10
   4  -7   9    7.60    1.00
  -4   7  -9    7.40    1.20
  -4   7  -9    6.40    1.10
   4   7   9    7.10    0.90
  -4   7  -9    4.50    0.90
   6  -8  -9    0.20    0.30
  -6  -8   9   -0.10    0.50
  -6  -8   9    0.40    0.80
  -6  -8   9    0.40    0.70
  -6   8   9    0.00    0.30
  -6   8   9    0.30    0.30
  -6   8   9    0.00    0.40
   6   8  -9    0.20    0.80
   6   8  -9    0.70    0.80
   6   8  -9   -0.90    0.40
  -5  -8   9    8.80    1.30
  -5  -8   9    8.30    1.20
  -5  -8   9    7.90    1.00
  -5   8   9    7.50    1.00
   5   8  -9    9.40    1.40
   5   8  -9    6.60    1.00
  -5   8   9    8.90    1.10
  -5   8   9    9.00    0.80
   5   8  -9    8.80    1.30
  -5   8   9    7.50    0.70
  -4  -8   9    2.10    0.80
  -4  -8   9    3.90    1.00
  -4  -8   9    4.10    0.90
  -4  -8   9    3.60    0.90
  -4  -8   9    5.40    0.80
   4   8  -9    3.40    0.80
  -4   8   9    4.30    0.80
   4   8  -9    4.90    1.00
   4   8  -9    4.10    0.90
  -4   8   9    4.00    0.70
  -4   8   9    4.50    0.50
   4   8  -9    5.10    0.90
   4   8  -9    3.90    0.90
  -4   8   9    4.50    0.70
  -3  -8   9    4.00    0.80
  -3  -8   9    6.30    1.10
  -3  -8   9    3.60    1.00
  -3  -8   9    3.00    0.90
  -3   8   9    3.00    0.70
  -3   8   9    3.90    0.40
   3   8  -9    2.30    0.80
   3   8  -9    3.80    1.00
  -3   8   9    3.90    0.50
   3   8  -9    5.20    0.90
   3   8  -9    4.50    1.00
  -3   8   9    2.30    0.60
  -3   8   9    3.90    0.70
   3   8  -9    4.30    0.90
  -2  -8   9    9.60    1.10
  -2  -8   9   11.10    1.30
  -2  -8   9   11.70    1.50
   2   8  -9    7.10    1.00
   2   8  -9   10.90    1.30
  -2   8   9    8.10    0.90
   2   8  -9   11.00    1.30
  -2   8   9   11.00    0.80
   2   8  -9   14.40    1.60
  -2   8   9   10.90    1.00
  -2   8   9    8.60    1.10
   2   8  -9   11.60    1.40
  -1  -8   9    1.30    0.80
  -1  -8   9    0.20    0.70
  -1  -8   9    0.30    0.50
  -1  -8   9    0.80    0.60
  -1   8   9    0.90    0.30
  -1   8   9    2.10    0.50
  -1   8   9    1.30    0.60
   1   8  -9    0.70    0.60
  -1   8   9    1.10    0.40
   1   8  -9    1.60    0.80
   1   8  -9    1.60    0.90
   1   8  -9    1.10    0.70
   1   8  -9    1.60    0.70
  -1   8   9    1.60    0.50
   1   8  -9    1.50    0.70
   0  -8   9   -0.30    0.60
   0  -8   9   -0.50    0.70
   0  -8   9   -0.30    0.50
   0   8   9    0.60    0.50
   0   8   9    0.00    0.30
   0   8  -9    0.30    0.70
   0   8  -9    0.50    0.60
   0   8   9   -0.10    0.60
   0   8   9    0.20    0.30
   0   8   9   -0.20    0.20
   0   8  -9    0.50    0.70
   0   8  -9    0.30    0.50
   0   8  -9    0.20    0.60
   1  -8   9   14.90    1.70
   1  -8   9   14.80    1.80
   1  -8   9   12.30    1.30
  -1   8  -9   13.60    1.50
   1   8   9   13.90    0.80
   1   8   9   12.90    1.20
   1   8   9   14.40    0.70
  -1   8  -9   15.80    1.60
   1   8   9   14.20    0.80
  -1   8  -9   13.70    1.30
  -1   8  -9   10.10    1.30
   1   8   9   13.30    0.80
  -1   8  -9   14.10    1.60
  -1   8  -9   10.40    1.30
   1   8   9   16.90    1.60
   2  -8   9   19.80    1.60
   2  -8   9   17.50    1.80
   2  -8   9   19.50    1.40
  -2   8  -9   19.00    1.70
  -2   8  -9   16.50    1.70
  -2   8  -9   18.90    1.70
   2   8   9   20.80    1.60
   2   8   9   18.00    1.70
   2   8   9   19.60    1.10
  -2   8  -9   16.60    1.60
   3  -8   9   -0.90    0.70
  -3  -8  -9    0.10    0.30
   3  -8   9   -0.10    0.40
   3   8   9    0.40    0.40
   3   8   9    0.50    0.30
  -3   8  -9   -0.60    0.70
  -3   8  -9    0.00    0.80
   3   8   9    0.40    0.30
  -5  -9   9    0.20    0.50
  -5  -9   9    0.20    0.70
   5   9  -9    0.40    0.80
   5   9  -9    0.00    0.70
  -5   9   9   -0.10    0.50
  -5   9   9   -0.10    0.40
  -5   9   9    0.40    0.40
  -4  -9   9    4.10    1.00
  -4  -9   9    3.60    1.00
  -4  -9   9    4.70    0.70
  -4   9   9    4.00    0.50
  -4   9   9    4.10    0.70
  -4   9   9    5.60    0.90
   4   9  -9    6.40    1.20
   4   9  -9    4.00    1.00
   4   9  -9    5.30    1.10
  -4   9   9    5.10    0.90
  -3  -9   9    2.50    0.60
  -3  -9   9    4.40    1.10
  -3  -9   9    2.50    0.80
  -3  -9   9    4.20    1.10
  -3   9   9    3.50    0.40
   3   9  -9    2.70    0.90
   3   9  -9    3.40    1.00
   3   9  -9    2.00    0.80
  -3   9   9    4.00    0.70
  -3   9   9    4.00    0.80
  -3   9   9    2.90    0.70
  -3   9   9    3.60    0.40
  -2  -9   9    6.40    0.90
  -2  -9   9    8.10    1.20
  -2  -9   9    7.80    1.40
  -2   9   9    7.50    0.80
   2   9  -9    8.50    1.30
  -2   9   9    9.80    1.20
  -2   9   9    7.30    0.70
  -2   9   9    7.00    0.90
  -2   9   9    7.70    0.60
   2   9  -9    9.00    1.40
   2   9  -9    7.90    1.30
  -1  -9   9    4.30    1.10
  -1  -9   9    5.70    1.20
  -1  -9   9    4.50    0.90
  -1  -9   9    7.00    1.00
  -1   9   9    4.50    1.00
  -1   9   9    5.20    0.70
  -1   9   9    6.00    0.60
   1   9  -9    4.70    1.10
   1   9  -9    6.20    1.20
  -1   9   9    4.40    0.70
  -1   9   9    6.10    0.70
   1   9  -9    4.10    1.00
   0  -9   9   10.50    1.50
   0  -9   9   11.80    1.20
   0  -9   9   10.70    1.30
   0   9   9   12.30    0.70
   0   9   9   11.40    1.10
   0   9  -9   11.20    1.50
   0   9  -9    8.40    1.10
   0   9   9   11.40    1.40
   0   9   9   10.70    0.60
   0   9  -9    9.80    1.50
   0   9   9   11.20    0.90
   1  -9   9    1.70    1.00
   1  -9   9    1.20    0.70
   1  -9   9    1.20    0.60
   1   9   9    0.80    0.30
   1   9   9    0.60    0.70
  -1   9  -9    1.40    0.70
  -1   9  -9    0.80    0.80
  -1   9  -9    0.80    0.90
   1   9   9    0.00    0.50
   1   9   9    0.80    0.40
   1   9   9    0.90    0.40
   2  -9   9    0.90    0.70
   2  -9   9    0.50    0.50
   2  -9   9    1.00    0.90
  -2   9  -9    0.00    0.80
   2   9   9    1.10    0.60
  -2   9  -9    0.20    0.80
   2   9   9    1.00    0.50
  -2   9  -9    0.60    0.70
  -3 -10   9    2.40    0.60
  -3  10   9    2.70    0.50
  -3  10   9    2.80    0.50
  -3  10   9    3.00    0.70
  -3  10   9    2.40    0.70
  -3  10   9    3.10    0.60
   3  10  -9    1.30    0.90
  -2 -10   9    4.30    0.70
  -2 -10   9    2.60    0.90
  -2  10   9    1.30    0.50
  -2  10   9    3.40    0.50
  -2  10   9    3.70    0.90
   2  10  -9    2.60    1.00
  -2  10   9    3.90    0.60
   2  10  -9    1.20    1.10
  -2  10   9    3.30    0.50
  -1 -10   9    2.90    0.90
  -1 -10   9    2.70    0.70
  -1  10   9    3.20    0.50
  -1  10   9    2.20    0.60
   1  10  -9    2.50    1.20
  -1  10   9    3.20    0.90
  -1  10   9    3.60    0.60
   1  10  -9    4.20    1.10
   0 -10   9    1.30    0.80
   0 -10   9    3.00    0.80
   0 -10   9    1.40    1.00
   0  10   9    2.50    0.50
   0  10  -9    1.70    0.90
   0  10   9    1.40    0.60
   0  10   9    2.70    0.60
   0  10  -9    1.50    0.80
   1 -10   9    5.70    1.00
   1 -10   9    4.10    1.20
   1 -10   9    7.00    1.00
   1  10   9    5.10    0.60
   1  10   9    5.10    0.70
   1  10   9    6.30    0.70
  -1  10  -9    5.40    1.00
  -1  10  -9    6.00    1.10
   1  10   9    5.10    0.90
  -9   0  10    4.90    0.90
   9   0 -10    6.20    0.80
  -9   0  10    5.00    1.00
   9   0 -10    4.20    0.80
  -8   0  10   25.80    1.80
   8   0 -10   27.40    1.70
  -8   0  10   25.30    1.80
   8   0 -10   29.60    1.30
  -8   0  10   24.90    1.70
   8   0 -10   27.90    1.90
  -8   0  10   27.20    1.70
   7   0 -10   17.80    1.40
  -7   0  10   19.20    1.30
   7   0 -10   19.10    1.00
  -7   0  10   20.30    1.50
  -7   0  10   18.40    1.40
   7   0 -10   19.00    1.50
  -7   0  10   19.80    1.50
   7   0 -10   18.00    1.30
  -6   0  10   24.60    1.60
  -6   0  10   28.60    1.50
  -6   0  10   26.20    1.60
  -6   0  10   26.80    1.60
  -6   0  10   26.30    1.80
   6   0 -10   29.40    1.40
   6   0 -10   28.00    1.10
   6   0 -10   27.80    1.60
   6   0 -10   28.60    1.50
   5   0 -10    8.30    0.90
   5   0 -10    8.00    0.60
  -5   0  10    7.50    1.00
  -5   0  10    7.60    1.00
  -5   0  10    6.90    0.80
  -5   0  10    7.60    0.80
   5   0 -10    8.40    0.90
  -5   0  10    9.40    1.00
   4   0 -10    4.00    0.60
  -4   0  10    4.70    0.70
   4   0 -10    2.90    0.30
  -4   0  10    3.30    0.70
   4   0 -10    2.70    0.50
  -4   0  10    3.50    0.30
   4   0 -10    4.00    0.70
  -4   0  10    2.50    0.60
  -4   0  10    3.50    0.60
  -3   0  10   50.89    2.20
  -3   0  10   46.60    1.60
   3   0 -10   48.60    1.70
  -3   0  10   42.40    1.70
  -3   0  10   49.30    1.80
  -3   0  10   49.99    1.90
   3   0 -10   47.10    1.80
   3   0 -10   48.40    1.30
   3   0 -10   48.50    1.20
   3   0 -10   48.80    1.90
   2   0 -10  172.18    4.70
  -2   0  10  173.78    4.80
  -2   0  10  174.88    4.60
   2   0 -10  161.88    4.60
  -2   0  10  165.88    5.10
  -2   0  10  173.68    4.60
   2   0 -10  167.58    4.60
  -1   0  10   47.20    2.10
   1   0 -10   45.90    1.70
   1   0 -10   47.10    1.70
  -1   0  10   48.50    1.80
  -1   0  10   47.70    1.70
  -1   0  10   49.99    1.80
  -1   0  10   47.90    1.80
   1   0 -10   48.50    2.10
   1   0 -10   44.70    1.70
   0   0 -10   95.59    3.40
   0   0  10   95.19    3.30
   0   0  10   96.09    3.00
   0   0 -10   93.99    2.80
   0   0 -10   93.89    2.40
   0   0 -10   96.79    2.90
   0   0 -10   94.39    2.40
   0   0 -10   97.69    3.00
   0   0  10   95.69    3.30
   0   0  10   94.69    2.90
   1   0  10   25.50    1.40
  -1   0 -10   27.20    1.00
  -1   0 -10   27.20    1.70
  -1   0 -10   25.90    1.30
  -1   0 -10   23.60    1.00
  -1   0 -10   24.90    0.90
   1   0  10   24.00    1.60
   2   0  10   20.70    1.30
  -2   0 -10   22.00    1.20
  -2   0 -10   21.70    1.20
  -2   0 -10   21.00    0.80
  -2   0 -10   21.00    1.00
  -2   0 -10   20.50    0.90
   2   0  10   21.60    1.50
  -2   0 -10   21.30    1.60
   2   0  10   20.70    1.50
  -3   0 -10   21.10    1.10
   3   0  10   19.10    1.30
  -3   0 -10   22.40    1.70
  -3   0 -10   20.90    0.70
  -3   0 -10   21.10    1.30
  -3   0 -10   20.90    1.00
   3   0  10   19.60    1.50
   3   0  10   20.60    1.60
   3   0  10   21.60    1.40
   4   0  10    1.60    0.60
  -4   0 -10    1.60    0.40
  -4   0 -10    1.50    0.50
   4   0  10    2.50    0.80
  -4   0 -10    1.20    0.80
   4   0  10    1.00    0.60
  -4   0 -10    0.70    0.50
   4   0  10    1.40    0.70
   5   0  10    7.80    1.10
   5   0  10    9.10    1.10
  -5   0 -10    9.20    1.00
  -5   0 -10    9.10    0.80
  -5   0 -10   11.50    1.50
   5   0  10   10.00    1.40
  -6   0 -10    5.70    0.70
  -6   0 -10    6.30    0.90
  -9  -1  10    1.20    0.70
   9  -1 -10    0.50    0.40
   9  -1 -10   -0.40    0.50
   9   1 -10    0.20    0.70
  -9   1  10   -0.10    0.60
  -9   1  10    0.10    0.60
   9   1 -10   -0.20    0.50
  -8  -1  10    9.40    1.20
   8  -1 -10    9.10    1.00
  -8  -1  10    7.50    1.10
  -8  -1  10    7.70    1.10
  -8  -1  10    8.20    1.10
   8  -1 -10    9.40    0.70
  -8   1  10    8.70    1.00
  -8   1  10    8.40    1.10
  -8   1  10   10.40    1.10
   8   1 -10    9.50    0.90
   8   1 -10    8.90    1.10
  -8   1  10   10.90    1.80
   8   1 -10    8.70    1.10
   8   1 -10    8.70    1.10
  -7  -1  10   26.90    1.90
  -7  -1  10   24.10    1.70
   7  -1 -10   26.40    1.40
  -7  -1  10   26.50    1.70
   7  -1 -10   24.30    1.70
  -7  -1  10   24.80    1.60
   7  -1 -10   24.30    1.00
  -7  -1  10   23.50    1.50
   7   1 -10   24.90    1.60
  -7   1  10   24.10    1.40
  -7   1  10   23.60    1.50
   7   1 -10   23.50    1.60
   7   1 -10   21.40    1.50
  -7   1  10   25.90    1.60
  -7   1  10   25.40    1.60
   7   1 -10   23.80    1.20
  -6  -1  10    8.00    0.90
  -6  -1  10    9.30    1.10
   6  -1 -10    7.40    0.50
  -6  -1  10    8.00    1.00
  -6  -1  10   10.80    1.30
   6  -1 -10    8.30    1.00
   6  -1 -10    8.70    0.90
  -6  -1  10    7.70    1.00
  -6   1  10    8.20    1.00
  -6   1  10    8.10    0.90
   6   1 -10    8.80    1.10
   6   1 -10   11.40    1.20
  -6   1  10    8.80    0.90
  -6   1  10    7.80    1.00
   6   1 -10    8.80    0.70
   6   1 -10    8.20    0.90
  -5  -1  10  311.47    8.50
   5  -1 -10  316.57    8.10
   5  -1 -10  316.97    8.00
   5  -1 -10  306.97    8.40
  -5  -1  10  324.37    8.80
  -5  -1  10  311.97    8.40
  -5  -1  10  302.37    8.20
  -5  -1  10  296.97    8.30
  -5   1  10  307.47    8.30
  -5   1  10  313.07    8.20
   5   1 -10  322.27    8.40
   5   1 -10  310.37    8.20
  -5   1  10  318.87    8.10
   5   1 -10  315.57    8.30
  -5   1  10  322.27    8.80
  -5   1  10  293.97    8.40
   5   1 -10  314.77    7.80
  -4  -1  10  109.89    3.40
  -4  -1  10   99.59    3.00
  -4  -1  10  113.29    3.80
  -4  -1  10  109.79    3.50
   4  -1 -10  108.79    3.20
   4  -1 -10  108.39    3.10
   4  -1 -10  110.09    3.50
  -4  -1  10  104.79    3.40
  -4   1  10  110.79    3.20
  -4   1  10  103.49    3.20
   4   1 -10  107.79    3.50
   4   1 -10  114.89    3.00
   4   1 -10  110.99    3.40
  -4   1  10  112.39    3.80
   4   1 -10  112.69    3.50
  -4   1  10  111.19    3.50
   3  -1 -10   63.89    2.10
  -3  -1  10   65.99    2.40
   3  -1 -10   65.29    2.00
  -3  -1  10   62.69    2.10
  -3  -1  10   62.99    2.20
  -3  -1  10   60.59    2.30
   3  -1 -10   67.39    2.30
  -3  -1  10   60.99    2.60
  -3   1  10   65.49    2.30
  -3   1  10   63.89    2.10
   3   1 -10   66.49    1.90
   3   1 -10   61.29    2.30
  -3   1  10   64.59    2.10
  -3   1  10   64.99    1.90
  -3   1  10   62.99    2.60
   3   1 -10   62.29    2.30
   3   1 -10   64.49    2.20
  -2  -1  10   16.00    1.10
   2  -1 -10   14.50    0.80
  -2  -1  10   14.00    1.00
  -2  -1  10   14.10    1.20
   2  -1 -10   15.10    0.80
   2  -1 -10   14.80    0.90
  -2  -1  10   14.50    1.00
  -2   1  10   17.40    1.30
   2   1 -10   14.90    0.70
   2   1 -10   14.70    1.00
   2   1 -10   15.10    1.00
   2   1 -10   15.80    0.70
  -2   1  10   14.70    0.90
  -2   1  10   15.30    0.90
  -2   1  10   15.60    1.00
  -1  -1  10   20.90    1.20
   1  -1 -10   21.90    1.00
   1  -1 -10   20.70    1.00
   1  -1 -10   21.40    1.00
  -1  -1  10   24.20    1.30
  -1  -1  10   21.40    1.40
  -1  -1  10   22.30    1.20
  -1  -1  10   19.40    1.20
   1   1 -10   19.70    0.90
   1   1 -10   21.30    0.90
   1   1 -10   22.40    1.50
   1   1 -10   20.30    1.10
  -1   1  10   21.90    1.10
   1   1 -10   23.60    1.20
  -1   1  10   20.40    1.00
  -1   1  10   21.70    1.00
  -1   1  10   22.20    1.40
   0  -1 -10   86.99    2.50
   0  -1 -10   88.49    2.60
   0  -1  10   86.19    3.00
   0  -1 -10   89.29    2.60
   0  -1 -10   86.99    3.10
   0  -1  10   84.59    2.80
   0  -1  10   83.89    3.10
   0   1  10   75.69    3.00
   0   1 -10   87.09    2.80
   0   1 -10   88.19    2.50
   0   1 -10   87.59    3.20
   0   1  10   85.09    2.60
   0   1 -10   87.39    2.80
   0   1 -10   86.29    2.40
   0   1  10   86.59    2.60
   0   1 -10   86.99    2.60
   1  -1  10  227.78    6.50
  -1  -1 -10  229.28    6.70
  -1  -1 -10  238.88    5.80
   1  -1  10  237.18    6.70
  -1  -1 -10  236.78    6.10
   1  -1  10  234.68    6.40
   1  -1  10  230.28    6.60
  -1  -1 -10  227.48    6.10
  -1   1 -10  219.08    6.30
   1   1  10  235.98    6.60
   1   1  10  227.68    6.20
   1   1  10  235.68    6.60
  -1   1 -10  230.08    6.80
  -1   1 -10  235.28    6.30
  -1   1 -10  232.58    6.00
  -1   1 -10  233.48    5.90
  -1   1 -10  232.88    6.00
  -2  -1 -10   64.39    2.20
  -2  -1 -10   66.89    1.80
   2  -1  10   66.49    2.70
   2  -1  10   68.69    2.70
   2  -1  10   70.19    2.80
   2  -1  10   65.89    2.60
  -2  -1 -10   65.89    2.80
  -2   1 -10   65.39    2.20
  -2   1 -10   66.99    2.50
  -2   1 -10   68.29    2.10
   2   1  10   63.99    2.70
   2   1  10   68.99    2.40
  -2   1 -10   65.19    2.80
  -2   1 -10   65.19    2.40
  -2   1 -10   65.09    2.10
   2   1  10   65.39    2.70
   2   1  10   67.79    2.30
   3  -1  10   30.60    1.90
   3  -1  10   32.20    1.80
  -3  -1 -10   31.60    1.50
   3  -1  10   30.00    1.70
  -3  -1 -10   30.90    1.10
  -3  -1 -10   30.30    1.10
  -3  -1 -10   30.40    1.90
   3   1  10   29.20    1.50
  -3   1 -10   31.50    1.30
   3   1  10   30.80    1.60
  -3   1 -10   32.50    1.60
  -3   1 -10   30.10    1.20
   3   1  10   29.80    1.80
  -3   1 -10   32.40    2.00
   3   1  10   33.40    1.90
  -3   1 -10   31.50    1.50
   4  -1  10    2.70    0.80
  -4  -1 -10    1.90    0.50
  -4  -1 -10    2.00    0.40
   4  -1  10    1.70    0.70
   4  -1  10    0.40    0.60
  -4  -1 -10    2.60    0.60
  -4  -1 -10    2.00    0.80
   4   1  10    0.90    0.60
  -4   1 -10    2.20    0.60
   4   1  10    1.00    0.60
   4   1  10    2.50    0.70
  -4   1 -10    2.70    0.90
  -4   1 -10    1.90    0.50
  -4   1 -10    0.90    0.60
   4   1  10    1.30    0.70
  -4   1 -10    2.00    0.30
  -5  -1 -10   17.00    1.70
  -5  -1 -10   14.00    1.00
  -5  -1 -10   14.10    0.90
   5  -1  10   14.20    1.40
   5  -1  10   17.40    2.30
   5   1  10   14.10    1.50
  -5   1 -10   14.30    2.30
  -5   1 -10   17.80    1.30
  -5   1 -10   13.70    1.00
   5   1  10   15.20    1.40
  -5   1 -10   14.10    0.60
  -5   1 -10   17.00    2.00
  -6  -1 -10    0.00    0.40
  -6  -1 -10   -0.40    0.50
  -6   1 -10    0.80    0.70
  -6   1 -10    0.40    0.50
  -9  -2  10   10.50    1.50
   9  -2 -10    7.70    1.10
   9   2 -10   12.20    1.20
  -9   2  10   10.40    1.30
  -9   2  10    8.80    1.10
   9   2 -10    8.80    1.20
   8  -2 -10   16.50    1.10
  -8  -2  10   16.20    1.60
  -8  -2  10   14.10    1.50
  -8  -2  10   14.80    1.50
  -8  -2  10   19.00    1.90
   8   2 -10   15.90    1.20
   8   2 -10   15.40    1.50
   8   2 -10   13.70    1.40
  -8   2  10   16.20    1.30
  -8   2  10   15.60    1.30
  -8   2  10   14.30    1.20
   7  -2 -10   32.00    1.50
  -7  -2  10   30.80    1.90
  -7  -2  10   32.90    2.00
  -7  -2  10   29.10    2.00
  -7  -2  10   29.50    1.90
  -7  -2  10   32.80    1.80
   7   2 -10   31.40    1.50
   7   2 -10   34.40    1.90
  -7   2  10   30.30    1.70
   7   2 -10   34.30    1.80
  -7   2  10   30.60    1.80
  -7   2  10   32.10    1.60
  -7   2  10   32.20    1.70
   7   2 -10   34.30    1.90
  -6  -2  10   33.60    1.70
  -6  -2  10   34.70    2.00
  -6  -2  10   28.70    1.80
   6  -2 -10   30.70    1.80
  -6  -2  10   33.80    1.90
  -6  -2  10   32.30    1.90
   6  -2 -10   34.10    1.50
   6  -2 -10   35.10    1.60
  -6   2  10   31.60    1.50
  -6   2  10   33.00    1.80
   6   2 -10   34.80    1.80
   6   2 -10   32.50    1.40
  -6   2  10   31.50    1.60
   6   2 -10   31.70    1.80
  -6   2  10   33.60    1.70
   6   2 -10   33.10    1.70
  -5  -2  10   51.89    2.20
   5  -2 -10   51.89    1.90
  -5  -2  10   52.89    2.30
  -5  -2  10   55.99    2.20
   5  -2 -10   55.99    1.90
  -5  -2  10   51.59    2.40
  -5  -2  10   56.59    2.50
   5  -2 -10   52.99    2.20
  -5  -2  10   49.90    1.70
   5   2 -10   50.49    2.20
  -5   2  10   53.79    1.90
   5   2 -10   52.39    2.20
  -5   2  10   51.89    2.00
  -5   2  10   50.69    2.20
   5   2 -10   52.79    2.20
  -5   2  10   53.69    2.50
   5   2 -10   57.79    1.90
   4  -2 -10   97.29    2.70
  -4  -2  10   93.39    3.10
  -4  -2  10   91.49    3.20
  -4  -2  10   94.29    2.90
  -4  -2  10   96.29    3.30
   4  -2 -10   95.39    3.20
  -4  -2  10  100.19    3.50
   4  -2 -10   98.19    2.80
   4   2 -10   97.99    2.80
  -4   2  10   97.59    3.20
  -4   2  10   94.89    2.80
   4   2 -10   98.09    3.20
  -4   2  10  100.19    3.50
   4   2 -10   97.29    3.20
  -4   2  10   94.19    2.80
   4   2 -10   99.19    3.30
  -3  -2  10   14.40    1.10
  -3  -2  10   12.10    1.00
  -3  -2  10   12.10    1.10
  -3  -2  10   12.30    0.90
   3  -2 -10   12.40    0.70
   3  -2 -10   11.00    0.70
   3  -2 -10   13.30    1.00
  -3  -2  10   11.20    1.10
  -3   2  10   13.20    1.00
  -3   2  10   13.10    0.70
   3   2 -10   12.90    1.00
   3   2 -10   12.30    1.00
  -3   2  10   12.20    1.20
  -3   2  10   12.10    0.70
   3   2 -10   13.00    1.00
  -3   2  10   12.60    0.70
   3   2 -10   13.70    0.80
  -3   2  10   12.50    0.70
  -2  -2  10  117.09    3.50
   2  -2 -10  110.89    3.00
  -2  -2  10  116.19    3.50
  -2  -2  10  114.39    3.50
  -2  -2  10  107.69    3.50
  -2  -2  10  109.79    3.80
  -2  -2  10  115.19    3.60
   2  -2 -10  112.39    3.30
   2  -2 -10  113.39    3.00
   2   2 -10  110.69    3.20
   2   2 -10  109.79    3.20
   2   2 -10  113.99    3.50
   2   2 -10  117.59    3.50
  -2   2  10  110.59    3.10
  -2   2  10  109.09    3.30
   2   2 -10  111.29    3.40
  -2   2  10  115.09    3.70
   1  -2 -10   55.69    1.90
  -1  -2  10   55.49    2.10
   1  -2 -10   58.29    1.70
  -1  -2  10   60.39    2.30
  -1  -2  10   57.89    2.40
   1  -2 -10   58.79    1.70
  -1  -2  10   55.59    2.20
   1   2 -10   57.49    2.10
  -1   2  10   56.79    1.80
   1   2 -10   57.19    2.20
  -1   2  10   59.09    2.40
   1   2 -10   56.79    1.80
   1   2 -10   60.89    2.50
   1   2 -10   56.09    2.10
  -1   2  10   55.69    1.90
   1   2 -10   58.29    1.90
  -1   2  10   56.09    2.30
   0  -2 -10  189.28    5.60
   0  -2  10  192.48    5.60
   0  -2 -10  190.28    4.90
   0  -2 -10  189.08    5.00
   0  -2  10  188.68    5.70
   0  -2  10  193.98    5.50
   0  -2 -10  195.88    5.00
   0   2  10  194.78    5.00
   0   2 -10  188.98    5.40
   0   2  10  187.68    5.00
   0   2 -10  194.48    5.00
   0   2 -10  194.08    5.80
   0   2 -10  200.18    5.20
   0   2 -10  186.48    5.20
   0   2  10  192.28    5.60
   0   2 -10  194.68    5.40
   0   2  10  193.28    5.60
   1  -2  10   31.00    1.80
   1  -2  10   31.40    1.70
  -1  -2 -10   35.30    1.40
  -1  -2 -10   35.90    1.80
  -1  -2 -10   32.50    1.30
   1  -2  10   34.90    1.80
   1  -2  10   31.50    1.70
  -1   2 -10   33.70    1.90
   1   2  10   32.60    1.40
   1   2  10   31.90    1.30
  -1   2 -10   32.40    1.40
  -1   2 -10   31.20    1.40
  -1   2 -10   34.30    1.70
   1   2  10   30.40    1.70
   1   2  10   35.30    1.80
  -1   2 -10   32.30    1.30
  -1   2 -10   33.60    1.60
   2  -2  10   24.70    1.50
   2  -2  10   22.40    1.60
   2  -2  10   22.50    1.50
   2  -2  10   22.30    1.60
  -2  -2 -10   24.50    1.10
  -2  -2 -10   23.90    1.60
  -2   2 -10   21.80    1.40
  -2   2 -10   22.60    1.70
  -2   2 -10   24.30    1.30
  -2   2 -10   22.60    1.10
   2   2  10   24.50    1.60
   2   2  10   22.00    1.20
  -2   2 -10   22.30    1.10
   2   2  10   22.30    1.20
   2   2  10   22.20    1.50
  -2   2 -10   16.20    1.30
   3  -2  10    8.10    1.10
   3  -2  10    9.00    1.10
  -3  -2 -10    9.30    1.10
   3  -2  10   12.70    1.30
   3  -2  10    9.60    1.20
  -3  -2 -10    8.60    0.80
   3   2  10   12.70    1.40
   3   2  10    8.40    0.90
   3   2  10    9.90    1.20
  -3   2 -10    8.40    0.90
  -3   2 -10    9.80    0.80
  -3   2 -10    8.50    1.00
  -3   2 -10    9.80    1.10
  -3   2 -10   12.10    1.50
   3   2  10   10.10    0.90
  -3   2 -10    9.40    0.80
   4  -2  10   17.10    1.50
  -4  -2 -10   23.10    1.70
  -4  -2 -10   19.00    1.20
   4  -2  10   19.50    1.50
   4  -2  10   18.20    1.60
   4  -2  10   17.50    1.70
   4   2  10   16.90    1.30
   4   2  10   18.00    1.30
  -4   2 -10   17.10    1.00
  -4   2 -10   16.00    1.10
  -4   2 -10   18.40    1.40
   4   2  10   15.30    1.40
  -4   2 -10   16.90    1.70
   4   2  10   17.80    1.50
  -4   2 -10   18.80    1.40
  -5  -2 -10   10.30    1.30
   5  -2  10    9.50    1.20
   5  -2  10    9.90    1.70
  -5  -2 -10   10.10    0.60
  -5  -2 -10   10.60    0.70
  -5   2 -10   10.70    0.70
   5   2  10   10.70    1.20
  -5   2 -10   10.80    1.90
  -5   2 -10    9.70    0.70
  -5   2 -10   10.40    1.00
   5   2  10   12.30    1.40
  -5   2 -10   10.50    1.20
  -6  -2 -10   18.30    0.90
  -6  -2 -10   18.70    1.00
  -6   2 -10   17.20    0.80
  -6   2 -10   16.70    0.80
  -6   2 -10   15.70    1.60
  -6   2 -10   17.30    1.30
  -9   3  10    8.10    1.00
  -9   3  10    9.50    1.40
   9   3 -10    8.40    1.30
  -8  -3  10    3.80    1.00
   8  -3 -10    4.10    0.70
  -8  -3  10    2.80    0.80
  -8   3  10    3.50    0.70
   8   3 -10    4.30    0.80
   8   3 -10    3.60    0.90
   8   3 -10    4.30    1.10
  -8   3  10    4.00    0.80
  -8   3  10    4.00    0.80
   7  -3 -10    3.50    0.60
  -7  -3  10    3.20    0.80
  -7  -3  10    3.10    0.80
  -7  -3  10    2.10    0.80
  -7  -3  10    2.00    0.80
  -7  -3  10    2.90    0.90
  -7   3  10    3.10    0.70
  -7   3  10    4.00    0.70
  -7   3  10    1.50    0.60
   7   3 -10    3.90    0.90
  -7   3  10    3.00    0.60
   7   3 -10    3.10    0.40
   7   3 -10    2.90    0.90
   7   3 -10    3.70    0.70
   7   3 -10    3.10    0.80
  -6  -3  10   11.50    1.20
  -6  -3  10   13.20    1.30
  -6  -3  10   13.30    1.20
   6  -3 -10   10.60    0.80
  -6  -3  10   12.40    1.30
  -6  -3  10   13.20    1.30
   6   3 -10   12.30    1.30
  -6   3  10   13.80    1.20
   6   3 -10   13.30    1.30
   6   3 -10   14.50    1.00
  -6   3  10   12.60    1.00
   6   3 -10   12.10    1.10
  -6   3  10   13.00    0.90
   6   3 -10   12.60    0.80
  -6   3  10   12.60    1.00
  -5  -3  10   11.50    1.30
  -5  -3  10   15.90    1.20
  -5  -3  10   13.50    0.90
   5  -3 -10   13.20    0.90
  -5  -3  10   11.70    1.20
  -5  -3  10   13.10    1.20
  -5  -3  10   15.00    1.20
   5  -3 -10   13.50    0.80
   5   3 -10   10.80    1.10
  -5   3  10   12.80    0.80
   5   3 -10   13.00    1.00
  -5   3  10   12.50    1.30
   5   3 -10   12.90    1.20
  -5   3  10   12.80    0.90
  -5   3  10   13.30    1.10
   5   3 -10   13.10    1.10
  -4  -3  10  160.18    5.00
   4  -3 -10  166.58    4.20
   4  -3 -10  159.68    4.20
  -4  -3  10  160.68    4.90
  -4  -3  10  158.48    4.60
  -4  -3  10  164.68    5.10
  -4  -3  10  165.18    4.80
  -4   3  10  161.98    4.30
   4   3 -10  163.38    4.50
  -4   3  10  160.18    4.70
  -4   3  10  164.78    5.10
   4   3 -10  167.68    4.90
   4   3 -10  165.68    4.90
  -4   3  10  158.98    4.30
   4   3 -10  162.28    4.80
  -3  -3  10  135.49    4.30
  -3  -3  10  130.59    4.00
  -3  -3  10  129.59    4.10
   3  -3 -10  130.39    3.30
   3  -3 -10  127.49    3.20
  -3  -3  10  128.19    3.90
  -3  -3  10  125.49    4.00
  -3   3  10  133.69    4.20
  -3   3  10  127.39    3.80
   3   3 -10  134.89    4.00
  -3   3  10  125.09    3.40
   3   3 -10  131.19    3.70
   3   3 -10  129.99    4.10
  -3   3  10  124.09    3.50
   3   3 -10  127.69    4.00
  -2  -3  10   29.70    1.70
  -2  -3  10   31.10    1.60
  -2  -3  10   29.70    1.60
  -2  -3  10   31.20    1.60
  -2  -3  10   31.80    1.60
  -2  -3  10   32.30    1.60
  -2   3  10   30.90    1.30
   2   3 -10   30.40    1.40
  -2   3  10   31.90    1.70
  -2   3  10   29.90    1.10
  -2   3  10   31.50    1.60
   2   3 -10   34.50    1.70
   2   3 -10   30.90    1.60
   2   3 -10   29.00    1.50
  -2   3  10   31.80    1.40
  -1  -3  10   13.40    1.10
  -1  -3  10   12.20    1.20
  -1  -3  10   14.00    1.10
  -1   3  10   11.70    0.80
  -1   3  10   12.60    0.70
   1   3 -10   13.10    1.00
   1   3 -10   13.80    1.00
  -1   3  10   13.50    1.20
  -1   3  10   12.50    1.10
   1   3 -10   13.90    1.10
   1   3 -10   13.20    1.10
   1   3 -10   11.40    1.20
   1   3 -10   12.70    0.90
   0  -3  10   10.30    1.10
   0  -3 -10   10.10    0.50
   0  -3 -10   10.40    0.60
   0  -3  10    9.90    1.10
   0  -3  10   11.60    1.10
   0   3 -10   10.40    1.00
   0   3  10    9.80    0.60
   0   3  10   10.70    1.10
   0   3 -10    9.80    1.20
   0   3  10    9.70    1.00
   0   3 -10    9.70    0.90
   0   3 -10    9.80    0.90
   0   3 -10   10.70    1.10
   0   3 -10   11.10    0.80
   0   3  10    8.50    0.60
   0   3  10    9.90    0.60
  -1  -3 -10   15.60    1.30
   1  -3  10   15.40    1.30
  -1  -3 -10   15.00    0.70
   1  -3  10   13.20    1.30
   1  -3  10   12.90    1.20
  -1  -3 -10   15.50    0.80
  -1   3 -10   14.50    1.40
   1   3  10   15.30    1.20
   1   3  10   13.90    1.20
   1   3  10   13.80    0.80
  -1   3 -10   13.70    0.90
  -1   3 -10   16.00    1.20
   1   3  10   13.40    0.80
  -1   3 -10   15.20    1.00
  -1   3 -10   14.10    1.00
  -1   3 -10   13.60    1.10
   2  -3  10    2.80    0.80
  -2  -3 -10    3.40    0.70
   2  -3  10    2.90    0.80
  -2  -3 -10    3.00    0.50
   2  -3  10    1.70    0.70
   2  -3  10    2.60    0.70
  -2   3 -10    3.30    0.70
   2   3  10    2.80    0.50
  -2   3 -10    1.70    0.60
   2   3  10    3.70    0.70
  -2   3 -10    2.30    0.70
  -2   3 -10    3.10    0.80
   2   3  10    2.70    0.50
  -2   3 -10    2.70    0.50
  -2   3 -10    3.10    0.60
   2   3  10    3.00    0.80
  -3  -3 -10   17.60    1.50
  -3  -3 -10   22.10    1.20
   3  -3  10   20.30    1.70
   3  -3  10   23.20    1.70
   3  -3  10   20.40    1.50
   3  -3  10   21.20    1.70
   3   3  10   20.50    1.30
  -3   3 -10   23.30    1.50
  -3   3 -10   23.70    1.20
   3   3  10   20.70    1.50
  -3   3 -10   24.00    1.80
  -3   3 -10   22.10    1.60
  -3   3 -10   19.40    1.40
   3   3  10   20.30    1.50
   3   3  10   22.10    1.20
  -3   3 -10   23.50    1.20
  -4  -3 -10    4.70    1.00
   4  -3  10    3.70    0.90
   4  -3  10    3.30    0.90
   4  -3  10    3.50    0.80
  -4  -3 -10    2.80    0.60
   4  -3  10    1.70    0.80
  -4   3 -10    4.20    0.60
   4   3  10    3.40    0.70
  -4   3 -10    3.90    0.90
  -4   3 -10    3.70    0.80
   4   3  10    3.30    0.90
   4   3  10    4.40    0.90
  -4   3 -10    2.40    0.60
  -4   3 -10    2.80    0.70
   4   3  10    3.50    0.70
  -4   3 -10    3.80    1.00
  -5  -3 -10   24.30    1.90
   5  -3  10   18.70    1.60
   5   3  10   26.00    1.60
   5   3  10   20.90    1.60
  -5   3 -10   23.00    1.70
  -5   3 -10   21.80    1.40
  -5   3 -10   23.00    1.20
  -8  -4  10    2.90    0.90
   8  -4 -10    2.60    0.60
  -8  -4  10    3.20    0.80
   8   4 -10    3.50    0.50
   8   4 -10    4.20    0.90
  -8   4  10    2.80    0.60
  -8   4  10    2.30    0.70
   8   4 -10    2.00    0.70
  -8   4  10    1.50    0.60
   7  -4 -10   12.90    1.00
  -7  -4  10   15.10    1.40
  -7  -4  10   14.30    1.50
  -7  -4  10   14.40    1.60
  -7  -4  10   14.10    1.40
  -7  -4  10   13.40    1.40
  -7   4  10   13.70    1.30
  -7   4  10   13.60    1.00
   7   4 -10   13.50    0.90
   7   4 -10   12.10    1.30
   7   4 -10   13.10    1.50
   7   4 -10   12.40    1.20
  -7   4  10   14.30    1.10
  -7   4  10   15.50    1.10
   7   4 -10   16.30    1.40
   6  -4 -10    4.50    0.60
  -6  -4  10    3.60    0.80
  -6  -4  10    4.20    0.90
  -6  -4  10    3.30    0.80
  -6  -4  10    3.60    0.80
  -6  -4  10    4.70    1.00
   6   4 -10    3.50    0.80
   6   4 -10    4.10    0.70
  -6   4  10    3.90    0.80
   6   4 -10    3.40    0.60
  -6   4  10    4.50    0.60
  -6   4  10    3.00    0.60
   6   4 -10    4.20    0.90
   6   4 -10    5.20    1.00
  -6   4  10    4.80    0.70
  -5  -4  10    2.70    0.70
   5  -4 -10    2.00    0.40
  -5  -4  10    2.00    0.60
   5  -4 -10    1.60    0.40
  -5  -4  10    0.80    0.70
  -5  -4  10    2.50    0.60
  -5  -4  10    1.70    0.60
  -5  -4  10    0.90    0.60
   5   4 -10    1.60    0.70
   5   4 -10    1.40    0.50
  -5   4  10    1.20    0.50
   5   4 -10    2.10    0.50
  -5   4  10    1.80    0.70
  -5   4  10    2.30    0.40
  -5   4  10    0.90    0.50
   5   4 -10    2.50    0.80
   5   4 -10    1.10    0.60
  -5   4  10    1.80    0.40
  -4  -4  10   41.60    1.80
   4  -4 -10   42.50    1.20
  -4  -4  10   38.50    2.00
   4  -4 -10   43.40    1.20
  -4  -4  10   40.70    2.00
  -4  -4  10   39.00    1.90
  -4  -4  10   41.10    2.10
  -4  -4  10   41.00    2.10
   4   4 -10   42.00    2.00
   4   4 -10   39.70    1.90
  -4   4  10   44.40    1.90
   4   4 -10   38.80    2.00
  -4   4  10   41.70    1.40
  -4   4  10   40.90    1.20
   4   4 -10   40.90    1.70
   4   4 -10   43.30    1.80
  -4   4  10   43.90    2.10
  -3  -4  10   26.10    1.50
  -3  -4  10   28.70    1.60
  -3  -4  10   26.90    1.60
  -3  -4  10   25.50    1.50
  -3  -4  10   28.80    1.70
   3   4 -10   26.70    1.50
  -3   4  10   28.40    1.40
   3   4 -10   27.90    1.60
   3   4 -10   25.50    1.60
  -3   4  10   26.20    0.90
   3   4 -10   29.50    1.40
  -3   4  10   24.40    1.30
  -3   4  10   24.90    1.60
  -3   4  10   28.10    1.10
  -2  -4  10   97.69    3.50
  -2  -4  10   99.89    3.40
  -2  -4  10  103.29    3.50
  -2  -4  10  101.29    3.40
  -2  -4  10  100.59    3.40
  -2  -4  10   97.99    3.40
   2   4 -10  100.89    3.30
  -2   4  10   99.59    3.00
  -2   4  10  101.29    3.20
   2   4 -10   95.09    3.30
  -2   4  10  100.79    3.40
  -2   4  10   93.49    2.50
   2   4 -10  100.69    3.40
  -2   4  10   95.89    3.00
   2   4 -10   99.89    3.10
  -1  -4  10   54.59    2.30
  -1  -4  10   55.79    2.40
  -1  -4  10   57.29    2.40
   1   4 -10   56.49    2.10
   1   4 -10   57.69    2.50
  -1   4  10   56.39    2.20
  -1   4  10   58.39    2.30
   1   4 -10   55.89    2.20
   1   4 -10   54.69    2.30
   1   4 -10   56.59    2.10
  -1   4  10   53.19    2.20
   1   4 -10   60.69    2.40
  -1   4  10   54.09    1.60
  -1   4  10   54.49    1.90
   0  -4  10   16.40    1.30
   0  -4  10   13.60    1.30
   0  -4  10   15.30    1.30
   0   4 -10   14.60    1.00
   0   4  10   14.00    0.70
   0   4  10   14.40    0.70
   0   4 -10   15.40    1.40
   0   4  10   15.60    1.20
   0   4  10   15.10    1.20
   0   4 -10   15.70    1.30
   0   4  10   16.30    1.20
   0   4 -10   14.40    1.10
   0   4 -10   12.70    1.20
   0   4 -10   14.50    1.10
   1  -4  10    3.80    0.80
   1  -4  10    5.70    0.90
  -1  -4 -10    4.60    0.80
   1  -4  10    4.10    0.80
  -1  -4 -10    4.60    0.50
  -1  -4 -10    4.80    0.40
   1   4  10    6.90    0.90
  -1   4 -10    5.40    0.90
  -1   4 -10    3.90    0.70
  -1   4 -10    3.70    0.60
  -1   4 -10    5.20    0.90
   1   4  10    4.50    0.80
  -1   4 -10    4.10    0.70
   1   4  10    4.90    0.50
   1   4  10    4.80    0.50
  -1   4 -10    5.60    0.80
   2  -4  10    0.40    0.60
  -2  -4 -10    0.20    0.50
   2  -4  10   -0.30    0.50
   2  -4  10    0.40    0.60
  -2  -4 -10    0.40    0.30
   2  -4  10    0.90    0.50
   2   4  10    0.00    0.50
   2   4  10    0.20    0.50
  -2   4 -10    1.10    0.70
  -2   4 -10    1.10    0.60
   2   4  10    0.20    0.40
  -2   4 -10    1.00    0.50
  -2   4 -10    0.00    0.40
  -2   4 -10    1.00    0.60
   2   4  10    0.50    0.40
  -2   4 -10   -0.20    0.60
   3  -4  10   10.30    1.40
   3  -4  10   10.20    1.30
   3  -4  10    9.10    1.20
  -3  -4 -10    9.10    0.80
   3  -4  10    9.30    1.10
  -3  -4 -10    9.00    1.10
   3   4  10   10.40    1.30
  -3   4 -10   10.60    1.00
  -3   4 -10   13.10    1.30
  -3   4 -10    7.80    1.30
  -3   4 -10   11.80    1.40
   3   4  10    8.80    0.90
  -3   4 -10    9.60    1.10
   3   4  10    9.10    1.00
  -3   4 -10    9.20    0.90
   3   4  10   10.10    0.90
   4  -4  10    5.20    0.90
   4  -4  10    4.10    1.00
  -4  -4 -10    6.40    1.00
   4  -4  10    4.10    1.10
  -4  -4 -10    3.90    0.70
   4   4  10    4.30    0.80
  -4   4 -10    4.70    1.20
   4   4  10    5.50    0.90
  -4   4 -10    4.60    0.70
  -4   4 -10    3.70    0.90
  -4   4 -10    3.70    0.90
   4   4  10    3.50    0.70
  -4   4 -10    4.20    1.00
  -4   4 -10    4.50    0.70
   4   4  10    4.20    0.90
   5  -4  10    6.80    1.00
  -5  -4 -10    9.50    1.30
   5   4  10    8.10    1.00
  -5   4 -10    9.70    1.00
  -5   4 -10    8.20    1.20
  -5   4 -10    7.90    1.30
  -8  -5  10    9.00    1.40
   8  -5 -10   10.40    1.00
  -8  -5  10    7.90    1.20
  -8   5  10    9.00    1.00
  -8   5  10    8.80    1.00
   8   5 -10    9.70    0.90
  -8   5  10   10.40    0.80
   8   5 -10   11.20    1.50
  -7  -5  10   12.60    1.50
   7  -5 -10   12.50    0.90
  -7  -5  10   12.20    1.50
   7   5 -10   11.60    1.00
  -7   5  10   11.40    0.90
   7   5 -10   14.20    1.50
  -7   5  10   12.50    1.00
   7   5 -10   10.50    1.40
   7   5 -10   13.60    1.30
  -7   5  10   10.70    1.00
  -6  -5  10    4.80    0.90
   6  -5 -10    3.10    0.50
  -6  -5  10    4.60    0.90
  -6  -5  10    2.40    0.80
  -6  -5  10    3.50    0.90
  -6  -5  10    3.70    1.00
  -6  -5  10    2.00    0.60
  -6   5  10    3.50    0.60
   6   5 -10    4.80    0.90
   6   5 -10    3.50    0.80
  -6   5  10    4.10    0.60
   6   5 -10    3.90    0.90
  -6   5  10    3.40    0.80
  -6   5  10    3.70    0.60
   6   5 -10    2.60    0.60
   6   5 -10    4.40    0.90
  -5  -5  10   21.50    1.50
   5  -5 -10   22.10    0.90
   5  -5 -10   22.20    0.80
  -5  -5  10   22.60    1.70
  -5  -5  10   21.20    1.50
  -5  -5  10   20.30    1.60
  -5  -5  10   20.30    1.60
  -5  -5  10   22.40    1.40
   5   5 -10   21.40    1.30
  -5   5  10   20.30    0.90
  -5   5  10   21.60    1.00
   5   5 -10   22.20    1.60
   5   5 -10   22.60    1.60
  -5   5  10   23.70    1.50
   5   5 -10   20.00    1.50
  -5   5  10   20.50    1.60
   5   5 -10   23.60    1.40
  -5   5  10   19.00    1.10
  -4  -5  10   15.60    1.30
  -4  -5  10   16.40    1.50
  -4  -5  10   16.10    1.30
  -4  -5  10   16.50    1.50
  -4  -5  10   14.70    1.30
  -4  -5  10   14.90    1.40
  -4   5  10   17.50    1.20
   4   5 -10   16.70    1.20
  -4   5  10   15.10    0.70
  -4   5  10   15.60    1.00
   4   5 -10   17.80    1.50
   4   5 -10   18.20    1.20
  -4   5  10   16.20    0.80
   4   5 -10   15.60    1.30
  -4   5  10   18.60    1.40
   4   5 -10   15.00    1.40
  -3  -5  10   31.30    1.70
  -3  -5  10   30.60    1.80
  -3  -5  10   28.90    1.70
  -3  -5  10   27.90    1.70
  -3  -5  10   31.10    1.80
  -3   5  10   32.70    1.50
   3   5 -10   31.40    1.70
  -3   5  10   29.90    1.00
  -3   5  10   30.30    1.30
  -3   5  10   34.70    1.50
   3   5 -10   31.10    1.60
   3   5 -10   30.90    1.80
   3   5 -10   31.70    1.80
   3   5 -10   29.50    1.50
  -3   5  10   32.80    1.80
  -2  -5  10    9.30    1.10
  -2  -5  10    7.50    1.10
  -2  -5  10    7.50    1.00
   2   5 -10    7.30    0.90
   2   5 -10   12.00    1.30
  -2   5  10    9.40    0.80
  -2   5  10    8.20    0.80
   2   5 -10   10.00    1.20
   2   5 -10   10.50    1.10
  -2   5  10    9.20    1.00
  -2   5  10    8.10    0.90
  -1  -5  10   41.50    2.10
  -1  -5  10   45.00    2.20
  -1  -5  10   44.20    2.10
   1   5 -10   43.70    1.90
  -1   5  10   43.00    1.90
  -1   5  10   39.50    1.90
   1   5 -10   45.60    2.10
   1   5 -10   40.40    2.10
  -1   5  10   40.60    1.20
  -1   5  10   42.80    1.90
   1   5 -10   43.80    2.00
   1   5 -10   42.80    2.10
  -1   5  10   42.00    1.60
   0  -5  10    8.00    1.10
   0  -5  10    8.10    1.10
   0  -5  10    5.70    1.00
   0   5 -10    7.00    1.00
   0   5  10    6.50    0.50
   0   5 -10    5.60    0.90
   0   5  10    7.30    0.90
   0   5 -10    8.60    1.00
   0   5 -10    8.00    1.00
   0   5  10    8.20    0.60
   0   5  10    8.00    0.90
   0   5  10    8.50    1.00
   0   5 -10    8.40    0.90
   0   5 -10    8.70    1.10
   1  -5  10    4.60    1.00
   1  -5  10    4.50    0.90
   1  -5  10    5.90    1.00
  -1   5 -10    4.90    0.80
  -1   5 -10    3.90    0.70
  -1   5 -10    3.20    0.80
  -1   5 -10    4.20    0.80
   1   5  10    6.00    0.80
   1   5  10    4.30    0.80
  -1   5 -10    4.40    0.90
  -1   5 -10    4.80    1.00
   1   5  10    4.10    0.50
   1   5  10    4.50    0.90
  -2  -5 -10    2.70    0.70
   2  -5  10    2.40    0.70
  -2  -5 -10    2.90    0.40
   2  -5  10    2.50    0.80
   2  -5  10    1.00    0.70
   2  -5  10    2.50    0.90
  -2   5 -10    3.60    0.70
   2   5  10    3.00    0.50
  -2   5 -10    2.90    0.80
   2   5  10    1.20    0.60
  -2   5 -10    2.20    0.80
   2   5  10    2.60    0.80
  -2   5 -10    3.30    0.70
  -2   5 -10    3.80    0.90
   2   5  10    2.80    0.60
   2   5  10    2.90    0.40
  -2   5 -10    4.60    0.90
   3  -5  10   13.60    1.50
  -3  -5 -10   12.90    0.90
  -3  -5 -10   13.60    1.20
   3  -5  10   14.70    1.60
   3  -5  10   11.90    1.20
   3  -5  10   12.80    1.60
   3   5  10   13.70    1.00
  -3   5 -10   12.60    1.10
  -3   5 -10   11.30    1.10
   3   5  10   14.40    1.40
   3   5  10   13.80    1.50
   3   5  10   12.10    1.00
  -3   5 -10   14.90    1.40
  -3   5 -10   14.40    1.40
   3   5  10   13.10    1.20
  -3   5 -10   13.80    1.50
  -3   5 -10   15.40    1.70
  -4  -5 -10    3.80    0.80
   4  -5  10    4.80    1.10
   4  -5  10    4.40    0.90
  -4   5 -10    4.40    0.80
  -4   5 -10    3.60    0.70
   4   5  10    4.10    0.80
  -4   5 -10    4.60    1.00
   4   5  10    3.60    0.70
  -4   5 -10    3.60    0.90
  -4   5 -10    3.40    0.80
   5  -5  10   15.40    1.40
  -5  -5 -10   15.10    1.50
  -5   5 -10   12.60    1.20
  -5   5 -10   10.60    1.40
  -7  -6  10    4.70    1.00
   7  -6 -10    4.80    0.60
  -7  -6  10    6.60    1.20
  -7   6  10    4.90    0.50
  -7   6  10    6.00    0.70
   7   6 -10    4.50    1.00
  -7   6  10    5.10    0.50
   7   6 -10    4.70    1.20
  -7   6  10    5.80    0.80
   7   6 -10    5.80    0.90
  -6  -6  10   -0.20    0.50
  -6  -6  10    0.00    0.50
  -6  -6  10    0.70    1.00
   6  -6 -10    1.10    0.40
  -6  -6  10    0.70    0.70
  -6  -6  10    0.70    0.80
  -6  -6  10    1.10    0.70
   6   6 -10   -0.30    0.60
  -6   6  10    0.70    0.30
  -6   6  10    0.80    0.40
   6   6 -10    0.50    0.70
  -6   6  10    0.60    0.30
   6   6 -10    0.60    0.60
   6   6 -10    1.10    0.70
  -6   6  10   -0.20    0.50
   6   6 -10    0.50    0.50
  -6   6  10    0.40    0.30
  -5  -6  10    4.70    0.90
  -5  -6  10    5.80    0.90
  -5  -6  10    6.70    1.00
  -5  -6  10    7.00    1.10
  -5  -6  10    7.50    1.20
  -5  -6  10    6.20    1.10
   5   6 -10    6.70    0.90
   5   6 -10    4.90    0.90
  -5   6  10    6.50    0.60
   5   6 -10    5.40    1.00
   5   6 -10    4.40    0.90
  -5   6  10    5.90    0.70
  -5   6  10    7.20    1.00
  -5   6  10    6.70    0.70
  -5   6  10    6.10    1.00
   5   6 -10    5.90    1.00
  -4  -6  10    0.90    0.60
  -4  -6  10   -0.20    0.50
  -4  -6  10    0.60    0.60
  -4  -6  10   -0.50    0.60
  -4  -6  10    0.20    0.60
  -4  -6  10    0.50    0.60
   4   6 -10    0.10    0.60
   4   6 -10    0.30    0.50
  -4   6  10    0.30    0.30
  -4   6  10    0.20    0.50
  -4   6  10   -0.20    0.20
   4   6 -10   -0.40    0.50
   4   6 -10   -0.50    0.50
  -4   6  10   -0.10    0.30
  -4   6  10   -0.30    0.40
   4   6 -10   -0.50    0.60
  -3  -6  10    0.90    0.60
  -3  -6  10    0.30    0.60
  -3  -6  10    0.90    0.60
  -3  -6  10    0.40    0.50
  -3  -6  10   -0.20    0.50
  -3   6  10    0.30    0.40
  -3   6  10    0.20    0.50
  -3   6  10    0.40    0.20
   3   6 -10   -0.10    0.50
   3   6 -10    0.40    0.50
   3   6 -10    0.50    0.50
   3   6 -10   -0.20    0.50
  -3   6  10    0.30    0.40
  -3   6  10    0.10    0.40
   3   6 -10    0.00    0.50
  -2  -6  10   15.80    1.30
  -2  -6  10   18.60    1.50
  -2  -6  10   14.40    1.40
   2   6 -10   15.50    1.30
   2   6 -10   16.90    1.40
  -2   6  10   15.50    1.10
   2   6 -10   16.80    1.30
   2   6 -10   15.50    1.40
  -2   6  10   14.80    1.20
   2   6 -10   16.90    1.30
  -2   6  10   15.40    1.10
  -2   6  10   14.90    1.00
  -1  -6  10   23.00    1.70
  -1  -6  10   23.80    1.60
  -1  -6  10   23.90    1.80
  -1   6  10   23.90    1.40
   1   6 -10   22.20    1.50
  -1   6  10   23.20    1.40
   1   6 -10   27.70    1.60
   1   6 -10   24.20    1.60
  -1   6  10   21.60    1.10
  -1   6  10   23.70    1.50
   1   6 -10   22.60    1.70
   1   6 -10   22.70    1.50
   0  -6  10   14.70    1.40
   0  -6  10   14.30    1.40
   0  -6  10   15.90    1.50
   0   6 -10   18.20    1.40
   0   6 -10   14.40    1.40
   0   6  10   13.50    1.20
   0   6 -10   16.70    1.30
   0   6  10   14.80    0.80
   0   6  10   15.20    0.60
   0   6  10   17.00    1.20
   0   6 -10   13.30    1.10
   0   6  10   14.90    1.20
   0   6 -10   16.10    1.50
   0   6 -10   17.50    1.50
   1  -6  10    4.50    1.00
   1  -6  10    5.10    0.90
   1  -6  10    5.80    1.10
  -1   6 -10    3.60    0.90
  -1   6 -10    3.80    1.00
   1   6  10    5.80    1.00
  -1   6 -10    4.30    0.80
   1   6  10    4.90    0.80
  -1   6 -10    3.30    0.80
   1   6  10    4.70    0.50
   1   6  10    4.70    0.80
  -1   6 -10    3.80    0.90
  -1   6 -10    5.30    0.80
   2  -6  10   13.40    1.40
   2  -6  10    8.90    1.10
   2  -6  10   10.00    1.40
   2  -6  10   11.90    1.60
   2   6  10   11.30    1.00
  -2   6 -10   12.10    1.30
  -2   6 -10   14.70    1.70
   2   6  10   11.60    0.60
   2   6  10    9.80    1.30
   2   6  10    8.10    1.10
  -2   6 -10    8.80    1.20
  -2   6 -10   10.90    1.20
   2   6  10   11.30    0.60
  -2   6 -10   12.10    1.10
  -2   6 -10   11.40    1.30
   2   6  10   12.60    0.80
   3  -6  10   10.80    1.50
   3  -6  10    9.60    1.20
   3  -6  10    6.50    1.10
  -3  -6 -10    9.60    0.70
  -3  -6 -10    9.30    1.00
   3   6  10    7.50    1.20
   3   6  10   10.40    1.30
  -3   6 -10   10.40    1.50
  -3   6 -10   10.20    1.40
   3   6  10    9.20    1.00
   3   6  10    8.40    0.90
  -3   6 -10    7.10    0.90
  -3   6 -10    7.30    1.10
  -3   6 -10    8.40    1.10
  -3   6 -10    8.10    1.20
   3   6  10    9.70    0.80
   4  -6  10    4.30    1.10
  -4  -6 -10    2.80    0.70
   4  -6  10    3.20    0.80
  -4   6 -10    2.80    0.80
  -4   6 -10    4.90    1.10
   4   6  10    4.00    0.70
  -4   6 -10    3.00    0.90
  -7  -7  10   13.00    1.70
   7  -7 -10   14.90    0.90
  -7  -7  10   15.00    1.40
   7   7 -10   16.10    1.40
  -7   7  10   15.10    1.00
  -7   7  10   15.00    1.10
   7   7 -10   17.00    1.70
  -6  -7  10    6.30    1.10
  -6  -7  10    5.90    0.90
  -6  -7  10    7.30    1.10
   6   7 -10    6.60    1.20
   6   7 -10    5.30    1.10
   6   7 -10    4.60    0.80
  -6   7  10    6.70    0.70
  -5  -7  10    6.20    1.00
  -5  -7  10    4.20    0.80
  -5  -7  10    4.40    1.00
  -5  -7  10    4.20    1.00
  -5  -7  10    6.50    1.20
  -5   7  10    5.20    0.60
  -5   7  10    5.10    0.50
   5   7 -10    5.50    1.00
  -5   7  10    3.90    0.80
   5   7 -10    5.90    1.00
  -5   7  10    5.50    1.00
   5   7 -10    6.20    1.10
   5   7 -10    5.20    1.00
  -5   7  10    4.50    0.50
   5   7 -10    5.30    0.90
  -4  -7  10    3.30    0.90
  -4  -7  10    6.00    0.90
  -4  -7  10    5.90    1.00
  -4  -7  10    3.70    0.90
  -4  -7  10    4.70    1.00
   4   7 -10    6.00    1.00
   4   7 -10    4.00    0.90
  -4   7  10    4.30    0.80
  -4   7  10    4.60    0.60
   4   7 -10    4.50    0.90
   4   7 -10    4.10    0.90
  -4   7  10    7.20    1.00
  -4   7  10    4.50    0.60
  -4   7  10    5.00    0.50
   4   7 -10    6.20    1.10
  -3  -7  10   13.10    1.50
  -3  -7  10   12.40    1.40
  -3  -7  10    9.30    1.10
  -3  -7  10   12.10    1.50
   3   7 -10   11.60    1.30
  -3   7  10   11.40    1.10
   3   7 -10   10.90    1.20
  -3   7  10   10.80    1.10
  -3   7  10   10.20    0.50
   3   7 -10   10.90    1.30
  -3   7  10   10.90    1.00
   3   7 -10   12.30    1.30
   3   7 -10   11.80    1.40
  -3   7  10   11.10    0.90
  -2  -7  10    0.40    0.70
  -2  -7  10    0.20    0.50
  -2  -7  10    1.20    0.70
   2   7 -10    0.20    0.50
   2   7 -10    0.40    0.60
   2   7 -10    0.90    0.70
  -2   7  10    0.10    0.40
  -2   7  10    0.80    0.50
  -2   7  10   -0.30    0.40
   2   7 -10    1.20    0.80
  -2   7  10    1.20    0.50
   2   7 -10    1.10    0.60
  -1  -7  10    4.40    0.90
  -1  -7  10    3.20    0.80
  -1  -7  10    3.30    1.00
   1   7 -10    4.20    0.90
  -1   7  10    2.50    0.70
  -1   7  10    2.90    0.50
  -1   7  10    3.60    0.70
  -1   7  10    2.70    0.60
   1   7 -10    3.90    0.90
   1   7 -10    2.40    0.70
   1   7 -10    3.30    0.90
   1   7 -10    3.60    0.80
   0  -7  10   15.30    1.40
   0  -7  10   15.80    1.80
   0  -7  10   17.40    1.60
   0   7 -10   16.20    1.40
   0   7 -10   15.80    1.30
   0   7  10   15.70    1.20
   0   7  10   13.70    1.30
   0   7 -10   16.10    1.50
   0   7 -10   16.00    1.70
   0   7 -10   14.00    1.40
   0   7  10   15.40    0.70
   0   7 -10   16.60    1.40
   0   7  10   15.10    1.10
   0   7  10   13.40    0.80
   1  -7  10   17.00    1.70
   1  -7  10   16.60    1.50
   1  -7  10   15.70    1.80
  -1   7 -10   16.70    1.50
  -1   7 -10   17.50    1.60
   1   7  10   14.80    0.60
   1   7  10   14.60    1.00
   1   7  10   16.10    0.80
   1   7  10   14.70    0.60
  -1   7 -10   16.10    1.50
  -1   7 -10   13.40    1.50
  -1   7 -10   15.90    1.50
   1   7  10   14.30    1.30
  -1   7 -10   15.50    1.30
   1   7  10   15.00    1.50
   2  -7  10    5.10    1.00
   2  -7  10    6.10    1.00
   2  -7  10    6.50    1.30
  -2   7 -10    6.00    1.10
   2   7  10    7.20    0.70
  -2   7 -10    8.30    1.20
   2   7  10    5.90    1.10
  -2   7 -10    6.80    1.10
  -2   7 -10    6.00    1.30
  -2   7 -10    6.90    1.00
  -2   7 -10    7.00    1.30
   2   7  10    4.70    0.90
   2   7  10    8.00    0.90
   3  -7  10    1.20    0.60
   3  -7  10    0.40    0.90
  -3  -7 -10    1.20    0.30
   3   7  10    1.50    0.50
  -3   7 -10    0.90    0.80
  -3   7 -10    2.00    0.80
   3   7  10    1.80    0.40
  -3   7 -10    0.80    0.70
   3   7  10    2.40    0.60
   3   7  10    1.40    0.40
  -6  -8  10    1.80    0.60
  -6  -8  10    3.30    0.90
  -6  -8  10    2.60    0.80
  -6   8  10    2.70    0.50
   6   8 -10    1.50    0.90
   6   8 -10    1.80    0.90
  -6   8  10    1.30    0.80
   6   8 -10    1.30    0.60
  -5  -8  10    1.90    0.70
  -5  -8  10    2.10    0.90
  -5  -8  10   -0.20    0.70
   5   8 -10    1.30    0.70
  -5   8  10    1.40    0.40
   5   8 -10    1.60    0.80
  -5   8  10    1.30    0.40
   5   8 -10    0.90    0.80
  -5   8  10    2.80    0.70
  -4  -8  10    4.00    1.00
  -4  -8  10    4.10    1.10
  -4  -8  10    2.60    0.90
  -4  -8  10    3.40    0.80
  -4   8  10    3.80    0.60
  -4   8  10    3.50    0.40
   4   8 -10    4.30    0.90
  -4   8  10    3.80    0.40
   4   8 -10    4.10    0.90
   4   8 -10    5.20    1.10
   4   8 -10    3.30    1.10
  -4   8  10    2.60    0.70
  -4   8  10    4.40    0.80
  -3  -8  10    0.50    0.50
  -3  -8  10    1.00    0.80
  -3  -8  10   -0.20    0.60
  -3  -8  10    0.80    0.70
  -3   8  10    0.60    0.50
   3   8 -10   -0.40    0.60
   3   8 -10    0.40    0.70
   3   8 -10    0.10    0.60
  -3   8  10    0.40    0.40
   3   8 -10    1.10    0.70
  -3   8  10   -0.40    0.40
  -3   8  10    0.20    0.30
  -3   8  10    0.40    0.20
   3   8 -10    0.40    0.70
  -2  -8  10    3.80    0.90
  -2  -8  10    4.80    1.00
  -2  -8  10    5.30    0.90
   2   8 -10    3.90    0.90
  -2   8  10    3.90    0.70
   2   8 -10    5.10    1.00
  -2   8  10    4.90    0.80
  -2   8  10    3.70    0.70
   2   8 -10    4.30    1.00
   2   8 -10    5.30    1.00
  -2   8  10    4.30    0.70
   2   8 -10    2.80    0.90
  -1  -8  10    4.50    1.10
  -1  -8  10    4.30    0.90
  -1  -8  10    4.50    1.10
  -1  -8  10    6.60    1.10
  -1   8  10    5.10    0.70
  -1   8  10    4.70    0.40
  -1   8  10    4.50    0.70
   1   8 -10    4.80    1.00
   1   8 -10    4.40    1.00
   1   8 -10    5.70    1.10
   1   8 -10    6.70    1.30
   1   8 -10    3.70    0.90
  -1   8  10    3.60    0.70
  -1   8  10    4.10    0.80
   0  -8  10    4.40    1.20
   0  -8  10    4.00    0.90
   0  -8  10    3.10    0.90
   0   8 -10    3.50    0.80
   0   8  10    4.90    0.60
   0   8  10    3.50    0.70
   0   8  10    4.30    0.60
   0   8 -10    6.10    1.00
   0   8 -10    4.00    0.90
   0   8 -10    4.60    1.10
   0   8  10    4.30    0.40
   0   8  10    3.10    0.80
   0   8 -10    5.10    1.00
   0   8 -10    3.40    0.90
   1  -8  10    1.20    0.70
   1  -8  10    0.60    0.70
  -1   8 -10    2.80    0.90
   1   8  10    2.90    0.90
   1   8  10    1.70    0.30
  -1   8 -10    2.60    1.00
  -1   8 -10    2.10    0.90
   1   8  10    1.30    0.40
   1   8  10    1.80    0.30
   1   8  10    1.40    0.60
  -1   8 -10    1.10    0.70
   1   8  10    1.20    0.40
   2  -8  10    3.90    1.00
   2  -8  10    4.50    1.20
   2  -8  10    3.90    0.80
   2   8  10    4.10    0.60
   2   8  10    4.70    0.60
  -2   8 -10    5.60    1.30
  -2   8 -10    4.30    1.00
  -2   8 -10    4.40    1.30
   2   8  10    2.60    0.70
   3  -8  10   11.30    1.60
   3  -8  10    9.90    1.20
  -3   8 -10    8.90    1.20
  -3   8 -10   11.80    1.70
   3   8  10   11.00    1.00
  -4  -9  10    0.10    0.80
  -4  -9  10    0.80    0.50
   4   9 -10    0.90    0.90
  -4   9  10    1.10    0.50
  -4   9  10    0.70    0.60
  -4   9  10    1.20    0.40
   4   9 -10    2.20    0.90
  -3  -9  10    3.00    1.10
  -3  -9  10    3.00    0.70
  -3   9  10    2.30    0.40
  -3   9  10    2.50    0.70
  -3   9  10    1.70    0.60
   3   9 -10    2.90    1.00
  -3   9  10    2.10    0.40
   3   9 -10    1.90    0.90
  -3   9  10    1.90    0.60
  -2  -9  10    8.70    1.10
  -2  -9  10   11.70    1.40
   2   9 -10   12.10    1.50
  -2   9  10   11.30    0.90
  -2   9  10   11.60    1.10
   2   9 -10    9.50    1.40
  -2   9  10   11.30    1.00
  -2   9  10   10.10    1.20
  -2   9  10   10.30    0.60
  -1  -9  10    1.90    0.80
  -1  -9  10    4.00    0.80
  -1  -9  10    3.40    1.10
  -1   9  10    3.90    0.70
  -1   9  10    2.10    0.50
  -1   9  10    3.20    0.40
  -1   9  10    3.70    0.90
  -1   9  10    3.60    0.60
   1   9 -10    3.90    1.10
   1   9 -10    4.90    1.10
   0  -9  10    1.40    0.80
   0  -9  10    0.90    0.90
   0  -9  10    1.60    0.80
   0   9  10    0.30    0.30
   0   9  10    0.70    0.70
   0   9 -10    0.70    0.90
   0   9  10    1.00    0.60
   0   9 -10    0.80    0.80
   0   9  10    0.90    0.40
   0   9  10    1.40    0.30
   0   9 -10    0.80    0.70
   1  -9  10    5.60    1.30
   1  -9  10    6.60    1.10
   1  -9  10    5.90    1.00
   1   9  10    7.60    0.70
  -1   9 -10    6.30    1.10
   1   9  10    5.90    0.50
   1   9  10    7.10    1.00
  -1   9 -10    6.50    1.40
  -1   9 -10    6.70    1.20
   1   9  10    5.90    0.60
   9   0 -11    2.30    0.80
   9   0 -11   -0.50    0.40
  -9   0  11   -0.40    0.60
   8   0 -11   25.90    1.60
   8   0 -11   26.60    1.20
  -8   0  11   26.00    1.80
  -8   0  11   23.00    1.70
  -8   0  11   26.50    1.70
  -7   0  11   38.00    2.00
  -7   0  11   36.90    2.00
  -7   0  11   34.80    1.90
   7   0 -11   36.20    2.00
   7   0 -11   34.30    1.90
  -7   0  11   38.20    1.90
   7   0 -11   36.30    1.30
  -7   0  11   39.40    2.30
   7   0 -11   35.50    1.80
  -6   0  11   13.80    1.40
  -6   0  11   13.70    1.20
   6   0 -11   14.40    1.30
   6   0 -11   17.10    1.20
   6   0 -11   14.80    0.70
  -6   0  11   13.60    1.30
   6   0 -11   15.20    1.00
  -6   0  11   13.80    1.20
  -6   0  11   14.10    1.10
   5   0 -11    0.10    0.40
   5   0 -11    0.00    0.20
  -5   0  11    0.00    0.50
   5   0 -11   -0.30    0.50
  -5   0  11    0.60    0.50
  -5   0  11    0.30    0.50
  -5   0  11   -0.40    0.40
  -4   0  11   13.40    1.00
  -4   0  11   13.60    1.30
   4   0 -11   12.10    0.90
  -4   0  11   10.60    1.00
  -4   0  11   11.50    1.10
   4   0 -11   12.90    0.90
  -4   0  11   10.70    0.60
   4   0 -11   11.30    1.00
  -3   0  11   28.10    1.70
  -3   0  11   28.00    1.30
   3   0 -11   27.70    1.30
   3   0 -11   29.00    1.30
   3   0 -11   28.70    1.40
  -3   0  11   26.00    1.20
  -3   0  11   27.70    1.30
  -3   0  11   27.40    1.50
  -2   0  11   45.80    1.80
  -2   0  11   47.20    1.80
  -2   0  11   45.50    2.20
   2   0 -11   45.10    1.80
   2   0 -11   46.40    1.70
   2   0 -11   44.60    1.70
  -2   0  11   44.80    1.80
   1   0 -11   65.29    2.20
   1   0 -11   62.69    2.20
  -1   0  11   67.59    2.40
  -1   0  11   61.89    2.20
   1   0 -11   64.89    2.20
  -1   0  11   63.69    2.60
  -1   0  11   61.89    2.20
   1   0 -11   65.79    2.70
   0   0 -11  270.77    7.80
   0   0  11  273.97    7.20
   0   0 -11  269.37    7.00
   0   0 -11  279.97    7.10
   0   0  11  274.37    7.50
   0   0  11  275.37    7.10
   0   0  11  276.57    7.70
   0   0 -11  270.07    7.20
   0   0  11  274.37    7.70
   1   0  11   61.09    2.30
  -1   0 -11   59.89    2.10
   1   0  11   62.79    2.60
  -1   0 -11   57.59    2.20
  -1   0 -11   57.79    1.90
  -1   0 -11   58.09    1.60
  -1   0 -11   57.49    1.60
   1   0  11   55.69    2.60
  -1   0 -11   58.29    2.60
   2   0  11   10.00    1.00
  -2   0 -11    9.80    0.60
  -2   0 -11   10.50    0.70
   2   0  11    9.80    1.20
  -2   0 -11   11.90    1.30
   2   0  11   11.80    1.30
  -2   0 -11   10.10    0.90
  -2   0 -11   10.20    0.60
   3   0  11    0.40    0.60
   3   0  11    0.10    0.60
  -3   0 -11    0.20    0.30
  -3   0 -11   -0.20    0.30
  -3   0 -11    0.40    0.70
  -3   0 -11    0.50    0.20
   3   0  11    0.20    0.50
  -3   0 -11    0.00    0.40
  -4   0 -11    1.90    0.40
   4   0  11    2.40    0.80
   4   0  11    1.40    0.70
   4   0  11    2.60    0.80
  -4   0 -11    1.60    0.50
  -4   0 -11    2.70    0.60
  -4   0 -11    1.40    0.80
  -5   0 -11   14.40    1.00
  -5   0 -11   15.50    1.10
   9  -1 -11    1.70    0.70
  -9  -1  11    2.60    0.90
   9  -1 -11    1.80    0.40
   9   1 -11    2.10    0.60
  -9   1  11    2.90    0.80
  -9   1  11    4.50    0.90
   9   1 -11    2.70    0.80
  -8  -1  11    4.20    1.50
   8  -1 -11    3.50    0.40
  -8  -1  11    2.40    0.80
   8  -1 -11    1.90    0.60
  -8  -1  11    3.70    0.90
   8   1 -11    3.50    0.60
   8   1 -11    3.40    0.80
  -8   1  11    3.90    0.90
  -8   1  11    2.60    0.70
  -8   1  11    3.80    0.80
  -7  -1  11   23.70    1.70
  -7  -1  11   24.00    1.60
  -7  -1  11   22.10    1.50
   7  -1 -11   22.40    1.50
  -7  -1  11   20.30    1.60
  -7  -1  11   22.80    1.80
   7  -1 -11   22.80    1.60
  -7   1  11   21.90    1.50
   7   1 -11   21.50    1.60
  -7   1  11   22.00    1.50
  -7   1  11   22.80    1.50
  -7   1  11   23.30    1.80
   7   1 -11   21.80    1.50
  -7   1  11   20.70    1.40
   7   1 -11   23.20    1.60
   7   1 -11   20.50    1.10
  -6  -1  11   11.00    1.00
  -6  -1  11   12.80    1.30
   6  -1 -11    9.80    0.90
   6  -1 -11   11.50    1.20
  -6  -1  11   10.80    1.10
  -6  -1  11    7.10    1.10
  -6  -1  11    9.30    1.10
   6  -1 -11   10.10    1.00
  -6   1  11    9.30    0.90
  -6   1  11   10.70    1.10
  -6   1  11    9.30    1.30
   6   1 -11    9.90    0.70
  -6   1  11    8.80    1.10
   6   1 -11    9.40    0.90
  -6   1  11    8.70    1.00
   6   1 -11   10.60    1.20
   6   1 -11   10.80    1.20
  -5  -1  11   16.30    1.30
  -5  -1  11   14.10    1.10
  -5  -1  11   14.10    1.30
   5  -1 -11   14.50    0.90
   5  -1 -11   14.90    1.00
  -5  -1  11   15.30    1.40
   5  -1 -11   14.20    1.20
  -5  -1  11   15.40    1.20
  -5   1  11   16.40    1.40
  -5   1  11   13.50    1.20
   5   1 -11   15.50    1.20
   5   1 -11   13.40    1.10
   5   1 -11   14.60    0.80
   5   1 -11   14.10    1.10
  -5   1  11   14.80    1.00
  -5   1  11   14.40    1.10
  -4  -1  11   56.49    2.30
  -4  -1  11   53.39    2.10
   4  -1 -11   54.79    2.20
  -4  -1  11   49.99    2.10
   4  -1 -11   52.79    1.80
  -4  -1  11   50.29    1.70
   4  -1 -11   54.69    1.90
  -4  -1  11   54.69    2.50
   4   1 -11   54.49    1.60
   4   1 -11   55.19    2.00
  -4   1  11   52.59    1.90
   4   1 -11   51.49    2.20
  -4   1  11   52.59    1.90
   4   1 -11   53.59    2.10
  -4   1  11   52.49    2.50
  -4   1  11   52.69    2.20
  -3  -1  11   41.50    1.70
  -3  -1  11   46.10    1.80
   3  -1 -11   42.70    1.60
  -3  -1  11   44.30    1.80
   3  -1 -11   46.40    1.60
   3  -1 -11   46.00    1.80
  -3  -1  11   43.10    1.90
  -3  -1  11   46.70    2.20
   3   1 -11   45.80    1.80
  -3   1  11   43.20    1.50
  -3   1  11   39.20    1.80
   3   1 -11   46.10    1.90
  -3   1  11   42.80    1.60
   3   1 -11   43.80    1.40
  -3   1  11   41.90    2.10
   3   1 -11   45.60    1.40
  -3   1  11   44.10    1.70
  -2  -1  11  220.68    6.50
  -2  -1  11  220.58    6.00
   2  -1 -11  224.78    5.70
  -2  -1  11  211.38    6.00
  -2  -1  11  229.28    6.10
   2  -1 -11  223.88    5.90
   2  -1 -11  235.28    5.70
   2   1 -11  222.68    5.50
  -2   1  11  223.88    6.50
   2   1 -11  215.78    6.00
  -2   1  11  219.38    5.80
  -2   1  11  219.68    6.00
   2   1 -11  215.08    6.00
   2   1 -11  218.08    5.50
  -2   1  11  215.48    5.90
  -1  -1  11    2.00    0.60
  -1  -1  11    3.10    0.70
  -1  -1  11    2.00    0.60
   1  -1 -11    2.60    0.50
   1  -1 -11    1.80    0.40
   1  -1 -11    1.90    0.40
  -1  -1  11    2.10    0.60
   1   1 -11    2.70    0.50
   1   1 -11    2.30    0.50
   1   1 -11    2.50    0.30
  -1   1  11    2.60    0.50
   1   1 -11    2.60    0.70
   1   1 -11    1.80    0.30
  -1   1  11    1.80    0.50
  -1   1  11    1.80    0.70
  -1   1  11    2.30    0.50
   0  -1  11    3.00    0.70
   0  -1  11    2.60    0.70
   0  -1 -11    2.00    0.70
   0  -1 -11    2.80    0.50
   0  -1  11    3.10    0.70
   0  -1 -11    2.80    0.40
   0  -1 -11    3.10    0.50
   0   1 -11    2.20    0.70
   0   1  11    2.00    0.40
   0   1 -11    3.60    0.40
   0   1 -11    2.80    0.60
   0   1 -11    3.30    0.60
   0   1  11    3.20    0.80
   0   1  11    1.30    0.60
   0   1 -11    2.60    0.40
   0   1  11    2.70    0.60
   0   1 -11    3.00    0.60
  -1  -1 -11  134.29    3.90
   1  -1  11  131.69    4.40
  -1  -1 -11  131.49    3.50
   1  -1  11  129.49    4.30
   1  -1  11  130.19    4.10
   1  -1  11  133.59    4.30
  -1  -1 -11  131.09    3.70
  -1  -1 -11  130.19    4.40
   1   1  11  133.59    4.40
  -1   1 -11  129.09    3.90
  -1   1 -11  133.49    3.70
   1   1  11  128.89    4.30
   1   1  11  130.39    3.90
  -1   1 -11  132.29    4.10
  -1   1 -11  129.19    3.50
  -1   1 -11  129.19    3.60
  -1   1 -11  129.29    4.50
  -2  -1 -11   49.70    2.40
   2  -1  11   43.80    2.30
  -2  -1 -11   48.30    2.00
  -2  -1 -11   49.90    1.90
   2  -1  11   48.90    2.10
   2  -1  11   46.50    2.30
  -2  -1 -11   46.80    1.30
   2  -1  11   45.60    2.30
  -2   1 -11   45.90    1.60
  -2   1 -11   48.60    2.00
  -2   1 -11   46.80    2.40
  -2   1 -11   45.60    1.60
   2   1  11   48.80    2.00
   2   1  11   45.10    2.30
  -2   1 -11   48.60    2.10
  -2   1 -11   45.60    1.70
   2   1  11   48.10    2.30
   3  -1  11    0.20    0.60
  -3  -1 -11    0.40    0.40
   3  -1  11    0.10    0.60
   3  -1  11    0.50    0.60
  -3  -1 -11    1.10    0.70
   3  -1  11   -1.00    0.50
   3   1  11    0.90    0.60
  -3   1 -11    0.80    0.60
  -3   1 -11    0.40    0.70
  -3   1 -11   -0.10    0.40
   3   1  11    0.80    0.50
  -3   1 -11    0.40    0.30
   3   1  11    0.60    0.50
  -3   1 -11    0.70    0.40
  -3   1 -11    0.10    0.50
   3   1  11    0.10    0.50
  -4  -1 -11    0.20    0.70
  -4  -1 -11    0.00    0.50
  -4  -1 -11   -0.30    0.20
   4  -1  11    0.10    0.50
  -4  -1 -11   -0.30    0.30
   4  -1  11    0.70    0.70
   4  -1  11   -0.30    0.60
   4  -1  11   -0.10    0.60
  -4   1 -11    0.30    0.20
   4   1  11    0.20    0.50
   4   1  11    0.10    0.60
  -4   1 -11    1.40    0.80
  -4   1 -11    0.20    0.50
   4   1  11    0.80    0.60
   4   1  11   -0.50    0.50
  -4   1 -11   -0.10    0.40
  -4   1 -11   -0.10    0.50
  -5  -1 -11   16.60    0.90
  -5  -1 -11   16.80    0.90
  -5   1 -11   16.60    1.30
  -5   1 -11   20.30    1.20
  -8  -2  11   10.30    1.30
   8  -2 -11    9.30    1.10
   8   2 -11   12.30    1.00
  -8   2  11   10.30    1.20
  -8   2  11   11.10    1.20
  -8   2  11    9.20    1.10
   8   2 -11   10.70    1.20
  -7  -2  11    2.70    0.70
  -7  -2  11    2.40    0.80
   7  -2 -11    1.20    0.50
   7  -2 -11    3.00    0.70
  -7  -2  11    2.70    0.80
  -7  -2  11    1.50    0.70
  -7  -2  11    1.60    0.70
  -7   2  11    1.90    0.60
   7   2 -11    1.80    0.70
   7   2 -11    1.80    0.70
  -7   2  11    2.10    0.70
  -7   2  11    1.10    0.60
   7   2 -11    0.90    0.50
   7   2 -11    1.50    0.70
  -7   2  11    1.60    0.60
  -6  -2  11    1.90    0.70
   6  -2 -11    1.80    0.70
  -6  -2  11    1.00    0.60
  -6  -2  11    1.50    0.70
   6  -2 -11    0.50    0.40
  -6  -2  11    1.00    0.60
   6  -2 -11    1.70    0.50
  -6  -2  11    2.20    0.70
   6   2 -11    1.70    0.70
   6   2 -11    0.90    0.50
  -6   2  11    1.90    0.50
  -6   2  11    1.20    0.60
  -6   2  11    1.90    0.60
   6   2 -11    1.30    0.50
  -6   2  11    1.20    0.60
  -6   2  11    1.80    0.60
   6   2 -11    1.90    0.70
  -5  -2  11   21.70    1.40
   5  -2 -11   20.80    1.40
  -5  -2  11   22.00    1.60
  -5  -2  11   19.90    1.60
   5  -2 -11   20.50    1.10
  -5  -2  11   21.10    1.00
   5  -2 -11   21.80    1.20
  -5  -2  11   21.80    1.50
  -5  -2  11   22.00    1.50
  -5   2  11   21.80    1.20
  -5   2  11   21.00    1.40
  -5   2  11   23.40    1.20
   5   2 -11   22.20    1.40
   5   2 -11   21.30    1.40
   5   2 -11   23.40    1.10
  -5   2  11   22.80    1.70
   5   2 -11   20.80    1.40
  -4  -2  11   14.80    1.30
  -4  -2  11   15.50    1.00
  -4  -2  11   16.80    1.20
  -4  -2  11   16.20    1.30
   4  -2 -11   17.20    0.90
  -4  -2  11   14.80    1.20
   4  -2 -11   15.70    0.90
   4  -2 -11   14.60    1.20
   4   2 -11   15.50    1.10
   4   2 -11   16.10    1.20
   4   2 -11   15.20    1.20
   4   2 -11   15.80    0.90
  -4   2  11   15.00    0.90
  -4   2  11   15.20    1.10
  -4   2  11   14.40    1.40
  -4   2  11   14.70    0.90
  -3  -2  11   18.60    1.10
   3  -2 -11   20.30    1.20
  -3  -2  11   22.40    1.50
   3  -2 -11   19.70    0.80
   3  -2 -11   19.50    0.90
  -3  -2  11   19.70    1.30
  -3  -2  11   20.00    1.30
  -3  -2  11   16.40    1.20
  -3   2  11   18.10    0.90
   3   2 -11   19.10    1.00
  -3   2  11   17.20    0.90
   3   2 -11   18.40    1.20
   3   2 -11   19.10    1.20
  -3   2  11   17.00    1.10
  -3   2  11   19.70    1.50
  -3   2  11   18.30    1.00
   3   2 -11   17.30    1.20
  -2  -2  11   88.79    3.00
   2  -2 -11   89.89    2.40
  -2  -2  11   90.29    3.00
   2  -2 -11   92.59    2.50
  -2  -2  11   82.59    3.00
   2  -2 -11   92.09    2.90
  -2  -2  11   91.79    3.30
   2   2 -11   86.69    3.00
  -2   2  11   88.29    2.80
  -2   2  11   84.69    2.60
   2   2 -11   90.99    3.00
  -2   2  11   90.99    3.30
   2   2 -11   86.79    2.60
   2   2 -11   88.99    2.60
   2   2 -11   84.39    2.90
   1  -2 -11    9.10    0.60
  -1  -2  11   10.30    1.00
   1  -2 -11    9.50    0.80
  -1  -2  11   11.50    1.10
  -1  -2  11    8.10    1.00
   1  -2 -11   10.20    0.60
  -1  -2  11   10.30    1.00
  -1   2  11   11.10    1.20
   1   2 -11   10.30    0.90
   1   2 -11   10.50    0.70
   1   2 -11    9.30    0.90
   1   2 -11   12.80    1.30
   1   2 -11    8.90    0.90
   1   2 -11   10.00    0.80
  -1   2  11   11.30    1.10
  -1   2  11    9.70    0.80
   0  -2  11   26.10    1.70
   0  -2 -11   25.40    1.00
   0  -2  11   26.70    1.60
   0  -2 -11   27.40    1.10
   0  -2  11   23.70    1.40
   0  -2 -11   24.80    1.10
   0  -2 -11   26.90    1.70
   0   2  11   25.20    1.10
   0   2 -11   26.20    1.10
   0   2 -11   26.30    1.30
   0   2 -11   26.60    1.20
   0   2 -11   24.90    1.40
   0   2 -11   24.50    1.70
   0   2  11   26.90    1.10
   0   2  11   25.80    1.60
   0   2 -11   27.00    1.50
   0   2  11   25.00    1.60
   1  -2  11   33.30    2.00
  -1  -2 -11   32.60    1.90
  -1  -2 -11   35.00    1.40
   1  -2  11   35.90    1.80
   1  -2  11   33.10    1.90
   1  -2  11   33.10    1.80
  -1  -2 -11   33.20    1.30
   1   2  11   33.10    1.80
  -1   2 -11   31.80    1.40
   1   2  11   33.50    1.40
   1   2  11   32.40    1.80
  -1   2 -11   30.50    1.70
   1   2  11   33.40    1.40
  -1   2 -11   32.00    1.30
  -1   2 -11   33.00    1.60
  -1   2 -11   32.80    2.00
  -1   2 -11   31.60    1.40
   2  -2  11   25.60    1.70
   2  -2  11   24.40    1.80
  -2  -2 -11   26.00    1.70
  -2  -2 -11   27.00    1.30
  -2  -2 -11   25.60    1.20
   2  -2  11   25.50    1.60
   2  -2  11   25.60    1.80
  -2   2 -11   25.40    1.30
  -2   2 -11   27.40    1.90
  -2   2 -11   27.30    1.20
   2   2  11   25.90    1.70
  -2   2 -11   22.10    1.50
   2   2  11   27.00    1.40
   2   2  11   27.20    1.40
  -2   2 -11   25.90    1.50
  -2   2 -11   25.10    1.20
   2   2  11   24.30    1.60
   3  -2  11    2.70    0.80
   3  -2  11    2.20    0.70
   3  -2  11    1.50    0.70
   3  -2  11    1.90    0.80
  -3  -2 -11    2.30    0.50
  -3  -2 -11    2.70    0.80
  -3   2 -11    1.60    0.80
  -3   2 -11    2.40    0.70
  -3   2 -11    2.20    0.60
   3   2  11    3.30    0.70
  -3   2 -11    3.40    0.80
  -3   2 -11    4.00    0.50
   3   2  11    3.00    0.80
   3   2  11    2.40    0.60
   3   2  11    3.00    0.80
  -3   2 -11    2.60    0.50
   4  -2  11   10.10    1.40
   4  -2  11   10.90    2.00
  -4  -2 -11    9.00    1.30
   4  -2  11   12.00    1.40
   4  -2  11   15.20    2.50
   4   2  11    6.40    1.00
  -4   2 -11   10.10    1.90
  -4   2 -11    9.60    1.20
  -4   2 -11    9.70    1.10
   4   2  11   10.00    1.10
  -4   2 -11    9.40    0.90
  -4   2 -11   10.70    1.20
  -4   2 -11    9.60    0.70
  -5   2 -11   15.30    0.80
  -5   2 -11   16.70    1.50
  -5   2 -11   15.10    0.80
  -5   2 -11   16.70    1.20
   8  -3 -11    2.40    0.60
  -8  -3  11    2.10    0.90
   8   3 -11    1.50    0.70
   8   3 -11    3.20    0.70
  -8   3  11    3.20    0.70
  -8   3  11    1.20    0.60
  -8   3  11    1.80    0.60
  -7  -3  11    1.20    0.70
   7  -3 -11    0.60    0.40
   7  -3 -11    0.20    0.50
  -7  -3  11    0.50    0.60
  -7  -3  11    0.60    0.60
  -7  -3  11    0.60    0.60
  -7  -3  11    1.10    0.70
   7   3 -11    0.70    0.60
   7   3 -11    1.00    0.50
  -7   3  11    0.60    0.50
  -7   3  11    0.30    0.50
  -7   3  11    0.80    0.60
  -7   3  11    0.60    0.50
   7   3 -11    1.10    0.70
   7   3 -11    0.80    0.60
   6  -3 -11    1.00    0.50
  -6  -3  11    1.10    0.60
  -6  -3  11    0.40    0.60
   6  -3 -11    1.00    0.40
  -6  -3  11    0.80    0.60
  -6  -3  11    0.20    0.60
  -6  -3  11    1.00    0.70
   6   3 -11    0.80    0.60
  -6   3  11    0.70    0.50
   6   3 -11    0.90    0.70
  -6   3  11    1.70    0.60
  -6   3  11    0.90    0.40
  -6   3  11    0.20    0.60
   6   3 -11    1.20    0.60
   6   3 -11    1.00    0.50
  -6   3  11    1.10    0.50
   5  -3 -11   30.80    1.30
  -5  -3  11   30.10    1.70
   5  -3 -11   29.80    1.20
  -5  -3  11   28.40    1.30
  -5  -3  11   29.70    1.80
  -5  -3  11   30.90    1.90
  -5  -3  11   31.20    1.80
  -5  -3  11   28.60    1.90
  -5   3  11   27.30    1.30
   5   3 -11   29.50    1.70
   5   3 -11   27.70    1.60
   5   3 -11   29.30    1.70
   5   3 -11   31.90    1.40
  -5   3  11   30.50    1.90
  -5   3  11   26.90    1.30
  -5   3  11   27.70    1.60
  -4  -3  11  190.08    5.90
  -4  -3  11  184.38    5.60
  -4  -3  11  183.18    5.30
  -4  -3  11  185.78    5.70
  -4  -3  11  189.98    5.60
   4  -3 -11  194.48    4.80
   4  -3 -11  192.78    4.90
   4   3 -11  188.18    5.60
  -4   3  11  196.78    5.50
   4   3 -11  195.18    5.20
  -4   3  11  188.58    5.00
   4   3 -11  196.28    5.60
   4   3 -11  188.88    5.60
  -4   3  11  197.38    5.90
  -4   3  11  185.88    4.90
  -3  -3  11   67.69    2.70
  -3  -3  11   64.69    2.50
  -3  -3  11   64.39    2.80
   3  -3 -11   65.99    1.70
  -3  -3  11   64.09    2.40
  -3  -3  11   65.09    2.60
   3  -3 -11   64.99    1.70
   3   3 -11   66.89    2.20
   3   3 -11   69.09    2.60
  -3   3  11   63.89    2.00
  -3   3  11   66.19    2.70
   3   3 -11   68.19    2.50
  -3   3  11   65.69    2.40
   3   3 -11   66.49    2.60
  -3   3  11   63.39    2.00
  -2  -3  11   71.29    2.70
  -2  -3  11   71.19    2.60
  -2  -3  11   69.89    2.70
  -2  -3  11   72.29    2.90
  -2  -3  11   70.19    2.60
  -2   3  11   71.39    2.70
  -2   3  11   68.29    2.30
   2   3 -11   70.89    2.60
   2   3 -11   67.49    2.30
  -2   3  11   72.49    2.80
   2   3 -11   69.49    2.60
   2   3 -11   68.69    2.50
   2   3 -11   76.19    2.40
  -2   3  11   70.89    2.40
  -2   3  11   66.29    2.10
  -1  -3  11   12.70    1.20
  -1  -3  11   12.00    1.30
  -1  -3  11   13.70    1.20
   1   3 -11   11.10    1.20
  -1   3  11   11.90    1.20
   1   3 -11   13.40    0.90
  -1   3  11   11.70    1.10
   1   3 -11   12.80    1.00
   1   3 -11   13.00    1.10
   1   3 -11   12.70    1.00
  -1   3  11   12.40    0.80
   1   3 -11   12.80    1.10
   0  -3  11   22.70    1.50
   0  -3 -11   21.10    0.90
   0  -3 -11   22.00    0.80
   0  -3  11   21.60    1.60
   0  -3  11   23.00    1.50
   0   3 -11   21.50    1.20
   0   3  11   22.50    0.90
   0   3 -11   23.90    1.50
   0   3  11   21.50    1.00
   0   3 -11   20.50    1.60
   0   3 -11   24.20    1.20
   0   3  11   22.80    1.50
   0   3 -11   21.70    1.30
   0   3 -11   25.00    1.40
   0   3  11   21.60    1.50
   1  -3  11    6.90    0.90
   1  -3  11   12.10    1.30
  -1  -3 -11   10.50    0.70
   1  -3  11   10.00    1.10
  -1  -3 -11    9.00    1.10
   1  -3  11   11.30    1.30
  -1  -3 -11   10.40    0.70
   1   3  11    9.90    0.80
  -1   3 -11   10.80    1.40
  -1   3 -11   10.70    1.20
   1   3  11   10.40    0.80
  -1   3 -11   10.80    1.00
  -1   3 -11   10.90    0.90
   1   3  11   11.70    1.20
  -1   3 -11   12.00    1.10
  -1   3 -11   11.10    0.90
   1   3  11   10.70    1.20
   2  -3  11    5.90    1.00
  -2  -3 -11    5.80    0.70
  -2  -3 -11    5.50    0.90
  -2  -3 -11    5.10    0.60
   2  -3  11    4.40    0.80
   2  -3  11    6.10    1.10
   2  -3  11    4.70    0.90
  -2   3 -11    6.00    0.70
  -2   3 -11    3.70    0.90
  -2   3 -11    6.10    1.10
   2   3  11    6.80    1.10
  -2   3 -11    5.40    0.70
   2   3  11    4.70    0.70
   2   3  11    6.30    0.90
  -2   3 -11    6.10    0.90
  -2   3 -11    6.30    0.90
   2   3  11    6.20    0.70
   3  -3  11    0.80    0.80
  -3  -3 -11    0.40    0.60
   3  -3  11    0.90    0.80
  -3  -3 -11    0.60    0.40
   3  -3  11    0.70    0.60
   3  -3  11    0.40    0.70
  -3   3 -11    1.60    0.60
  -3   3 -11    1.60    0.70
   3   3  11    1.00    0.50
  -3   3 -11    0.10    0.40
   3   3  11    0.90    0.60
  -3   3 -11    0.70    0.80
   3   3  11    0.70    0.60
   3   3  11    1.20    0.60
  -3   3 -11    0.70    0.40
  -3   3 -11    0.30    0.60
  -4  -3 -11   36.40    2.20
   4  -3  11   35.20    2.10
   4  -3  11   37.90    2.30
  -4   3 -11   33.10    1.60
  -4   3 -11   43.70    2.10
  -4   3 -11   38.80    1.70
  -4   3 -11   37.60    2.30
  -4   3 -11   39.20    2.20
   4   3  11   39.70    1.90
   4   3  11   37.30    2.10
  -5  -3 -11   26.70    2.80
  -5   3 -11   21.90    1.70
  -5   3 -11   20.00    1.10
  -5   3 -11   22.70    1.40
  -5   3 -11   21.90    1.90
   8  -4 -11    3.10    0.60
  -8  -4  11    4.40    1.10
   8   4 -11    4.10    1.00
  -8   4  11    4.40    0.80
  -8   4  11    5.30    0.80
  -8   4  11    5.40    0.80
   8   4 -11    6.50    0.90
  -7  -4  11   29.60    2.00
   7  -4 -11   29.30    1.40
  -7  -4  11   26.70    1.90
   7  -4 -11   26.50    1.50
   7   4 -11   28.40    1.30
   7   4 -11   28.90    1.90
  -7   4  11   28.00    1.50
   7   4 -11   29.90    1.60
   7   4 -11   27.50    1.90
  -7   4  11   26.80    1.50
  -7   4  11   28.60    1.50
  -6  -4  11    8.30    1.20
  -6  -4  11    9.60    1.20
  -6  -4  11    5.80    0.90
   6  -4 -11    8.00    0.80
  -6  -4  11    7.30    1.00
   6  -4 -11    6.70    0.70
  -6  -4  11    7.70    0.80
  -6  -4  11    9.40    1.30
  -6   4  11    8.90    1.10
   6   4 -11    6.90    0.70
   6   4 -11    6.70    1.10
  -6   4  11    6.90    0.70
   6   4 -11    8.00    1.10
  -6   4  11    5.30    1.00
  -6   4  11    7.90    0.80
   6   4 -11    7.80    0.90
   6   4 -11    6.30    1.00
  -6   4  11    6.90    0.90
  -5  -4  11    6.70    1.00
  -5  -4  11    7.50    1.10
  -5  -4  11    6.60    1.10
   5  -4 -11    7.00    0.60
   5  -4 -11    6.00    0.50
  -5  -4  11    9.10    1.30
  -5  -4  11    6.70    0.80
  -5  -4  11    6.00    1.00
   5   4 -11    6.40    0.90
   5   4 -11    9.10    0.90
  -5   4  11    5.80    0.90
  -5   4  11    7.60    0.70
   5   4 -11    6.70    0.90
   5   4 -11    6.50    1.00
  -5   4  11    6.10    0.60
  -5   4  11    9.20    1.30
  -4  -4  11    7.00    0.90
  -4  -4  11    4.80    0.90
  -4  -4  11    5.00    0.90
  -4  -4  11    6.60    1.20
  -4  -4  11    5.40    1.00
  -4  -4  11    5.60    0.90
  -4   4  11    6.20    0.60
   4   4 -11    6.40    1.00
   4   4 -11    6.00    0.90
  -4   4  11    3.90    0.80
  -4   4  11    6.60    0.80
   4   4 -11    4.60    0.90
   4   4 -11    5.10    0.70
  -3  -4  11   37.90    2.10
  -3  -4  11   40.10    2.00
  -3  -4  11   40.90    2.00
  -3  -4  11   37.30    1.90
  -3  -4  11   40.20    1.90
   3   4 -11   39.10    2.00
  -3   4  11   38.50    1.80
  -3   4  11   37.50    1.50
   3   4 -11   38.50    1.90
  -3   4  11   40.20    1.70
  -3   4  11   37.10    2.00
  -3   4  11   38.50    1.30
   3   4 -11   40.90    1.70
   3   4 -11   39.80    1.90
  -2  -4  11   14.60    1.20
  -2  -4  11   14.10    1.30
  -2  -4  11   15.30    1.30
  -2  -4  11   13.10    1.20
   2   4 -11   13.30    1.10
  -2   4  11   16.10    1.30
  -2   4  11   13.10    0.70
  -2   4  11   14.00    1.00
   2   4 -11   14.90    1.10
   2   4 -11   16.20    1.30
   2   4 -11   12.90    1.20
  -2   4  11   15.20    1.10
  -2   4  11   14.00    0.90
  -1  -4  11    1.90    0.70
  -1  -4  11    3.10    0.80
  -1  -4  11    1.30    0.60
   1   4 -11    2.60    0.70
  -1   4  11    1.90    0.70
  -1   4  11    2.10    0.60
   1   4 -11    2.10    0.60
  -1   4  11    2.70    0.50
  -1   4  11    1.50    0.50
   1   4 -11    1.50    0.60
   1   4 -11    3.20    0.90
   1   4 -11    2.70    0.60
   1   4 -11    1.70    0.50
   0  -4  11   16.90    1.40
   0  -4  11   18.80    1.50
   0  -4  11   16.50    1.40
   0   4 -11   16.80    1.40
   0   4  11   17.70    1.40
   0   4 -11   16.30    1.10
   0   4  11   16.40    0.80
   0   4 -11   16.50    1.30
   0   4  11   17.40    0.80
   0   4 -11   17.70    1.50
   0   4  11   16.70    1.30
   0   4 -11   19.30    1.30
   0   4 -11   16.80    1.20
   0   4  11   17.40    1.30
  -1  -4 -11   20.10    0.80
   1  -4  11   19.90    1.60
  -1  -4 -11   20.20    1.40
   1  -4  11   17.20    1.50
   1  -4  11   21.50    1.70
  -1  -4 -11   18.60    0.80
   1   4  11   18.60    1.40
  -1   4 -11   18.40    1.70
  -1   4 -11   19.40    1.20
  -1   4 -11   18.60    1.30
  -1   4 -11   18.90    1.50
  -1   4 -11   20.30    1.30
   1   4  11   18.20    0.80
  -1   4 -11   19.50    1.40
   1   4  11   18.90    1.00
   1   4  11   19.70    1.50
  -2  -4 -11   20.30    1.50
  -2  -4 -11   18.50    1.00
   2  -4  11   18.90    1.60
   2  -4  11   18.50    1.50
   2  -4  11   15.90    1.50
  -2  -4 -11   18.70    0.90
   2  -4  11   16.40    1.70
  -2   4 -11   16.60    1.40
  -2   4 -11   17.40    1.20
  -2   4 -11   20.20    1.80
   2   4  11   18.20    1.40
  -2   4 -11   14.30    1.40
   2   4  11   19.50    1.00
  -2   4 -11   18.10    1.20
   2   4  11   19.60    1.10
   2   4  11   19.00    1.50
  -2   4 -11   19.00    1.40
   3  -4  11   47.70    2.40
   3  -4  11   50.09    2.80
  -3  -4 -11   43.10    1.80
  -3  -4 -11   43.50    2.30
   3  -4  11   48.80    2.60
   3  -4  11   49.90    2.60
  -3   4 -11   48.30    2.80
  -3   4 -11   47.20    2.50
  -3   4 -11   47.90    2.30
  -3   4 -11   45.70    2.00
   3   4  11   47.60    2.30
   3   4  11   45.60    1.90
  -3   4 -11   46.30    2.00
   3   4  11   45.30    2.40
  -3   4 -11   45.90    2.30
   3   4  11   47.10    1.90
  -4  -4 -11    4.10    0.90
   4  -4  11    4.10    0.90
  -4   4 -11    4.70    0.80
   4   4  11    3.10    0.80
  -4   4 -11    5.60    1.10
  -4   4 -11    5.30    1.00
   4   4  11    4.90    0.80
  -4   4 -11    3.10    0.60
  -7  -5  11    7.40    1.30
   7  -5 -11    8.60    0.80
  -7  -5  11    7.50    1.10
   7   5 -11    6.80    1.20
  -7   5  11    9.80    0.90
  -7   5  11    7.80    0.80
  -7   5  11    9.00    0.90
   7   5 -11    8.30    0.90
   7   5 -11   10.50    1.40
   7   5 -11    9.20    1.10
  -6  -5  11    3.10    0.70
   6  -5 -11    2.80    0.40
  -6  -5  11    2.90    0.60
  -6  -5  11    3.40    0.90
  -6  -5  11    3.70    0.80
  -6  -5  11    2.40    0.90
   6  -5 -11    2.90    0.40
  -6  -5  11    3.70    0.90
  -6   5  11    2.50    0.50
   6   5 -11    3.60    0.90
   6   5 -11    2.50    0.80
  -6   5  11    2.50    0.70
   6   5 -11    2.40    0.70
   6   5 -11    3.60    0.60
  -6   5  11    3.40    0.60
  -6   5  11    3.10    0.50
  -6   5  11    1.80    0.80
   6   5 -11    3.20    0.80
  -5  -5  11   17.30    1.50
  -5  -5  11   17.20    1.50
  -5  -5  11   16.40    1.50
  -5  -5  11   18.00    1.50
  -5  -5  11   17.50    1.30
  -5  -5  11   16.90    1.60
  -5   5  11   16.20    1.30
   5   5 -11   16.60    1.40
   5   5 -11   16.00    1.20
  -5   5  11   18.10    1.20
   5   5 -11   17.10    1.30
   5   5 -11   17.50    1.40
   5   5 -11   18.80    1.50
  -5   5  11   17.30    0.90
  -5   5  11   16.40    1.50
  -4  -5  11    4.30    0.80
  -4  -5  11    3.40    0.80
  -4  -5  11    2.90    0.80
  -4  -5  11    3.70    0.90
  -4  -5  11    3.00    0.80
  -4  -5  11    1.50    0.70
  -4   5  11    2.70    0.60
  -4   5  11    3.60    0.40
   4   5 -11    3.30    0.80
  -4   5  11    3.40    0.40
   4   5 -11    2.70    0.60
   4   5 -11    1.80    0.70
  -4   5  11    4.10    0.90
  -4   5  11    2.80    0.60
   4   5 -11    2.30    0.70
   4   5 -11    4.10    0.70
  -3  -5  11   53.69    2.50
  -3  -5  11   51.19    2.40
  -3  -5  11   54.39    2.40
  -3  -5  11   53.89    2.40
  -3  -5  11   51.59    2.40
  -3   5  11   50.39    2.10
  -3   5  11   51.29    1.90
   3   5 -11   54.79    2.30
   3   5 -11   51.09    2.40
   3   5 -11   54.19    2.20
  -3   5  11   50.69    2.40
   3   5 -11   51.49    2.40
  -3   5  11   52.49    2.10
  -3   5  11   53.59    1.50
  -2  -5  11   16.20    1.40
  -2  -5  11   20.00    1.50
  -2  -5  11   17.60    1.40
  -2   5  11   17.40    1.30
   2   5 -11   19.20    1.40
   2   5 -11   18.40    1.50
   2   5 -11   15.60    1.20
  -2   5  11   17.10    1.10
  -2   5  11   16.60    0.70
  -2   5  11   16.70    1.20
   2   5 -11   20.10    1.40
  -2   5  11   19.30    1.20
  -1  -5  11   28.20    1.70
  -1  -5  11   24.40    1.70
  -1  -5  11   29.30    1.80
   1   5 -11   27.20    1.80
  -1   5  11   25.50    1.20
   1   5 -11   23.00    1.50
  -1   5  11   23.00    1.40
   1   5 -11   28.10    1.40
   1   5 -11   25.00    1.50
   1   5 -11   25.00    1.60
   1   5 -11   25.50    1.60
  -1   5  11   23.30    1.50
  -1   5  11   25.40    1.50
   0  -5  11   21.20    1.70
   0  -5  11   18.30    1.50
   0  -5  11   19.20    1.60
   0   5 -11   22.80    1.60
   0   5 -11   19.30    1.30
   0   5 -11   19.50    1.60
   0   5  11   21.90    1.50
   0   5  11   20.50    1.40
   0   5 -11   21.00    1.60
   0   5  11   22.00    1.40
   0   5 -11   18.90    1.40
   0   5  11   18.80    0.90
   0   5  11   20.30    0.80
   0   5 -11   20.80    1.40
   1  -5  11   10.10    1.40
   1  -5  11   11.70    1.40
   1  -5  11   11.30    1.40
   1   5  11   10.80    1.10
  -1   5 -11   11.80    1.40
  -1   5 -11   13.50    1.20
   1   5  11   11.30    1.20
  -1   5 -11   11.00    1.00
   1   5  11   11.80    1.30
  -1   5 -11   11.20    1.40
  -1   5 -11   11.50    1.10
   1   5  11   10.00    0.70
  -1   5 -11    8.90    1.10
  -2  -5 -11   13.20    0.70
   2  -5  11   16.60    1.70
  -2  -5 -11   12.80    0.70
   2  -5  11   12.00    1.40
  -2  -5 -11   12.90    1.30
   2  -5  11   15.80    1.60
   2  -5  11   14.10    1.40
   2   5  11   13.70    1.40
  -2   5 -11   13.60    1.20
   2   5  11   13.80    0.90
  -2   5 -11   14.60    1.40
  -2   5 -11   14.10    1.60
  -2   5 -11   16.40    1.60
   2   5  11   14.80    0.80
   2   5  11   13.00    1.20
   2   5  11   13.40    1.40
  -2   5 -11   12.80    1.30
  -2   5 -11   13.20    1.10
  -3  -5 -11   10.60    0.80
   3  -5  11   13.40    1.60
  -3  -5 -11   14.50    1.30
   3  -5  11    8.00    1.00
   3   5  11   11.70    2.10
   3   5  11   11.30    1.00
  -3   5 -11   13.70    1.40
  -3   5 -11   11.60    1.40
   3   5  11   10.90    1.20
  -3   5 -11   10.60    1.10
   3   5  11   10.90    1.40
   3   5  11   11.00    0.90
  -3   5 -11   11.30    1.10
  -3   5 -11   11.20    1.50
   4  -5  11   15.50    1.50
  -4  -5 -11   15.40    1.40
   4   5  11   15.40    1.40
  -4   5 -11   13.80    1.30
   4   5  11   15.20    1.20
  -4   5 -11   14.10    1.60
  -7  -6  11    9.20    1.40
   7  -6 -11    9.80    0.80
  -7  -6  11   12.00    1.30
  -7   6  11    8.80    0.70
  -7   6  11   10.10    0.90
  -7   6  11   10.80    0.90
  -7   6  11    9.80    0.70
   7   6 -11   11.10    1.50
   7   6 -11    8.80    1.00
  -6  -6  11    1.10    0.80
  -6  -6  11    1.30    0.60
  -6  -6  11    1.20    0.60
  -6   6  11    0.50    0.40
   6   6 -11    0.50    0.80
  -6   6  11    1.00    0.40
   6   6 -11    1.30    0.70
   6   6 -11    0.60    0.50
  -6   6  11    1.10    0.30
  -6   6  11    1.20    0.70
   6   6 -11    0.20    0.70
  -5  -6  11    2.30    0.90
  -5  -6  11    1.50    0.80
  -5  -6  11    1.70    0.60
  -5  -6  11    2.40    0.90
  -5  -6  11    2.50    0.70
  -5  -6  11    3.10    0.90
  -5   6  11    1.50    0.60
   5   6 -11    1.50    0.80
   5   6 -11    5.30    1.00
  -5   6  11    1.70    0.70
  -5   6  11    2.90    0.50
  -5   6  11    2.90    0.50
   5   6 -11    2.20    0.70
  -5   6  11    3.00    0.60
   5   6 -11    1.60    0.70
   5   6 -11    3.30    0.80
  -4  -6  11   19.60    1.70
  -4  -6  11   17.40    1.50
  -4  -6  11   18.90    1.60
  -4  -6  11   19.50    1.50
  -4  -6  11   18.60    1.50
  -4   6  11   19.00    1.20
  -4   6  11   18.20    1.50
   4   6 -11   17.90    1.60
   4   6 -11   18.10    1.40
  -4   6  11   18.30    0.80
  -4   6  11   17.90    0.90
   4   6 -11   16.70    1.30
   4   6 -11   17.90    1.50
  -4   6  11   18.50    1.30
   4   6 -11   17.40    1.50
  -3  -6  11    1.40    0.70
  -3  -6  11    3.00    0.90
  -3  -6  11    2.30    0.80
  -3  -6  11    2.40    0.80
  -3  -6  11    1.90    0.70
   3   6 -11    1.90    0.70
   3   6 -11    1.30    0.80
   3   6 -11    1.60    0.70
  -3   6  11    2.00    0.60
   3   6 -11    0.10    0.60
  -3   6  11    2.70    0.70
  -3   6  11    2.70    0.70
  -3   6  11    1.90    0.50
  -3   6  11    2.00    0.30
  -2  -6  11   12.90    1.30
  -2  -6  11    9.40    1.20
  -2  -6  11   12.60    1.40
   2   6 -11   10.10    1.20
  -2   6  11   10.00    1.00
  -2   6  11   11.90    1.10
   2   6 -11   11.90    1.20
  -2   6  11   11.00    0.90
   2   6 -11   10.00    1.10
  -2   6  11   10.20    1.00
   2   6 -11   10.40    1.20
  -1  -6  11   19.00    1.70
  -1  -6  11   17.90    1.60
  -1  -6  11   17.10    1.50
   1   6 -11   16.10    1.40
  -1   6  11   18.00    1.00
   1   6 -11   18.30    1.50
  -1   6  11   19.50    1.40
  -1   6  11   20.00    1.40
   1   6 -11   18.00    1.60
   1   6 -11   18.40    1.40
   1   6 -11   18.70    1.60
  -1   6  11   17.40    1.30
   1   6 -11   18.00    1.30
   0  -6  11   10.30    1.30
   0  -6  11    8.00    1.10
   0  -6  11    9.30    1.30
   0   6  11    8.90    0.70
   0   6 -11    9.40    1.20
   0   6  11   10.90    0.60
   0   6 -11    8.70    1.10
   0   6  11   10.00    1.10
   0   6  11    9.60    1.20
   0   6 -11   10.20    1.00
   0   6 -11    8.10    1.10
   0   6  11    9.20    1.00
   0   6 -11    7.60    1.10
   0   6 -11   11.70    1.30
   1  -6  11   26.60    2.00
   1  -6  11   25.60    2.00
   1  -6  11   27.60    1.90
  -1   6 -11   24.60    1.70
  -1   6 -11   24.80    1.50
   1   6  11   26.10    1.50
   1   6  11   26.80    1.80
  -1   6 -11   27.90    2.00
   1   6  11   26.50    1.70
   1   6  11   27.30    1.10
  -1   6 -11   22.60    1.70
  -1   6 -11   25.10    1.90
  -1   6 -11   28.80    1.80
   2  -6  11   26.70    2.00
   2  -6  11   26.80    1.80
   2  -6  11   32.30    3.20
   2  -6  11   23.90    1.90
  -2   6 -11   28.20    1.60
   2   6  11   23.70    1.90
  -2   6 -11   24.60    1.80
  -2   6 -11   28.70    1.80
   2   6  11   25.70    1.80
   2   6  11   26.90    1.30
   2   6  11   27.20    1.60
  -2   6 -11   25.90    2.00
  -2   6 -11   28.90    2.20
  -2   6 -11   27.00    1.90
  -3  -6 -11    2.70    0.40
   3  -6  11    2.70    0.70
   3  -6  11    4.20    1.10
  -3   6 -11    2.80    1.00
  -3   6 -11    3.70    0.90
   3   6  11    5.00    0.80
   3   6  11    5.00    0.70
  -3   6 -11    3.00    0.80
   3   6  11    4.10    0.50
  -6  -7  11    1.30    0.60
  -6  -7  11    0.50    0.70
  -6  -7  11    0.30    0.60
   6   7 -11    1.30    0.60
   6   7 -11    1.00    0.80
   6   7 -11    0.00    0.70
  -6   7  11    1.10    0.30
  -6   7  11    1.10    0.30
  -6   7  11    1.00    0.40
  -6   7  11    0.60    0.70
  -5  -7  11    1.10    0.70
  -5  -7  11    2.10    0.70
  -5  -7  11    0.20    0.70
  -5   7  11    2.50    0.50
  -5   7  11    1.20    0.60
   5   7 -11    1.30    0.60
   5   7 -11    1.70    0.80
  -5   7  11    0.80    0.40
  -5   7  11    1.30    0.70
  -5   7  11    0.30    0.30
   5   7 -11    0.60    0.80
   5   7 -11    2.40    0.80
  -4  -7  11    7.20    1.10
  -4  -7  11    7.40    1.30
  -4  -7  11    6.20    1.10
  -4  -7  11    4.40    1.10
  -4  -7  11    8.20    1.20
  -4   7  11    4.10    0.80
  -4   7  11    5.40    0.90
   4   7 -11    8.20    1.20
  -4   7  11    6.70    0.50
  -4   7  11    5.80    0.70
  -4   7  11    7.10    0.70
   4   7 -11    7.90    1.20
   4   7 -11    7.80    1.10
   4   7 -11    5.60    0.90
   4   7 -11    5.60    1.20
  -3  -7  11    7.30    1.10
  -3  -7  11    6.10    1.10
  -3  -7  11    6.50    1.20
  -3  -7  11    5.80    1.10
   3   7 -11    4.90    0.90
  -3   7  11    5.00    0.80
   3   7 -11    6.00    1.00
  -3   7  11    4.50    0.90
   3   7 -11    5.20    1.00
   3   7 -11    6.50    1.00
  -3   7  11    5.80    0.80
   3   7 -11    6.90    1.20
  -3   7  11    5.50    0.70
  -2  -7  11   13.60    1.50
  -2  -7  11   12.30    1.30
  -2  -7  11   16.40    1.60
   2   7 -11   11.00    1.40
  -2   7  11   13.70    1.10
   2   7 -11   15.10    1.60
  -2   7  11   13.20    1.00
   2   7 -11   13.90    1.30
  -2   7  11   14.30    1.20
   2   7 -11   16.00    1.50
  -2   7  11   13.10    1.20
  -1  -7  11    8.90    1.40
  -1  -7  11    7.40    1.00
  -1  -7  11    8.40    1.20
  -1   7  11    8.10    0.80
  -1   7  11    7.70    1.00
   1   7 -11   10.00    1.30
  -1   7  11    8.10    1.00
   1   7 -11    9.60    1.30
   1   7 -11    5.70    1.00
   1   7 -11    9.00    1.30
   1   7 -11    7.60    1.10
  -1   7  11    7.90    1.00
   0  -7  11   11.50    1.40
   0  -7  11   13.80    1.40
   0  -7  11   15.10    1.80
   0   7  11   13.10    0.80
   0   7 -11   11.30    1.40
   0   7  11   14.00    1.20
   0   7  11   12.60    1.10
   0   7  11   15.80    1.40
   0   7 -11   12.70    1.20
   0   7 -11   11.80    1.30
   0   7 -11   13.40    1.50
   0   7 -11   14.20    1.40
   0   7 -11   14.60    1.50
   0   7  11   14.10    0.60
   1  -7  11    5.30    1.10
   1  -7  11    6.40    1.10
  -1   7 -11    5.40    0.90
  -1   7 -11    5.20    1.00
  -1   7 -11    4.80    1.00
   1   7  11    6.00    0.60
   1   7  11    4.70    0.80
  -1   7 -11    4.80    1.00
  -1   7 -11    5.40    1.00
   1   7  11    6.60    0.80
  -1   7 -11    4.70    1.00
   1   7  11    5.00    1.00
   2  -7  11    8.50    1.30
   2  -7  11    6.10    1.00
   2   7  11    6.00    1.10
   2   7  11    7.00    0.90
  -2   7 -11    8.50    1.20
  -2   7 -11    6.00    1.10
   2   7  11    8.00    0.80
  -2   7 -11    5.00    1.20
   3  -7  11    1.90    0.70
   3   7  11    2.50    0.60
   3   7  11    2.20    0.60
  -3   7 -11   -0.10    0.80
  -5  -8  11    2.00    0.70
  -5  -8  11    2.40    0.90
  -5  -8  11    3.90    1.00
   5   8 -11    3.10    0.90
   5   8 -11    2.60    0.80
  -5   8  11    1.60    0.70
  -5   8  11    2.90    0.50
   5   8 -11    3.10    1.00
  -4  -8  11    0.20    0.50
  -4  -8  11    0.30    0.80
  -4  -8  11   -0.10    0.60
   4   8 -11   -0.10    0.70
   4   8 -11    0.30    0.60
  -4   8  11    0.10    0.40
  -4   8  11    0.20    0.30
  -4   8  11    0.40    0.60
  -4   8  11    0.40    0.50
   4   8 -11   -0.40    0.80
  -4   8  11    0.30    0.30
  -3  -8  11   13.50    1.30
  -3  -8  11   12.30    1.50
  -3  -8  11   16.80    1.70
  -3   8  11   15.90    1.30
  -3   8  11   16.10    0.60
  -3   8  11   13.70    1.10
   3   8 -11   12.70    1.50
   3   8 -11   14.80    1.50
  -3   8  11   15.10    1.20
   3   8 -11   13.70    1.60
  -3   8  11   15.90    1.00
  -2  -8  11    8.80    1.10
  -2  -8  11   10.30    1.50
  -2  -8  11   12.50    1.50
  -2   8  11    9.20    1.00
   2   8 -11   10.50    1.40
  -2   8  11   10.10    1.10
  -2   8  11    9.70    1.10
   2   8 -11    9.60    1.40
  -2   8  11    8.70    1.00
   2   8 -11    9.00    1.30
  -1  -8  11   -0.10    0.80
  -1  -8  11    0.40    0.80
  -1  -8  11    0.80    0.70
  -1  -8  11    1.00    0.70
   1   8 -11    1.00    0.80
   1   8 -11   -0.10    0.60
  -1   8  11    0.00    0.40
  -1   8  11   -0.20    0.40
  -1   8  11   -0.10    0.40
   1   8 -11   -0.20    0.70
  -1   8  11   -0.20    0.50
   0  -8  11    7.50    1.30
   0  -8  11    7.00    1.10
   0   8 -11    7.90    1.40
   0   8 -11    8.90    1.30
   0   8  11    9.20    0.90
   0   8  11    8.80    1.20
   0   8 -11    8.10    1.20
   0   8  11    7.80    0.70
   0   8  11    9.60    0.50
   0   8  11    7.90    1.00
   1  -8  11   17.70    1.90
   1  -8  11   19.00    2.50
  -1   8 -11   18.30    2.40
  -1   8 -11   19.70    1.90
  -1   8 -11   17.40    1.70
   1   8  11   17.30    0.90
   1   8  11   16.60    1.10
   1   8  11   16.80    2.40
   1   8  11   15.80    1.40
   2  -8  11    1.80    0.70
   2  -8  11    1.90    1.10
   2   8  11    1.10    0.40
  -2   8 -11    1.80    1.10
   2   8  11    1.80    0.50
  -2   8 -11   -0.10    0.90
  -3  -9  11    0.90    0.60
  -3   9  11    0.70    0.50
   3   9 -11    0.80    0.80
  -3   9  11    1.00    0.60
   3   9 -11    1.90    1.00
  -3   9  11    1.40    0.60
  -3   9  11    1.70    0.50
  -3   9  11    1.60    0.30
  -2  -9  11    0.40    0.60
  -2   9  11    0.70    0.50
  -2   9  11    0.70    0.60
   2   9 -11   -0.10    0.90
  -2   9  11    1.10    0.50
   2   9 -11    0.40    0.80
  -2   9  11    0.90    0.50
  -1  -9  11    3.50    0.90
  -1  -9  11    3.00    1.00
  -1  -9  11    4.70    1.20
  -1   9  11    2.60    0.80
   1   9 -11    5.20    1.20
   1   9 -11    2.90    1.00
  -1   9  11    4.20    0.60
  -1   9  11    3.00    0.70
  -1   9  11    4.10    0.60
   0  -9  11    4.10    1.00
   0  -9  11    6.80    1.30
   0  -9  11    5.20    1.00
   0   9 -11    5.70    1.10
   0   9 -11    4.40    1.00
   0   9 -11    2.70    1.10
   0   9  11    4.20    0.60
   0   9  11    4.90    0.50
   0   9  11    5.20    0.60
   0   9  11    4.70    0.80
  -8   0  12   11.70    1.30
  -8   0  12   11.50    1.30
   8   0 -12   10.40    1.10
   8   0 -12   10.80    0.70
  -7   0  12    0.70    0.60
  -7   0  12    1.10    0.60
  -7   0  12    1.80    0.70
  -7   0  12    1.00    0.60
  -7   0  12    1.90    0.80
   7   0 -12    1.10    0.50
   7   0 -12    1.30    0.60
   7   0 -12    2.00    0.80
   7   0 -12    1.60    0.30
   6   0 -12   -0.10    0.50
  -6   0  12    0.00    0.60
  -6   0  12    0.40    0.50
   6   0 -12    0.30    0.20
  -6   0  12    0.00    0.50
  -6   0  12    0.50    0.50
  -6   0  12   -0.20    0.60
   6   0 -12    0.70    0.60
   5   0 -12    2.10    0.60
   5   0 -12    0.80    0.40
  -5   0  12    1.30    0.60
   5   0 -12    1.50    0.60
  -5   0  12    1.40    0.60
  -5   0  12    0.80    0.60
  -5   0  12    0.80    0.50
  -4   0  12    2.90    0.40
  -4   0  12    2.20    0.70
   4   0 -12    2.60    0.60
  -4   0  12    2.40    0.60
   4   0 -12    3.40    0.60
   4   0 -12    2.30    0.50
  -4   0  12    3.10    0.70
  -4   0  12    1.90    0.60
   3   0 -12   -0.20    0.40
  -3   0  12    0.50    0.50
   3   0 -12    0.10    0.40
  -3   0  12    0.40    0.60
  -3   0  12    0.40    0.50
  -3   0  12   -0.10    0.30
   3   0 -12    0.60    0.40
   2   0 -12    2.50    0.50
  -2   0  12    2.90    0.60
  -2   0  12    3.20    0.60
  -2   0  12    2.50    0.70
   2   0 -12    3.40    0.60
  -2   0  12    2.50    0.60
   2   0 -12    3.10    0.60
   1   0 -12    3.20    0.80
  -1   0  12    2.80    0.60
   1   0 -12    2.30    0.50
  -1   0  12    2.20    0.60
   1   0 -12    2.40    0.50
  -1   0  12    2.10    0.70
   1   0 -12    2.60    0.50
  -1   0  12    3.60    0.70
   0   0 -12    2.20    0.50
   0   0  12    2.80    0.60
   0   0  12    2.40    0.60
   0   0 -12    2.40    0.50
   0   0  12    2.80    0.80
   0   0 -12    3.40    0.50
   0   0  12    3.10    0.80
   0   0 -12    1.50    0.70
   1   0  12   41.20    2.20
  -1   0 -12   42.20    1.50
  -1   0 -12   43.50    1.90
   1   0  12   41.20    2.20
  -1   0 -12   45.00    2.40
  -1   0 -12   40.70    1.70
   1   0  12   45.10    1.90
  -2   0 -12    0.90    0.20
  -2   0 -12    0.80    0.30
  -2   0 -12    0.90    0.20
   2   0  12    2.00    0.70
   2   0  12    1.10    0.60
  -2   0 -12    1.60    0.70
   2   0  12    2.00    0.80
  -2   0 -12    0.70    0.40
   3   0  12   13.60    1.50
  -3   0 -12   15.40    1.60
  -3   0 -12   13.40    1.20
  -3   0 -12   12.80    1.10
   3   0  12   16.00    1.50
  -3   0 -12   13.90    0.70
   3   0  12   12.70    1.20
  -3   0 -12   14.00    0.70
  -4   0 -12    4.60    0.60
  -4   0 -12    3.90    0.90
  -4   0 -12    6.20    0.60
  -8  -1  12    8.00    1.20
  -8   1  12   12.50    1.20
  -8   1  12    9.60    1.20
   8   1 -12   10.90    1.20
  -8   1  12   12.60    1.20
   8   1 -12    8.80    0.80
  -7  -1  12    0.60    0.60
  -7  -1  12    0.10    0.50
  -7  -1  12   -0.30    0.50
  -7  -1  12   -0.30    0.50
   7  -1 -12   -0.40    0.60
   7  -1 -12    0.90    0.50
  -7  -1  12   -0.30    0.50
   7  -1 -12    0.10    0.40
  -7   1  12   -0.30    0.50
  -7   1  12    1.30    0.70
   7   1 -12    0.40    0.50
  -7   1  12    0.00    0.60
  -7   1  12   -0.60    0.40
   7   1 -12    0.20    0.60
   7   1 -12    0.30    0.40
  -7   1  12   -0.60    0.40
   7   1 -12    0.00    0.50
   6  -1 -12   30.10    1.60
  -6  -1  12   32.20    2.10
  -6  -1  12   32.40    1.90
  -6  -1  12   28.50    1.80
   6  -1 -12   31.70    1.80
  -6  -1  12   28.00    1.60
   6  -1 -12   27.30    1.40
  -6  -1  12   27.30    1.70
   6   1 -12   31.50    1.60
  -6   1  12   30.40    2.00
   6   1 -12   29.60    1.20
  -6   1  12   29.90    1.80
   6   1 -12   31.00    1.80
   6   1 -12   28.50    1.70
  -6   1  12   30.50    1.80
  -6   1  12   29.60    1.60
  -6   1  12   27.30    1.50
  -5  -1  12    7.00    0.40
  -5  -1  12    7.60    1.00
  -5  -1  12    8.10    0.90
   5  -1 -12    8.00    1.00
   5  -1 -12    7.70    0.80
  -5  -1  12    5.60    0.90
   5  -1 -12    6.30    0.80
  -5  -1  12    7.70    1.00
  -5   1  12    7.90    0.90
   5   1 -12    8.10    0.60
   5   1 -12    6.10    0.80
   5   1 -12    7.80    0.90
   5   1 -12    6.20    0.90
  -5   1  12    8.10    0.80
  -5   1  12    5.60    0.90
  -5   1  12    7.90    1.00
  -4  -1  12   12.70    1.40
  -4  -1  12   12.00    1.10
   4  -1 -12   13.40    1.10
   4  -1 -12   12.70    0.80
  -4  -1  12   13.50    1.10
   4  -1 -12   11.10    0.90
  -4  -1  12   13.20    0.80
  -4  -1  12   11.30    1.10
   4   1 -12   13.00    0.60
  -4   1  12   12.30    0.50
  -4   1  12   13.40    1.00
  -4   1  12   12.90    1.00
  -4   1  12   11.90    1.30
   4   1 -12   12.50    1.00
   4   1 -12   13.90    1.10
   4   1 -12   12.20    0.60
  -4   1  12   13.00    1.10
  -4   1  12   11.40    0.50
  -3  -1  12   72.29    2.70
   3  -1 -12   71.09    2.50
  -3  -1  12   66.79    2.50
   3  -1 -12   69.89    2.30
   3  -1 -12   66.69    2.20
  -3  -1  12   70.39    2.90
  -3  -1  12   71.99    2.50
  -3  -1  12   67.29    2.40
   3   1 -12   67.99    1.90
  -3   1  12   70.59    2.60
  -3   1  12   68.69    2.90
   3   1 -12   68.59    2.50
  -3   1  12   67.09    2.20
   3   1 -12   68.69    1.90
   3   1 -12   68.49    2.50
  -3   1  12   71.99    2.40
   2  -1 -12  235.28    6.00
  -2  -1  12  230.18    6.30
   2  -1 -12  236.08    6.00
  -2  -1  12  225.28    6.80
   2  -1 -12  227.18    6.20
  -2  -1  12  234.68    6.30
  -2  -1  12  236.28    6.40
   2   1 -12  227.88    5.60
  -2   1  12  225.08    6.10
   2   1 -12  231.98    6.30
  -2   1  12  230.18    6.30
   2   1 -12  232.28    5.60
  -2   1  12  218.98    6.10
   2   1 -12  225.38    6.30
  -2   1  12  231.08    6.80
   1  -1 -12    8.20    0.70
  -1  -1  12    7.60    0.90
  -1  -1  12    7.40    0.90
   1  -1 -12    8.30    0.70
  -1  -1  12    8.00    0.90
  -1  -1  12    6.50    1.00
   1  -1 -12    8.10    0.70
   1   1 -12    9.30    1.20
  -1   1  12    5.30    0.80
   1   1 -12    7.90    0.50
   1   1 -12    7.60    0.50
   1   1 -12    8.70    0.80
  -1   1  12    5.60    0.90
  -1   1  12    7.90    0.70
   1   1 -12    6.90    0.80
  -1   1  12    7.30    0.80
   0  -1 -12    5.80    0.60
   0  -1 -12    6.20    0.70
   0  -1  12    6.30    1.00
   0  -1  12    6.20    0.90
   0  -1 -12    7.30    1.10
   0  -1  12    3.90    0.80
   0  -1 -12    5.50    0.60
   0  -1  12    5.20    0.80
   0   1 -12    5.70    0.50
   0   1  12    6.60    0.70
   0   1 -12    5.60    0.50
   0   1 -12    4.90    0.90
   0   1 -12    4.80    0.70
   0   1  12    5.30    0.90
   0   1  12    5.90    0.70
   0   1  12    6.30    1.10
   0   1 -12    7.00    0.70
  -1  -1 -12   17.70    1.10
   1  -1  12   16.60    1.40
   1  -1  12   17.00    1.40
  -1  -1 -12   15.00    0.80
  -1  -1 -12   16.80    1.00
   1  -1  12   16.80    1.50
   1  -1  12   19.20    1.40
  -1  -1 -12   16.00    1.50
   1   1  12   16.20    1.10
  -1   1 -12   15.70    0.90
  -1   1 -12   16.20    0.80
  -1   1 -12   18.10    1.60
  -1   1 -12   15.40    1.20
   1   1  12   15.90    1.40
   1   1  12   16.10    1.40
  -1   1 -12   16.60    1.10
  -1   1 -12   15.90    0.90
   2  -1  12   29.20    1.70
   2  -1  12   27.20    1.90
   2  -1  12   29.80    1.90
  -2  -1 -12   31.40    2.00
  -2  -1 -12   30.60    1.60
   2  -1  12   30.30    1.90
  -2  -1 -12   29.10    1.40
   2   1  12   30.30    1.90
  -2   1 -12   28.70    1.60
   2   1  12   28.10    1.90
   2   1  12   28.60    1.60
  -2   1 -12   27.90    1.60
  -2   1 -12   31.30    1.30
  -2   1 -12   29.60    1.20
  -2   1 -12   30.10    2.10
  -2   1 -12   32.00    1.20
   3  -1  12    0.90    0.70
  -3  -1 -12    0.00    0.40
  -3  -1 -12    0.10    0.70
  -3  -1 -12    0.00    0.40
   3  -1  12    1.20    0.80
   3  -1  12    0.40    0.60
   3  -1  12    0.40    0.60
  -3   1 -12    0.40    0.60
   3   1  12   -0.10    0.60
  -3   1 -12   -0.10    0.40
  -3   1 -12    0.50    0.20
   3   1  12    0.90    0.70
  -3   1 -12    1.10    0.50
  -3   1 -12    0.80    0.40
  -3   1 -12    0.40    0.80
   3   1  12    0.70    0.60
  -4   1 -12    1.10    0.40
  -4   1 -12    0.30    0.60
  -4   1 -12    0.60    0.50
   8  -2 -12    8.10    0.90
  -8  -2  12    9.50    1.40
  -8   2  12   11.00    1.30
  -8   2  12   10.50    1.20
  -8   2  12    9.10    1.10
   8   2 -12    9.40    1.20
   8   2 -12   10.20    1.00
   7  -2 -12   44.10    1.80
  -7  -2  12   39.80    2.40
   7  -2 -12   45.40    2.70
  -7  -2  12   45.50    2.20
  -7  -2  12   41.90    2.30
   7   2 -12   43.10    2.10
  -7   2  12   44.50    2.00
   7   2 -12   45.30    1.80
  -7   2  12   41.00    2.10
  -7   2  12   44.10    3.10
  -7   2  12   44.40    2.00
   7   2 -12   41.60    2.50
   6  -2 -12    6.00    0.70
  -6  -2  12    8.10    1.10
  -6  -2  12    6.00    1.10
   6  -2 -12    5.40    0.80
  -6  -2  12    5.40    0.90
  -6  -2  12    8.00    1.10
  -6  -2  12    6.90    1.10
   6  -2 -12    7.70    1.00
   6   2 -12    8.00    1.10
   6   2 -12    7.00    1.00
  -6   2  12    6.60    1.00
   6   2 -12    8.00    0.80
  -6   2  12    7.00    1.10
   6   2 -12    6.20    1.00
  -6   2  12    6.80    0.80
  -6   2  12    7.00    0.80
  -6   2  12    7.70    1.10
  -5  -2  12    5.30    0.60
   5  -2 -12    6.30    0.70
  -5  -2  12    5.10    0.90
  -5  -2  12    6.20    1.10
  -5  -2  12    5.10    0.80
  -5  -2  12    3.80    0.90
   5  -2 -12    4.60    0.80
  -5  -2  12    5.80    0.90
   5  -2 -12    5.80    0.60
  -5   2  12    6.20    0.70
   5   2 -12    7.70    1.00
   5   2 -12    5.90    0.80
   5   2 -12    6.40    0.90
  -5   2  12    6.40    1.10
  -5   2  12    4.60    0.80
   5   2 -12    5.40    0.60
  -5   2  12    5.40    0.70
   4  -2 -12   59.09    1.80
  -4  -2  12   54.19    2.30
  -4  -2  12   57.09    2.40
   4  -2 -12   58.89    2.30
  -4  -2  12   56.19    2.00
  -4  -2  12   58.09    2.50
   4  -2 -12   59.69    1.90
  -4  -2  12   58.39    2.70
  -4   2  12   58.19    2.30
   4   2 -12   55.89    2.30
   4   2 -12   55.49    2.30
  -4   2  12   57.89    2.70
   4   2 -12   55.79    1.90
  -4   2  12   59.19    2.00
   4   2 -12   56.09    2.30
  -4   2  12   53.59    1.90
  -3  -2  12    1.60    0.50
   3  -2 -12    2.30    0.40
  -3  -2  12    1.10    0.70
   3  -2 -12    1.80    0.50
  -3  -2  12    2.50    0.70
  -3  -2  12    1.40    0.60
  -3  -2  12    3.20    0.70
   3  -2 -12    2.30    0.40
   3   2 -12    1.90    0.60
   3   2 -12    2.60    0.40
   3   2 -12    0.90    0.50
  -3   2  12    1.80    0.50
   3   2 -12    2.10    0.60
  -3   2  12    2.80    0.40
  -3   2  12    1.70    0.40
  -3   2  12    2.60    0.50
   3   2 -12    2.50    0.40
  -3   2  12    1.40    0.70
  -2  -2  12    5.80    0.80
   2  -2 -12    4.50    0.60
   2  -2 -12    5.80    0.50
  -2  -2  12    5.90    0.80
   2  -2 -12    5.40    0.50
  -2  -2  12    5.90    1.00
  -2  -2  12    4.90    0.80
  -2   2  12    4.60    0.90
   2   2 -12    5.60    0.60
   2   2 -12    4.80    0.80
   2   2 -12    4.10    0.70
  -2   2  12    5.80    0.60
   2   2 -12    6.50    0.60
  -2   2  12    6.10    0.70
   2   2 -12    5.00    0.70
   1  -2 -12    4.60    0.50
   1  -2 -12    3.80    0.50
   1  -2 -12    4.50    0.50
  -1  -2  12    4.30    0.80
  -1  -2  12    4.40    0.90
  -1  -2  12    5.60    0.80
  -1  -2  12    4.20    0.80
  -1   2  12    2.70    0.70
   1   2 -12    3.60    0.70
   1   2 -12    3.70    0.70
   1   2 -12    3.80    0.50
  -1   2  12    5.30    0.70
   1   2 -12    5.10    0.70
   1   2 -12    4.30    0.50
  -1   2  12    3.80    0.70
   1   2 -12    5.30    1.00
   0  -2  12   60.09    2.60
   0  -2 -12   59.89    2.60
   0  -2 -12   59.49    2.00
   0  -2 -12   55.79    1.80
   0  -2 -12   59.29    1.90
   0  -2  12   58.39    2.40
   0   2  12   59.59    2.60
   0   2  12   59.19    2.60
   0   2 -12   59.39    2.70
   0   2 -12   59.39    2.00
   0   2  12   57.79    1.90
   0   2 -12   57.99    2.30
   0   2 -12   57.59    2.10
   0   2  12   59.29    2.00
   0   2 -12   58.39    1.90
   0   2 -12   56.09    2.40
  -1  -2 -12   33.80    1.50
  -1  -2 -12   33.10    1.40
   1  -2  12   35.70    2.10
  -1  -2 -12   31.20    2.00
   1  -2  12   34.90    2.00
   1  -2  12   36.20    2.00
   1  -2  12   34.30    1.90
   1   2  12   32.60    1.90
  -1   2 -12   35.30    2.20
   1   2  12   35.30    1.50
  -1   2 -12   34.40    1.40
  -1   2 -12   31.50    1.70
  -1   2 -12   35.50    1.80
   1   2  12   33.80    2.00
  -1   2 -12   35.50    1.50
  -1   2 -12   33.60    1.50
  -2  -2 -12    9.30    0.80
  -2  -2 -12   10.30    1.30
  -2  -2 -12   10.70    0.90
   2  -2  12    9.70    1.20
   2  -2  12   12.10    1.50
   2  -2  12    8.50    1.10
   2  -2  12    9.50    1.30
  -2   2 -12    9.80    0.80
   2   2  12   10.80    1.00
  -2   2 -12    9.50    0.80
   2   2  12    9.20    1.20
  -2   2 -12   11.40    1.20
  -2   2 -12    8.20    1.30
   2   2  12   10.90    1.00
  -2   2 -12   10.10    1.00
  -2   2 -12   11.00    1.10
   2   2  12    9.70    1.20
   3  -2  12    2.80    0.80
   3  -2  12    1.90    0.80
   3  -2  12    2.40    0.90
   3  -2  12    1.90    0.80
  -3  -2 -12    3.20    0.90
  -3  -2 -12    2.60    0.60
  -3  -2 -12    3.50    0.70
   3   2  12    1.60    0.70
  -3   2 -12    3.30    0.70
  -3   2 -12    2.30    0.50
  -3   2 -12    3.10    0.70
   3   2  12    3.20    0.70
  -3   2 -12    1.10    0.70
   3   2  12    4.00    1.00
   3   2  12    3.30    0.70
  -3   2 -12    2.70    1.00
  -3   2 -12    2.40    0.50
  -4  -2 -12   20.80    2.10
   4   2  12   18.10    1.40
  -4   2 -12   16.60    1.30
  -4   2 -12   16.80    1.60
  -4   2 -12   17.80    0.90
  -4   2 -12   15.80    1.10
  -8  -3  12    0.00    0.70
   8  -3 -12    0.20    0.50
  -8   3  12    1.60    0.60
  -8   3  12    0.60    0.50
  -8   3  12    1.20    0.50
   8   3 -12    0.30    0.70
   8   3 -12    1.30    0.60
  -7  -3  12   17.10    1.60
   7  -3 -12   15.10    1.10
  -7   3  12   17.10    1.30
   7   3 -12   15.70    1.40
  -7   3  12   17.60    1.20
  -7   3  12   16.90    1.20
   7   3 -12   18.40    1.20
  -6  -3  12   16.40    1.50
  -6  -3  12   15.90    1.60
  -6  -3  12   17.80    1.40
   6  -3 -12   17.80    1.00
  -6  -3  12   15.70    1.50
  -6  -3  12   18.00    1.50
   6  -3 -12   16.80    1.10
  -6   3  12   18.50    1.60
   6   3 -12   18.00    1.20
  -6   3  12   15.70    1.40
   6   3 -12   17.00    1.40
   6   3 -12   16.00    1.40
  -6   3  12   16.60    1.10
   6   3 -12   14.90    1.40
  -6   3  12   18.10    1.40
  -6   3  12   17.90    1.10
  -5  -3  12    3.70    0.60
   5  -3 -12    4.00    0.50
   5  -3 -12    3.80    0.50
  -5  -3  12    4.80    0.90
  -5  -3  12    4.90    0.90
  -5  -3  12    4.30    0.90
  -5  -3  12    4.80    1.00
  -5  -3  12    5.60    1.00
  -5   3  12    4.60    1.00
   5   3 -12    4.20    0.80
   5   3 -12    3.30    0.80
   5   3 -12    2.90    0.80
  -5   3  12    4.00    0.60
  -5   3  12    5.00    0.90
  -5   3  12    3.70    0.50
   5   3 -12    3.90    0.60
  -4  -3  12    8.20    1.10
  -4  -3  12   10.20    1.20
  -4  -3  12    8.70    0.90
  -4  -3  12   10.20    1.20
  -4  -3  12    8.10    1.00
   4  -3 -12    9.60    0.50
   4  -3 -12    9.00    0.60
  -4   3  12    8.10    1.00
   4   3 -12    9.70    1.10
  -4   3  12    6.40    1.00
   4   3 -12   10.40    1.10
   4   3 -12    9.20    1.10
  -4   3  12    9.10    0.80
   4   3 -12   10.80    0.90
  -3  -3  12    9.50    1.00
  -3  -3  12   10.40    1.30
  -3  -3  12    8.10    1.00
  -3  -3  12   11.40    1.20
  -3  -3  12    9.70    1.10
  -3   3  12   10.50    0.70
   3   3 -12   10.50    1.20
   3   3 -12    9.90    0.80
  -3   3  12   11.70    1.00
  -3   3  12   10.70    0.70
   3   3 -12    8.70    1.00
   3   3 -12    8.70    1.00
  -3   3  12    8.30    1.10
  -2  -3  12   74.09    2.80
  -2  -3  12   71.99    2.80
  -2  -3  12   73.99    3.10
  -2  -3  12   71.29    2.80
  -2  -3  12   73.99    2.80
   2   3 -12   69.49    2.30
   2   3 -12   76.79    2.40
  -2   3  12   71.59    2.80
  -2   3  12   70.59    2.50
  -2   3  12   71.89    2.50
  -2   3  12   75.29    3.00
   2   3 -12   71.49    2.70
   2   3 -12   72.19    2.70
   2   3 -12   67.89    2.70
  -2   3  12   69.29    2.20
  -1  -3  12    4.10    0.80
  -1  -3  12    3.60    0.80
  -1  -3  12    3.20    0.80
   1   3 -12    3.50    0.70
   1   3 -12    3.90    0.60
  -1   3  12    3.50    0.80
   1   3 -12    4.40    0.80
   1   3 -12    3.60    0.60
  -1   3  12    3.60    0.60
   1   3 -12    4.20    0.80
   1   3 -12    4.10    0.90
  -1   3  12    4.80    0.90
   0  -3 -12    4.40    0.40
   0  -3  12    5.20    0.90
   0  -3  12    4.80    0.90
   0  -3  12    3.80    0.80
   0  -3 -12    4.00    0.40
   0   3 -12    4.70    0.90
   0   3 -12    3.10    0.50
   0   3 -12    3.40    0.80
   0   3 -12    5.10    0.80
   0   3 -12    4.90    0.70
   0   3  12    3.60    0.70
   0   3 -12    3.80    0.70
   0   3  12    3.90    0.50
   0   3  12    5.40    1.00
   1  -3  12   19.50    1.50
  -1  -3 -12   18.20    0.90
  -1  -3 -12   20.30    1.60
   1  -3  12   20.70    1.70
   1  -3  12   20.00    1.60
  -1  -3 -12   18.60    1.00
   1  -3  12   19.20    1.50
   1   3  12   19.70    1.10
  -1   3 -12   20.20    1.50
   1   3  12   21.20    1.60
  -1   3 -12   18.50    1.70
  -1   3 -12   17.60    1.30
   1   3  12   20.70    1.00
  -1   3 -12   21.80    1.30
  -1   3 -12   19.80    1.20
   1   3  12   20.30    1.50
  -1   3 -12   20.20    1.10
   2  -3  12   24.90    1.80
   2  -3  12   23.90    1.80
  -2  -3 -12   26.10    1.30
  -2  -3 -12   23.90    1.20
   2  -3  12   27.30    2.00
   2  -3  12   25.00    1.80
  -2  -3 -12   23.40    1.80
  -2   3 -12   25.00    1.40
  -2   3 -12   24.60    2.00
   2   3  12   26.00    1.40
   2   3  12   24.90    1.80
  -2   3 -12   24.00    1.60
   2   3  12   25.40    1.70
  -2   3 -12   25.00    1.30
  -2   3 -12   25.80    1.50
  -2   3 -12   25.00    1.70
   2   3  12   25.30    1.30
  -3  -3 -12   19.30    1.20
   3  -3  12   14.10    1.60
  -3  -3 -12   16.60    1.30
  -3  -3 -12   17.90    1.70
   3  -3  12   17.80    1.60
   3   3  12   16.80    1.50
  -3   3 -12   17.00    1.10
  -3   3 -12   17.40    1.10
  -3   3 -12   17.00    1.40
  -3   3 -12   16.90    1.60
   3   3  12   18.60    1.60
   3   3  12   19.50    1.30
  -3   3 -12   17.60    1.40
  -4  -3 -12    4.00    1.00
   4   3  12    1.60    0.70
  -4   3 -12    0.50    0.40
  -4   3 -12    0.10    0.70
  -4   3 -12    1.40    0.50
   4   3  12    0.60    0.70
  -4   3 -12    1.50    0.70
   7  -4 -12   11.80    0.90
  -7  -4  12   11.90    1.50
  -7  -4  12   11.60    1.70
  -7   4  12    9.50    1.00
  -7   4  12   11.40    1.00
   7   4 -12    9.00    1.00
  -7   4  12   12.00    1.00
   7   4 -12   13.40    1.40
  -6  -4  12   19.40    1.60
  -6  -4  12   19.50    1.10
  -6  -4  12   21.40    1.80
   6  -4 -12   19.60    1.00
  -6  -4  12   18.20    1.60
  -6  -4  12   19.30    1.70
   6  -4 -12   20.20    1.00
   6   4 -12   20.60    1.30
   6   4 -12   19.30    1.60
  -6   4  12   20.30    1.50
  -6   4  12   21.40    1.80
  -6   4  12   18.80    1.20
  -6   4  12   19.90    1.40
  -6   4  12   19.50    1.10
   6   4 -12   19.80    1.60
   6   4 -12   19.80    1.60
  -5  -4  12    4.60    1.00
  -5  -4  12    3.80    0.90
   5  -4 -12    4.40    0.40
  -5  -4  12    5.80    1.00
  -5  -4  12    2.50    0.80
   5  -4 -12    4.30    0.40
  -5  -4  12    4.70    1.00
  -5  -4  12    3.10    0.60
   5   4 -12    4.30    0.80
   5   4 -12    5.00    1.00
  -5   4  12    4.50    0.60
   5   4 -12    4.50    0.90
  -5   4  12    4.70    0.80
   5   4 -12    6.00    1.00
  -5   4  12    5.10    1.00
  -5   4  12    4.30    0.40
  -4  -4  12   74.29    2.90
  -4  -4  12   73.59    3.00
  -4  -4  12   73.39    2.80
  -4  -4  12   71.29    3.10
  -4  -4  12   76.09    3.10
  -4   4  12   74.79    3.10
  -4   4  12   74.49    2.30
   4   4 -12   77.19    3.00
   4   4 -12   75.99    2.60
   4   4 -12   71.69    2.90
  -4   4  12   76.79    2.80
   4   4 -12   73.49    3.00
  -3  -4  12    7.40    1.00
  -3  -4  12    7.80    1.00
  -3  -4  12    5.10    0.80
  -3  -4  12    5.30    0.90
  -3  -4  12    5.40    0.90
  -3   4  12    6.30    0.90
  -3   4  12    5.90    0.80
  -3   4  12    6.70    0.60
   3   4 -12    8.10    1.00
  -3   4  12    6.20    0.90
  -3   4  12    6.20    0.70
   3   4 -12    5.10    0.90
   3   4 -12    7.00    1.00
   3   4 -12    6.10    0.80
  -2  -4  12    6.80    1.00
  -2  -4  12    8.20    1.10
  -2  -4  12    5.90    1.00
  -2   4  12    6.90    0.60
  -2   4  12    7.50    0.80
  -2   4  12    8.70    1.00
   2   4 -12    7.90    0.80
   2   4 -12    8.50    1.00
   2   4 -12   10.10    1.20
  -2   4  12    8.50    0.80
   2   4 -12    6.70    1.00
   2   4 -12    7.70    0.90
  -2   4  12    8.40    1.10
  -1  -4  12   19.00    1.50
  -1  -4  12   18.70    1.50
  -1  -4  12   17.30    1.40
  -1   4  12   16.60    1.00
   1   4 -12   16.60    1.40
   1   4 -12   17.00    1.30
   1   4 -12   18.70    1.10
   1   4 -12   16.50    1.40
   1   4 -12   19.80    1.70
   1   4 -12   19.00    1.20
  -1   4  12   17.60    1.30
  -1   4  12   18.90    1.40
  -1   4  12   18.90    1.30
   0  -4  12   17.80    1.60
   0  -4  12   15.20    1.40
   0  -4  12   17.60    1.50
   0   4 -12   16.30    1.20
   0   4  12   16.90    1.40
   0   4 -12   15.00    1.30
   0   4 -12   16.60    1.20
   0   4 -12   18.00    1.40
   0   4  12   15.90    0.80
   0   4  12   18.20    1.30
   0   4 -12   15.70    1.10
   0   4  12   16.70    1.40
   0   4 -12   17.30    1.60
   1  -4  12   12.90    1.50
   1  -4  12   11.10    1.40
   1  -4  12   11.80    1.40
  -1  -4 -12   10.30    0.50
  -1  -4 -12   10.10    0.60
   1  -4  12   10.00    1.30
  -1   4 -12    8.10    1.20
  -1   4 -12   10.90    1.30
  -1   4 -12   11.80    1.30
   1   4  12    7.90    1.10
   1   4  12   10.90    0.90
  -1   4 -12   11.00    1.10
   1   4  12   11.70    1.20
   1   4  12   12.30    0.60
  -1   4 -12   12.40    1.10
  -1   4 -12    9.50    0.90
   2  -4  12   33.50    2.20
  -2  -4 -12   33.50    1.30
   2  -4  12   31.50    2.00
   2  -4  12   31.70    2.30
  -2  -4 -12   34.00    1.40
  -2  -4 -12   32.20    2.00
   2  -4  12   35.40    2.20
  -2   4 -12   37.20    1.90
  -2   4 -12   32.60    1.60
   2   4  12   31.60    1.90
   2   4  12   35.80    1.40
  -2   4 -12   35.30    2.00
  -2   4 -12   41.80    2.50
   2   4  12   35.30    1.60
  -2   4 -12   32.70    2.10
  -2   4 -12   35.60    1.70
   2   4  12   31.20    2.00
  -3  -4 -12    0.10    0.40
   3  -4  12   -0.20    0.50
  -3  -4 -12    0.80    0.70
  -3   4 -12    1.30    0.50
   3   4  12    0.80    0.60
  -3   4 -12    0.80    0.80
   3   4  12    0.30    0.50
  -3   4 -12   -0.20    0.70
  -3   4 -12    0.50    0.50
  -4  -4 -12   23.60    1.90
  -4   4 -12   20.60    1.90
   4   4  12   22.90    1.70
  -4   4 -12   21.20    1.40
  -4   4 -12   25.30    1.50
   4   4  12   26.50    1.60
  -4   4 -12   26.30    1.80
   7  -5 -12   15.80    1.00
  -7  -5  12   16.90    1.70
   7   5 -12   16.10    1.70
  -7   5  12   16.20    1.10
  -7   5  12   16.90    1.00
  -7   5  12   15.20    1.10
   7   5 -12   19.40    1.50
   6  -5 -12    0.20    0.20
  -6  -5  12   -0.10    0.40
  -6  -5  12   -0.20    0.50
   6  -5 -12    0.40    0.20
  -6  -5  12   -1.30    0.60
   6   5 -12    0.00    0.60
   6   5 -12   -0.10    0.70
  -6   5  12   -0.60    0.50
  -6   5  12    1.40    0.70
  -6   5  12    0.30    0.40
  -6   5  12    0.20    0.30
   6   5 -12    0.20    0.60
  -6   5  12   -0.50    0.40
  -5  -5  12   15.80    1.50
  -5  -5  12   17.00    1.30
  -5  -5  12   15.10    1.70
  -5  -5  12   19.70    1.50
  -5  -5  12   19.00    1.60
  -5  -5  12   17.00    1.60
   5   5 -12   18.70    1.30
   5   5 -12   17.60    1.50
   5   5 -12   17.50    1.50
  -5   5  12   17.60    1.40
   5   5 -12   14.60    1.50
  -5   5  12   17.00    1.20
  -5   5  12   15.60    1.50
  -5   5  12   18.20    1.00
  -4  -5  12   53.79    2.40
  -4  -5  12   60.69    2.70
  -4  -5  12   51.29    2.50
  -4  -5  12   53.49    2.70
  -4  -5  12   51.29    2.60
  -4  -5  12   53.69    2.60
   4   5 -12   55.49    2.30
  -4   5  12   54.89    2.30
   4   5 -12   55.49    2.50
   4   5 -12   57.09    2.60
  -4   5  12   56.79    2.70
   4   5 -12   51.89    2.60
  -4   5  12   53.99    1.70
  -4   5  12   53.59    1.60
  -4   5  12   54.49    2.20
  -3  -5  12   60.79    2.70
  -3  -5  12   63.09    2.80
  -3  -5  12   60.59    2.80
  -3  -5  12   60.69    2.70
   3   5 -12   63.19    2.50
  -3   5  12   64.59    2.40
  -3   5  12   62.39    2.20
   3   5 -12   59.89    2.70
   3   5 -12   61.19    2.70
  -3   5  12   61.09    2.70
  -3   5  12   65.19    1.90
   3   5 -12   68.89    2.80
  -3   5  12   63.39    2.50
  -2  -5  12   12.20    1.30
  -2  -5  12   13.70    1.40
  -2  -5  12   13.30    1.40
  -2   5  12   11.80    1.10
  -2   5  12   13.40    1.10
   2   5 -12   14.10    1.30
   2   5 -12   12.40    1.20
   2   5 -12   15.10    1.40
   2   5 -12   12.30    1.20
  -2   5  12   13.00    1.30
  -2   5  12   11.50    1.00
  -2   5  12   10.80    0.60
  -1  -5  12   17.00    1.50
  -1  -5  12   15.50    1.50
  -1  -5  12   14.30    1.40
   1   5 -12   17.20    1.20
  -1   5  12   15.10    1.30
   1   5 -12   17.40    1.40
  -1   5  12   16.50    1.00
  -1   5  12   15.60    1.30
  -1   5  12   14.20    1.30
   1   5 -12   18.50    1.60
   1   5 -12   15.70    1.30
   1   5 -12   15.20    1.40
   1   5 -12   16.30    1.50
   0  -5  12    2.90    0.80
   0  -5  12    2.50    0.80
   0  -5  12    5.80    1.10
   0   5  12    2.40    0.40
   0   5 -12    3.10    0.80
   0   5  12    2.90    0.70
   0   5  12    3.60    0.40
   0   5 -12    3.10    0.70
   0   5  12    2.90    0.70
   0   5  12    2.80    0.70
   0   5 -12    2.80    0.70
   0   5 -12    3.90    0.80
   0   5 -12    2.80    0.80
   0   5 -12    3.30    1.00
   1  -5  12    1.70    0.70
   1  -5  12    3.50    1.00
   1  -5  12    1.50    0.70
   1  -5  12    2.40    0.80
  -1   5 -12    1.90    0.60
  -1   5 -12    2.00    0.70
   1   5  12    1.70    0.70
  -1   5 -12    2.10    0.80
   1   5  12    3.60    0.80
   1   5  12    2.40    0.70
  -1   5 -12    3.00    0.80
  -1   5 -12    3.30    0.80
   1   5  12    3.70    0.50
  -1   5 -12    3.50    1.00
  -2  -5 -12    9.70    0.60
  -2  -5 -12   11.00    0.60
   2  -5  12   10.70    1.50
   2  -5  12   13.60    1.40
   2   5  12    8.80    1.10
   2   5  12   11.60    1.00
  -2   5 -12   11.50    1.20
  -2   5 -12   10.70    1.40
   2   5  12   10.50    0.70
  -2   5 -12   11.70    1.30
  -2   5 -12    9.00    1.00
  -2   5 -12   12.10    1.40
   2   5  12    6.90    1.10
   2   5  12   13.10    1.50
  -3  -5 -12    1.50    0.70
  -3  -5 -12    3.00    0.50
   3  -5  12    1.00    0.80
   3   5  12    0.90    0.60
   3   5  12    2.50    0.60
  -3   5 -12    2.70    1.00
  -3   5 -12    1.40    0.60
  -3   5 -12    0.90    0.80
  -3   5 -12    2.10    0.80
  -6  -6  12    1.00    0.60
  -6  -6  12    1.30    0.60
  -6  -6  12   -0.80    0.70
  -6   6  12    0.30    0.40
  -6   6  12    0.50    0.40
   6   6 -12    0.00    0.60
   6   6 -12    0.50    0.70
   6   6 -12    0.60    0.50
  -6   6  12    0.50    0.40
  -5  -6  12    8.70    1.10
  -5  -6  12    9.10    1.30
  -5  -6  12    5.40    1.00
   5   6 -12    9.00    1.00
  -5   6  12    9.00    0.70
  -5   6  12    7.70    1.00
   5   6 -12    8.60    1.30
   5   6 -12    8.00    1.20
   5   6 -12    9.40    1.10
  -5   6  12    7.50    1.10
  -5   6  12    7.80    0.90
  -4  -6  12    0.30    0.70
  -4  -6  12   -0.30    0.50
  -4  -6  12    0.20    0.60
  -4  -6  12    0.20    0.70
  -4  -6  12   -0.50    0.70
   4   6 -12   -0.80    0.50
  -4   6  12    1.30    0.60
  -4   6  12   -0.20    0.40
   4   6 -12   -0.10    0.70
  -4   6  12    0.20    0.50
   4   6 -12    1.20    0.80
   4   6 -12    0.70    0.60
  -4   6  12    0.10    0.30
  -4   6  12    0.40    0.30
  -3  -6  12   44.20    2.30
  -3  -6  12   40.90    2.30
  -3  -6  12   41.00    2.40
   3   6 -12   36.60    2.10
  -3   6  12   40.20    1.90
   3   6 -12   40.00    2.30
  -3   6  12   39.70    1.20
  -3   6  12   40.00    1.90
  -3   6  12   41.30    1.70
   3   6 -12   39.10    2.20
   3   6 -12   42.80    2.10
  -3   6  12   40.40    2.10
  -2  -6  12    8.70    1.20
  -2  -6  12    5.90    1.00
   2   6 -12    8.40    1.10
   2   6 -12    7.60    1.10
   2   6 -12    9.50    1.10
  -2   6  12    8.80    0.90
   2   6 -12   10.70    1.40
  -2   6  12    8.20    1.00
  -2   6  12   10.60    1.20
  -2   6  12    7.80    1.00
  -1  -6  12   23.60    1.90
  -1  -6  12   22.90    1.70
  -1  -6  12   22.90    1.80
  -1   6  12   24.00    1.60
  -1   6  12   24.00    1.20
   1   6 -12   23.10    1.70
  -1   6  12   24.30    1.60
   1   6 -12   26.70    1.70
   1   6 -12   25.00    1.50
   1   6 -12   23.90    1.70
   1   6 -12   26.50    1.90
   1   6 -12   19.40    1.70
  -1   6  12   25.20    1.60
   0  -6  12    6.70    1.10
   0  -6  12    5.20    1.10
   0  -6  12    5.50    1.10
   0   6 -12    4.60    1.00
   0   6  12    6.10    0.90
   0   6 -12    9.50    1.40
   0   6  12    6.80    0.90
   0   6 -12    5.80    1.00
   0   6 -12    6.70    0.90
   0   6  12    7.00    0.60
   0   6 -12    6.90    1.00
   0   6  12    5.30    1.00
   0   6 -12    5.60    1.00
   0   6  12    6.20    0.60
   1  -6  12    3.80    0.90
   1  -6  12    5.20    1.00
   1  -6  12    4.40    1.20
   1  -6  12    4.60    1.10
   1   6  12    5.00    0.60
  -1   6 -12    3.70    0.70
  -1   6 -12    6.90    1.10
  -1   6 -12    6.30    1.00
   1   6  12    3.80    0.80
   1   6  12    4.20    0.80
  -1   6 -12    3.40    0.90
   1   6  12    5.30    1.00
  -1   6 -12    3.80    1.00
  -1   6 -12    6.50    1.30
   2  -6  12    6.00    1.40
   2  -6  12    5.10    1.00
  -2   6 -12    6.60    1.10
  -2   6 -12    4.20    1.00
  -2   6 -12    4.90    0.90
  -2   6 -12    3.80    0.90
   2   6  12    6.80    0.80
   2   6  12    7.60    1.00
  -3  -6 -12   18.70    0.80
   3   6  12   17.00    1.40
   3   6  12   18.60    1.20
  -3   6 -12   12.50    1.70
  -3   6 -12   18.90    1.50
  -6  -7  12    8.50    1.40
  -6  -7  12    7.30    1.20
  -6  -7  12    9.20    1.20
   6   7 -12    7.60    1.10
  -6   7  12    9.10    0.70
   6   7 -12   11.30    1.50
  -6   7  12    8.40    0.70
  -6   7  12    8.60    0.80
  -5  -7  12    1.50    0.70
  -5  -7  12    2.70    0.80
  -5  -7  12    3.70    1.10
  -5   7  12    2.60    0.50
  -5   7  12    2.70    0.50
  -5   7  12    1.70    0.80
  -5   7  12    2.00    0.40
   5   7 -12    2.60    1.30
   5   7 -12    3.10    1.10
   5   7 -12    2.30    0.70
  -4  -7  12    0.50    0.70
  -4  -7  12   -0.30    0.50
  -4  -7  12    0.80    0.70
  -4   7  12    0.00    0.30
   4   7 -12    0.00    0.60
   4   7 -12    0.00    0.60
   4   7 -12    0.20    0.70
  -4   7  12    0.10    0.30
  -4   7  12    0.30    0.50
  -4   7  12    0.00    0.40
  -4   7  12    0.10    0.50
   4   7 -12    0.60    0.60
  -3  -7  12    4.70    1.20
  -3  -7  12    4.50    0.90
  -3  -7  12    4.50    1.00
  -3   7  12    5.30    0.80
  -3   7  12    4.00    0.70
   3   7 -12    3.80    1.00
   3   7 -12    3.00    0.80
  -3   7  12    3.70    0.80
   3   7 -12    3.40    1.00
  -3   7  12    5.10    0.70
  -2  -7  12    9.30    1.40
  -2  -7  12    5.70    1.00
   2   7 -12   10.00    1.50
  -2   7  12    8.10    1.00
   2   7 -12    8.30    1.10
   2   7 -12    8.50    1.30
  -2   7  12    7.40    1.00
   2   7 -12    8.70    1.30
  -2   7  12    7.40    1.00
  -2   7  12    7.20    0.80
  -1  -7  12   21.60    1.80
  -1  -7  12   20.60    2.00
  -1  -7  12   19.60    1.70
   1   7 -12   19.40    1.40
  -1   7  12   18.90    1.40
   1   7 -12   20.90    1.70
  -1   7  12   20.00    1.10
   1   7 -12   20.20    1.70
  -1   7  12   17.90    1.40
   1   7 -12   21.50    1.80
  -1   7  12   18.60    1.50
   1   7 -12   19.20    1.70
   1   7 -12   18.40    1.60
   0  -7  12    0.80    0.60
   0  -7  12    0.40    0.80
   0   7 -12    0.90    0.60
   0   7  12   -0.10    0.50
   0   7 -12    0.10    0.70
   0   7 -12    1.10    0.80
   0   7 -12   -0.30    0.50
   0   7  12    0.40    0.30
   0   7 -12    0.60    0.80
   0   7 -12    0.70    0.70
   0   7  12    0.80    0.60
   0   7  12    0.70    0.50
   0   7  12    0.40    0.30
   1  -7  12   11.00    1.30
   1  -7  12   11.50    1.60
   1   7  12   12.10    0.80
  -1   7 -12   10.70    1.40
   1   7  12    8.90    1.20
   1   7  12    9.70    1.40
  -1   7 -12   12.20    1.50
   1   7  12   10.80    1.10
   2   7  12    1.30    0.50
  -2   7 -12    1.90    1.00
   2   7  12    1.00    0.60
  -4  -8  12    3.40    0.90
  -4  -8  12    3.50    1.00
  -4  -8  12    3.90    1.00
   4   8 -12    5.80    1.20
  -4   8  12    3.60    0.40
  -4   8  12    2.90    0.70
  -4   8  12    3.10    0.60
   4   8 -12    2.80    1.00
  -4   8  12    4.60    0.70
  -4   8  12    3.20    0.80
  -3  -8  12    1.20    0.70
   3   8 -12    0.00    0.80
  -3   8  12    1.40    0.60
  -3   8  12    0.70    0.50
   3   8 -12    0.80    0.90
  -3   8  12   -0.40    0.40
  -3   8  12    0.80    0.50
  -2  -8  12   19.00    1.60
   2   8 -12   19.70    1.80
  -2   8  12   19.30    1.50
  -2   8  12   17.00    1.40
  -2   8  12   19.00    1.30
  -2   8  12   19.40    1.30
   2   8 -12   19.90    1.80
  -1  -8  12   13.50    1.60
  -1  -8  12    8.70    1.20
  -1   8  12   14.30    1.30
   1   8 -12   13.40    1.60
   1   8 -12   11.40    1.40
  -1   8  12   11.70    0.90
  -1   8  12   12.10    1.10
  -1   8  12   13.10    1.40
   1   8 -12   11.90    1.60
   0  -8  12    8.30    1.50
   0   8  12    8.30    0.90
   0   8  12    6.50    1.00
   0   8 -12    8.30    1.60
   0   8 -12    6.70    1.30
   0   8  12    7.60    0.50
   0   8  12    4.50    0.90
   0   8  12    7.60    0.60
   8   0 -13   -0.30    0.50
  -8   0  13    0.90    0.60
  -7   0  13    0.80    0.60
  -7   0  13    1.10    0.60
  -7   0  13    0.60    0.60
  -6   0  13    0.30    0.50
  -6   0  13   -0.60    0.40
   6   0 -13   -0.40    0.40
  -6   0  13   -0.40    0.50
  -6   0  13    0.40    0.60
  -6   0  13   -0.70    0.50
   6   0 -13    0.50    0.60
   6   0 -13    0.20    0.50
  -5   0  13   16.00    1.70
   5   0 -13   11.30    1.00
  -5   0  13   12.80    1.10
   5   0 -13   11.10    1.00
  -5   0  13   12.70    1.10
  -5   0  13    9.50    1.10
   5   0 -13   11.20    1.20
  -4   0  13   17.90    0.90
  -4   0  13   19.60    1.30
  -4   0  13   18.50    1.40
  -4   0  13   21.20    1.20
   4   0 -13   19.50    1.30
  -4   0  13   18.90    1.60
   4   0 -13   19.50    1.20
   4   0 -13   18.30    1.10
   3   0 -13    5.00    0.70
  -3   0  13    2.20    0.60
  -3   0  13    3.90    0.60
   3   0 -13    4.30    0.60
  -3   0  13    3.80    0.70
   3   0 -13    4.80    0.80
  -3   0  13    3.40    0.80
  -2   0  13   18.50    1.20
   2   0 -13   17.90    1.10
   2   0 -13   18.60    1.10
   2   0 -13   18.60    1.20
  -2   0  13   17.50    1.20
  -2   0  13   17.30    1.50
  -2   0  13   19.80    1.20
   1   0 -13    1.80    0.50
   1   0 -13    0.90    0.40
  -1   0  13    1.00    0.50
  -1   0  13    0.90    0.60
   1   0 -13    1.40    0.50
  -1   0  13    2.90    0.70
  -1   0  13    1.50    0.50
   0   0 -13    0.10    0.30
   0   0  13    0.90    0.60
   0   0 -13    0.50    0.40
   0   0 -13    0.80    0.40
   0   0  13   -0.40    0.50
   0   0  13   -0.50    0.50
   0   0 -13   -0.80    0.60
   0   0  13    0.60    0.50
   1   0  13    3.70    0.70
   1   0  13    3.30    0.90
  -1   0 -13    3.20    0.50
  -1   0 -13    3.10    0.60
  -1   0 -13    2.00    0.80
   1   0  13    3.10    0.80
   1   0  13    2.90    0.80
  -1   0 -13    3.20    0.70
  -2   0 -13   11.40    1.10
   2   0  13   13.60    1.30
   2   0  13   13.30    1.50
   2   0  13   14.70    1.50
  -2   0 -13   14.00    1.60
  -2   0 -13   14.60    1.10
  -2   0 -13   13.80    0.70
   2   0  13   14.70    1.50
  -4   0 -13    0.10    0.60
  -8  -1  13    0.10    0.60
   8  -1 -13   -0.40    0.40
  -8   1  13    0.40    0.60
  -8   1  13    0.20    0.60
   8   1 -13    0.40    0.40
   8   1 -13    0.10    0.60
  -7  -1  13    1.90    0.70
   7  -1 -13    1.80    0.60
  -7  -1  13    3.60    0.80
  -7  -1  13    1.70    0.80
  -7   1  13    1.90    0.60
  -7   1  13    2.00    0.80
   7   1 -13    2.50    0.70
   7   1 -13    2.20    0.40
  -7   1  13    1.90    0.70
  -6  -1  13   24.80    1.80
  -6  -1  13   26.50    1.90
  -6  -1  13   26.60    1.60
   6  -1 -13   24.10    1.30
   6  -1 -13   24.70    1.50
   6  -1 -13   28.60    1.80
  -6  -1  13   28.80    2.00
  -6  -1  13   25.80    1.70
  -6   1  13   23.90    1.90
  -6   1  13   27.90    1.80
   6   1 -13   27.60    1.80
  -6   1  13   26.50    1.50
  -6   1  13   26.70    1.70
   6   1 -13   26.90    1.50
   6   1 -13   24.90    1.60
   6   1 -13   26.90    1.00
  -6   1  13   26.80    1.50
   5  -1 -13   12.30    1.20
  -5  -1  13   14.60    0.60
  -5  -1  13   16.30    1.20
   5  -1 -13   13.30    0.90
   5  -1 -13   14.40    1.00
  -5  -1  13   14.40    1.40
  -5  -1  13   14.50    1.20
  -5  -1  13   13.50    1.30
   5   1 -13   11.40    1.10
  -5   1  13   16.10    1.50
  -5   1  13   15.30    1.30
  -5   1  13   13.70    1.10
  -5   1  13   15.40    1.10
   5   1 -13   12.80    0.60
   5   1 -13   14.00    1.30
   5   1 -13   12.70    0.60
  -4  -1  13   30.80    1.60
   4  -1 -13   30.10    1.40
   4  -1 -13   29.90    1.30
  -4  -1  13   31.10    2.00
  -4  -1  13   31.30    1.30
  -4  -1  13   32.00    1.70
  -4  -1  13   30.20    1.80
   4  -1 -13   30.70    1.70
   4   1 -13   31.00    1.60
  -4   1  13   31.90    1.70
  -4   1  13   29.20    1.40
  -4   1  13   29.60    1.10
  -4   1  13   30.20    1.00
   4   1 -13   30.30    1.70
   4   1 -13   29.90    0.90
  -4   1  13   30.30    2.00
  -4   1  13   30.50    1.50
   4   1 -13   28.90    0.90
   3  -1 -13    0.30    0.40
  -3  -1  13    0.90    0.50
  -3  -1  13    0.20    0.50
   3  -1 -13    0.40    0.40
  -3  -1  13    1.10    0.60
   3  -1 -13    0.50    0.50
  -3  -1  13    0.50    0.40
  -3   1  13    0.20    0.40
  -3   1  13    0.60    0.60
  -3   1  13    0.40    0.50
   3   1 -13    0.60    0.50
   3   1 -13    0.30    0.50
  -3   1  13    0.80    0.40
   3   1 -13    0.60    0.40
   2  -1 -13   56.59    2.10
   2  -1 -13   57.19    2.00
  -2  -1  13   56.29    2.70
  -2  -1  13   53.59    2.30
   2  -1 -13   57.39    1.90
  -2  -1  13   57.19    2.30
  -2  -1  13   59.49    2.30
   2   1 -13   55.59    2.20
  -2   1  13   51.99    2.10
   2   1 -13   58.49    2.20
  -2   1  13   58.39    2.10
  -2   1  13   56.69    2.70
   2   1 -13   57.09    2.20
  -2   1  13   58.39    2.20
  -1  -1  13   17.20    1.50
   1  -1 -13   17.90    1.10
  -1  -1  13   18.00    1.40
   1  -1 -13   17.90    1.00
   1  -1 -13   17.70    1.00
  -1  -1  13   16.80    1.20
  -1  -1  13   18.00    1.20
   1   1 -13   17.30    1.10
  -1   1  13   18.50    1.30
  -1   1  13   18.00    1.50
   1   1 -13   17.50    1.60
  -1   1  13   19.30    1.50
  -1   1  13   18.30    1.10
   1   1 -13   18.30    1.20
   1   1 -13   17.30    1.40
   0  -1  13   14.80    1.30
   0  -1 -13   14.90    0.90
   0  -1  13   15.00    1.40
   0  -1 -13   14.50    0.90
   0  -1  13   15.90    1.20
   0  -1  13   15.90    1.40
   0  -1 -13   14.50    1.00
   0  -1 -13   15.00    1.60
   0   1 -13   14.90    0.60
   0   1  13   13.50    1.40
   0   1 -13   13.10    0.90
   0   1  13   15.80    1.10
   0   1 -13   16.40    1.60
   0   1  13   14.90    1.40
   0   1 -13   13.90    1.10
   0   1 -13   14.90    0.60
  -1  -1 -13    6.70    0.60
  -1  -1 -13    7.30    1.20
  -1  -1 -13    6.50    0.70
  -1  -1 -13    6.90    0.80
   1  -1  13    5.70    0.90
   1  -1  13    6.30    1.10
   1  -1  13    6.50    1.10
   1  -1  13    7.40    1.20
  -1   1 -13    6.90    0.90
  -1   1 -13    5.90    0.50
   1   1  13    8.00    0.90
  -1   1 -13    6.80    0.70
  -1   1 -13    6.10    0.50
  -1   1 -13    5.60    0.80
   1   1  13    3.40    0.80
  -1   1 -13    9.90    1.40
   1   1  13    8.30    1.20
  -2  -1 -13    0.50    0.70
   2  -1  13    1.10    0.70
   2  -1  13    1.10    0.70
   2  -1  13    0.40    0.70
  -2  -1 -13    1.20    0.50
   2  -1  13    0.90    0.70
  -2  -1 -13    1.10    0.50
  -2   1 -13    1.50    0.60
  -2   1 -13    0.50    0.30
  -2   1 -13    0.80    0.80
  -2   1 -13    1.20    0.60
   2   1  13    0.70    0.60
   2   1  13    1.80    0.80
  -2   1 -13    0.80    0.30
   2   1  13    1.00    0.60
  -2   1 -13    0.20    0.30
  -3  -1 -13    4.20    0.80
  -3   1 -13    5.10    0.50
  -3   1 -13    3.80    0.80
  -3   1 -13    4.50    0.60
  -3   1 -13    4.60    0.50
  -4  -1 -13    3.80    0.90
  -4   1 -13    2.00    0.80
  -4   1 -13    2.00    0.40
  -4   1 -13    1.50    0.50
   8  -2 -13    5.00    0.70
  -8  -2  13    3.90    1.00
  -8   2  13    4.80    0.90
  -8   2  13    4.20    0.80
   8   2 -13    3.50    0.90
   8   2 -13    5.50    0.70
  -7  -2  13    0.70    0.70
   7  -2 -13    0.70    0.50
  -7   2  13    1.30    0.60
   7   2 -13    1.00    0.50
   7   2 -13    0.70    0.60
  -7   2  13    0.70    0.60
  -7   2  13    1.40    0.70
  -6  -2  13   14.80    1.30
  -6  -2  13   14.90    1.60
  -6  -2  13   17.00    1.50
   6  -2 -13   14.80    1.10
  -6  -2  13   14.40    1.40
  -6  -2  13   20.30    1.70
   6  -2 -13   13.20    1.40
   6  -2 -13   16.60    1.00
  -6   2  13   14.20    1.10
  -6   2  13   15.40    1.10
   6   2 -13   15.90    1.50
  -6   2  13   15.30    1.40
   6   2 -13   16.50    1.40
   6   2 -13   15.70    0.90
  -6   2  13   16.30    1.60
   6   2 -13   16.50    1.30
  -6   2  13   17.10    1.50
  -5  -2  13    3.10    0.80
   5  -2 -13    0.80    0.60
  -5  -2  13    1.10    0.60
  -5  -2  13    1.20    0.70
  -5  -2  13    1.20    0.40
   5  -2 -13    1.40    0.40
  -5  -2  13    2.40    0.80
   5  -2 -13    1.30    0.40
  -5  -2  13    1.70    0.70
   5   2 -13    1.70    0.60
   5   2 -13    0.70    0.60
   5   2 -13    1.30    0.60
  -5   2  13    1.10    0.60
  -5   2  13    1.30    0.70
   5   2 -13    2.50    0.40
  -5   2  13    0.60    0.50
  -5   2  13    1.20    0.50
   4  -2 -13   13.80    0.80
  -4  -2  13   16.20    1.50
  -4  -2  13   14.20    1.20
  -4  -2  13   12.30    1.00
  -4  -2  13   12.60    1.20
   4  -2 -13   13.70    1.20
  -4  -2  13   14.20    1.30
   4  -2 -13   12.50    0.80
  -4   2  13   13.10    1.40
   4   2 -13   13.30    1.20
   4   2 -13   14.20    1.20
  -4   2  13   13.50    1.10
   4   2 -13   12.90    0.80
   4   2 -13   14.00    0.80
  -4   2  13   14.30    1.00
   4   2 -13   13.60    1.10
   3  -2 -13   17.00    0.80
   3  -2 -13   17.00    1.20
   3  -2 -13   16.90    0.90
  -3  -2  13   15.70    1.20
  -3  -2  13   17.20    1.30
  -3  -2  13   16.60    1.50
  -3  -2  13   15.40    1.30
   3   2 -13   17.10    0.90
   3   2 -13   17.30    0.90
  -3   2  13   16.50    1.50
   3   2 -13   17.80    1.20
   3   2 -13   17.40    1.20
   3   2 -13   15.80    1.20
  -3   2  13   15.90    0.90
  -3   2  13   17.40    1.20
  -3   2  13   16.80    1.00
  -2  -2  13    3.70    0.70
  -2  -2  13    6.60    0.90
   2  -2 -13    4.30    0.70
  -2  -2  13    5.90    0.90
   2  -2 -13    5.20    0.50
  -2  -2  13    4.30    0.90
   2  -2 -13    5.70    0.50
  -2   2  13    5.40    0.90
   2   2 -13    5.50    0.50
  -2   2  13    4.90    0.70
  -2   2  13    4.60    0.70
   2   2 -13    5.80    0.80
   2   2 -13    5.40    0.80
   2   2 -13    5.30    0.50
  -2   2  13    5.70    1.00
  -2   2  13    5.50    0.70
   2   2 -13    5.20    0.80
   1  -2 -13   17.70    0.90
  -1  -2  13   18.20    1.40
  -1  -2  13   17.10    1.50
  -1  -2  13   18.30    1.30
   1  -2 -13   17.90    1.00
   1  -2 -13   17.50    0.80
   1   2 -13   18.90    1.60
   1   2 -13   15.90    1.30
  -1   2  13   18.10    1.10
   1   2 -13   18.70    1.20
   1   2 -13   18.90    1.30
   1   2 -13   15.90    0.90
   1   2 -13   17.20    0.90
  -1   2  13   17.50    1.50
  -1   2  13   18.40    1.50
   0  -2  13    4.80    1.00
   0  -2 -13    4.60    1.00
   0  -2 -13    4.10    0.50
   0  -2  13    3.60    0.80
   0  -2 -13    3.80    0.60
   0  -2  13    5.10    0.90
   0  -2  13    3.70    0.80
   0   2  13    3.10    0.80
   0   2  13    5.10    1.00
   0   2 -13    3.20    0.50
   0   2  13    4.30    0.60
   0   2  13    5.50    0.60
   0   2 -13    3.00    0.70
   0   2 -13    5.20    0.70
   0   2 -13    2.80    0.80
   0   2 -13    3.80    0.50
   0   2 -13    3.50    0.70
  -1  -2 -13   28.90    1.40
   1  -2  13   30.00    2.00
  -1  -2 -13   28.20    1.90
   1  -2  13   30.20    2.00
   1  -2  13   29.60    1.80
   1  -2  13   27.70    1.90
  -1  -2 -13   30.60    1.30
  -1   2 -13   30.30    1.30
  -1   2 -13   29.10    2.10
   1   2  13   30.00    1.40
  -1   2 -13   28.90    1.40
  -1   2 -13   29.40    1.80
  -1   2 -13   27.50    1.20
  -1   2 -13   27.40    1.60
   1   2  13   25.20    1.80
   1   2  13   26.50    1.90
   2  -2  13   15.10    1.50
  -2  -2 -13   18.00    1.60
   2  -2  13   13.80    1.40
   2  -2  13   15.40    1.60
   2  -2  13   17.80    1.70
  -2  -2 -13   13.90    1.00
  -2  -2 -13   15.10    1.10
  -2   2 -13   15.10    1.40
  -2   2 -13   13.10    0.90
  -2   2 -13   16.40    1.90
   2   2  13   15.50    1.50
  -2   2 -13   14.50    1.20
   2   2  13   14.80    1.50
  -2   2 -13   14.20    1.10
   2   2  13   15.30    1.20
  -2   2 -13   14.00    0.90
  -3  -2 -13   10.30    1.40
  -3  -2 -13    9.00    1.00
  -3   2 -13   11.10    0.80
  -3   2 -13   10.10    0.80
   3   2  13   10.20    1.40
  -3   2 -13   10.50    1.00
  -3   2 -13    8.90    1.20
   7  -3 -13   31.90    1.40
  -7  -3  13   26.80    2.00
  -7   3  13   30.60    1.60
   7   3 -13   29.80    1.50
  -7   3  13   29.40    1.80
  -7   3  13   29.00    1.60
   7   3 -13   31.60    1.90
  -6  -3  13   23.10    1.90
  -6  -3  13   21.80    1.60
   6  -3 -13   22.00    1.10
  -6  -3  13   22.30    2.20
  -6  -3  13   22.10    1.70
   6  -3 -13   22.40    1.20
  -6   3  13   21.70    1.30
   6   3 -13   22.40    1.90
  -6   3  13   21.10    1.90
  -6   3  13   22.30    1.60
   6   3 -13   20.70    1.60
   6   3 -13   23.90    1.30
  -6   3  13   21.60    1.20
  -6   3  13   20.90    1.50
   5  -3 -13    3.80    0.50
   5  -3 -13    3.50    0.40
  -5  -3  13    3.90    0.60
  -5  -3  13    3.40    0.90
  -5  -3  13    4.80    1.00
  -5  -3  13    2.90    0.80
  -5  -3  13    4.40    0.90
  -5  -3  13    2.20    0.70
  -5   3  13    2.50    0.80
  -5   3  13    3.00    0.60
  -5   3  13    2.70    0.70
   5   3 -13    3.20    0.80
   5   3 -13    2.30    0.50
  -5   3  13    4.00    0.50
   5   3 -13    3.00    0.80
   4  -3 -13    2.10    0.30
  -4  -3  13    1.50    0.60
  -4  -3  13    0.90    0.60
  -4  -3  13    1.20    0.50
  -4  -3  13    0.80    0.60
  -4  -3  13    1.70    0.70
   4  -3 -13    1.80    0.30
  -4   3  13    1.50    0.50
   4   3 -13    1.60    0.70
   4   3 -13    1.70    0.50
  -4   3  13    1.50    0.70
   4   3 -13    1.20    0.60
   4   3 -13    1.00    0.60
  -4   3  13    1.00    0.60
  -3  -3  13   44.70    2.20
  -3  -3  13   44.50    2.10
  -3  -3  13   43.80    2.40
  -3  -3  13   43.60    2.00
  -3   3  13   45.10    1.90
   3   3 -13   41.10    2.10
  -3   3  13   42.50    2.10
  -3   3  13   43.60    1.60
  -3   3  13   43.50    1.60
   3   3 -13   44.90    2.10
  -3   3  13   42.90    2.30
   3   3 -13   44.40    1.70
   3   3 -13   42.20    2.10
   3   3 -13   47.00    1.70
  -3   3  13   43.70    1.60
  -2  -3  13    8.50    1.10
  -2  -3  13    7.60    1.20
  -2  -3  13    6.20    0.90
  -2   3  13    7.30    0.80
   2   3 -13    6.20    0.90
  -2   3  13    6.80    0.70
  -2   3  13    6.40    0.80
   2   3 -13    7.10    0.70
  -2   3  13    5.00    0.80
  -2   3  13    7.70    1.10
   2   3 -13    6.20    0.90
   2   3 -13    6.70    0.90
   2   3 -13    8.10    0.80
  -1  -3  13   13.80    1.50
  -1  -3  13   10.30    1.20
  -1  -3  13   13.50    1.30
  -1   3  13   11.30    1.20
   1   3 -13   12.60    1.20
  -1   3  13   12.30    1.30
   1   3 -13   10.90    0.80
   1   3 -13   12.80    1.20
   1   3 -13   12.00    0.90
   1   3 -13   16.00    1.70
  -1   3  13   12.40    0.90
   1   3 -13   11.00    1.10
   0  -3  13   19.30    1.60
   0  -3  13   19.10    1.50
   0  -3  13   20.10    1.70
   0  -3 -13   19.70    0.80
   0  -3 -13   19.00    0.80
   0   3 -13   20.10    1.20
   0   3  13   18.30    1.50
   0   3  13   20.60    1.60
   0   3 -13   17.70    1.30
   0   3  13   19.10    1.00
   0   3 -13   20.10    1.10
   0   3 -13   22.60    1.50
   0   3 -13   18.30    1.40
   0   3 -13   18.30    1.70
  -1  -3 -13   29.30    2.00
  -1  -3 -13   29.20    1.20
   1  -3  13   29.80    2.10
   1  -3  13   28.90    2.00
  -1  -3 -13   29.50    1.20
   1  -3  13   30.40    2.00
   1  -3  13   31.60    2.00
  -1   3 -13   30.70    1.50
  -1   3 -13   28.40    1.30
  -1   3 -13   28.20    1.70
   1   3  13   29.70    1.90
  -1   3 -13   28.00    1.80
  -1   3 -13   33.70    2.30
   1   3  13   26.40    1.90
  -1   3 -13   31.20    1.50
   1   3  13   28.60    1.30
   2  -3  13    5.60    1.10
  -2  -3 -13    4.60    0.60
  -2  -3 -13    5.70    0.60
  -2  -3 -13    5.40    1.10
   2  -3  13    7.70    1.30
  -2   3 -13    4.60    1.00
  -2   3 -13    4.10    0.80
  -2   3 -13    4.00    0.70
   2   3  13    4.80    0.70
  -2   3 -13    4.80    0.70
   2   3  13    4.20    0.90
  -3  -3 -13    5.00    0.70
  -3  -3 -13    5.30    1.10
  -3   3 -13    6.40    0.90
   3   3  13    4.20    0.80
   3   3  13    4.60    0.90
  -3   3 -13    7.40    1.20
  -3   3 -13    3.80    0.70
  -3   3 -13    5.70    0.70
   7  -4 -13   33.40    1.40
  -7  -4  13   35.10    2.30
   7   4 -13   38.00    1.80
  -7   4  13   33.70    1.80
   7   4 -13   35.60    2.10
  -7   4  13   34.30    1.60
  -7   4  13   33.70    1.70
  -6  -4  13    9.20    1.30
  -6  -4  13   11.70    1.50
  -6  -4  13   11.80    0.90
   6  -4 -13   12.20    0.70
   6  -4 -13   12.30    0.70
   6   4 -13   12.70    1.10
  -6   4  13   13.10    1.00
  -6   4  13   11.50    1.20
   6   4 -13   14.50    1.50
  -6   4  13   12.50    0.80
  -5  -4  13   11.00    1.30
  -5  -4  13    9.50    1.20
  -5  -4  13   12.60    1.60
  -5  -4  13    7.10    1.10
  -5  -4  13    9.90    1.40
  -5  -4  13    9.90    1.00
   5   4 -13    9.80    1.20
   5   4 -13    8.60    1.10
   5   4 -13   10.60    1.00
  -5   4  13   10.20    1.20
   5   4 -13   10.00    1.30
  -5   4  13    7.70    0.80
  -5   4  13    5.30    1.00
  -4  -4  13   17.70    1.50
  -4  -4  13   17.20    1.30
  -4  -4  13   17.80    1.50
  -4  -4  13   17.30    1.50
  -4  -4  13   20.20    1.70
   4   4 -13   17.00    1.50
  -4   4  13   16.80    1.30
   4   4 -13   19.00    1.50
   4   4 -13   18.40    1.20
  -4   4  13   17.40    1.60
  -4   4  13   16.10    1.30
  -4   4  13   17.00    1.00
   4   4 -13   20.50    1.50
  -3  -4  13    2.00    0.70
  -3  -4  13    3.20    0.80
  -3  -4  13    2.90    0.80
  -3  -4  13    4.30    0.80
   3   4 -13    2.80    0.70
  -3   4  13    2.00    0.70
  -3   4  13    4.30    0.60
  -3   4  13    2.60    0.70
   3   4 -13    2.90    0.60
   3   4 -13    3.10    0.80
   3   4 -13    3.90    0.90
  -3   4  13    4.40    0.50
  -3   4  13    3.10    0.70
   3   4 -13    3.40    0.70
  -2  -4  13    9.10    1.30
  -2  -4  13   10.50    1.20
  -2   4  13    8.50    0.90
   2   4 -13    7.10    0.90
   2   4 -13    7.00    1.00
   2   4 -13    8.40    0.80
  -2   4  13    9.00    0.70
   2   4 -13    9.10    0.90
  -2   4  13    9.40    0.90
  -2   4  13   10.00    1.20
   2   4 -13    8.60    1.20
  -2   4  13    8.10    1.10
  -1  -4  13   18.20    1.50
  -1  -4  13   16.60    1.50
  -1  -4  13   16.90    1.50
  -1   4  13   17.80    1.40
  -1   4  13   17.70    1.30
   1   4 -13   14.60    1.30
   1   4 -13   15.80    1.30
   1   4 -13   17.20    1.40
  -1   4  13   15.10    1.00
  -1   4  13   16.10    1.40
   1   4 -13   15.80    1.60
   1   4 -13   17.00    1.10
   1   4 -13   18.00    1.20
   0  -4  13   10.50    1.30
   0  -4  13   10.70    1.30
   0  -4  13    8.80    1.20
   0   4  13   11.60    1.30
   0   4 -13   10.60    1.30
   0   4 -13   10.50    1.30
   0   4 -13   11.20    1.50
   0   4  13    9.80    0.70
   0   4  13    9.50    1.20
   0   4 -13   10.50    1.10
   0   4 -13   11.90    1.00
   0   4  13   12.00    1.20
   0   4 -13   12.60    1.10
   1  -4  13   64.39    2.90
   1  -4  13   58.29    3.00
   1  -4  13   63.99    3.10
   1  -4  13   60.99    2.90
  -1   4 -13   63.19    2.50
  -1   4 -13   64.89    2.80
  -1   4 -13   60.49    3.20
  -1   4 -13   63.29    2.30
   1   4  13   63.19    2.90
  -1   4 -13   62.99    2.50
   1   4  13   61.29    2.80
  -1   4 -13   62.49    2.90
   1   4  13   61.49    1.80
  -2  -4 -13   14.60    1.50
  -2  -4 -13   12.30    0.80
  -2  -4 -13   13.70    0.90
  -2   4 -13   13.00    1.00
  -2   4 -13   12.10    1.10
   2   4  13   14.40    0.90
  -2   4 -13   12.40    1.30
   2   4  13   13.00    1.10
  -2   4 -13   11.60    1.40
   2   4  13   10.50    1.30
  -3  -4 -13   12.50    1.00
  -3  -4 -13   12.70    1.50
  -3   4 -13   11.80    1.10
  -3   4 -13   11.40    1.30
  -3   4 -13   12.50    1.10
   3   4  13   13.10    1.20
  -3   4 -13   10.50    1.40
   3   4  13   14.10    1.50
  -6  -5  13    8.70    1.00
  -6  -5  13    8.50    1.30
  -6   5  13   10.00    1.10
  -6   5  13   10.10    1.10
   6   5 -13    8.30    1.30
  -6   5  13    8.80    0.90
   6   5 -13    8.30    1.00
  -5  -5  13   15.40    1.50
  -5  -5  13   17.00    1.70
  -5  -5  13   16.40    1.30
  -5   5  13   14.20    1.70
  -5   5  13   13.80    1.20
  -5   5  13   17.00    1.30
   5   5 -13   15.50    1.50
   5   5 -13   16.20    1.30
   5   5 -13   14.60    1.50
  -5   5  13   16.00    1.00
  -4  -5  13   15.70    1.70
  -4  -5  13   14.70    1.50
  -4  -5  13   13.00    1.30
  -4  -5  13   13.30    1.50
  -4  -5  13   11.60    1.40
  -4  -5  13   16.60    1.90
  -4   5  13   13.30    1.20
   4   5 -13   14.20    1.40
  -4   5  13   13.90    1.50
   4   5 -13   13.50    1.20
  -4   5  13   12.70    0.80
  -4   5  13   13.20    0.60
  -4   5  13   12.70    1.20
   4   5 -13   13.80    1.40
  -4   5  13   13.10    0.60
   4   5 -13   11.40    1.30
  -3  -5  13    8.10    1.10
  -3  -5  13   11.10    1.30
  -3   5  13   10.30    0.70
  -3   5  13   11.60    1.10
  -3   5  13   12.70    1.30
   3   5 -13   10.90    1.10
   3   5 -13   10.50    1.20
   3   5 -13   10.70    1.30
   3   5 -13   10.10    1.20
  -3   5  13   11.50    0.90
  -3   5  13   10.80    1.00
  -2  -5  13    1.10    0.70
  -2  -5  13    2.10    0.70
   2   5 -13    2.20    0.70
  -2   5  13    3.00    0.70
   2   5 -13    2.20    0.60
   2   5 -13    1.60    0.70
   2   5 -13    2.20    0.70
   2   5 -13    2.50    0.80
  -2   5  13    2.00    0.60
  -2   5  13    2.30    0.60
  -2   5  13    1.60    0.70
  -1  -5  13   10.90    1.30
  -1  -5  13   11.40    1.40
  -1  -5  13   12.80    1.50
   1   5 -13   11.70    1.20
   1   5 -13   12.70    1.20
   1   5 -13   11.30    1.00
  -1   5  13   11.80    1.30
   1   5 -13   11.60    1.50
   1   5 -13   12.00    1.40
   1   5 -13    9.90    1.30
  -1   5  13   11.70    0.90
  -1   5  13   11.70    1.20
  -1   5  13   12.90    1.30
   0  -5  13   -0.30    0.60
   0  -5  13    0.30    0.70
   0  -5  13    0.80    0.70
   0   5  13   -0.10    0.50
   0   5  13    0.50    0.30
   0   5  13    0.30    0.60
   0   5 -13   -0.60    0.60
   0   5 -13    0.30    0.50
   0   5 -13   -0.10    0.60
   0   5 -13    0.20    0.60
   0   5 -13    0.00    0.50
   0   5 -13   -0.10    0.60
   0   5  13   -0.10    0.50
   1  -5  13    5.20    1.30
   1  -5  13    2.70    0.80
   1   5  13    5.10    0.70
   1   5  13    2.70    0.80
   1   5  13    4.10    0.90
  -1   5 -13    3.60    0.70
  -1   5 -13    3.80    0.90
  -1   5 -13    2.40    0.90
  -1   5 -13    2.90    0.70
   1   5  13    6.40    1.10
  -1   5 -13    6.20    1.50
  -2   5 -13   10.30    1.50
  -2   5 -13    6.30    0.90
   2   5  13    9.00    0.90
  -2   5 -13    7.70    1.00
  -2   5 -13   10.10    1.20
   2   5  13   10.10    1.20
  -6  -6  13    0.10    0.50
  -6  -6  13    0.20    0.70
  -6   6  13    0.50    0.40
  -6   6  13    0.10    0.50
   6   6 -13    0.30    0.80
  -6   6  13    0.70    0.50
  -5  -6  13    9.80    1.40
  -5  -6  13    8.50    1.30
  -5  -6  13    8.80    1.20
  -5   6  13    8.40    1.00
  -5   6  13    6.90    0.70
   5   6 -13    7.50    1.00
   5   6 -13    8.60    1.30
  -5   6  13    8.80    1.40
  -5   6  13    9.30    1.20
  -4  -6  13   40.50    2.40
  -4  -6  13   42.90    2.40
  -4  -6  13   42.70    2.30
  -4   6  13   43.00    2.10
  -4   6  13   39.70    1.90
  -4   6  13   41.60    1.40
  -4   6  13   44.80    2.40
  -4   6  13   40.10    1.40
   4   6 -13   46.10    2.50
   4   6 -13   45.10    2.50
   4   6 -13   45.50    2.10
  -3  -6  13    2.90    0.80
  -3  -6  13    2.00    0.80
  -3   6  13    2.60    0.60
  -3   6  13    3.00    0.70
  -3   6  13    2.90    0.40
   3   6 -13    2.90    0.80
   3   6 -13    1.50    0.80
  -3   6  13    1.60    0.60
  -3   6  13    1.90    0.70
   3   6 -13    0.40    0.80
  -2  -6  13   21.20    1.80
  -2  -6  13   18.30    1.60
   2   6 -13   19.80    1.60
  -2   6  13   21.40    1.40
   2   6 -13   19.10    1.30
  -2   6  13   19.40    1.50
   2   6 -13   22.10    1.80
   2   6 -13   21.80    1.70
  -2   6  13   19.40    1.50
  -2   6  13   19.80    1.20
   2   6 -13   20.00    1.60
  -1  -6  13    3.20    1.10
  -1  -6  13    3.70    1.10
  -1  -6  13    4.00    0.90
  -1   6  13    4.20    0.60
   1   6 -13    3.70    0.90
   1   6 -13    3.50    0.90
   1   6 -13    3.50    0.80
  -1   6  13    1.60    0.70
   1   6 -13    1.90    0.60
   1   6 -13    4.80    1.10
  -1   6  13    1.90    0.70
  -1   6  13    3.70    0.90
   0  -6  13    9.60    1.40
   0   6 -13    6.10    0.80
   0   6 -13    5.70    1.10
   0   6  13   10.30    1.30
   0   6  13    6.60    0.50
   0   6 -13    6.30    1.00
   0   6 -13    9.50    1.30
   0   6  13    7.70    1.00
   0   6 -13    6.40    1.00
   0   6  13    6.40    1.00
   1   6  13    1.30    0.50
   1   6  13    0.50    0.60
   1   6  13    1.60    0.80
  -1   6 -13    0.80    0.60
  -1   6 -13    0.00    0.70
  -1   6 -13    0.20    0.50
  -1   6 -13    1.20    0.80
  -2   6 -13    8.90    1.50
   2   6  13   11.10    1.30
  -2   6 -13    9.10    1.30
   2   6  13    9.50    1.00
  -5  -7  13   12.60    1.50
  -5  -7  13   12.80    1.60
  -5   7  13   11.40    1.00
  -5   7  13   11.50    0.80
   5   7 -13   13.20    1.60
  -5   7  13   10.70    1.00
  -4  -7  13   15.70    1.70
  -4  -7  13   13.40    1.50
  -4  -7  13   17.20    1.70
  -4   7  13   15.60    1.40
   4   7 -13   17.00    1.80
  -4   7  13   16.00    0.80
  -4   7  13   14.90    1.20
  -4   7  13   15.30    0.90
  -4   7  13   15.20    1.50
  -3  -7  13   20.50    1.80
  -3  -7  13   15.40    1.50
  -3   7  13   17.60    1.50
  -3   7  13   17.00    1.20
  -3   7  13   15.50    1.30
  -3   7  13   16.30    1.30
   3   7 -13   18.80    1.80
   3   7 -13   18.90    1.80
  -2  -7  13   14.10    1.50
  -2  -7  13   15.00    1.80
  -2   7  13   12.40    1.20
  -2   7  13   13.60    1.10
  -2   7  13   12.30    1.10
   2   7 -13   14.40    1.50
   2   7 -13   13.50    1.60
  -2   7  13   14.40    1.40
  -1   7  13    4.20    0.60
   1   7 -13    5.50    1.20
  -1   7  13    4.70    0.80
  -1   7  13    2.70    0.70
  -1   7  13    2.80    0.70
   1   7 -13    3.90    1.10
   0   7  13    3.80    0.40
   0   7  13    3.40    0.90
   0   7 -13    2.50    1.00
   0   7  13    3.80    0.80
   0   7  13    2.10    0.70
   0   7  13    3.30    0.40
   7   0 -14    0.20    0.50
  -7   0  14    0.20    0.60
  -7   0  14    0.60    0.60
   6   0 -14    5.60    0.80
  -6   0  14    4.40    0.80
  -6   0  14    6.40    1.00
  -6   0  14    6.90    1.20
   6   0 -14    5.40    1.40
  -5   0  14   18.10    1.30
  -5   0  14   16.80    1.40
   5   0 -14   20.20    1.50
  -5   0  14   17.40    1.30
   5   0 -14   19.30    1.20
  -5   0  14   14.70    1.60
   5   0 -14   17.70    1.20
   4   0 -14   12.60    1.20
  -4   0  14    9.80    1.30
  -4   0  14   12.60    1.10
  -4   0  14   11.40    0.80
   4   0 -14   11.30    1.00
  -4   0  14   12.50    1.20
   4   0 -14   11.10    0.90
  -3   0  14    0.10    0.40
   3   0 -14    0.80    0.40
  -3   0  14    0.20    0.50
  -3   0  14    0.60    0.50
   3   0 -14    0.20    0.50
   3   0 -14    0.50    0.40
  -3   0  14    0.00    0.50
   2   0 -14    0.20    0.40
   2   0 -14    0.10    0.40
  -2   0  14   -0.50    0.40
  -2   0  14    0.00    0.40
  -2   0  14    0.50    0.60
   2   0 -14   -0.50    0.30
   1   0 -14   24.80    1.30
  -1   0  14   26.00    1.40
  -1   0  14   22.70    1.70
  -1   0  14   21.50    1.70
  -1   0  14   22.60    1.50
   1   0 -14   23.60    1.30
   1   0 -14   25.60    1.30
  -1   0  14   23.80    1.40
   0   0 -14   15.50    1.10
   0   0  14   15.10    1.20
   0   0 -14   17.00    1.00
   0   0 -14   15.60    1.10
   0   0  14   14.60    1.40
   0   0  14   15.00    1.70
   0   0  14   16.40    1.50
   0   0 -14   14.70    1.60
  -1   0 -14   11.40    1.00
  -1   0 -14   10.60    0.70
  -1   0 -14   10.90    1.40
   1   0  14   12.60    1.40
   1   0  14   11.40    1.20
   1   0  14   13.70    1.50
   1   0  14    7.00    1.10
  -1   0 -14   13.00    1.10
  -2   0 -14    4.20    0.40
  -2   0 -14    3.60    0.80
   7  -1 -14   12.10    1.10
  -7  -1  14   13.70    1.40
   7   1 -14   14.10    1.20
  -7   1  14   12.70    1.20
  -7   1  14   14.90    1.30
  -7   1  14   13.70    1.40
  -6  -1  14   31.30    2.20
   6  -1 -14   36.80    2.70
   6  -1 -14   34.50    1.60
  -6  -1  14   35.50    1.90
  -6  -1  14   33.50    1.90
  -6   1  14   30.90    1.70
  -6   1  14   44.60    3.10
  -6   1  14   33.50    2.10
  -6   1  14   33.70    1.70
  -5  -1  14    8.70    1.20
  -5  -1  14    9.20    0.50
  -5  -1  14   10.20    1.10
   5  -1 -14    7.80    0.80
  -5  -1  14    9.60    1.10
   5  -1 -14    9.90    1.20
  -5  -1  14    8.90    1.20
   5  -1 -14    8.80    0.90
  -5   1  14    8.80    0.90
  -5   1  14    9.80    1.40
   5   1 -14   11.10    1.30
  -5   1  14    9.30    1.00
   5   1 -14   11.50    1.10
  -5   1  14    7.70    1.00
  -4  -1  14    3.70    1.00
   4  -1 -14    4.30    0.80
  -4  -1  14    2.90    0.70
  -4  -1  14    4.10    0.60
   4  -1 -14    3.70    0.60
  -4  -1  14    3.90    0.80
   4  -1 -14    2.60    0.50
   4   1 -14    2.60    0.60
  -4   1  14    3.60    0.40
   4   1 -14    3.60    0.80
   4   1 -14    2.70    0.70
  -4   1  14    3.30    0.40
  -4   1  14    3.30    0.70
  -4   1  14    1.70    0.60
  -4   1  14    3.40    0.90
   3  -1 -14   11.10    0.80
   3  -1 -14   13.00    0.90
  -3  -1  14   12.40    1.20
  -3  -1  14   10.30    1.30
   3  -1 -14   11.30    1.10
  -3  -1  14   10.80    1.10
  -3  -1  14   12.10    1.00
   3   1 -14   11.80    1.00
  -3   1  14    9.50    1.30
   3   1 -14   12.60    1.10
  -3   1  14   13.90    1.10
   3   1 -14    9.70    1.00
  -3   1  14   12.50    1.10
  -3   1  14   11.80    0.90
   2  -1 -14   12.00    1.00
  -2  -1  14   12.10    1.10
  -2  -1  14   13.30    1.20
   2  -1 -14   13.00    0.90
   2  -1 -14   11.60    0.80
  -2  -1  14   10.50    1.30
   2   1 -14   11.40    1.00
  -2   1  14   12.40    1.10
   2   1 -14   13.20    1.10
  -2   1  14   12.20    1.00
  -2   1  14   13.80    1.40
   2   1 -14   11.10    1.00
  -1  -1  14   18.40    1.30
  -1  -1  14   18.80    1.40
   1  -1 -14   17.70    1.10
   1  -1 -14   16.90    1.00
  -1  -1  14   19.10    1.60
   1  -1 -14   16.10    1.10
   1   1 -14   15.40    1.10
  -1   1  14   18.30    1.60
  -1   1  14   16.10    1.60
   1   1 -14   17.60    1.20
  -1   1  14   15.60    1.10
   1   1 -14   17.20    1.20
  -1   1  14   17.70    1.30
   0  -1  14   16.40    1.50
   0  -1 -14   14.90    0.90
   0  -1 -14   17.30    1.00
   0  -1  14   14.30    1.50
   0  -1 -14   15.10    1.60
   0  -1  14   15.10    1.60
   0  -1  14   16.50    1.30
   0  -1 -14   15.20    1.10
   0   1  14   17.70    1.60
   0   1  14   15.00    1.10
   0   1 -14   16.70    1.30
   0   1 -14   17.20    1.80
   0   1 -14   16.50    1.10
   0   1  14   17.70    1.40
   0   1 -14   16.90    1.20
   1  -1  14    7.70    1.60
  -1  -1 -14   10.10    0.60
  -1  -1 -14   10.70    0.90
  -1  -1 -14   12.00    1.60
   1  -1  14    9.90    1.30
  -1  -1 -14    9.50    0.90
   1  -1  14   10.70    1.50
   1  -1  14   10.30    1.50
  -1   1 -14    9.20    0.80
   1   1  14    7.10    1.30
   1   1  14    8.90    1.00
   1   1  14   11.50    1.50
  -1   1 -14    9.20    1.40
  -2  -1 -14    0.80    0.50
  -2   1 -14    0.90    0.60
  -2   1 -14    1.00    0.40
  -3  -1 -14    5.50    0.90
  -3   1 -14    4.50    0.90
  -3   1 -14    5.00    0.40
  -3   1 -14    5.70    0.50
  -3   1 -14    4.10    0.40
  -7  -2  14   27.30    1.90
   7  -2 -14   26.60    1.40
   7   2 -14   26.50    1.20
  -7   2  14   24.70    1.80
  -7   2  14   24.10    1.50
   7   2 -14   29.60    1.70
  -7   2  14   26.80    1.60
  -6  -2  14   11.40    1.30
   6  -2 -14   10.70    0.90
  -6  -2  14   16.20    1.40
   6   2 -14    8.80    1.10
   6   2 -14   11.20    0.80
  -6   2  14   11.00    1.30
  -6   2  14   12.80    1.10
  -6   2  14   10.30    1.00
  -5  -2  14    3.30    0.80
  -5  -2  14    3.90    0.50
  -5  -2  14    3.50    0.80
  -5  -2  14    4.80    0.90
   5  -2 -14    3.20    0.80
   5  -2 -14    3.60    0.60
  -5  -2  14    4.60    1.00
   5  -2 -14    2.80    0.50
  -5   2  14    4.00    0.90
  -5   2  14    4.30    0.70
   5   2 -14    3.20    0.40
  -5   2  14    2.30    0.70
   5   2 -14    2.80    0.80
   5   2 -14    3.10    0.70
   5   2 -14    3.10    0.80
   5   2 -14    3.30    0.40
  -4  -2  14    1.40    0.60
  -4  -2  14    2.20    0.80
   4  -2 -14    3.70    0.50
   4  -2 -14    2.50    0.40
  -4  -2  14    2.60    0.80
  -4  -2  14    2.40    0.60
  -4  -2  14    2.40    0.70
   4  -2 -14    3.10    0.70
   4   2 -14    2.50    0.40
   4   2 -14    2.40    0.60
  -4   2  14    1.90    0.70
  -4   2  14    3.70    0.70
  -4   2  14    2.40    0.60
  -4   2  14    3.10    0.30
  -4   2  14    2.60    0.30
   4   2 -14    2.30    0.60
   4   2 -14    2.10    0.70
   4   2 -14    2.40    0.40
   3  -2 -14    0.10    0.50
  -3  -2  14    0.50    0.60
   3  -2 -14    0.50    0.30
  -3  -2  14    0.10    0.50
  -3  -2  14    0.60    0.60
   3  -2 -14    1.00    0.30
  -3  -2  14    0.00    0.50
  -3   2  14    0.20    0.40
  -3   2  14    0.80    0.40
  -3   2  14    0.60    0.50
   3   2 -14    0.40    0.50
   3   2 -14    0.40    0.30
   3   2 -14    1.00    0.30
   3   2 -14    1.00    0.50
  -3   2  14    1.00    0.60
  -3   2  14    1.10    0.40
   3   2 -14    0.80    0.50
   2  -2 -14    1.40    0.30
   2  -2 -14    2.00    0.50
  -2  -2  14    1.70    0.60
  -2  -2  14    1.50    0.80
  -2  -2  14    2.60    0.70
   2  -2 -14    1.30    0.40
  -2   2  14    0.30    0.60
   2   2 -14    0.80    0.50
   2   2 -14    1.00    0.30
  -2   2  14    0.90    0.70
  -2   2  14    1.80    0.60
   2   2 -14    1.00    0.50
   2   2 -14    1.20    0.30
   2   2 -14    0.80    0.50
  -2   2  14    2.10    0.60
   1  -2 -14   32.40    1.30
  -1  -2  14   32.70    1.80
   1  -2 -14   32.50    1.20
  -1  -2  14   31.10    1.90
   1  -2 -14   29.70    1.40
  -1  -2  14   31.60    2.00
  -1   2  14   31.10    1.50
  -1   2  14   31.40    2.00
   1   2 -14   31.40    1.10
   1   2 -14   34.30    2.20
   1   2 -14   33.60    1.60
   1   2 -14   32.30    1.70
   1   2 -14   31.20    1.20
   1   2 -14   33.40    1.80
  -1   2  14   32.10    2.00
   0  -2  14    4.70    1.00
   0  -2  14    4.60    1.00
   0  -2  14    4.80    1.00
   0  -2  14    4.70    0.90
   0  -2 -14    4.60    0.60
   0  -2 -14    5.20    0.60
   0   2 -14    5.40    0.50
   0   2 -14    4.70    0.50
   0   2 -14    4.70    0.80
   0   2 -14    4.50    0.70
   0   2  14    4.30    0.90
   0   2  14    6.30    0.70
   0   2 -14    5.70    1.20
   0   2 -14    5.00    0.90
   0   2  14    3.80    0.90
   1  -2  14   18.80    1.70
  -1  -2 -14   17.30    1.10
  -1  -2 -14   17.50    1.00
  -1  -2 -14   19.20    1.80
   1   2  14   18.20    1.20
   1   2  14   17.60    1.60
  -1   2 -14   17.00    1.10
  -1   2 -14   17.00    0.90
  -1   2 -14   17.60    1.00
  -1   2 -14   18.90    1.50
  -2  -2 -14    3.70    0.70
  -2   2 -14    2.50    0.70
  -2   2 -14    2.00    0.40
  -2   2 -14    2.60    0.50
  -2   2 -14    2.20    0.50
  -3  -2 -14   17.60    1.40
  -3   2 -14   16.80    1.60
  -3   2 -14   20.60    1.20
  -3   2 -14   18.70    1.00
  -3   2 -14   20.10    1.00
   7  -3 -14    1.00    0.50
  -7  -3  14    1.10    0.80
  -7   3  14    2.70    0.60
   7   3 -14    1.80    0.60
   7   3 -14    0.60    0.70
  -7   3  14    0.50    0.60
  -7   3  14    1.60    0.60
  -6  -3  14    8.80    1.20
   6  -3 -14    9.30    0.70
  -6   3  14   11.40    1.30
  -6   3  14    9.70    0.80
   6   3 -14    8.90    1.20
   6   3 -14    8.80    0.90
  -6   3  14   10.00    1.00
  -5  -3  14   12.30    1.70
  -5  -3  14   13.60    1.40
   5  -3 -14   13.50    0.70
   5  -3 -14   13.10    0.70
  -5  -3  14   13.00    1.00
  -5  -3  14   15.00    2.20
  -5  -3  14   15.30    1.40
   5   3 -14   10.30    1.30
   5   3 -14   14.90    1.00
  -5   3  14   15.10    1.70
  -5   3  14   12.60    1.30
  -5   3  14   13.10    1.00
   5   3 -14   14.00    1.30
  -4  -3  14    0.30    0.60
  -4  -3  14    1.20    0.60
  -4  -3  14    1.20    0.70
  -4  -3  14    0.00    0.60
  -4  -3  14    0.50    0.50
   4   3 -14    0.60    0.40
   4   3 -14    1.50    0.60
  -4   3  14    1.90    0.80
   4   3 -14    0.90    0.60
  -4   3  14    0.90    0.50
   4   3 -14    0.90    0.40
  -4   3  14    1.10    0.50
   4   3 -14    0.60    0.60
  -3  -3  14    8.60    1.10
  -3  -3  14    9.50    1.10
  -3  -3  14    9.30    1.40
  -3  -3  14    9.00    1.20
  -3   3  14    8.60    0.80
   3   3 -14    8.90    0.80
  -3   3  14    8.30    1.00
  -3   3  14    8.20    1.10
   3   3 -14   11.30    1.20
   3   3 -14   10.20    1.20
   3   3 -14    9.80    0.80
  -3   3  14    8.80    0.80
   3   3 -14    8.20    1.00
  -3   3  14    6.90    1.10
  -3   3  14    8.50    0.80
  -2  -3  14    2.50    0.90
  -2  -3  14    1.60    0.70
  -2   3  14    1.70    0.50
  -2   3  14    1.00    0.60
   2   3 -14    1.20    0.40
   2   3 -14    2.70    0.70
   2   3 -14    2.30    0.70
   2   3 -14    1.60    0.50
  -2   3  14    1.60    0.70
   2   3 -14    1.60    0.70
  -2   3  14    3.50    0.60
  -1  -3  14   11.00    1.30
  -1  -3  14    6.80    1.10
  -1  -3  14    9.60    1.20
   1   3 -14    9.10    1.10
   1   3 -14   10.20    0.80
   1   3 -14   11.00    1.10
   1   3 -14    8.90    1.30
  -1   3  14    9.30    0.80
   1   3 -14    9.90    1.10
   1   3 -14    9.50    0.90
  -1   3  14    8.70    1.20
  -1   3  14    6.80    1.00
   0  -3  14    9.50    1.20
   0  -3  14   13.10    1.40
   0  -3 -14   14.00    0.70
   0  -3  14   13.80    1.50
   0  -3  14   15.70    1.80
   0  -3 -14   14.10    0.60
   0   3 -14   13.60    1.40
   0   3 -14   16.60    1.80
   0   3  14   11.90    1.40
   0   3 -14   13.90    1.30
   0   3 -14   12.80    0.90
   0   3 -14   13.70    1.10
   0   3  14   14.20    1.40
   0   3 -14   13.00    1.00
  -1  -3 -14    4.80    0.60
   1  -3  14    5.10    1.10
  -1  -3 -14    7.10    1.20
  -1  -3 -14    4.70    0.50
  -1   3 -14    4.60    0.80
   1   3  14    4.90    0.60
  -1   3 -14    4.70    0.60
   1   3  14    4.50    1.00
  -1   3 -14    4.70    0.70
  -1   3 -14    4.40    0.90
  -2  -3 -14    5.00    1.30
  -2  -3 -14    4.30    0.70
  -2   3 -14    5.50    0.70
  -2   3 -14    5.50    1.10
   2   3  14    6.30    1.70
  -2   3 -14    4.90    0.80
  -2   3 -14    5.70    0.70
  -6  -4  14    2.30    0.80
  -6  -4  14    2.60    0.50
  -6   4  14    3.70    0.80
   6   4 -14    3.10    0.60
  -6   4  14    2.50    0.60
   6   4 -14    3.30    0.90
  -5  -4  14    8.50    1.30
  -5  -4  14    8.70    1.00
   5   4 -14    7.00    0.80
  -5   4  14    7.50    1.10
   5   4 -14    9.70    1.20
  -5   4  14    8.20    0.90
  -4  -4  14    5.80    1.00
  -4  -4  14    5.40    1.00
  -4  -4  14    6.90    1.00
  -4  -4  14    6.50    1.10
  -4  -4  14    7.50    1.10
  -4   4  14    5.30    0.90
   4   4 -14    5.80    1.00
  -4   4  14    5.90    0.70
   4   4 -14    6.00    0.70
   4   4 -14    5.20    0.90
  -4   4  14    4.50    0.80
  -4   4  14    7.10    1.20
   4   4 -14    7.30    1.50
  -3  -4  14    6.90    1.10
  -3  -4  14    5.40    1.10
  -3  -4  14    5.50    1.00
   3   4 -14    4.30    0.60
  -3   4  14    5.40    0.70
  -3   4  14    3.20    0.70
   3   4 -14    6.40    1.00
  -3   4  14    3.50    0.70
  -3   4  14    4.20    0.90
  -3   4  14    7.10    0.80
  -3   4  14    4.80    0.60
   3   4 -14    5.40    0.70
   3   4 -14    4.90    0.90
   3   4 -14    5.00    0.90
  -2  -4  14   31.90    2.00
  -2  -4  14   32.80    2.10
   2   4 -14   29.80    1.50
   2   4 -14   33.50    1.60
   2   4 -14   30.50    1.90
  -2   4  14   31.00    1.60
  -2   4  14   30.90    1.60
  -2   4  14   30.20    1.90
   2   4 -14   32.90    1.90
   2   4 -14   31.10    1.90
  -2   4  14   28.90    2.00
  -1  -4  14    0.80    0.70
  -1  -4  14   -0.30    0.60
  -1  -4  14   -0.40    0.60
   1   4 -14    0.10    0.60
   1   4 -14    0.10    0.40
   1   4 -14    0.20    0.50
  -1   4  14    0.40    0.60
   1   4 -14    0.30    0.60
   1   4 -14    0.30    0.50
  -1   4  14    1.20    0.70
   1   4 -14    1.40    0.80
  -1   4  14    0.60    0.50
  -1   4  14    0.10    0.30
   0  -4  14    4.30    1.10
   0   4  14    3.50    0.80
   0   4 -14    3.60    0.80
   0   4  14    4.40    0.90
   0   4  14    4.20    0.80
   0   4 -14    3.30    0.60
   0   4 -14    3.80    0.90
   0   4 -14    6.30    0.90
   1   4  14    1.00    0.70
  -1   4 -14    0.20    0.60
  -1   4 -14    0.30    0.70
  -1   4 -14   -0.20    0.50
  -1   4 -14    0.50    0.50
  -2  -4 -14    5.70    0.60
  -2  -4 -14    5.50    1.10
  -2   4 -14    4.10    0.70
  -2   4 -14    6.30    0.90
  -2   4 -14    4.60    0.90
   2   4  14    5.10    1.10
  -2   4 -14    5.60    1.20
  -6  -5  14    1.70    0.60
  -6  -5  14    1.20    0.80
  -6   5  14    1.60    0.50
  -6   5  14    1.40    0.60
   6   5 -14    0.30    0.60
  -6   5  14    0.90    0.50
   6   5 -14    1.90    0.90
  -5  -5  14   24.80    1.60
  -5  -5  14   25.20    1.90
   5   5 -14   26.40    1.60
  -5   5  14   23.30    1.60
  -5   5  14   24.70    1.30
  -5   5  14   27.90    2.40
   5   5 -14   25.40    1.80
  -4  -5  14    5.50    1.00
  -4   5  14    4.40    0.80
  -4   5  14    4.30    0.80
  -4   5  14    3.10    0.80
   4   5 -14    3.00    0.90
   4   5 -14    5.60    0.80
  -4   5  14    4.90    0.60
  -3  -5  14    1.20    0.70
  -3  -5  14    0.40    0.70
   3   5 -14    0.20    0.50
  -3   5  14    0.50    0.40
   3   5 -14    1.00    0.60
  -3   5  14    0.70    0.30
   3   5 -14    0.00    0.70
  -3   5  14    1.00    0.50
  -3   5  14    1.30    0.60
  -3   5  14    0.30    0.50
   3   5 -14    0.70    0.70
  -2  -5  14    8.10    1.30
  -2  -5  14    5.90    1.50
   2   5 -14    7.40    1.00
   2   5 -14    5.30    0.80
  -2   5  14    7.80    1.00
  -2   5  14    6.70    1.00
  -2   5  14    7.70    1.20
  -2   5  14    6.10    0.80
   2   5 -14    6.60    1.20
   2   5 -14    6.40    1.10
  -1  -5  14    3.50    1.00
   1   5 -14    3.80    0.90
  -1   5  14    3.60    0.60
  -1   5  14    3.20    0.80
   1   5 -14    3.30    0.80
   1   5 -14    4.40    0.90
  -1   5  14    1.50    0.70
   1   5 -14    1.90    0.60
  -1   5  14    2.90    0.70
   0   5  14    3.70    0.90
   0   5 -14    3.10    0.80
   0   5 -14    3.00    0.60
   0   5 -14    3.30    0.80
   0   5  14    3.10    0.80
   0   5 -14    1.10    0.80
  -1   5 -14    9.40    1.20
  -1   5 -14    7.50    0.90
   1   5  14    8.20    1.20
  -1   5 -14    8.90    1.40
  -1   5 -14    9.00    1.20
  -5  -6  14    5.70    1.20
  -5  -6  14    6.30    1.00
   5   6 -14    3.60    1.00
   5   6 -14    5.80    1.00
  -5   6  14    4.90    0.60
  -5   6  14    6.10    0.90
  -4  -6  14   11.80    1.40
  -4   6  14   11.00    1.20
  -4   6  14   11.80    1.20
   4   6 -14   13.40    1.30
   4   6 -14    8.70    1.30
  -4   6  14   10.00    1.50
  -4   6  14   10.40    0.60
  -4   6  14   10.70    0.70
  -3  -6  14    1.40    0.90
  -3   6  14    0.80    0.30
  -3   6  14    0.40    0.50
  -3   6  14    0.60    0.70
   3   6 -14    1.60    0.90
   3   6 -14    0.10    0.60
  -3   6  14    0.40    0.50
  -3   6  14    0.70    0.60
   3   6 -14    1.00    0.60
  -2  -6  14    3.50    1.00
   2   6 -14    2.60    0.90
  -2   6  14    3.90    0.90
   2   6 -14    3.90    0.70
  -2   6  14    3.10    0.80
  -2   6  14    3.90    0.70
  -2   6  14    4.20    0.80
   2   6 -14    4.00    0.90
  -1   6  14   17.70    1.00
   1   6 -14   15.60    1.50
   1   6 -14   15.30    1.70
  -1   6  14   16.00    1.50
   1   6 -14   16.50    1.30
  -1   6  14   15.90    1.40
  -1   6  14   17.10    1.50
   0   6 -14    2.30    0.70
   0   6 -14    3.90    0.90
   0   6 -14    4.10    1.10
   0   6  14    2.80    0.80
   0   6  14    3.30    0.80
  -2   7  14    1.00    0.70
  -2   7  14    0.80    0.50
   2   7 -14    2.20    1.00
  -2   7  14    2.60    0.80
  -2   7  14    3.30    0.60
  -6   0  15    0.80    0.60
  -6   0  15    0.30    0.60
   6   0 -15    1.10    0.50
  -5   0  15    4.90    0.90
  -5   0  15    3.50    0.70
   5   0 -15    3.60    0.90
  -5   0  15    3.30    0.80
   5   0 -15    4.50    0.70
   4   0 -15    5.40    0.80
   4   0 -15    4.80    0.70
  -4   0  15    4.80    0.80
  -4   0  15    6.00    0.70
   4   0 -15    4.30    0.80
  -4   0  15    7.80    1.10
  -3   0  15    4.50    0.70
   3   0 -15    2.10    0.60
   3   0 -15    4.60    0.70
  -3   0  15    4.30    0.90
   3   0 -15    4.90    0.80
  -3   0  15    2.40    0.70
  -3   0  15    4.20    0.70
  -2   0  15    0.00    0.50
   2   0 -15   -0.40    0.30
   2   0 -15   -0.40    0.30
   2   0 -15    0.00    0.40
  -2   0  15   -0.40    0.40
  -2   0  15   -0.20    0.60
   1   0 -15    7.30    0.80
   1   0 -15    8.20    0.90
  -1   0  15    5.90    1.20
   1   0 -15    7.50    0.80
  -1   0  15    8.40    1.10
  -1   0  15    4.70    1.00
   0   0  15    0.10    0.60
   0   0 -15    0.30    0.40
   0   0 -15    0.10    0.30
   1   0  15    7.70    1.30
  -1   0 -15    6.50    0.90
  -1   0 -15    7.00    0.60
  -2   0 -15    3.40    0.80
   6  -1 -15    6.70    0.80
  -6  -1  15    7.10    1.00
  -6  -1  15    8.20    1.20
   6   1 -15    8.70    1.00
  -6   1  15    6.60    0.90
  -6   1  15    7.80    1.10
   5  -1 -15   13.80    1.40
  -5  -1  15   15.10    0.60
  -5  -1  15   15.00    1.30
   5  -1 -15   15.60    1.00
  -5  -1  15   16.40    1.40
  -5   1  15   14.30    1.40
  -5   1  15   15.80    1.30
   5   1 -15   15.40    1.20
   5   1 -15   13.10    1.70
  -4  -1  15    8.50    1.10
   4  -1 -15    9.00    1.10
  -4  -1  15    8.00    0.80
  -4  -1  15    7.60    1.00
   4  -1 -15    8.40    0.80
   4  -1 -15    7.90    0.80
   4   1 -15    5.90    0.80
  -4   1  15    8.30    1.00
  -4   1  15    7.40    0.60
  -4   1  15    8.30    0.60
  -4   1  15    7.20    1.00
   4   1 -15    8.70    1.10
  -3  -1  15    0.40    0.60
   3  -1 -15    0.60    0.40
   3  -1 -15    0.60    0.40
   3  -1 -15    1.10    0.50
  -3  -1  15   -0.40    0.50
  -3  -1  15    0.10    0.50
  -3  -1  15    1.60    0.80
  -3   1  15    0.30    0.50
  -3   1  15    1.20    0.60
   3   1 -15    0.50    0.50
  -3   1  15    0.40    0.70
   3   1 -15    1.10    0.60
  -3   1  15    0.10    0.40
   3   1 -15    1.00    0.50
   2  -1 -15    7.40    0.70
  -2  -1  15    7.60    0.90
  -2  -1  15    9.20    1.10
   2  -1 -15    7.60    0.90
  -2  -1  15    5.70    1.10
   2  -1 -15    7.20    0.70
  -2   1  15    8.70    1.00
   2   1 -15    7.30    0.90
  -2   1  15    7.20    1.10
  -2   1  15    8.70    1.00
   2   1 -15    7.70    0.90
   2   1 -15    7.10    0.90
  -1  -1  15   11.70    1.30
   1  -1 -15   13.80    1.00
   1  -1 -15   13.90    1.00
   1  -1 -15   12.90    0.90
   1   1 -15   14.10    1.20
  -1   1  15   15.40    1.10
   1   1 -15   13.80    1.10
  -1   1  15   16.10    1.40
  -1   1  15   14.10    1.50
   0  -1 -15    3.90    0.50
   0  -1 -15    4.20    0.70
   0  -1  15    5.70    1.00
   0   1 -15    3.40    0.70
   0   1 -15    3.00    0.60
   0   1  15    3.60    0.80
  -1  -1 -15   11.40    1.00
   1   1  15   12.80    1.50
  -1   1 -15   10.70    0.80
  -1   1 -15    8.20    1.00
  -2  -1 -15   12.40    1.20
  -2   1 -15   13.70    0.80
  -6  -2  15    8.60    1.20
   6  -2 -15    9.30    0.80
  -6   2  15   11.80    1.00
  -6   2  15   10.50    1.30
   6   2 -15   11.20    1.20
  -6   2  15   12.20    1.10
   6   2 -15   10.70    0.60
   6   2 -15   10.30    0.60
  -5  -2  15   12.70    0.80
   5  -2 -15   11.00    1.30
  -5  -2  15   10.30    1.20
  -5  -2  15   13.50    1.30
   5  -2 -15   11.10    0.80
  -5   2  15   11.80    1.30
   5   2 -15   11.90    1.10
   5   2 -15   11.30    0.50
  -5   2  15   11.40    1.10
   5   2 -15   11.40    0.50
  -4  -2  15    3.30    0.80
   4  -2 -15    4.00    0.50
   4  -2 -15    5.10    0.50
   4  -2 -15    4.20    0.80
  -4  -2  15    5.20    0.80
  -4  -2  15    3.40    0.80
   4   2 -15    4.60    0.70
  -4   2  15    4.90    0.50
  -4   2  15    5.00    0.90
  -4   2  15    4.70    0.70
  -4   2  15    4.80    0.40
   4   2 -15    4.90    0.90
   3  -2 -15    6.10    0.90
  -3  -2  15    5.60    0.90
  -3  -2  15    6.10    1.00
   3  -2 -15    5.50    0.50
   3  -2 -15    5.20    0.50
  -3  -2  15    5.00    0.90
  -3   2  15    6.00    1.00
  -3   2  15    5.00    0.70
  -3   2  15    6.40    1.20
  -3   2  15    5.60    0.70
  -3   2  15    4.80    0.80
  -3   2  15    5.90    0.80
   3   2 -15    3.60    0.80
  -2  -2  15    6.50    1.00
   2  -2 -15    6.70    0.80
   2  -2 -15    7.60    0.60
  -2  -2  15    7.10    1.00
   2  -2 -15    7.00    0.60
  -2   2  15    7.00    1.00
  -2   2  15    6.50    0.90
  -2   2  15    5.30    1.10
   2   2 -15    6.90    1.00
  -2   2  15    7.30    0.90
  -1  -2  15    8.40    1.20
   1  -2 -15   10.30    0.70
   1  -2 -15    8.00    0.60
   1   2 -15    9.60    0.40
   1   2 -15    7.10    0.90
  -1   2  15    9.60    0.90
  -1   2  15    8.40    1.20
  -1   2  15   10.20    1.20
  -1   2  15   10.60    1.40
   1   2 -15   11.20    1.00
   0  -2  15    7.20    1.20
   0  -2 -15    7.30    0.70
   0  -2 -15    8.20    0.80
   0   2 -15    7.10    0.50
   0   2 -15    7.20    0.90
   0   2  15    8.10    1.90
   0   2 -15    7.40    1.00
   0   2 -15    7.30    0.50
  -1  -2 -15    0.90    0.50
  -1   2 -15    1.40    0.50
  -1   2 -15    0.90    0.30
  -1   2 -15    1.20    0.30
  -1   2 -15    1.60    0.70
  -6  -3  15    3.60    0.90
   6  -3 -15    2.40    0.40
  -6   3  15    4.70    0.80
   6   3 -15    3.30    0.50
   6   3 -15    3.30    0.80
  -6   3  15    2.60    0.80
  -5  -3  15    9.30    1.20
  -5  -3  15   11.10    0.90
   5  -3 -15   10.70    0.50
   5   3 -15   11.70    0.80
   5   3 -15   11.40    1.30
   5   3 -15    9.50    0.80
  -5   3  15   11.40    1.00
  -5   3  15   12.80    1.50
  -4  -3  15    2.70    0.80
  -4  -3  15    3.20    0.70
   4   3 -15    3.20    0.50
   4   3 -15    3.50    0.50
  -4   3  15    3.10    0.80
  -4   3  15    3.30    0.80
  -4   3  15    3.70    0.70
   4   3 -15    4.50    0.90
  -3  -3  15    5.80    1.00
  -3  -3  15    5.70    1.00
   3   3 -15    5.40    0.90
  -3   3  15    5.60    0.90
   3   3 -15    5.40    0.60
  -3   3  15    7.10    0.80
  -3   3  15    7.00    0.80
  -3   3  15    5.60    0.70
  -3   3  15    6.80    1.10
   3   3 -15    6.60    1.00
   3   3 -15    6.90    0.70
  -3   3  15    4.10    1.00
  -2  -3  15    1.10    0.70
   2   3 -15    0.90    0.40
   2   3 -15    0.30    0.60
  -2   3  15    0.90    0.50
   2   3 -15    0.40    0.50
  -2   3  15   -0.30    0.50
  -2   3  15    1.00    0.70
   2   3 -15    0.80    0.40
  -2   3  15    0.90    0.50
  -2   3  15    1.20    0.50
  -1  -3  15    6.00    1.10
   1   3 -15    4.40    0.80
  -1   3  15    5.70    0.70
   1   3 -15    5.80    0.60
   1   3 -15    4.70    0.50
  -1   3  15    4.70    1.00
   1   3 -15    5.80    1.00
   0  -3  15    6.20    1.20
   0  -3 -15    5.60    0.40
   0   3 -15    5.30    0.60
   0   3 -15    6.50    1.00
   0   3 -15    5.00    0.60
   0   3  15    8.00    1.60
   0   3 -15    5.90    0.90
  -1  -3 -15    9.40    0.70
  -1   3 -15    9.40    1.00
  -1   3 -15    9.20    0.90
  -1   3 -15    8.90    1.20
  -1   3 -15    9.70    0.80
  -5  -4  15    2.80    0.70
  -5  -4  15    2.40    0.90
   5   4 -15    3.20    0.60
  -5   4  15    2.40    0.70
   5   4 -15    3.50    0.80
  -5   4  15    2.30    0.60
  -4  -4  15    8.90    1.10
   4   4 -15    9.30    0.90
  -4   4  15    7.40    0.80
  -4   4  15    7.10    1.00
  -4   4  15    6.20    1.00
   4   4 -15    6.10    0.70
   4   4 -15    7.50    1.20
  -3  -4  15   10.50    1.30
  -3   4  15    8.10    1.20
  -3   4  15    8.70    0.80
   3   4 -15    7.90    1.10
   3   4 -15    7.20    0.80
   3   4 -15    8.80    0.80
  -3   4  15    8.90    0.80
  -3   4  15   10.10    1.50
  -3   4  15    8.10    1.00
  -3   4  15    7.50    0.80
  -2  -4  15    8.40    1.20
   2   4 -15    6.50    1.00
  -2   4  15    5.40    0.90
  -2   4  15    9.30    1.30
  -2   4  15    6.00    0.80
  -2   4  15    7.30    0.90
   2   4 -15    7.10    0.80
   2   4 -15    4.80    1.00
   2   4 -15    8.40    0.80
  -1  -4  15   26.70    2.00
  -1   4  15   26.30    1.30
   1   4 -15   26.00    1.80
   1   4 -15   24.90    1.30
   1   4 -15   28.60    1.70
   1   4 -15   28.80    1.50
  -1   4  15   25.60    1.90
  -1   4  15   24.60    1.60
   0   4  15    2.00    1.10
   0   4  15    2.10    0.80
   0   4 -15    2.30    0.50
   0   4 -15    2.90    0.70
   0   4 -15    2.00    0.80
   0   4 -15    1.70    0.60
  -4  -5  15   39.90    2.20
   4   5 -15   36.80    2.30
  -4   5  15   38.60    1.60
   4   5 -15   39.20    1.80
  -4   5  15   40.80    2.10
  -4   5  15   39.80    2.10
   4   5 -15   40.70    1.90
  -3  -5  15   12.40    1.50
  -3   5  15   11.10    1.20
  -3   5  15   11.00    0.80
  -3   5  15   12.00    1.00
  -3   5  15    8.20    1.00
   3   5 -15   10.90    1.00
   3   5 -15   11.20    1.40
   3   5 -15   10.90    1.10
  -2  -5  15    7.40    1.20
  -2   5  15    6.40    1.10
   2   5 -15    7.10    1.00
  -2   5  15    7.00    0.90
  -2   5  15    5.70    1.00
   2   5 -15    7.20    0.90
   2   5 -15    5.50    1.10
  -2   5  15    6.40    0.90
  -1   5  15    1.90    0.50
   1   5 -15    1.00    0.80
  -1   5  15    0.50    0.50
   1   5 -15    1.90    0.70
   1   5 -15    1.30    0.50
  -1   5  15    1.50    0.70
  -5   0  16    0.50    0.60
   5   0 -16    0.70    0.50
   4   0 -16    7.40    0.90
   4   0 -16    7.10    1.00
  -4   0  16    8.30    0.80
  -4   0  16    7.90    1.10
  -4   0  16    6.70    1.00
   3   0 -16    0.30    0.50
  -3   0  16   -0.10    0.50
   3   0 -16    0.10    0.40
  -3   0  16   -0.30    0.40
  -3   0  16    0.10    0.50
  -2   0  16   29.70    1.70
   2   0 -16   28.20    1.50
   2   0 -16   28.50    1.60
  -2   0  16   27.20    1.70
   1   0 -16    0.20    0.40
   1   0 -16   -0.10    0.50
  -1   0  16    1.00    0.60
   0   0 -16   11.30    0.90
   0   0 -16   12.70    1.20
   0   0  16   13.40    1.50
  -5  -1  16   12.40    1.60
   5  -1 -16    8.50    0.80
   5   1 -16   10.20    1.00
  -5   1  16    9.30    1.10
  -4  -1  16   -0.20    0.60
   4  -1 -16    0.40    0.40
   4  -1 -16    0.90    0.70
  -4  -1  16    0.30    0.40
  -4   1  16    0.30    0.60
  -4   1  16    0.60    0.30
  -4   1  16    0.80    0.30
  -4   1  16    1.00    0.50
   4   1 -16    0.50    0.50
   4   1 -16    0.10    0.70
  -3  -1  16    1.80    0.70
   3  -1 -16    1.10    0.60
   3  -1 -16    2.40    0.50
  -3  -1  16    0.90    0.50
  -3   1  16    2.30    0.60
  -3   1  16    2.10    0.60
   3   1 -16    2.90    0.60
   3   1 -16    3.00    0.70
  -3   1  16    3.30    0.80
  -2  -1  16    0.10    0.60
   2  -1 -16    0.00    0.40
   2  -1 -16   -0.70    0.40
  -2  -1  16    0.40    0.50
  -2   1  16    0.10    0.50
   2   1 -16    0.90    0.50
  -2   1  16   -0.30    0.40
   2   1 -16    0.00    0.50
   1  -1 -16   52.89    2.00
   1  -1 -16   49.70    2.00
  -1  -1  16   49.80    2.50
   1   1 -16   47.10    2.10
  -1   1  16   49.50    2.40
   1   1 -16   48.70    2.20
   0  -1 -16    1.60    0.50
   0  -1  16    1.00    0.80
   0  -1 -16    1.20    0.40
   0   1  16    1.30    0.70
   0   1 -16    2.40    0.70
   0   1 -16    2.30    0.60
   5  -2 -16    6.20    0.60
  -5  -2  16    7.10    0.70
  -5   2  16    7.70    1.00
   4  -2 -16   -0.70    0.50
  -4  -2  16   -0.40    0.40
   4  -2 -16   -0.40    0.30
  -4   2  16   -0.50    0.40
  -4   2  16   -0.10    0.20
  -4   2  16    0.00    0.50
  -4   2  16   -0.10    0.20
   3  -2 -16   14.90    1.30
   3  -2 -16   14.40    0.70
   3  -2 -16   13.90    0.70
  -3  -2  16   13.70    1.30
  -3  -2  16   13.00    1.20
  -3   2  16   14.30    1.20
  -3   2  16   12.80    1.20
   3   2 -16   12.60    1.30
  -3   2  16   14.30    1.00
  -3   2  16   13.90    1.10
  -2  -2  16    8.70    1.20
   2  -2 -16    6.90    0.60
   2  -2 -16    7.20    0.50
  -2   2  16    7.40    0.90
  -2   2  16    8.40    1.00
   2   2 -16    8.10    1.00
   1  -2 -16    2.50    0.40
  -1  -2  16    3.10    0.90
   1   2 -16    2.40    0.70
  -1   2  16    2.60    0.70
  -1   2  16    1.70    0.60
   0  -2 -16    3.90    0.60
   0   2  16    4.00    0.90
   0   2 -16    4.40    0.70
  -4  -3  16   20.80    1.40
  -4   3  16   23.00    1.60
  -4   3  16   21.80    1.30
   4   3 -16   21.00    0.90
   4   3 -16   22.00    0.90
   4   3 -16   21.10    1.60
  -3  -3  16   11.30    1.30
   3   3 -16   10.00    0.60
   3   3 -16   12.60    1.30
   3   3 -16    9.30    0.60
  -3   3  16    9.70    0.90
  -3   3  16    8.70    0.90
  -3   3  16   11.60    1.10
  -2  -3  16   10.70    1.40
   2   3 -16   12.00    0.70
   2   3 -16   14.70    1.30
  -2   3  16   11.20    1.10
   2   3 -16   10.20    1.20
  -2   3  16   11.60    1.10
  -2   3  16   10.40    1.10
   2   3 -16   11.10    0.70
  -1  -3  16   24.50    1.90
   1   3 -16   21.20    0.90
  -1   3  16   21.70    1.20
   1   3 -16   22.10    1.50
   1   3 -16   21.10    0.90
  -1   3  16   19.10    1.60
   1   3 -16   19.30    1.60
  -3  -4  16    6.40    1.10
   3   4 -16    5.20    0.70
   3   4 -16    3.30    0.60
  -3   4  16    3.80    0.70
   3   4 -16    5.40    1.00
  -3   4  16    5.60    0.70
  -3   4  16    4.90    0.70
  -2  -4  16    2.50    0.90
  -2   4  16    2.40    0.60
   2   4 -16    1.80    0.50
  -2   4  16    3.20    0.70
  -2   4  16    2.20    0.70
   2   4 -16    2.40    0.60
   2   4 -16    2.70    0.80
   3   0 -17   -0.70    0.50
  -3   0  17   -0.30    0.40
  -3   0  17    0.90    0.50
   3   0 -17    0.10    0.60
   0   0   0    0.00    0.00

_computing_structure_solution     'SHELXT 2014/5 (Sheldrick, 2014)'
;
_shelx_hkl_checksum              49914
loop_
_space_group_symop_operation_xyz
'x, y, z'
'-x, y+1/2, -z'
loop_
_atom_site_label
_atom_site_type_symbol
_atom_site_fract_x
_atom_site_fract_y
_atom_site_fract_z
_atom_site_U_iso_or_equiv
_atom_site_adp_type
_atom_site_occupancy
_atom_site_site_symmetry_order
_atom_site_calc_flag
_atom_site_refinement_flags_posn
_atom_site_refinement_flags_adp
_atom_site_refinement_flags_occupancy
_atom_site_disorder_assembly
_atom_site_disorder_group
O001 O 0.87253(16) 0.66881(16) 0.24700(9) 0.0374(3) Uani 1 1 d . . . . .
O2 O 0.4953(2) 0.31974(17) -0.07337(12) 0.0433(3) Uani 1 1 d . . . . .
O003 O 0.14219(18) 0.27013(18) -0.02817(11) 0.0443(3) Uani 1 1 d . . . . .
H3 H 0.170(6) 0.240(5) -0.093(3) 0.092(11) Uiso 1 1 d . . . . .
N004 N 0.3197(2) 0.56831(19) 0.31673(12) 0.0372(3) Uani 1 1 d . . . . .
H4 H 0.200(4) 0.596(3) 0.299(2) 0.053(7) Uiso 1 1 d . . . . .
O005 O 0.3468(2) 0.6560(3) 0.49810(13) 0.0607(4) Uani 1 1 d . . . . .
N6 N 0.74853(19) 0.62709(18) 0.40034(11) 0.0355(3) Uani 1 1 d . . . . .
C007 C 0.4735(2) 0.37628(19) 0.02915(13) 0.0323(3) Uani 1 1 d . . . . .
C008 C 0.3883(2) 0.49608(19) 0.22808(12) 0.0313(3) Uani 1 1 d . . . . .
C009 C 0.5796(2) 0.51503(18) 0.21300(12) 0.0296(3) Uani 1 1 d . . . . .
C00A C 0.2852(2) 0.35073(19) 0.04789(14) 0.0337(3) Uani 1 1 d . . . . .
C00B C 0.4217(2) 0.5909(2) 0.42950(14) 0.0370(3) Uani 1 1 d . . . . .
C00C C 0.6168(2) 0.45404(19) 0.11174(13) 0.0321(3) Uani 1 1 d . . . . .
H00C H 0.742332 0.466716 0.100246 0.038 Uiso 1 1 calc R U . . .
C00D C 0.7429(2) 0.60911(18) 0.28780(12) 0.0302(3) Uani 1 1 d . . . . .
C00E C 0.2456(2) 0.4120(2) 0.14625(14) 0.0362(3) Uani 1 1 d . . . . .
H00E H 0.120732 0.396796 0.158175 0.043 Uiso 1 1 calc R U . . .
C00F C 0.9157(2) 0.6552(2) 0.59666(13) 0.0366(3) Uani 1 1 d . . . . .
C00G C 0.6346(2) 0.5319(2) 0.46165(13) 0.0353(3) Uani 1 1 d . . . . .
H00G H 0.637069 0.423458 0.438359 0.042 Uiso 1 1 calc R U . . .
C00H C 0.7413(3) 0.5498(3) 0.59119(14) 0.0486(5) Uani 1 1 d . . . . .
H00A H 0.653066 0.594924 0.632559 0.058 Uiso 1 1 calc R U . . .
H00B H 0.786694 0.450232 0.625689 0.058 Uiso 1 1 calc R U . . .
C00I C 1.0747(3) 0.6714(3) 0.68655(16) 0.0472(4) Uani 1 1 d . . . . .
H00I H 1.174391 0.737819 0.677776 0.057 Uiso 1 1 calc R U . . .
C00J C 0.8893(3) 0.7305(2) 0.47971(14) 0.0387(3) Uani 1 1 d . . . . .
H00D H 0.834694 0.833806 0.478593 0.046 Uiso 1 1 calc R U . . .
H00F H 1.014539 0.736237 0.459436 0.046 Uiso 1 1 calc R U . . .
C00K C 0.6545(4) 0.3769(3) -0.1130(2) 0.0614(6) Uani 1 1 d . . . . .
H00H H 0.634168 0.349813 -0.193479 0.092 Uiso 1 1 calc R U . . .
H00J H 0.777073 0.332499 -0.067611 0.092 Uiso 1 1 calc R U . . .
H00K H 0.660636 0.487330 -0.104995 0.092 Uiso 1 1 calc R U . . .
C00L C 1.1058(4) 0.5912(3) 0.80089(19) 0.0616(6) Uani 1 1 d . . . . .
H00L H 1.029064 0.497582 0.790154 0.092 Uiso 1 1 calc R U . . .
H00M H 1.063945 0.657470 0.854317 0.092 Uiso 1 1 calc R U . . .
H00N H 1.244269 0.566805 0.831719 0.092 Uiso 1 1 calc R U . . .
loop_
_atom_site_aniso_label
_atom_site_aniso_U_11
_atom_site_aniso_U_22
_atom_site_aniso_U_33
_atom_site_aniso_U_23
_atom_site_aniso_U_13
_atom_site_aniso_U_12
O001 0.0288(5) 0.0551(7) 0.0287(5) 0.0045(5) 0.0088(4) -0.0082(5)
O2 0.0389(6) 0.0576(7) 0.0383(6) -0.0160(6) 0.0188(5) -0.0099(5)
O003 0.0330(6) 0.0650(8) 0.0369(6) -0.0166(6) 0.0128(5) -0.0115(5)
N004 0.0251(6) 0.0546(8) 0.0338(6) -0.0074(6) 0.0111(5) 0.0009(5)
O005 0.0481(7) 0.0937(12) 0.0439(7) -0.0233(8) 0.0184(6) 0.0059(8)
N6 0.0306(6) 0.0504(8) 0.0261(5) 0.0003(5) 0.0086(4) -0.0090(5)
C007 0.0290(6) 0.0397(7) 0.0303(7) -0.0023(6) 0.0115(5) 0.0004(5)
C008 0.0274(6) 0.0400(7) 0.0281(6) -0.0018(5) 0.0101(5) 0.0007(5)
C009 0.0246(6) 0.0372(7) 0.0272(6) 0.0001(5) 0.0075(5) 0.0001(5)
C00A 0.0285(6) 0.0419(8) 0.0313(7) -0.0038(6) 0.0092(5) -0.0025(6)
C00B 0.0332(7) 0.0475(8) 0.0335(7) -0.0057(6) 0.0146(6) -0.0045(6)
C00C 0.0255(6) 0.0415(7) 0.0309(6) -0.0012(6) 0.0105(5) -0.0003(5)
C00D 0.0246(6) 0.0402(7) 0.0262(6) 0.0032(5) 0.0078(5) 0.0002(5)
C00E 0.0255(6) 0.0519(9) 0.0332(7) -0.0058(6) 0.0114(5) -0.0054(6)
C00F 0.0370(7) 0.0447(8) 0.0282(6) -0.0029(6) 0.0091(5) 0.0007(6)
C00G 0.0317(7) 0.0479(8) 0.0280(6) 0.0026(6) 0.0113(5) -0.0057(6)
C00H 0.0426(9) 0.0758(13) 0.0269(7) 0.0063(8) 0.0088(6) -0.0116(9)
C00I 0.0459(9) 0.0563(11) 0.0341(8) -0.0029(8) 0.0021(7) -0.0081(8)
C00J 0.0392(8) 0.0464(8) 0.0297(7) -0.0023(6) 0.0078(6) -0.0092(6)
C00K 0.0597(12) 0.0835(16) 0.0530(11) -0.0229(11) 0.0358(10) -0.0238(12)
C00L 0.0678(14) 0.0701(14) 0.0364(9) 0.0047(9) -0.0035(9) -0.0016(11)
loop_
_atom_type_symbol
_atom_type_description
_atom_type_scat_dispersion_real
_atom_type_scat_dispersion_imag
_atom_type_scat_source
C C 0.0033 0.0016 'International Tables Vol C Tables 4.2.6.8 and 6.1.1.4'
H H 0.0000 0.0000 'International Tables Vol C Tables 4.2.6.8 and 6.1.1.4'
N N 0.0061 0.0033 'International Tables Vol C Tables 4.2.6.8 and 6.1.1.4'
O O 0.0106 0.0060 'International Tables Vol C Tables 4.2.6.8 and 6.1.1.4'
loop_
_geom_angle_atom_site_label_1
_geom_angle_atom_site_label_2
_geom_angle_atom_site_label_3
_geom_angle
_geom_angle_site_symmetry_1
_geom_angle_site_symmetry_3
_geom_angle_publ_flag
C007 O2 C00K 117.71(14) . . ?
C00A O003 H3 116(2) . . ?
C00B N004 C008 127.61(14) . . ?
C00B N004 H4 115.4(18) . . ?
C008 N004 H4 116.9(19) . . ?
C00D N6 C00J 123.24(13) . . ?
C00D N6 C00G 124.05(13) . . ?
C00J N6 C00G 112.25(12) . . ?
O2 C007 C00C 125.58(13) . . ?
O2 C007 C00A 114.96(13) . . ?
C00C C007 C00A 119.46(14) . . ?
C00E C008 C009 119.64(13) . . ?
C00E C008 N004 115.42(13) . . ?
C009 C008 N004 124.71(14) . . ?
C008 C009 C00C 118.04(13) . . ?
C008 C009 C00D 126.06(13) . . ?
C00C C009 C00D 115.54(12) . . ?
O003 C00A C00E 119.16(13) . . ?
O003 C00A C007 121.83(14) . . ?
C00E C00A C007 119.01(14) . . ?
O005 C00B N004 121.73(16) . . ?
O005 C00B C00G 123.61(16) . . ?
N004 C00B C00G 114.65(13) . . ?
C007 C00C C009 122.11(13) . . ?
C007 C00C H00C 118.9 . . ?
C009 C00C H00C 118.9 . . ?
O001 C00D N6 120.95(14) . . ?
O001 C00D C009 120.78(13) . . ?
N6 C00D C009 118.27(12) . . ?
C00A C00E C008 121.60(14) . . ?
C00A C00E H00E 119.2 . . ?
C008 C00E H00E 119.2 . . ?
C00I C00F C00J 124.67(17) . . ?
C00I C00F C00H 126.05(17) . . ?
C00J C00F C00H 109.11(13) . . ?
N6 C00G C00B 108.10(13) . . ?
N6 C00G C00H 105.33(13) . . ?
C00B C00G C00H 113.31(14) . . ?
N6 C00G H00G 110.0 . . ?
C00B C00G H00G 110.0 . . ?
C00H C00G H00G 110.0 . . ?
C00F C00H C00G 105.72(13) . . ?
C00F C00H H00A 110.6 . . ?
C00G C00H H00A 110.6 . . ?
C00F C00H H00B 110.6 . . ?
C00G C00H H00B 110.6 . . ?
H00A C00H H00B 108.7 . . ?
C00F C00I C00L 124.9(2) . . ?
C00F C00I H00I 117.6 . . ?
C00L C00I H00I 117.6 . . ?
N6 C00J C00F 103.02(13) . . ?
N6 C00J H00D 111.2 . . ?
C00F C00J H00D 111.2 . . ?
N6 C00J H00F 111.2 . . ?
C00F C00J H00F 111.2 . . ?
H00D C00J H00F 109.1 . . ?
O2 C00K H00H 109.5 . . ?
O2 C00K H00J 109.5 . . ?
H00H C00K H00J 109.5 . . ?
O2 C00K H00K 109.5 . . ?
H00H C00K H00K 109.5 . . ?
H00J C00K H00K 109.5 . . ?
C00I C00L H00L 109.5 . . ?
C00I C00L H00M 109.5 . . ?
H00L C00L H00M 109.5 . . ?
C00I C00L H00N 109.5 . . ?
H00L C00L H00N 109.5 . . ?
H00M C00L H00N 109.5 . . ?
loop_
_geom_bond_atom_site_label_1
_geom_bond_atom_site_label_2
_geom_bond_distance
_geom_bond_site_symmetry_2
_geom_bond_publ_flag
O001 C00D 1.2497(17) . ?
O2 C007 1.3632(18) . ?
O2 C00K 1.411(2) . ?
O003 C00A 1.3471(19) . ?
O003 H3 0.89(4) . ?
N004 C00B 1.354(2) . ?
N004 C008 1.4189(19) . ?
N004 H4 0.84(3) . ?
O005 C00B 1.222(2) . ?
N6 C00D 1.3412(18) . ?
N6 C00J 1.469(2) . ?
N6 C00G 1.4703(19) . ?
C007 C00C 1.374(2) . ?
C007 C00A 1.409(2) . ?
C008 C00E 1.395(2) . ?
C008 C009 1.4047(19) . ?
C009 C00C 1.4051(19) . ?
C009 C00D 1.485(2) . ?
C00A C00E 1.382(2) . ?
C00B C00G 1.519(2) . ?
C00C H00C 0.9300 . ?
C00E H00E 0.9300 . ?
C00F C00I 1.325(2) . ?
C00F C00J 1.505(2) . ?
C00F C00H 1.508(3) . ?
C00G C00H 1.530(2) . ?
C00G H00G 0.9800 . ?
C00H H00A 0.9700 . ?
C00H H00B 0.9700 . ?
C00I C00L 1.493(3) . ?
C00I H00I 0.9300 . ?
C00J H00D 0.9700 . ?
C00J H00F 0.9700 . ?
C00K H00H 0.9600 . ?
C00K H00J 0.9600 . ?
C00K H00K 0.9600 . ?
C00L H00L 0.9600 . ?
C00L H00M 0.9600 . ?
C00L H00N 0.9600 . ?
