#------------------------------------------------------------------------------
#$Date: 2020-10-04 06:44:07 +0300 (Sun, 04 Oct 2020) $
#$Revision: 257163 $
#$URL: file:///home/coder/svn-repositories/cod/cif/1/55/79/1557996.cif $
#------------------------------------------------------------------------------
#
# This file is available in the Crystallography Open Database (COD),
# http://www.crystallography.net/
#
# All data on this site have been placed in the public domain by the
# contributors.
#
data_1557996
loop_
_publ_author_name
'Van Den Broeck, Elias'
'Verbraeken, Bart'
'Dedecker, Karen'
'Cnudde, Pieter'
'Vanduyfhuys, Louis'
'Verstraelen, Toon'
'Van Hecke, Kristof'
'Jerca, Valentin Victor'
'Catak, Saron'
'Hoogenboom, Richard'
'Van Speybroeck, Veronique'
_publ_section_title
;
 Cation&#x2212;\p Interactions Accelerate the Living Cationic Ring-Opening
 Polymerization of Unsaturated 2-Alkyl-2-oxazolines
;
_journal_issue                   10
_journal_name_full               Macromolecules
_journal_page_first              3832
_journal_page_last               3846
_journal_paper_doi               10.1021/acs.macromol.0c00865
_journal_volume                  53
_journal_year                    2020
_chemical_formula_moiety         'C7 H9 N O'
_chemical_formula_sum            'C7 H9 N O'
_chemical_formula_weight         123.15
_space_group_crystal_system      monoclinic
_space_group_IT_number           14
_space_group_name_Hall           '-P 2ybc'
_space_group_name_H-M_alt        'P 1 21/c 1'
_atom_sites_solution_hydrogens   geom
_atom_sites_solution_primary     direct
_audit_creation_date             2017-03-15
_audit_creation_method
;
Olex2 1.2
(compiled Mar  2 2017 14:02:25 for OlexSys, GUI svn.r5324)
;
_cell_angle_alpha                90
_cell_angle_beta                 99.786(6)
_cell_angle_gamma                90
_cell_formula_units_Z            4
_cell_length_a                   4.0767(3)
_cell_length_b                   15.8073(10)
_cell_length_c                   10.3549(7)
_cell_measurement_reflns_used    3298
_cell_measurement_temperature    100.0(1)
_cell_measurement_theta_max      74.3500
_cell_measurement_theta_min      5.1180
_cell_volume                     657.58(8)
_computing_cell_refinement       'CrysAlisPro 1.171.38.41 (Rigaku OD, 2015)'
_computing_data_collection       'CrysAlisPro 1.171.38.41 (Rigaku OD, 2015)'
_computing_data_reduction        'CrysAlisPro 1.171.38.41 (Rigaku OD, 2015)'
_computing_molecular_graphics    'Olex2 (Dolomanov et al., 2009)'
_computing_publication_material  'Olex2 (Dolomanov et al., 2009)'
_computing_structure_refinement  'ShelXL (Sheldrick, 2015)'
_computing_structure_solution    'ShelXS (Sheldrick, 2008)'
_diffrn_ambient_environment      N~2~
_diffrn_ambient_temperature      100.0(1)
_diffrn_detector                 'CCD plate'
_diffrn_detector_area_resol_mean 10.4839
_diffrn_detector_type            Atlas
_diffrn_measured_fraction_theta_full 1.000
_diffrn_measured_fraction_theta_max 0.982
_diffrn_measurement_details
;
List of Runs (angles in degrees, time in seconds):

  # Type    Start    End  Width  t~exp~   \w     \q     \k     \f   Frames
--------------------------------------------------------------------------
  1  \w    -83.00  19.00   1.00    1.00    --  -41.80 100.00   7.00  102
  2  \w      2.00  83.00   1.00    1.00    --   41.80-100.00 -97.00   81
  3  \w    101.00 178.00   1.00    4.00    --  109.13 100.00   7.00   77
  4  \w     29.00 112.00   1.00    4.00    --  109.13-100.00 -97.00   83
  5  \w   -114.00 -14.00   1.00    1.00    --  -41.80 -57.00  90.00  100
  6  \w    -70.00  31.00   1.00    1.00    --  -41.80  57.00-120.00  101
  7  \w     26.00 109.00   1.00    4.00    --  109.13 -94.00 -30.00   83
  8  \w     37.00 138.00   1.00    4.00    --  109.13 -61.00  90.00  101
  9  \w     94.00 178.00   1.00    4.00    --  109.13 125.00-180.00   84
 10  \w     83.00 178.00   1.00    4.00    --  109.13  45.00   0.00   95
 11  \w     77.00 178.00   1.00    4.00    --  109.13  77.00 -90.00  101
 12  \w     80.00 178.00   1.00    4.00    --  109.13  61.00  90.00   98
 13  \w   -118.00  -9.00   1.00    1.00    --  -41.80 -77.00   0.00  109
 14  \w   -116.00 -17.00   1.00    1.00    --  -41.80 -38.00 150.00   99
 15  \w      1.00  83.00   1.00    1.00    --   41.80 -99.00 120.00   82
 16  \w     14.00 115.00   1.00    1.00    --   41.80  57.00 -90.00  101
 17  \w     83.00 149.00   1.00    4.00    --  109.13  45.00-120.00   66
 18  \w     80.00 178.00   1.00    4.00    --  109.13  61.00 150.00   98
;
_diffrn_measurement_device       'four-circle diffractometer'
_diffrn_measurement_device_type  'SuperNova, Dual, Cu at zero, Atlas'
_diffrn_measurement_method       '\w scans'
_diffrn_orient_matrix_type
'CrysAlisPro convention (1999,Acta A55,543-557)'
_diffrn_orient_matrix_UB_11      -0.2655671000
_diffrn_orient_matrix_UB_12      0.0662565000
_diffrn_orient_matrix_UB_13      0.0185348000
_diffrn_orient_matrix_UB_21      -0.2765657000
_diffrn_orient_matrix_UB_22      -0.0648478000
_diffrn_orient_matrix_UB_23      -0.0470504000
_diffrn_orient_matrix_UB_31      0.0115373000
_diffrn_orient_matrix_UB_32      -0.0299170000
_diffrn_orient_matrix_UB_33      0.1422140000
_diffrn_radiation_monochromator  mirror
_diffrn_radiation_probe          x-ray
_diffrn_radiation_type           CuK\a
_diffrn_radiation_wavelength     1.54184
_diffrn_reflns_av_R_equivalents  0.0505
_diffrn_reflns_av_unetI/netI     0.0265
_diffrn_reflns_Laue_measured_fraction_full 1.000
_diffrn_reflns_Laue_measured_fraction_max 0.982
_diffrn_reflns_limit_h_max       5
_diffrn_reflns_limit_h_min       -5
_diffrn_reflns_limit_k_max       19
_diffrn_reflns_limit_k_min       -19
_diffrn_reflns_limit_l_max       12
_diffrn_reflns_limit_l_min       -11
_diffrn_reflns_number            6186
_diffrn_reflns_point_group_measured_fraction_full 1.000
_diffrn_reflns_point_group_measured_fraction_max 0.982
_diffrn_reflns_theta_full        67.684
_diffrn_reflns_theta_max         75.107
_diffrn_reflns_theta_min         5.159
_diffrn_source                   'micro-focus sealed X-ray tube'
_diffrn_source_type              'SuperNova (Cu) X-ray Source'
_exptl_absorpt_coefficient_mu    0.677
_exptl_absorpt_correction_T_max  0.939
_exptl_absorpt_correction_T_min  0.881
_exptl_absorpt_correction_type   gaussian
_exptl_absorpt_process_details
;
CrysAlisPro 1.171.38.41 (Rigaku Oxford Diffraction, 2015)
Numerical absorption correction based on gaussian integration over
			a multifaceted crystal model
Empirical absorption correction using spherical harmonics,
 implemented in SCALE3 ABSPACK scaling algorithm.
;
_exptl_crystal_colour            'clear colourless'
_exptl_crystal_colour_lustre     clear
_exptl_crystal_colour_primary    colourless
_exptl_crystal_density_diffrn    1.244
_exptl_crystal_description       block
_exptl_crystal_F_000             264
_exptl_crystal_size_max          0.218
_exptl_crystal_size_mid          0.142
_exptl_crystal_size_min          0.092
_refine_diff_density_max         0.213
_refine_diff_density_min         -0.253
_refine_diff_density_rms         0.058
_refine_ls_extinction_method     none
_refine_ls_goodness_of_fit_ref   1.084
_refine_ls_hydrogen_treatment    constr
_refine_ls_matrix_type           full
_refine_ls_number_parameters     82
_refine_ls_number_reflns         1328
_refine_ls_number_restraints     0
_refine_ls_restrained_S_all      1.084
_refine_ls_R_factor_all          0.0559
_refine_ls_R_factor_gt           0.0513
_refine_ls_shift/su_max          0.000
_refine_ls_shift/su_mean         0.000
_refine_ls_structure_factor_coef Fsqd
_refine_ls_weighting_details
'w=1/[\s^2^(Fo^2^)+(0.0886P)^2^+0.1983P] where P=(Fo^2^+2Fc^2^)/3'
_refine_ls_weighting_scheme      calc
_refine_ls_wR_factor_gt          0.1387
_refine_ls_wR_factor_ref         0.1455
_reflns_Friedel_coverage         0.000
_reflns_number_gt                1183
_reflns_number_total             1328
_reflns_threshold_expression     'I > 2\s(I)'
_cod_data_source_file            ma0c00865_si_002.cif
_cod_data_source_block           rh074
_cod_depositor_comments
;Adding full bibliography for 1557996.cif.

 Adding full bibliography for 1557996.cif.
;
_cod_database_code               1557996
_shelxl_version_number           2013-4
_chemical_oxdiff_formula         'C7 H9 N O'
_shelx_space_group_comment
;
The symmetry employed for this shelxl refinement is uniquely defined
by the following loop, which should always be used as a source of
symmetry information in preference to the above space-group names.
They are only intended as comments.
;
_reflns_odcompleteness_completeness 100.00
_reflns_odcompleteness_iscentric 1
_reflns_odcompleteness_theta     66.97
_olex2_refinement_description
;
1. Fixed Uiso
 At 1.2 times of:
  All C(H) groups, All C(H,H) groups
2.a Secondary CH2 refined with riding coordinates:
 C2(H2A,H2B), C3(H3A,H3B), C4(H4A,H4B), C5(H5A,H5B)
2.b :
 C7(H7)
;
_shelx_res_file
;
TITL RH074 in P21/c #14
REM reset to P21/c #14
CELL 1.54184 4.076729 15.807339 10.35488 90 99.7864 90
ZERR 4 0.000255 0.000976 0.000682 0 0.0064 0
LATT 1
SYMM -X,0.5+Y,0.5-Z
SFAC C H N O
UNIT 28 36 4 4

L.S. 15
PLAN  20
TEMP -173.15(10)
BOND
fmap 2
ACTA
OMIT -3 4 11
OMIT -3 3 11
OMIT -4 2 9
OMIT -5 4 2
OMIT 3 6 8
REM <olex2.extras>
REM <HklSrc "%./RH074.hkl">
REM </olex2.extras>

WGHT    0.088600    0.198300
FVAR       8.41732
O1    4    0.104396    0.453897    0.850960    11.00000    0.03368    0.02029 =
         0.01926    0.00317   -0.00415   -0.00410
N1    3   -0.068547    0.545022    0.684882    11.00000    0.02489    0.02066 =
         0.01733   -0.00004   -0.00012    0.00035
C1    1    0.097638    0.533182    0.798903    11.00000    0.02062    0.01912 =
         0.01763    0.00189    0.00395    0.00116
C2    1   -0.097972    0.401249    0.753435    11.00000    0.02739    0.02081 =
         0.01849   -0.00163    0.00116   -0.00313
AFIX  23
H2A   2   -0.287900    0.376498    0.788510    11.00000   -1.20000
H2B   2    0.035770    0.354960    0.724237    11.00000   -1.20000
AFIX   0
C3    1   -0.219145    0.462726    0.640720    11.00000    0.02349    0.02267 =
         0.01819   -0.00155    0.00161   -0.00141
AFIX  23
H3A   2   -0.144403    0.444079    0.559180    11.00000   -1.20000
H3B   2   -0.465107    0.466573    0.624444    11.00000   -1.20000
AFIX   0
C4    1    0.288654    0.596575    0.887241    11.00000    0.02519    0.02414 =
         0.01732    0.00090    0.00037   -0.00312
AFIX  23
H4A   2    0.511326    0.573122    0.922031    11.00000   -1.20000
H4B   2    0.172920    0.606721    0.962470    11.00000   -1.20000
AFIX   0
C5    1    0.331390    0.680720    0.820171    11.00000    0.02652    0.02156 =
         0.01889   -0.00084    0.00153   -0.00130
AFIX  23
H5A   2    0.450724    0.671232    0.745771    11.00000   -1.20000
H5B   2    0.109609    0.704507    0.784872    11.00000   -1.20000
AFIX   0
C6    1    0.518487    0.741438    0.911788    11.00000    0.02516    0.02245 =
         0.02178    0.00308    0.00415    0.00102
C7    1    0.669315    0.789798    0.987511    11.00000    0.02790    0.02519 =
         0.02233   -0.00052    0.00216   -0.00326
AFIX 163
H7    2    0.789839    0.828443    1.048020    11.00000   -1.20000
AFIX   0
HKLF 4

REM  RH074 in P21/c #14
REM R1 =  0.0513 for    1183 Fo > 4sig(Fo)  and  0.0559 for all    1328 data
REM     82 parameters refined using      0 restraints

END

WGHT      0.0886      0.1983

REM Highest difference peak  0.213,  deepest hole -0.253,  1-sigma level  0.058
Q1    1   0.5995  0.5011  0.8267  11.00000  0.05    0.21
Q2    1   0.7235  0.7748  0.9015  11.00000  0.05    0.20
Q3    1  -0.2268  0.4291  0.6935  11.00000  0.05    0.20
Q4    1   0.2154  0.5695  0.8486  11.00000  0.05    0.20
Q5    1   0.3899  0.6898  0.7345  11.00000  0.05    0.19
Q6    1  -0.3198  0.4609  0.5396  11.00000  0.05    0.19
Q7    1  -0.2121  0.3535  0.8152  11.00000  0.05    0.18
Q8    1   0.0104  0.5776  0.6010  11.00000  0.05    0.17
Q9    1  -0.2113  0.5957  0.6412  11.00000  0.05    0.17
Q10   1   0.4396  0.7697  0.9905  11.00000  0.05    0.17
Q11   1   0.5566  0.7381  0.9604  11.00000  0.05    0.17
Q12   1  -0.0068  0.4280  0.9400  11.00000  0.05    0.16
Q13   1   0.7845  0.6322  0.8384  11.00000  0.05    0.16
Q14   1  -0.0440  0.5500  0.7526  11.00000  0.05    0.16
Q15   1   0.3386  0.6308  0.8450  11.00000  0.05    0.16
Q16   1   0.2011  0.5690  0.9892  11.00000  0.05    0.15
Q17   1   0.0606  0.7032  0.9952  11.00000  0.05    0.15
Q18   1   0.1069  0.5399  0.7224  11.00000  0.05    0.15
Q19   1   0.1689  0.5528  0.7059  11.00000  0.05    0.15
Q20   1  -0.1238  0.3247  0.5804  11.00000  0.05    0.14
;
_shelx_res_checksum              36915
_shelx_hkl_file
;
   0   0   1-9.55740 24.3592   1
   0   0   1 4.47468 13.2745   6
   0   0  -2 152037. 1332.23  16
   0   0   2 153044. 1177.03   6
   0   0   2 155396. 1685.90   1
   0   0   2 156627. 1343.77  15
   0   0   3 30.0305 68.8134   1
   0   0   3 18.6643 29.0427   6
   0   0  -3-1.31803 37.6068  16
   0   0  -3 27.6753 31.4003  13
   0   0   3 3.14417 50.4052  15
   0   0   4 25817.3 982.266   2
   0   0  -4 24659.1 691.104  13
   0   0   4 26908.6 700.123   6
   0   0   4 25214.2 997.229   1
   0   0   5 21.1073 31.4000   6
   0   0   5 10.8645 72.8667   1
   0   0  -5-102.915 55.8279  13
   0   0   5 49.9342 73.2304   2
   0   0  -5 29.0335 44.0098  16
   0   0   5 1.68362 62.5409  15
   0   0   6 23185.6 1213.60   2
   0   0  -6 26885.1 1109.45  16
   0   0  -6 25664.9 945.273  13
   0   0   6 22623.0 1231.76   1
   0   0   7-91.7761 109.011   2
   0   0   7 51.7618 96.2448   1
   0   0   8 763.048 138.525   4
   0   0   8 675.564 133.335   3
   0   0   8 535.168 270.393   1
   0   0   8 550.811 111.212   7
   0   0   8 632.060 261.905   2
   0   0   9 43.9082 51.3745   7
   0   0   9-38.1242 61.6719   4
   0   0  10 999.082 162.824   4
   0   0  10 1042.95 151.260   7
   0   0  11-2.55810 38.5702   7
   0   0  11-3.38715 46.9146   4
   0   0  12 2256.72 186.733   4
   0  -1   0 9.54599 9.61238   6
   0   1   0 10.2607 12.1177  14
   0   1   1 10340.0 314.020   1
   0  -1   1 10005.2 266.349   6
   0  -1  -1 10031.5 266.641  16
   0   1   1 10027.7 301.927  14
   0  -1   1 10345.9 315.328   1
   0   1  -1 10872.4 257.306  14
   0   1   1 9668.90 192.589   5
   0   1   2 113236. 1458.11   1
   0  -1  -2 121486. 1242.40  16
   0  -1  -2 122284. 1096.73  13
   0  -1   2 116401. 1151.01   6
   0   1   2 117212. 973.294   6
   0  -1   2 117241. 1486.91   1
   0   1   3 28403.9 607.780   6
   0  -1  -3 28460.7 644.877  13
   0   1   3 26925.3 869.717   2
   0  -1   3 27664.1 901.348   1
   0  -1   3 29070.7 754.371  15
   0  -1   3 27932.5 671.843   6
   0  -1   3 28357.9 894.566   2
   0   1   3 27486.1 885.187   1
   0   1   4 8229.75 373.217   6
   0  -1   4 8392.73 566.115   2
   0   1  -4 9855.28 516.301  16
   0  -1  -4 9101.59 429.115  13
   0  -1   4 9040.86 498.298  15
   0  -1   4 8662.35 426.012   6
   0  -1  -4 9077.24 496.922  16
   0  -1   4 7882.19 574.917   1
   0   1   4 7785.72 555.666   1
   0   1   4 8622.46 567.158   2
   0  -1   5 1364.06 189.529   6
   0  -1  -5 1383.36 226.509  16
   0   1  -5 1240.36 181.945  13
   0  -1   5 1119.40 203.518  15
   0  -1   5 1617.43 297.234   1
   0   1   5 1341.73 258.398   2
   0  -1   5 1352.22 268.747   2
   0  -1  -5 1575.17 213.629  13
   0   1  -5 1391.01 232.455  16
   0   1   5 1291.30 266.109   1
   0  -1   6 295.810 150.536   2
   0   1   6 108.168 102.638   1
   0   1  -6 170.459 71.7485  16
   0   1   6 287.062 178.653   2
   0   1  -6 317.658 111.045  13
   0  -1   6 141.538 136.651   1
   0  -1  -6 297.244 103.923  13
   0  -1  -6 229.821 100.222  16
   0  -1   6 196.126 106.289  15
   0   1   7 341.730 169.568   2
   0  -1   7-42.9959 113.834   1
   0  -1   7 109.531 95.5291   2
   0   1   7 102.839 103.153   1
   0   1   8 1491.98 192.454   4
   0  -1   8 1303.76 163.915   7
   0  -1   8 1428.02 191.533   4
   0  -1   8 1260.56 348.640   2
   0   1   8 1479.73 385.445   2
   0   1   8 1325.43 169.507   7
   0   1   8 1455.88 193.720   3
   0  -1   8 1360.52 191.929   3
   0   1   9 1380.40 178.757   7
   0  -1   9 1320.71 174.036   7
   0   1   9 1217.76 180.655   4
   0  -1   9 1163.68 176.243   4
   0   1  10 43.5229 44.7106   7
   0   1  10-20.3611 61.7371   4
   0  -1  10-53.4311 70.8054   7
   0  -1  10-15.3876 71.8991   4
   0  -1  11 320.180 90.6872   4
   0   1  11 260.421 71.9795   7
   0   1  11 256.404 81.1327   4
   0  -1  12 5761.12 294.867   4
   0   1  12 5998.16 300.593   4
   0   2   0 141496. 1171.50  14
   0  -2   0 144944. 1068.65  13
   0  -2   0 144651. 1064.35   6
   0  -2   1 3714.90 189.913   1
   0  -2   1 3520.40 181.022   2
   0   2  -1 3970.29 199.736  14
   0  -2  -1 3965.87 210.940  16
   0   2   1 3655.22 187.538   1
   0   2   1 3771.05 165.268   5
   0  -2  -1 3652.53 265.458  13
   0  -2   1 4003.30 206.627   6
   0   2   1 4174.40 196.705   2
   0   2   1 3919.20 231.540  14
   0  -2   2 187362. 1926.38   1
   0   2   2 185948. 1214.30   5
   0   2  -2 199621. 1536.20  14
   0  -2  -2 186022. 1634.95  16
   0  -2   2 182495. 1629.39   6
   0   2   2 195074. 1914.25   1
   0  -2   2 190484. 1861.05   2
   0   2   2 180685. 1833.67   2
   0  -2  -3 14287.0 576.450  13
   0   2   3 11866.7 589.314   1
   0  -2  -3 12057.6 490.026  16
   0   2   3 11840.4 401.631   6
   0   2  -3 11739.7 439.883  14
   0   2   3 12495.3 596.654   2
   0  -2   3 11949.1 499.434  15
   0  -2   3 12045.9 584.063   2
   0  -2   3 11309.1 586.862   1
   0  -2   3 12190.9 478.418   6
   0  -2   4 59075.2 1499.60   2
   0   2   4 56087.2 1505.66   1
   0   2  -4 56908.4 1094.65  14
   0   2   4 60122.4 1510.47   2
   0  -2  -4 60652.8 1263.89  16
   0  -2   4 58688.0 1178.74   6
   0   2   4 60849.9 1018.39   6
   0  -2   4 60410.5 1322.82  15
   0  -2   4 56954.9 1528.89   1
   0  -2   5 3976.29 392.065  15
   0   2  -5 3896.03 383.465  16
   0  -2   5 3483.55 429.315   2
   0  -2   5 3948.35 343.426   6
   0   2   5 3323.76 413.956   1
   0   2  -5 3660.71 314.511  14
   0  -2   5 3677.12 455.166   1
   0  -2  -5 4681.13 455.580  13
   0   2   5 4091.58 461.904   2
   0  -2  -5 4141.99 377.449  16
   0   2   6 20031.0 1149.25   2
   0  -2   6 20983.7 1033.96  15
   0  -2  -6 13909.9 1024.63  13
   0  -2   6 18573.9 1144.21   1
   0   2   6 17384.4 1097.28   1
   0   2  -6 21586.1 1057.81  16
   0  -2  -6 18646.8 907.063  16
   0   2  -6 15937.2 762.173  13
   0  -2   6 19628.8 1151.08   2
   0   2   7 4850.11 638.612   2
   0   2   7 5195.58 680.134   1
   0  -2   7 5392.02 710.934   1
   0  -2   7 5361.24 684.274   2
   0   2   8 10.9679 58.6354   7
   0   2   8 26.2250 44.6339   3
   0  -2   8-10.6936 49.2763   7
   0  -2   8 10.6886 45.0571   4
   0  -2   8-9.69362 43.0373   3
   0   2   8-42.4415 73.4439   4
   0  -2   8-62.1153 72.8462   9
   0  -2   9 27517.1 868.064   4
   0   2   9 28982.0 815.924   7
   0   2   9 26110.7 826.560   4
   0   2  10 6160.18 392.518   4
   0  -2  10 6488.26 412.433   4
   0  -2  10 6492.80 361.852   7
   0   2  10 6812.67 380.943   7
   0   2  11 9644.90 397.775   7
   0  -2  11 9508.87 448.144   4
   0   2  11 9416.55 439.338   4
   0  -2  12 6217.64 304.650   4
   0   2  12 6096.88 300.728   4
   0   3   0-9.08735 30.5644   5
   0  -3   0 3.65058 29.4185  13
   0   3   0-17.1214 44.9282  14
   0  -3   0-5.88534 29.3285   6
   0  -3   1 505.940 87.9090   6
   0   3   1 701.318 93.5128   5
   0  -3  -1 562.845 95.5644  16
   0  -3   1 523.497 68.8000   2
   0   3  -1 552.480 101.030  14
   0   3   1 562.618 110.749  14
   0  -3   1 627.717 97.3416  13
   0   3   1 582.115 79.1255   1
   0   3   1 549.322 72.8956   2
   0  -3  -1 770.467 122.167  13
   0  -3   1 558.766 76.4745   1
   0  -3   2 14733.0 545.602   1
   0   3   2 13923.3 518.892   1
   0   3  -2 14928.6 491.444  14
   0  -3   2 14585.9 508.536   6
   0   3   2 13042.4 492.123   2
   0   3   2 14545.2 585.199  14
   0  -3  -2 15225.0 528.149  16
   0  -3   2 14154.7 504.954   2
   0   3   2 14487.6 408.513   5
   0  -3   3 52615.5 1224.03   2
   0   3   3 50636.6 767.774   5
   0  -3   3 52396.7 1098.67  15
   0  -3   3 54922.2 1098.72   6
   0  -3   3 53525.1 1289.42   1
   0   3   3 58163.7 1289.35   2
   0   3  -3 55673.6 1032.34  14
   0   3   3 52691.2 1248.82   1
   0  -3  -3 53254.7 1102.89  16
   0  -3  -4 10922.4 564.481  16
   0  -3   4 10708.3 540.170   6
   0   3   4 10459.7 657.304   1
   0  -3   4 10570.0 647.301   2
   0   3   4 10003.5 629.847   2
   0  -3   4 11090.9 584.691  15
   0   3  -4 10749.0 499.849  14
   0  -3   4 10363.3 662.534   1
   0   3   4 10439.8 432.242   6
   0  -3   5 1015.03 248.111   1
   0  -3   5 1024.07 192.117   6
   0  -3   5 961.830 201.618  15
   0  -3  -5 985.620 187.785  16
   0   3   5 841.200 215.695   1
   0  -3   5 928.940 229.030   2
   0  -3  -5 633.037 222.707  13
   0   3  -5 951.879 166.062  14
   0   3   5 1270.94 259.256   2
   0   3   6 5191.91 595.374   2
   0  -3   6 5280.49 616.057   2
   0  -3   6 5327.00 634.100   1
   0  -3   6 5301.11 461.216   6
   0  -3   6 6011.58 568.964  15
   0  -3  -6 5647.96 513.620  16
   0   3  -6 6629.60 592.474  16
   0   3   6 5767.91 638.187   1
   0  -3   7 566.195 241.747   2
   0  -3   7 547.454 203.584  15
   0  -3   7 331.655 195.374   1
   0   3   7 533.827 223.041   2
   0   3   7 695.082 271.059   1
   0   3   8 2309.27 485.989   2
   0   3   8 2642.73 246.201   7
   0  -3   8 2256.00 251.118   3
   0  -3   8 2253.21 247.146   4
   0   3   8 2024.01 229.969   4
   0   3   8 2042.33 234.493   3
   0  -3   8 1988.11 197.789   7
   0  -3   8 2824.54 573.310   2
   0  -3   8 2567.90 227.668   9
   0  -3   9 2498.13 266.507   4
   0  -3   9 2043.28 208.631   7
   0   3   9 2397.89 255.290   4
   0   3   9 2581.17 246.488   7
   0   3  10 6455.93 367.037   7
   0   3  10 6396.16 398.991   4
   0  -3  10 6639.39 415.949   4
   0   3  11 1365.89 149.572   7
   0  -3  11 1334.98 171.806   4
   0   3  11 1257.47 161.741   4
   0   3  12 53.4487 40.5568   4
   0  -3  12 52.0181 39.6676   4
   0   3  12 7.63058 22.4755   7
   0  -4   0 70494.3 1039.11  15
   0   4   0 73928.6 1119.27   5
   0  -4   0 72753.0 1087.05  13
   0   4   0 73277.9 1219.28  14
   0   4   1 39084.1 960.101  14
   0  -4  -1 47885.5 952.211  13
   0   4   1 35951.0 559.931   2
   0   4   1 39170.4 799.234   5
   0  -4   1 42362.4 870.428  15
   0  -4   1 41014.7 839.324  13
   0  -4  -1 40792.7 913.297  16
   0   4   1 36893.8 581.390   1
   0  -4   1 43350.6 876.533   6
   0   4  -1 38514.9 868.425  14
   0  -4   1 36058.7 551.226   2
   0   4   2 7458.63 346.928   5
   0  -4   2 8139.57 418.167   6
   0   4   2 8295.05 393.438   2
   0   4   2 7986.18 400.766   1
   0   4   2 8110.37 487.639  14
   0  -4  -2 8245.59 432.822  16
   0  -4   2 7127.95 360.002   2
   0   4  -2 8016.81 408.404  14
   0  -4   2 8208.74 417.615  15
   0  -4   2 7795.75 398.098   1
   0   4   3 849.842 172.175   1
   0  -4   3 756.063 162.606   1
   0  -4   3 863.000 151.555   6
   0   4   3 627.464 142.972   2
   0  -4  -3 871.302 159.217  16
   0   4   3 673.368 105.294   5
   0   4  -3 772.889 137.687  14
   0  -4  -3 900.791 196.784  13
   0  -4   3 763.595 154.646   2
   0  -4   3 725.533 141.004  15
   0   4   4 17854.8 874.112   1
   0  -4   4 17277.3 868.109   1
   0  -4   4 17534.3 766.309  15
   0  -4  -4 14337.2 857.067  13
   0   4  -4 17822.2 679.769  14
   0  -4  -4 18133.4 763.068  16
   0   4   4 16635.9 584.908   6
   0   4   4 17160.3 837.359   2
   0  -4   4 18032.3 753.432   6
   0  -4   4 18145.3 856.066   2
   0   4   5 15418.3 928.544   1
   0  -4  -5 17798.1 846.313  16
   0  -4   5 17111.5 804.723   6
   0  -4  -5 14704.4 952.934  13
   0  -4   5 16387.0 946.297   2
   0  -4   5 17374.4 871.999  15
   0   4   5 16416.6 948.773   2
   0  -4   5 16567.1 977.407   1
   0   4   6 18763.5 1169.53   1
   0  -4  -6 16029.1 1053.02  13
   0   4   6 20421.0 1207.07   2
   0  -4   6 17452.4 1151.19   1
   0  -4   6 20185.0 1216.97   2
   0   4  -6 21050.8 1110.71  16
   0  -4  -6 19104.8 973.502  16
   0  -4   6 18866.7 929.803   6
   0  -4   6 20064.2 1062.77  15
   0   4   7 1621.09 190.556   7
   0   4   7 1519.08 373.621   1
   0  -4   7 1728.96 353.245  15
   0   4   7 1400.55 369.948   2
   0  -4   7 1819.79 412.114   2
   0  -4   7 1510.56 166.139   9
   0   4   8 3734.35 635.828   2
   0  -4   8 4892.04 761.575   2
   0   4   8 4228.49 332.832   4
   0  -4   8 5054.26 318.208   9
   0   4   8 5048.45 341.091   7
   0  -4   8 4575.32 359.431   4
   0  -4   8 4554.84 359.329   3
   0   4   8 3648.46 277.944  12
   0  -4   9 15348.2 661.192   4
   0   4   9 14474.7 617.035   4
   0   4   9 15307.9 590.948   7
   0   4  10 2336.52 219.298   7
   0   4  10 2073.95 227.209   4
   0  -4  10 2325.72 249.144   4
   0   4  11 22226.5 662.230   4
   0   4  11 21872.8 576.903   7
   0  -4  11 23826.6 704.262   4
   0   4  12 29.8929 19.3822   7
   0  -4  12-1.67186 35.8359   4
   0   4  12 36.2113 33.7795   4
   0   5   0-6.27911 54.0689   5
   0  -5   0-6.31047 54.8970  13
   0   5   0-41.4417 69.6513  14
   0  -5   0 20.1267 54.8476   6
   0   5   1 42007.5 924.429   5
   0  -5  -1 46177.7 1030.73  13
   0  -5   1 42203.0 980.394   6
   0  -5   1 43587.0 972.476  15
   0  -5   1 40350.9 937.473  13
   0   5   1 39174.9 1079.89  14
   0   5  -1 42105.1 1018.55  14
   0  -5  -1 42055.7 1045.80  16
   0  -5   2-0.94522 48.9073   1
   0   5   2 34.6111 70.8974  14
   0   5  -2 43.6178 60.7325  14
   0  -5   2 19.6919 40.7263   2
   0  -5  -2-23.3974 59.0661  16
   0  -5   2 40.9686 42.2614  15
   0   5   2-0.10953 34.2624   2
   0  -5   2 24.2907 46.1532   6
   0   5   2 15.7835 50.0100   5
   0  -5  -2-24.8478 71.5267  13
   0   5   2 30.9572 53.8925   1
   0  -5   3 19194.3 743.349   2
   0   5   3 19292.5 779.199   1
   0   5  -3 19551.5 736.081  14
   0  -5   3 20892.2 791.290   6
   0   5   3 18093.2 589.448   5
   0   5   3 19287.3 757.022   2
   0  -5   3 20245.6 804.186   1
   0  -5  -3 20593.8 804.644  16
   0  -5   3 20195.6 771.257  15
   0   5  -4 61139.7 1363.43  14
   0  -5  -4 66284.6 1554.38  16
   0   5   4 62568.8 1623.28   2
   0  -5   4 63215.6 1541.52  15
   0  -5   4 63830.5 1636.97   2
   0  -5   4 64073.3 1685.09   1
   0  -5   4 67190.3 1551.46   6
   0   5   4 64069.9 1685.32   1
   0  -5   5 4450.86 441.256   6
   0  -5  -5 4387.37 445.713  16
   0  -5   5 4643.25 511.664   2
   0  -5  -5 5234.00 510.470  13
   0   5   5 4404.75 502.474   1
   0  -5   5 3818.47 480.875   1
   0  -5   5 4552.55 463.663  15
   0   5   5 4578.89 515.697   2
   0  -5   6-114.000 97.8206  15
   0  -5   6 84.1008 127.139   1
   0  -5  -6 170.968 113.778  16
   0  -5   6 88.9607 104.666   2
   0   5   6-19.9825 155.793   2
   0  -5   6-53.0252 89.5488   6
   0   5   6 143.857 112.750   1
   0   5  -6-151.755 90.4142   5
   0  -5  -6-132.093 96.6174  13
   0  -5   7 8142.75 887.297   2
   0   5   7 7482.40 404.462   7
   0   5   7 5994.63 386.302   3
   0  -5   7 7642.42 377.995   9
   0  -5   7 8466.88 803.423  15
   0  -5   7 6080.93 390.148   4
   0   5   7 5693.41 370.682   4
   0   5   7 6355.57 355.962  12
   0  -5   7 5797.19 386.319   3
   0   5   7 7762.32 856.989   2
   0   5   8 11422.3 1126.75   2
   0  -5   8 14604.2 538.362   9
   0   5   8 14576.4 578.099   7
   0  -5   8 13224.0 608.117   4
   0   5   8 11768.5 558.669   4
   0   5   8 12378.0 512.185  12
   0  -5   8 12147.1 1075.56  15
   0  -5   8 11201.4 1143.18   2
   0   5   9 8583.14 436.486   7
   0   5   9 8034.19 460.822   4
   0  -5   9 8762.07 497.825   4
   0   5   9 7338.56 383.591  12
   0   5  10 4066.26 281.021   7
   0   5  10 3944.09 305.093   4
   0  -5  10 4365.66 333.484   4
   0   5  11 1047.38 140.107   4
   0   5  11 1002.04 124.313   7
   0  -5  11 977.501 140.529   4
   0   5  12 26.5956 17.3441   7
   0   6   0 44173.2 1092.56   5
   0  -6   0 43650.4 1079.32  13
   0   6   0 44517.1 1197.06  14
   0  -6   0 43265.2 1017.71  15
   0   6   1 17456.2 791.484  14
   0  -6   1 17032.1 676.597  15
   0  -6  -1 17885.3 761.622  16
   0   6  -1 17117.7 732.560  14
   0   6   1 17527.4 677.679   5
   0   6  -1 17889.8 720.536   5
   0  -6   1 17016.5 687.243  13
   0  -6   1 17484.7 692.412   6
   0   6   2 7341.34 428.772   5
   0  -6  -2 9100.18 531.033  13
   0  -6   2 6587.44 334.943   2
   0  -6   2 8233.85 501.862   6
   0   6  -2 7506.65 488.068  14
   0  -6   2 7801.85 485.542  15
   0   6   2 7666.71 557.360  14
   0  -6  -2 7842.80 517.139  16
   0   6   2 6517.56 334.432   2
   0  -6   3 124941. 2051.30  15
   0  -6  -3 122478. 2127.34  16
   0   6  -3 118815. 1987.24  14
   0   6   3 125015. 1934.06   2
   0   6   3 111866. 1620.17   5
   0  -6   3 125438. 2098.89   6
   0  -6   3 113592. 1825.98   2
   0   6   3 114347. 1892.08   1
   0  -6  -3 136395. 2169.28  13
   0  -6   4 3192.59 377.496   2
   0   6  -4 3178.75 336.679  14
   0   6   4 3269.69 375.833   2
   0  -6  -4 3693.32 397.880  16
   0  -6   4 3827.96 399.905   6
   0  -6  -4 3899.73 402.653  13
   0  -6   4 3890.78 402.896  15
   0   6   4 3304.54 389.539   1
   0   6   5 29917.0 1333.98   2
   0  -6  -5 30148.3 1202.67  13
   0   6  -5 28110.4 1223.13   5
   0  -6   5 28249.2 1198.76  15
   0  -6  -5 27900.8 1194.06  16
   0  -6   5 28284.8 1187.04   6
   0  -6   5 26562.6 1246.16   2
   0   6   5 24051.1 1199.92   1
   0  -6   6 25361.2 1282.25  15
   0   6  -6 25329.8 1259.37   5
   0  -6   6 24557.8 1209.56   6
   0   6   6 23423.7 1344.04   2
   0  -6   6 24398.0 1377.58   2
   0  -6  -6 24034.4 1189.90  16
   0  -6   7 2693.80 230.703   9
   0  -6   7 2721.98 465.142  15
   0   6   7 2467.08 224.264  12
   0   6   7 1975.56 224.123   4
   0   6   7 2515.12 501.053   2
   0  -6   7 2311.43 482.820   2
   0   6   8 7211.35 386.609  12
   0  -6   8 7769.30 461.510   4
   0   6   8 8314.88 436.346   7
   0   6   8 7455.67 442.972   4
   0   6   9 42689.2 960.699   7
   0   6   9 43690.3 1044.68   4
   0  -6   9 43927.7 1083.49   4
   0   6  10-104.566 58.1939   7
   0   6  10 46.2704 37.0434   4
   0  -6  10-12.6844 53.2037   4
   0   6  11 439.082 81.2916   7
   0   6  11 469.473 91.7412   4
   0  -6  11 471.073 89.0191   4
   0   7   0-47.7355 86.7149  14
   0  -7   0 27.1475 47.7154  15
   0  -7   0 2.68956 60.4736  13
   0   7   0 31.5603 49.5313   5
   0  -7   1-6.34152 35.5818  15
   0  -7  -1 8.60711 55.8652  13
   0   7   1-25.5396 79.3821  14
   0   7  -1 19.3438 62.9097  14
   0  -7  -1 40.1462 52.8254  16
   0   7   1-15.7140 65.9496   5
   0   7  -1 1.41712 65.4524   5
   0  -7   1-31.2281 53.3255   6
   0  -7   1 10.9312 62.7543  13
   0  -7  -1 24.2418 39.3920  15
   0   7  -2 19487.2 855.745   5
   0  -7   2 19229.8 820.824  15
   0  -7   2 17910.8 817.102   6
   0  -7  -2 18834.1 873.891  16
   0   7   2 19571.7 775.788   5
   0   7   2 20027.5 987.103  14
   0  -7  -2 20752.5 861.797  13
   0   7  -2 19997.1 872.295  14
   0  -7  -3 14768.6 805.564  16
   0   7  -3 14560.6 761.262  14
   0   7  -3 15279.5 808.261   5
   0  -7   3 15781.7 801.909   6
   0  -7   3 15713.3 783.103  15
   0   7   3 13761.5 634.914   5
   0  -7  -3 16210.4 795.035  13
   0   7   3 14432.6 893.092  14
   0   7  -4 14206.9 851.348   5
   0  -7   4 14881.4 829.144  15
   0  -7  -4 15204.2 864.331  16
   0   7  -4 12832.7 734.233  14
   0  -7  -4 15500.0 821.337  13
   0  -7   4 15624.5 864.973   6
   0  -7   5 18945.8 1038.28   6
   0  -7   5 19361.0 1049.93  15
   0   7  -5 19685.0 1090.21   5
   0  -7  -5 17630.7 936.885  13
   0  -7  -5 19106.3 1049.89  16
   0  -7   6 9215.63 405.432   9
   0   7   6 8195.40 389.419  12
   0   7  -6 10474.2 863.739   5
   0  -7   6 8634.96 437.680  11
   0  -7   6 10360.7 855.768  15
   0  -7   6 10452.2 844.168   6
   0  -7   7 130.355 65.0169   9
   0  -7   7 157.878 63.1313   8
   0   7   7 58.7033 46.7331  12
   0  -7   7-60.3380 79.7365  15
   0  -7  -8 4.37995 54.3345  11
   0   7   8 45.1783 41.6013  12
   0   7   8 137.069 65.2089   7
   0   7   9 89.3279 55.4895   7
   0   7   9 25.4710 39.2033  12
   0   7  10 727.091 113.075   7
   0   7  11 885.717 107.143   7
   0   8   0 63055.0 1575.77   5
   0   8   0 61175.4 1722.18  14
   0  -8   0 65356.8 1531.43  15
   0  -8   0 63783.9 1624.79  13
   0   8  -1 1250.53 233.781   5
   0   8   1 1018.25 192.527   5
   0   8   1 1283.87 271.199  14
   0  -8  -1 1038.46 190.809  15
   0  -8   1 1060.56 205.197  15
   0  -8  -1 1301.53 234.438  13
   0   8  -1 1008.02 217.902  14
   0  -8   2 11862.9 706.204  15
   0   8   2 10353.1 767.410  14
   0  -8  -2 12394.6 776.483  16
   0   8  -2 11581.7 737.105  14
   0   8  -2 11741.3 724.692   5
   0  -8  -2 13324.6 752.196  13
   0  -8   2 12328.5 723.665   6
   0   8   2 12109.2 671.444   5
   0   8  -3 98725.8 2225.47   5
   0  -8   3 101289. 2147.61  15
   0   8   3 90609.2 1811.11   5
   0  -8  -3 104258. 2164.42  13
   0  -8   3 98861.6 2201.30   6
   0   8  -3 91942.5 2094.19  14
   0  -8  -3 108757. 2393.54  16
   0  -8  -4 1807.91 327.599  16
   0   8  -4 1517.32 301.643   5
   0   8  -4 1331.16 257.587  14
   0  -8   4 1587.97 298.727   6
   0  -8  -4 1713.44 295.387  13
   0  -8   4 1765.08 309.949  15
   0  -8  -5 33943.1 1358.91  13
   0  -8   5 36718.1 1525.14  15
   0  -8   5 35105.4 1506.22   6
   0   8  -5 37547.9 1606.45   5
   0  -8  -5 34379.5 1517.45  16
   0  -8   6 34974.0 832.754   8
   0  -8   6 43619.2 1814.69  15
   0   8   6 38375.4 857.422  12
   0  -8  -6 33590.4 852.548  11
   0  -8   6 41404.4 979.949  11
   0  -8   6 39600.5 859.503   9
   0   8  -6 42559.9 1841.79   5
   0  -8   6 39856.0 1720.12   6
   0  -8   7 11734.7 1019.96  15
   0  -8  -7 11625.5 517.588  11
   0   8   7 12853.2 508.466  12
   0  -8   7 11800.1 492.442   8
   0  -8  -8 2223.91 222.917  11
   0   8   8 2224.70 214.696  12
   0   8   8 2005.70 212.818   7
   0   8   9 6453.49 345.833  12
   0   8   9 6353.59 356.326   7
   0   8  10 419.703 89.0078   7
   0   8  11 516.829 77.7540   7
   0   9   0-8.09456 67.0971   5
   0  -9   0 75.7633 110.670  13
   0  -9   0-130.367 80.6490  15
   0   9   0 27.1089 103.466  14
   0   9  -1-24.2706 78.1350   5
   0   9   1 17.9779 65.0007  14
   0  -9  -1 38.9600 52.8721  13
   0   9   1 38.9255 55.9717   5
   0  -9  -1-63.7677 61.8129  15
   0  -9   1-90.7440 77.2038  15
   0   9  -1 0.33489 108.237  14
   0   9   2 1231.42 240.182   5
   0   9  -2 1695.08 305.137   5
   0  -9   2 1358.72 269.508  15
   0   9   2 1754.86 347.174  14
   0  -9  -2 1003.06 203.761  15
   0  -9  -2 1466.29 274.882  13
   0   9  -2 1507.46 287.356  14
   0  -9  -3 652.769 218.533  16
   0   9  -3 434.630 160.669   5
   0   9  -3 543.167 176.743  14
   0  -9   3 328.466 140.968  15
   0  -9  -3 334.652 130.204  13
   0  -9   3 386.189 164.499   6
   0   9  -4 3367.61 480.962   5
   0  -9  -4 3671.33 501.428  16
   0  -9   4 3579.91 466.748  15
   0  -9   4 3548.75 471.715   6
   0  -9  -4 3035.74 415.179  13
   0  -9  -5 5715.66 343.568  11
   0   9  -5 7317.79 752.441   5
   0  -9   5 8198.35 760.239  15
   0  -9   5 6733.21 385.137  11
   0  -9  -5 6593.87 703.511  16
   0   9   5 6406.03 342.334  12
   0  -9   5 7363.94 734.513   6
   0  -9  -5 6023.66 605.804  13
   0  -9   5 6283.87 349.818   8
   0  -9   6 84.8253 88.8990  15
   0  -9  -6-9.42685 49.4905  11
   0  -9   6 29.1278 38.6585   9
   0  -9   6 19.2240 34.0245   8
   0   9  -6 65.1915 91.4946   5
   0  -9   6-4.08945 44.8128  11
   0   9   6-37.9105 42.0206  12
   0  -9  -7 6260.70 376.521  11
   0  -9   7 6313.13 364.550   8
   0   9   7 6615.37 368.980  12
   0   9   8 5512.98 344.435   7
   0   9   8 5864.96 342.100  12
   0  -9   8 5137.35 311.312   8
   0  -9  -8 5215.46 329.480  11
   0   9   9 1356.55 162.209   7
   0   9   9 1286.78 152.662  12
   0   9  10 60.1597 31.6701  12
   0   9  10 165.196 52.2009   7
   0   9  11-28.4938 27.1753   7
   0 -10   0 20441.3 1112.98  13
   0  10   0 19501.1 1048.60   5
   0 -10   0 18999.0 942.599  15
   0  10   0 19074.6 1148.40  14
   0 -10  -1 1769.93 283.287  15
   0 -10  -1 2428.39 385.662  13
   0 -10   1 1388.05 293.377  15
   0  10  -1 1976.78 373.018  14
   0  10   1 2144.66 342.964   5
   0  10   1 2036.84 388.850  14
   0  10  -1 2261.10 373.293   5
   0 -10  -2 5541.35 588.791  13
   0  10  -2 4989.66 589.742  14
   0  10   2 5559.73 552.551   5
   0  10  -2 5756.83 606.837   5
   0  10   2 5504.21 647.396  14
   0 -10   2 5407.67 552.843  15
   0 -10   3 2890.48 419.730  15
   0  10  -3 2953.74 451.667  14
   0  10  -3 2764.68 431.407   5
   0 -10  -3 2998.56 432.364  13
   0 -10   4 26432.2 745.582  11
   0  10   4 24539.9 675.761  12
   0 -10   4 29232.3 1401.24  15
   0 -10   4 26999.6 714.268   8
   0 -10  -4 23233.9 689.094  11
   0 -10  -4 27747.0 1334.12  13
   0  10  -4 30208.3 1516.74   5
   0 -10  -5 4411.77 308.625  11
   0  10  -5 4978.87 658.652   5
   0 -10   5 5631.62 665.986  15
   0  10   5 4707.57 302.087  12
   0 -10  -5 4224.63 540.049  13
   0 -10   5 5162.06 327.558   8
   0 -10   5 5247.67 348.337  11
   0 -10  -6 8565.29 439.932  11
   0 -10   6 9550.88 453.267   8
   0 -10   6 7870.27 841.920  15
   0  10   6 9064.49 425.523  12
   0 -10   6 9649.70 487.406  11
   0  10  -6 8696.28 926.123   5
   0 -10   7 330.060 87.8095   8
   0 -10  -7 355.223 95.6168  11
   0  10   7 386.699 96.8867  12
   0  10   8 12998.8 497.172  12
   0  10   8 13010.8 514.081   7
   0 -10  -8 11468.0 468.488  11
   0 -10   8 12118.5 465.853   8
   0  10   9 7619.83 349.020  12
   0  10   9 7519.44 360.347   7
   0  10  10 221.610 59.9942   7
   0  11   0-25.0798 85.9416   5
   0 -11   0-151.764 100.655  15
   0 -11   1 2980.46 418.082  15
   0 -11  -1 3971.14 538.168  13
   0  11   1 3635.90 480.571   5
   0  11  -1 3735.52 549.713  14
   0  11   1 3103.86 511.165  14
   0  11  -1 3891.39 529.306   5
   0  11  -2 1245.91 316.280  14
   0  11   2 1255.50 343.205  14
   0  11   2 1148.91 277.301   5
   0 -11   2 1329.94 170.097  11
   0 -11  -2 1616.25 328.640  13
   0  11  -2 1612.77 356.540   5
   0 -11   2 1238.82 150.617   8
   0 -11   2 1165.73 268.893  15
   0 -11  -2 1264.96 162.716  11
   0  11   3 1765.33 188.121  12
   0 -11  -3 1890.26 358.675  13
   0  11  -3 2296.75 422.364   5
   0 -11   3 2090.14 371.363  15
   0 -11  -3 1950.75 203.135  11
   0 -11   3 2088.17 201.493   8
   0 -11   3 1978.53 208.546  11
   0  11  -3 1908.55 397.900  14
   0 -11   4 2546.34 436.801  15
   0  11   4 2577.34 227.707  12
   0 -11  -4 2130.25 397.977  13
   0 -11   4 2619.89 229.506   8
   0  11  -4 2750.14 482.330   5
   0 -11   4 2750.14 248.549  11
   0 -11  -4 2518.98 235.976  11
   0 -11  -5 2209.61 223.119  11
   0  11  -5 2270.60 470.773   5
   0 -11   5 2369.51 240.297  11
   0 -11   5 1890.68 380.528  15
   0 -11   5 2225.80 220.935   8
   0  11   5 2315.94 216.829  12
   0 -11   6 205.908 78.5232   8
   0 -11  -6 162.113 64.5880  11
   0  11   6 200.842 72.2709  12
   0 -11   6 248.435 90.0821  11
   0 -11  -7 211.234 69.6375  11
   0 -11   7 100.620 58.6706   8
   0  11   7 199.862 73.6294  12
   0  11   8 1639.69 173.182  12
   0 -11   8 1454.94 157.658   8
   0  11   8 1537.03 179.470   7
   0 -11  -8 1376.76 154.766  11
   0  11   9 214.005 62.7519  12
   0  11   9 86.8349 46.2921   7
   0  11  10 2936.25 179.460   7
   0  12   0 30446.1 1512.86   5
   0  12   0 30593.6 1713.14  14
   0 -12   0 30669.5 818.110  11
   0  12  -1 1272.01 354.219  14
   0 -12   1 1351.15 176.440  11
   0  12  -1 1091.73 306.847   5
   0  12   1 989.412 141.480  12
   0 -12   1 828.907 252.798  15
   0 -12  -1 1161.04 164.099  11
   0  12   1 1522.24 394.322  14
   0  12   1 1158.54 304.053   5
   0 -12   1 1279.52 161.099   8
   0  12  -2 2164.89 456.889  14
   0 -12  -2 2959.92 511.392  13
   0  12  -2 3331.34 534.141   5
   0 -12   2 2932.13 240.353   8
   0 -12   2 2892.61 256.237  11
   0 -12   2 2947.04 441.574  15
   0  12   2 2845.16 242.371  12
   0 -12  -2 2606.51 240.991  11
   0 -12  -3 407.046 100.447  11
   0  12  -3 195.774 134.298   5
   0 -12   3 407.503 99.1261  11
   0 -12   3 329.930 88.3472   8
   0  12   3 341.877 84.5681  12
   0 -12   3 728.013 225.978  15
   0 -12  -3 293.090 150.378  13
   0 -12  -4 167.701 69.8980  11
   0  12  -4 372.455 200.679   5
   0 -12   4 207.790 75.7365  11
   0  12   4 180.488 73.4035  12
   0 -12   4 159.193 66.6634   8
   0 -12  -4 347.659 178.812  13
   0 -12   5 4798.98 325.576   8
   0  12   5 4795.09 317.657  12
   0 -12   5 5044.16 347.905  11
   0 -12  -5 4650.31 320.828  11
   0  12   6 35606.1 845.509  12
   0 -12   6 37442.7 936.225  11
   0 -12   6 36010.0 881.389   8
   0  12   7 4972.51 308.955  12
   0 -12  -7 4498.18 293.099  11
   0 -12   7 5131.91 316.162   8
   0 -12   8-37.9485 41.7631   8
   0  12   8 20.3330 53.1773   7
   0  12   8 41.4540 42.9872  12
   0  12   9 1607.31 145.251  12
   0  12   9 1664.11 150.853   7
   0  12  10 273.978 51.7811   7
   0 -13   0-7.10873 45.9243  11
   0  13   0 20.2623 88.0349   5
   0  13   0 162.388 158.456  14
   0 -13   0 9.80726 23.7506   8
   0  13  -1 52.4475 116.969   5
   0  13   1 101.987 118.887  14
   0  13   1 261.580 203.808   5
   0  13   1 346.312 83.5512  12
   0  13  -1-120.183 124.318  14
   0 -13  -1 364.364 98.6076  11
   0 -13   1 494.701 112.535  11
   0 -13   1 513.204 107.047   8
   0  13   2 27151.3 757.956  12
   0 -13  -2 27732.3 778.344  11
   0  13   2 26599.1 726.270  18
   0 -13   2 28758.0 812.900  11
   0 -13   2 28208.1 755.314   8
   0 -13   3 961.255 155.398  11
   0  13   3 574.218 108.788  18
   0 -13   3 864.509 142.297   8
   0 -13  -3 1115.61 161.908  11
   0  13   3 1012.77 156.373  12
   0  13   4 5027.95 329.003  12
   0 -13   4 5221.38 331.451   8
   0 -13   4 5272.96 358.312  11
   0 -13  -4 5101.16 334.951  11
   0 -13  -5 3318.93 268.994  11
   0 -13   5 3482.95 275.791   8
   0  13   5 3487.47 274.160  12
   0 -13   5 3395.66 286.452  11
   0  13   6 1320.26 165.394  12
   0 -13   6 1495.05 179.665   8
   0 -13  -6 1449.09 169.879  11
   0 -13   6 1290.71 170.910  11
   0 -13  -7 53.2713 41.2521  11
   0  13   7 132.480 63.9784  12
   0 -13   7 62.1755 52.0439   8
   0  13   8 718.102 107.186   7
   0 -13   8 624.734 89.6549   8
   0  13   8 680.488 105.929  12
   0  13   9 1.97160 23.2087   7
   0  13   9-36.5935 29.4757  12
   0 -14   0 70784.9 1280.07  11
   0 -14   0 64873.4 1129.30   8
   0 -14   1 578.206 124.788  11
   0 -14  -1 587.847 123.023  11
   0 -14   1 580.803 113.940   8
   0  14   1 605.432 117.518  12
   0 -14  -2 23598.6 724.989  11
   0  14   2 24581.9 716.581  12
   0 -14   2 23893.0 695.075   8
   0  14   2 22834.1 691.803  18
   0 -14   3 14659.2 545.870   8
   0 -14   3 15294.2 599.254  11
   0 -14  -3 13261.7 536.992  11
   0  14   3 15209.7 565.272  12
   0 -14  -4 10286.3 462.118  11
   0 -14   4 11167.2 475.164   8
   0 -14   4 11385.0 519.935  11
   0  14   4 11046.4 483.009  12
   0 -14   5 2421.08 235.190  11
   0 -14   5 2373.69 221.221   8
   0 -14  -5 2179.54 210.651  11
   0  14   5 2124.94 208.624  12
   0 -14   6 61.8656 47.4583   8
   0  14   6 123.593 44.9878  12
   0 -14  -6 98.0449 48.3577  11
   0 -14   6 68.7441 44.3466  11
   0  14   7 1059.39 133.048  12
   0 -14  -7 932.663 114.169  11
   0 -14   7 969.948 123.185   8
   0  14   7 913.022 124.333   7
   0  14   8 984.710 112.289   7
   0 -14   8 849.347 93.9332   8
   0  14   8 1082.64 115.282  12
   0  14   9 203.729 41.4033   7
   0 -15   0-121.327 68.5484  11
   0 -15   0-7.04840 51.7734   8
   0 -15   1 4995.98 314.075   8
   0  15   1 5692.29 338.898  18
   0 -15   1 5335.09 351.533  11
   0 -15  -1 4729.62 327.908  11
   0  15   1 4517.62 293.385  12
   0 -15   2 1023.51 144.945   8
   0  15   2 951.622 142.371  12
   0  15   2 835.179 130.064  18
   0 -15   2 1036.38 160.421  11
   0 -15  -2 885.328 145.542  11
   0 -15   3 78.0084 68.9974  11
   0 -15   3 60.1678 51.7437   8
   0  15   3 42.9741 44.0004  18
   0  15   3-18.1212 46.4043  12
   0 -15  -3 72.4482 68.4225  11
   0 -15   4 1309.06 173.468  11
   0  15   4 1624.11 178.011  12
   0 -15   4 1421.22 168.777   8
   0 -15  -4 1096.14 149.954  11
   0  15   5 15.3528 33.0184  12
   0 -15  -5 5.66491 36.4914  11
   0 -15   5-28.9709 55.3912   8
   0 -15   5 35.8095 46.5803  11
   0 -15  -6 21.8093 28.7028  11
   0  15   6 65.4438 46.5485  12
   0 -15   6-15.2671 41.7620   8
   0 -15   6-35.2076 52.7208  11
   0  15   7 1781.61 150.490  12
   0  15   7 1559.29 143.337   7
   0 -15   7 1683.02 143.183   8
   0  15   8 1687.07 121.936  12
   0  15   8 1473.21 114.810   7
   0 -16   0 15207.6 559.942  11
   0 -16   0 13967.4 492.314   8
   0  16   0 14686.4 533.480  18
   0 -16  -1 195.796 72.7104  11
   0 -16   1 210.797 70.3762   8
   0  16   1 271.749 84.5303  18
   0 -16   1 211.396 76.1826  11
   0 -16   2 1542.75 185.909  11
   0  16   2 1324.13 155.168  18
   0 -16   2 1400.67 162.883   8
   0 -16  -2 1535.03 177.257  11
   0  16   2 1344.13 154.114  12
   0 -16  -3-17.8315 43.9314  11
   0  16   3 8.08300 36.2382  12
   0 -16   3 102.718 58.5023   8
   0 -16   3-5.91769 55.1357  11
   0 -16   4 345.489 92.5081  11
   0 -16   4 406.957 85.8262   8
   0  16   4 392.066 84.4180  12
   0 -16  -4 386.169 86.0914  11
   0 -16   5 1334.39 158.093  11
   0  16   5 1409.54 146.137  12
   0 -16  -5 1081.20 126.812  11
   0 -16   5 1201.77 134.897   8
   0  16  -6 56.9704 25.8589  18
   0 -16  -6-109.161 39.2239  11
   0 -16   6-71.1707 38.0896   8
   0 -16  -6-36.0995 33.5355  10
   0  16   6 21.7713 34.6930  12
   0  16   6-3.21581 33.4929   7
   0  16   7 2066.57 137.178   7
   0  16   7 2501.10 150.297  12
   0 -16   7 2227.79 137.799   8
   0  17   0 84.2185 45.0073  18
   0 -17   0 11.1692 37.8920  11
   0 -17  -1 3241.19 238.236  11
   0  17   1 3009.25 230.435  18
   0 -17   1 3482.63 253.844  11
   0  17  -1 2780.70 225.769  18
   0 -17   1 3493.18 231.629   8
   0 -17  -2 1971.02 182.667  11
   0 -17   2 2104.80 180.648   8
   0  17  -2 1484.09 159.535  18
   0  17   2 1482.00 144.424  18
   0  17   2 1784.88 155.801  12
   0 -17   2 2004.56 192.264  11
   0  17   3-12.7622 43.6005  12
   0 -17   3 0.20073 41.5823  11
   0 -17  -3-6.31772 31.0471  11
   0  17  -3 5.94261 38.0289  18
   0 -17   3 2.52000 32.2168   8
   0 -17   4 3094.32 228.167  11
   0 -17   4 2948.47 198.502   8
   0  17   4 2933.71 194.365  12
   0 -17  -4 2477.90 183.740  11
   0  17  -5 44.8475 24.8151  18
   0 -17   5-2.45750 31.0770   8
   0 -17   5-0.39293 33.6692  11
   0 -17  -5-17.6784 30.7290  11
   0  17   5 28.6585 24.0840  12
   0  17   6 706.690 77.5149  12
   0 -17   6 706.971 78.8787   8
   0 -18   0 285.055 70.0665  11
   0  18   0 179.954 56.0255  18
   0 -18   1 3860.25 237.528  11
   0  18   1 2432.32 174.834  18
   0  18  -1 2383.10 196.805  18
   0 -18   1 3219.98 188.057   8
   0 -18  -1 4008.64 233.902  11
   0 -18  -2 19.9661 33.1896  11
   0  18  -2 39.7063 35.9389  18
   0 -18   2 3.25741 21.8429   8
   0  18   2-10.4784 20.1948  18
   0 -18   2 18.6438 36.6789  11
   0 -18   3 302.284 71.8791  11
   0 -18  -3 227.021 54.6770  11
   0  18  -3 129.232 48.5832  18
   0 -18   3 312.714 59.5511   8
   0  18   3 237.224 45.7725  12
   0 -18  -4 35.8435 19.3474  11
   0  18  -4 15.7038 25.4420  18
   0 -18   4 50.4281 31.2839  11
   0  18   4 78.7172 25.6118  12
   0 -18   4 102.580 36.0115   8
   0 -18   5-13.1157 19.4034   8
   0  19   0 22.2018 21.5527  18
   0 -19   0 13.3359 23.5747  11
   0 -19   1 1738.10 137.710  11
   0 -19  -1 1610.35 131.344  11
   0  19  -1 749.837 86.1110  18
   0 -19  -2 500.286 70.9643  11
   0 -19   2 520.165 79.0891  11
   0  19  -3 19.2012 13.2659  18
   0 -19   3-1.65897 21.6501  11
  -1   0  12 1288.47 136.916   7
  -1   0  12 1208.90 144.674   4
  -1   0  11 160.513 67.2328   7
  -1   0  11 135.071 75.1629   4
  -1   0  10 2964.37 283.093   4
  -1   0  10 3574.76 297.614   7
  -1   0   9 44.8038 34.9478   9
  -1   0   9-17.6770 51.6865   4
  -1   0   9 14.8138 49.8582   7
  -1   0   8 5277.14 311.153   9
  -1   0   8 6165.60 397.802   4
  -1   0   8 5810.15 792.257   1
   1   0  -8 6096.06 690.665  13
  -1   0   8 6261.10 370.058   7
   1   0  -7 17.7874 76.7356  13
  -1   0   7 35.6866 101.185   1
  -1   0   6 45482.3 1296.06  15
  -1   0   6 47838.4 1823.41   1
  -1   0   6 50194.9 1885.01   2
   1   0  -6 48295.1 1475.03  13
  -1   0   5 81.8929 87.0254   1
  -1   0   5-16.6083 66.1778  15
  -1   0   5-25.0293 76.1020   2
   1   0  -5-28.7018 68.8879  13
  -1   0   4 101383. 1448.65  15
  -1   0   4 99668.9 2036.56   1
  -1   0   3-8.45023 43.7865  15
   1   0  -3 5.01349 27.6726   5
  -1   0   3 34.1985 77.8176   1
   1   0  -3-2.06861 47.0521  13
  -1   0   3 7.19591 13.6532  14
   1   0  -2 999999. 4086.61  13
  -1   0   2 972412. 5029.99   1
   1   0  -1 24.8301 36.9743   5
   1   0  -1 32.2265 33.8044  13
  -1   0   1 68.3778 41.9809  16
  -1   0   0 80131.2 1179.16  16
   1   0   0 77743.7 1140.02   5
   1   0   0 78504.4 853.500  13
   1   0   1-2.74300 20.5233  13
  -1   0  -1 34.1740 51.1214  16
   1   0   1 19.2025 40.1194   5
   1   0   1-1.09642 49.3744   6
  -1   0  -2 10702.1 558.913  16
   1   0   2 9955.26 515.684   6
   1   0   3 45.5679 57.1020   2
   1   0   3 40.4274 59.6812   6
  -1   0  -3-4.02904 58.4503  16
   1   0   4 40665.1 1323.91   6
  -1   0  -4 43321.0 1482.54  16
  -1   0  -5-32.3327 102.405  16
   1   0   5 0.63250 57.1407   6
   1   0   5 11.4555 83.4095   2
  -1   0  -6 1101.18 293.641  16
   1   0   6 841.208 257.214   2
   1   0   6 799.523 209.773   6
   1   0   7 8.08353 52.6610   3
   1   0   7-122.074 107.379   2
   1   0   7 20.4897 37.7133   4
  -1   0  -7-3.54312 147.417  16
   1   0   8 536.902 232.360   2
   1   0   8 597.175 132.199   3
   1   0   8 783.439 145.740   4
   1   0   9 28.9659 54.2192   3
   1   0   9 6.79151 47.5568   4
   1   0  10 8754.49 449.292   3
   1   0  10 8824.75 446.430   4
   1   0  11 16.9412 33.2008   4
   1   0  12 445.177 69.1308   4
  -1  -1  12 2257.95 193.560   4
  -1   1  12 2255.99 190.899   4
  -1   1  12 2795.88 197.945   7
  -1  -1  12 2757.20 196.951   7
  -1   1  11 15915.7 564.421   7
  -1  -1  11 13379.6 549.123   4
  -1  -1  11 15660.6 566.220   7
  -1   1  11 13238.4 539.165   4
  -1  -1  10 402.221 109.723   9
  -1  -1  10 681.733 143.709   4
  -1   1  10 626.814 130.793   4
  -1  -1  10 712.833 138.372   7
  -1   1  10 605.670 126.876   7
  -1   1   9 3069.79 246.033   9
  -1  -1   9 3537.29 269.940   9
  -1  -1   9 3588.61 317.713   4
  -1   1   9 4135.10 317.677   7
  -1   1   9 3479.48 312.157   4
  -1  -1   9 3677.60 301.713   7
   1  -1  -8 707.059 260.523  13
  -1   1   8 281.505 86.4863   7
  -1  -1   8 315.595 101.051   4
  -1   1   8 220.585 68.4093   9
   1   1  -8 202.582 130.356  13
  -1   1   8 447.687 222.134   1
  -1  -1   8 436.285 233.619   1
  -1  -1   8 149.518 57.1847   9
  -1   1   8 316.703 98.4782   4
  -1  -1   8 226.554 78.7317   7
  -1   1   7 858.185 276.753   1
  -1  -1   7 832.195 207.566  15
   1   1  -7 833.179 212.243  13
  -1  -1   7 904.876 288.845   1
   1  -1  -7 1152.59 270.881  13
  -1  -1   6 1185.37 288.370   2
  -1  -1   6 1012.72 276.284   1
  -1   1   6 998.425 266.791   1
   1   1  -6 1014.86 218.231  13
  -1  -1   6 1060.06 212.481  15
  -1   1   6 920.297 270.206   2
   1  -1  -6 1210.24 247.204  13
  -1   1   5 4426.46 492.585   1
  -1  -1   5 4357.03 495.737   1
  -1   1   5 3997.57 315.962  15
   1  -1  -5 4662.66 416.463  13
  -1  -1   5 4566.85 384.527  15
  -1   1   5 5039.64 537.676   2
  -1  -1   5 4662.90 513.418   2
   1   1  -5 4299.03 396.813  13
   1   1  -4 16359.3 525.481   5
  -1  -1   4 17526.6 853.644   1
   1  -1  -4 18359.9 721.686  13
  -1  -1   4 17556.1 660.773  15
  -1   1   4 17807.2 863.533   1
  -1   1   4 15647.0 529.469  15
  -1  -1   3 11730.3 502.876  15
   1  -1  -3 11660.6 515.478  13
   1   1  -3 11122.6 424.153   5
  -1   1   3 9706.38 338.061  15
  -1   1   3 9715.80 376.891  14
  -1   1   3 11874.8 634.148   1
  -1  -1   3 9866.41 587.106   1
   1  -1  -2 236399. 1504.74   6
  -1  -1   2 247006. 2136.07  15
  -1  -1   2 230958. 1329.85  14
  -1   1   2 229694. 1484.75  15
   1  -1  -2 236223. 1581.45   5
   1   1  -2 249570. 1989.36   5
  -1   1   2 239297. 1922.70  14
  -1  -1   2 255020. 2597.84   1
  -1   1   2 259319. 2639.65   1
  -1  -1   2 233742. 1303.58  16
   1  -1  -2 245010. 2112.83  13
   1  -1  -1 826.173 110.017   5
  -1  -1   1 879.903 111.744  16
   1  -1  -1 848.863 111.530   6
  -1   1   1 829.296 123.661  14
   1  -1  -1 923.648 122.173  13
   1   1  -1 844.906 120.090   5
   1   1   0 17279.4 569.890   5
   1  -1   0 16019.0 523.342   6
  -1  -1   0 18559.0 599.694  16
   1  -1   0 19408.4 576.110  13
   1   1   1 4210.53 299.635   5
   1  -1   1 4350.63 304.792   6
   1  -1   1 4480.81 184.324  13
  -1   1  -2 84.0069 63.4330  16
  -1  -1  -2 221.214 99.4593  16
   1  -1   2 152.181 71.7267   6
   1   1   2 47.8448 63.6359   5
   1   1   2 19.8622 51.1746   6
   1   1   3 2937.55 316.956   6
   1   1   3 2585.55 332.533   2
  -1  -1  -3 3036.45 362.968  16
   1  -1   3 2624.00 333.999   2
  -1   1  -3 2774.03 322.729  16
   1  -1   3 2822.66 318.917   6
   1  -1   4 3145.95 371.282   6
  -1   1  -4 3044.72 386.405  16
   1  -1   4 2392.48 361.573   2
   1   1   4 3076.91 367.389   6
   1   1   4 2607.19 361.635   2
  -1  -1  -4 3342.99 420.840  16
   1  -1   5 4099.04 474.758   6
  -1  -1  -5 3617.11 466.217  16
   1   1   5 3142.07 446.320   2
   1   1   5 3553.84 439.014   6
  -1   1  -5 4626.63 542.446  16
   1  -1   5 2815.03 427.256   2
   1  -1   6 3618.26 481.727   6
  -1   1  -6 3778.12 572.989  16
   1   1   6 3310.17 456.015   6
  -1  -1  -6 3440.08 501.302  16
   1   1   6 2575.79 459.335   2
   1  -1   6 2549.05 463.195   2
   1  -1   7 3097.91 277.251   3
   1   1   7 2843.00 266.215   3
   1  -1   7 3316.93 564.460   2
   1   1   7 3223.89 278.236   4
  -1   1  -7 3608.60 566.223  16
   1   1   7 3005.75 532.826   2
   1  -1   7 3068.48 275.383   4
  -1  -1  -7 3585.82 543.906  16
   1  -1   8 577.684 133.362   3
   1  -1   8 716.452 146.470   4
   1   1   8 795.580 308.327   2
   1  -1   8 579.761 263.445   2
   1   1   8 638.686 133.483   3
   1   1   8 680.370 135.895   4
   1  -1   9 251.317 107.771   4
   1   1   9 351.424 101.420   3
   1  -1   9 307.588 100.885   3
   1   1   9 157.082 100.301   4
   1   1  10 1734.07 199.381   4
   1   1  10 1686.80 200.514   3
   1  -1  10 1751.73 203.257   4
   1  -1  10 1593.03 195.517   3
   1  -1  11 2.01438 34.1614   4
   1   1  11 52.4906 44.0020   4
   1  -1  12 308.338 58.4109   4
   1   1  12 249.648 53.6187   4
  -1  -2  12 2324.44 196.972   4
  -1   2  12 2273.08 190.997   4
  -1  -2  12 2570.72 186.728   7
  -1   2  12 2662.57 188.464   7
  -1   2  11 17673.6 583.444   7
  -1  -2  11 17305.0 628.651   4
  -1   2  11 16468.7 598.048   4
  -1  -2  11 18906.4 616.825   7
  -1  -2  10 208.286 86.2076   4
  -1   2  10 194.393 75.4843   7
  -1  -2  10 224.993 76.9854   9
  -1   2  10 245.488 92.8004   4
  -1  -2  10 181.075 81.3997   7
  -1   2   9 652.297 130.065   7
  -1  -2   9 917.212 146.306   9
  -1   2   9 795.041 152.190   4
  -1  -2   9 774.831 142.680   7
  -1  -2   9 839.405 166.443   4
  -1   2   8 11913.1 565.637   4
  -1   2   8 10907.0 1097.35   1
  -1  -2   8 11826.1 486.048   9
   1   2  -8 11139.0 906.701  13
  -1  -2   8 11890.8 510.356   7
  -1   2   8 12612.9 530.578   7
  -1  -2   8 11224.7 1131.74   1
   1  -2  -8 8701.85 1069.73  13
  -1  -2   8 12162.3 573.466   4
  -1  -2   7 2101.44 442.249   1
   1  -2  -7 2425.90 415.156  13
  -1   2   7 2091.07 440.326   1
  -1  -2   7 1948.05 343.380  15
   1   2  -7 1944.74 339.138  13
   1   2  -6 20898.8 1000.56  13
  -1   2   6 21404.8 1247.37   1
  -1  -2   6 19955.5 1213.37   1
  -1  -2   6 21653.1 1001.43  15
   1  -2  -6 23620.0 1137.72  13
  -1  -2   5 5873.82 456.959  15
   1   2  -5 4869.52 344.967   5
   1  -2  -5 5981.60 493.552  13
  -1   2   5 5393.46 547.292   1
  -1  -2   5 5190.80 548.141   1
   1   2  -4 65.8651 33.6879   5
  -1   2   4 13.1184 44.9694  14
  -1  -2   4 39.8412 51.8779  15
   1  -2  -4 56.5894 64.9449  13
  -1  -2   4 123.348 87.1812   1
  -1   2   4 73.5749 96.7386   1
  -1   2   3 1198.97 207.823   1
   1  -2  -3 1160.75 179.123  13
  -1   2   3 1259.72 164.191  14
   1   2  -3 1169.60 159.077   5
  -1  -2   3 1358.09 192.886  15
  -1  -2   3 1085.23 199.726   1
  -1   2   3 736.022 75.8576  15
  -1   2   2 221484. 2489.09   1
   1  -2  -2 219564. 1459.80   6
  -1  -2   2 223801. 2235.14  15
  -1  -2   2 221053. 1685.66  16
   1   2  -2 220449. 2115.46   5
  -1   2   2 225817. 2138.07  14
  -1  -2   2 218750. 2431.06   1
   1  -2  -1 67.7943 42.8006   6
  -1   2   1 76.8330 57.7254  14
  -1  -2   1 47.9629 39.9557  16
  -1  -2   1 8.74124 59.2370   1
   1   2  -1 90.9675 57.0062   5
   1  -2  -1 117.680 79.8495  13
  -1  -2   0 432035. 2929.44  16
  -1   2   0 431680. 3036.66  14
   1   2   0 427218. 2933.54   5
   1   2   1 106671. 1569.08   5
   1  -2   1 104554. 1097.16  13
  -1   2  -1 106378. 1661.58  14
  -1  -2  -1 108353. 1617.36  16
   1  -2   1 106328. 1565.89   6
  -1  -2  -2 24113.9 854.176  16
   1   2   2 23854.0 803.229   5
   1  -2   2 25872.6 856.790   6
   1   2   3 2346.50 289.295   6
   1  -2   3 1764.48 278.801   2
   1   2   3 2045.25 297.134   2
  -1  -2  -3 2096.41 283.640  16
   1   2   3 2044.95 257.240   5
   1  -2   3 2102.53 272.767   6
   1  -2   4 15981.2 834.498   6
  -1  -2  -4 14653.1 828.981  16
   1   2   4 13261.6 833.643   2
  -1   2  -4 15250.1 866.472  16
   1  -2   4 13756.9 866.550   2
   1   2   4 15186.5 808.198   6
   1  -2   5 7259.24 635.605   6
   1   2   5 7780.36 641.349   6
  -1  -2  -5 7811.35 679.257  16
   1   2   5 6669.34 657.974   2
  -1   2  -5 8090.93 707.098  16
   1  -2   5 6650.46 671.465   2
  -1   2  -6 2390.30 456.771  16
   1  -2   6 1945.10 369.452   6
  -1  -2  -6 1899.20 360.697  16
   1  -2   6 1899.55 409.555   2
   1   2   6 1635.95 373.708   2
  -1   2  -6 1647.31 343.048  14
   1  -2   7 14855.9 611.211   4
  -1  -2  -7 15548.8 1130.16  16
   1   2   7 14566.4 600.561   3
   1   2   7 14859.3 600.544   4
   1   2   7 16046.8 1241.55   2
   1  -2   7 15367.2 1238.20   2
   1  -2   7 14227.0 602.453   3
   1  -2   8-25.1890 75.1495   3
   1   2   8 9.50184 37.4201   3
   1  -2   8 23.8115 47.0091   4
   1   2   8-17.6369 46.4272   4
   1   2   9 13625.1 603.773   3
   1   2   9 14563.7 612.690   4
   1  -2   9 13701.3 605.723   3
   1  -2   9 14196.4 611.004   4
   1   2  10 8302.98 433.488   4
   1  -2  10 8109.42 428.334   4
   1  -2  10 7184.06 408.288   3
   1   2  11 9.25676 36.9980   4
   1  -2  11 3.56571 36.7092   4
  -1   3  12 89.4932 44.3304   7
  -1   3  12 48.4629 46.0333   4
  -1  -3  12 38.8358 40.2223   4
  -1  -3  12 118.765 41.9087   7
  -1   3  11 69.2928 51.6327   4
  -1  -3  11 186.385 73.5069   4
  -1   3  11 22.7033 43.4834   7
  -1  -3  11 98.7432 51.4776   7
  -1  -3  10 636.092 128.585   7
  -1   3  10 584.221 133.491   4
  -1  -3  10 671.077 124.649   9
  -1  -3  10 582.097 140.509   4
  -1   3  10 713.892 136.338   7
  -1  -3   9 16.4454 47.7915   7
  -1   3   9-65.6815 60.9713   4
  -1  -3   9 8.40992 39.5933   9
  -1  -3   9 12.8319 71.2102   4
  -1   3   9-38.5573 59.2602   7
  -1   3   8 1137.01 160.606  12
  -1  -3   8 1240.04 167.113   7
  -1  -3   8 1355.14 321.125  15
  -1  -3   8 954.582 321.044   1
  -1   3   8 1192.54 164.511   7
  -1  -3   8 1102.56 174.452   4
  -1   3   8 484.152 244.727   1
  -1  -3   8 1210.70 158.002   9
  -1   3   8 1150.50 173.952   4
   1   3  -8 1289.77 299.588  13
  -1   3   7 2166.79 466.463   1
  -1  -3   7 1605.87 390.893   1
   1   3  -7 1978.28 355.542  13
   1  -3  -7 1598.64 425.468  13
  -1  -3   7 2026.49 362.023  15
  -1  -3   6 679.270 231.930   1
  -1  -3   6 876.599 215.444  15
  -1   3   6 819.810 248.509   1
   1  -3  -6 732.375 235.767  13
  -1  -3   5 7445.57 543.483  15
  -1  -3   5 7293.15 655.834   1
   1  -3  -5 9258.76 690.674  13
  -1   3   5 7020.24 633.834   1
   1   3  -5 7050.99 470.689   5
  -1  -3   4 42797.9 1376.82   1
   1   3  -4 45416.2 1134.87   5
  -1   3   4 42074.7 1155.41  14
  -1  -3   4 45651.7 1252.96  15
   1   3  -3 8858.22 480.248   5
  -1  -3   3 9157.73 521.133  15
  -1  -3   3 8547.15 550.776   1
  -1   3   3 8699.76 492.612  14
   1  -3  -3 10150.9 599.495  13
  -1   3   3 8012.86 535.759   1
   1  -3  -2 862.676 100.962   6
  -1  -3   2 926.878 161.518  15
   1   3  -2 1057.27 166.310   5
  -1   3   2 1036.65 172.124  14
   1  -3  -2 930.129 197.183  13
  -1   3   2 888.164 166.580   1
  -1  -3   2 827.973 162.526   1
  -1  -3   2 782.543 124.951  16
  -1  -3   1 26193.4 742.647  16
  -1  -3   1 24827.5 782.219   1
  -1   3   1 25264.4 800.824  14
  -1   3   1 25291.9 820.471   1
   1   3  -1 25441.3 769.463   5
   1   3   0 86082.4 1419.12   5
  -1   3   0 92613.6 1559.86  14
  -1  -3   0 89407.7 1460.96  16
   1  -3   0 95519.1 1425.67   6
   1  -3   1 4571.34 340.172   6
   1   3   1 4805.51 355.187   5
   1  -3   1 4508.81 268.546  13
  -1  -3  -1 4497.48 352.367  16
  -1   3  -1 4568.50 363.475  14
  -1   3  -2 20653.0 817.983  14
   1  -3   2 20236.3 848.368   2
   1   3   2 19879.7 824.461   2
   1   3   2 22786.9 812.424   5
   1  -3   2 20573.8 754.429  15
   1  -3   2 20560.2 787.576   6
  -1  -3  -2 20330.1 790.437  16
   1  -3   3 39916.7 1355.80   2
   1   3   3 35590.3 1242.07   2
   1   3   3 40571.8 1161.96   5
   1  -3   3 42291.8 1239.79   6
  -1  -3  -3 37258.7 1204.18  16
  -1   3  -3 37833.8 1198.22  14
   1  -3   3 40635.6 1184.04  15
   1  -3   4 13768.7 789.066   6
  -1   3  -4 12325.1 746.388  14
   1   3   4 12845.9 832.895   2
  -1  -3  -4 12527.9 769.898  16
   1   3   4 13693.4 778.092   6
  -1   3  -4 13265.2 835.198  16
   1  -3   4 12547.0 849.732   2
   1  -3   5 1860.91 323.759   6
  -1   3  -5 2159.49 377.675  16
   1   3   5 1751.50 353.509   2
  -1  -3  -5 1505.89 296.200  16
   1   3   5 1778.94 308.489   6
   1  -3   5 1628.72 345.663   2
  -1   3  -5 1886.93 322.224  14
   1  -3   6 13658.0 1105.54   2
  -1   3  -6 11403.0 855.057  14
  -1   3  -6 15036.0 1103.68  16
   1  -3   6 14108.6 980.934   6
  -1  -3  -6 13426.3 978.587  16
   1   3   6 12943.4 1043.48   2
   1   3   7 1464.42 194.853   3
   1  -3   7 1249.91 184.641   3
   1  -3   7 1008.58 339.374   2
   1   3   7 1167.38 347.068   2
   1   3   7 1348.59 184.200   4
  -1  -3  -7 1314.02 350.311  16
  -1   3  -7 1308.00 372.542  16
   1  -3   7 1403.18 195.581   4
   1   3   8 27901.9 868.494   3
   1  -3   8 29052.2 898.837   3
   1   3   8 28686.4 867.539   4
   1  -3   8 30748.3 911.414   4
   1   3   9 348.690 110.108   4
   1  -3   9 281.618 96.7812   4
   1   3   9 177.594 82.0677   3
   1  -3   9 221.937 91.6545   3
   1   3  10 1078.21 159.520   4
   1  -3  10 1159.67 164.518   4
   1  -3  11 745.596 112.410   4
   1   3  11 929.150 126.099   4
  -1  -4  12 117.105 39.3487   7
  -1   4  12 113.333 40.7915   7
  -1   4  11 4551.49 308.804   4
  -1  -4  11 5012.99 335.612   4
  -1  -4  11 5033.73 302.684   7
  -1   4  11 4669.63 281.938   7
  -1   4  10 416.332 108.832   7
  -1  -4  10 485.914 114.614   7
  -1  -4  10 438.051 117.628   4
  -1   4  10 522.870 127.767   4
  -1  -4  10 499.610 110.643   9
  -1  -4   9 9769.91 453.685   9
  -1  -4   9 10158.1 483.468   7
  -1   4   9 9311.57 512.111   4
  -1  -4   9 9722.64 531.966   4
  -1   4   9 9946.86 474.651   7
  -1  -4   8 7119.02 371.668   9
  -1  -4   8 6392.38 371.464   7
  -1  -4   8 5588.01 820.774   1
  -1   4   8 5243.11 785.829   1
  -1   4   8 6753.09 388.638  12
  -1   4   8 6312.18 418.436   4
  -1   4   8 6499.82 380.999   7
  -1  -4   8 6173.59 417.575   4
  -1  -4   8 4703.84 642.732  15
   1   4  -8 5506.70 666.047  13
  -1   4   7 1615.89 182.477  12
  -1  -4   7 1538.83 195.950   4
  -1  -4   7 1646.18 177.125   9
  -1  -4   7 1636.01 349.713  15
  -1  -4   7 1696.43 183.390   7
  -1   4   7 1799.86 195.054   7
  -1  -4   7 1627.67 392.461   1
  -1   4   7 1565.39 199.317   4
   1   4  -7 1630.49 337.070  13
  -1   4   7 1157.30 337.422   1
   1  -4  -7 1667.44 495.800  13
  -1  -4   6 19039.4 1021.66  15
  -1   4   6 17009.7 1147.39   1
  -1  -4   6 17626.4 1172.93   1
  -1   4   5 4804.74 540.651   1
  -1  -4   5 4843.41 547.399   1
   1   4  -5 5126.67 446.933   5
   1  -4  -5 3590.00 572.759  13
  -1  -4   5 5265.26 485.982  15
  -1   4   4 6659.35 553.607   1
  -1  -4   4 5709.97 517.422   1
  -1  -4   4 6612.39 506.256  15
   1  -4  -4 4636.17 585.619  13
  -1   4   4 6331.22 499.580  14
   1   4  -4 6705.27 479.596   5
  -1   4   3 4129.66 391.241   1
   1   4  -3 4079.49 357.950   5
  -1  -4   3 3517.34 358.020   1
  -1   4   3 3935.12 369.467  14
  -1  -4   3 4210.83 385.538  15
  -1   4   2 28997.4 920.344   1
   1  -4  -2 28210.4 644.170   6
  -1  -4   2 30744.6 865.728  16
  -1   4   2 29997.8 971.651  14
   1   4  -2 30082.6 918.789   5
  -1  -4   2 30269.0 953.330  15
  -1  -4   2 27666.7 890.798   1
   1   4  -1 13551.6 611.015   5
   1  -4  -1 14481.7 533.428   6
  -1  -4   1 14799.3 618.012  16
  -1   4   1 14380.2 625.074   1
  -1   4   1 13976.5 655.195  14
   1  -4  -1 14320.9 838.897  13
  -1  -4   1 13675.7 586.685   1
   1  -4   0 95.0470 59.4175   6
  -1  -4   0 220.183 95.7664  16
   1  -4   0 138.005 79.1759  13
   1   4   0 140.640 83.4024   5
  -1   4   0 139.434 87.8515  14
   1  -4   1 62307.3 1312.97   6
  -1   4  -1 59179.4 1379.59  14
   1   4   1 58160.4 1299.29   5
  -1  -4  -1 57453.9 1335.97  16
   1  -4   1 58618.1 1106.67  13
   1  -4   1 60533.3 1130.47  15
  -1   4  -2 7321.13 516.423  14
  -1  -4  -2 6956.24 490.354  16
   1  -4   2 6885.76 516.208   2
   1   4   2 6821.53 497.195   2
   1   4   2 7244.41 485.203   5
   1  -4   2 6751.39 445.310  15
   1  -4   2 6922.25 473.833   6
   1   4   3 27370.6 1117.09   2
   1  -4   3 26210.4 1008.61   6
  -1   4  -3 24184.2 993.615  14
   1   4   3 26853.4 977.715   5
   1  -4   3 27960.9 1000.27  15
  -1  -4  -3 26251.4 1034.17  16
   1  -4   3 26473.3 1141.72   2
   1   4   4 45670.5 1455.22   6
  -1   4  -4 43206.1 1433.00  14
   1   4   4 43395.9 1562.49   2
   1  -4   4 46961.3 1680.16   2
   1  -4   4 46914.9 1487.30   6
   1   4   4 43520.8 1308.97   5
  -1  -4  -4 45428.8 1510.06  16
   1  -4   4 42264.3 1433.52  15
   1  -4   5 2790.81 464.890   2
   1   4   5 3157.91 476.479   2
   1   4   5 2901.77 397.229   6
   1  -4   5 3463.02 458.609   6
  -1  -4  -5 3448.14 466.631  16
  -1   4  -5 2330.41 371.269  14
  -1   4  -5 3726.92 509.362  16
   1   4   6 23150.7 1413.95   2
  -1  -4  -6 24982.8 1373.44  16
  -1   4  -6 22173.3 1238.43  14
  -1   4  -6 27614.6 1526.82  16
   1  -4   6 27129.0 1386.14   6
   1  -4   6 23005.1 1462.14   2
   1  -4   7 35345.0 1703.22   6
   1   4   7 36880.0 980.434   3
   1  -4   7 39411.4 1036.22   3
  -1   4  -7 45899.0 2212.93  16
  -1  -4  -7 38769.2 1836.53  16
   1   4   7 39441.8 2012.39   2
   1  -4   7 39061.2 2062.79   2
   1  -4   7 40682.8 1041.92   4
   1   4   7 38641.3 986.857   4
   1   4   7 33782.1 844.172   7
   1   4   8 677.297 120.627   7
   1  -4   8 935.209 162.426   4
   1   4   8 848.590 160.603   3
   1  -4   8 939.988 167.611   3
   1   4   8 1038.48 166.863   4
   1   4   9 40440.3 1015.34   4
   1   4   9 38886.2 1007.95   3
   1  -4   9 40765.4 1051.22   3
   1  -4   9 42105.1 1056.00   4
   1   4  10 15.6866 52.0405   4
   1  -4  10 51.2446 39.4302   4
   1   4  11 1058.83 130.689   4
  -1  -4 -11 856.436 103.864  11
   1  -4  11 1024.75 125.810   4
  -1   5  12 2929.73 176.101   7
  -1   5  11 160.350 60.2430   7
  -1  -5  11 230.876 60.9329   7
  -1   5  11 236.235 74.9890   4
  -1  -5  11 135.303 58.1619   4
  -1  -5  10 1336.65 195.866   4
  -1  -5  10 1353.12 167.843   9
  -1   5  10 1208.72 173.379   4
  -1   5  10 1203.94 158.914   7
  -1  -5  10 1440.19 177.314   7
  -1  -5   9 2118.74 247.000   4
  -1  -5   9 2111.39 218.559   7
  -1   5   9 2105.86 217.755  12
  -1   5   9 1948.64 235.045   4
  -1   5   9 2291.51 226.794   7
  -1  -5   9 2078.60 211.007   9
  -1  -5   8 91.4927 57.4645   4
  -1   5   8 242.184 84.9859   7
  -1  -5   8-190.070 294.260   1
  -1  -5   8 210.924 75.6886   7
  -1   5   8 37.0152 50.9993   4
  -1  -5   8 117.221 57.9505   9
   1   5  -8-9.07936 55.8734  13
   1  -5  -8-201.876 299.722  13
  -1  -5   8 683.523 249.384  15
  -1   5   8 253.560 86.8419  12
  -1  -5   7 3345.59 508.867  15
  -1  -5   7 3253.05 248.978   9
  -1  -5   7 3251.09 566.092   1
  -1   5   7 3463.90 587.567   1
  -1   5   7 2722.93 264.810   4
  -1  -5   7 2503.07 251.013   4
   1  -5  -7 1719.79 523.845  13
  -1  -5   7 2832.94 239.763   7
  -1   5   7 3172.11 258.352  12
  -1   5   7 3492.59 273.317   7
   1  -5  -6 283.248 136.008  13
  -1  -5   6 308.294 134.440  15
  -1   5   6 233.886 148.535   1
  -1  -5   6 234.389 158.635   1
  -1   5   5 3276.43 448.432   1
  -1  -5   5 3200.33 403.768  15
   1   5  -5 3290.16 387.742   5
  -1  -5   5 3161.97 453.488   1
  -1   5   4 51.3797 76.4426   1
  -1  -5   4-36.2975 103.982  15
   1   5  -4 56.2416 69.6134   5
  -1  -5   4-104.806 92.2098   1
  -1   5   4-116.347 91.2151  14
   1  -5  -4 44.4366 132.112  13
   1   5  -3 53580.5 1377.51   5
  -1   5   3 49866.6 1432.91  14
  -1  -5   3 52513.2 1431.39  15
  -1   5   3 47340.6 1329.61   1
  -1  -5   3 47728.3 1320.61   1
   1  -5  -2 49921.9 973.604   6
  -1  -5   2 47833.3 1179.85   1
  -1  -5   2 52815.8 1359.32  15
   1   5  -2 56631.9 1344.70   5
  -1   5   2 53510.5 1412.30  14
   1  -5  -2 48265.7 1689.42  13
  -1   5   2 46782.1 1192.05   1
  -1  -5   1 1412.06 220.151  16
  -1   5   1 1415.51 194.786   1
   1  -5  -1 1466.73 186.910   6
   1  -5  -1 1610.11 272.079  13
  -1   5   1 1471.83 235.012  14
  -1  -5   1 1142.00 169.580   1
   1   5  -1 1404.38 218.066   5
   1  -5   0 6631.93 429.821   6
  -1  -5   0 6407.69 471.763  16
   1  -5   0 6228.80 320.594  15
  -1   5   0 5636.49 450.514  14
   1   5   0 6113.42 444.776   5
   1  -5   0 7129.93 466.438  13
   1  -5   1 21014.4 814.695   6
  -1   5  -1 20180.6 867.573  14
   1   5   1 19945.1 808.368   5
   1  -5   1 20668.5 731.203  13
   1  -5   1 20705.5 700.537  15
  -1  -5  -1 20198.0 845.242  16
   1  -5   2 74246.7 1740.86   2
   1   5   2 67493.8 1593.35   2
   1  -5   2 74182.1 1623.32   6
  -1   5  -2 73111.4 1727.32  14
   1   5   2 73889.7 1614.36   5
   1  -5   2 75890.9 1511.93  15
   1  -5   2 73593.0 1391.41  13
  -1  -5  -2 66873.7 1604.16  16
   1  -5   3 24614.3 972.766  15
   1  -5   3 25163.5 1125.68   2
   1   5   3 23771.2 1057.65   2
   1  -5   3 24556.8 1014.48   6
  -1  -5  -3 24187.4 1057.09  16
   1   5   3 22482.4 930.900   5
  -1   5  -3 21762.3 1002.18  14
   1  -5   4-11.9507 59.9649   2
   1  -5   4 112.274 99.7086   6
  -1  -5  -4 128.489 106.985  16
  -1   5  -4 239.845 118.746  14
   1  -5   4 99.2708 110.489  15
   1   5   4 3.72635 57.8582   5
   1   5   4 50.4107 96.1376   2
   1  -5   5 8402.94 819.021   2
   1  -5   5 7968.59 711.995   6
  -1   5  -5 7996.98 707.754  14
  -1  -5  -5 8577.74 757.332  16
   1   5   5 8274.22 673.034   6
   1   5   5 7942.69 767.202   2
   1  -5   6 10327.4 516.310   4
  -1   5  -6 10703.7 892.110  14
   1  -5   6 13497.8 1013.04   6
  -1   5  -6 16007.6 1203.20  16
   1   5   6 9385.68 476.277   3
   1  -5   6 10140.6 513.402   3
   1   5   6 12097.0 1031.97   2
  -1  -5  -6 13349.8 1034.90  16
   1  -5   6 10302.1 429.017   8
   1   5   6 9407.70 473.451   4
   1  -5   6 13231.8 1124.37   2
   1  -5   7 8928.38 499.064   4
   1  -5   7 7504.94 816.293   6
   1   5   7 8474.22 472.470   3
   1  -5   7 8333.48 488.123   3
   1   5   7 8648.66 474.130   4
  -1  -5  -7 7734.37 842.334  16
   1  -5   7 7309.59 368.764   8
   1   5   7 6628.77 838.989   2
   1  -5   7 7312.63 917.537   2
  -1   5  -7 8967.26 1004.41  16
   1   5   7 7994.48 418.209   7
   1   5   8 3202.12 295.313   3
   1  -5   8 3503.26 317.884   3
   1   5   8 3362.36 299.816   4
   1  -5   8 3421.04 312.169   4
   1   5   8 2914.31 248.892   7
   1   5   9 796.050 140.423   4
   1   5   9 909.499 156.732   3
   1  -5   9 970.828 170.837   3
   1  -5   9 1177.38 179.035   4
   1   5   9 865.594 126.324   7
   1   5  10 1985.01 201.172   4
   1  -5  10 2042.33 207.894   4
  -1  -5 -11 674.527 83.2997  11
   1  -5  11 813.503 103.255   4
   1   5  11 960.231 112.235   4
  -1   6  12 158.470 41.9868   7
  -1  -6  11 26967.6 700.524   4
  -1  -6  11 26874.5 622.704   7
  -1   6  11 25571.5 653.838   4
  -1   6  10 10957.7 447.060   7
  -1   6  10 11805.3 524.154   4
  -1  -6  10 12886.7 484.877   9
  -1  -6  10 11549.7 530.194   4
  -1  -6  10 11594.3 475.754   7
  -1   6   9 2764.65 244.694   7
  -1  -6   9 2830.77 280.572   4
  -1   6   9 2609.98 237.515  12
  -1  -6   9 2614.48 230.536   9
  -1  -6   9 2641.28 244.126   7
  -1   6   9 2637.21 266.133   4
  -1   6   8 1713.59 218.031   4
  -1  -6   8 1322.66 369.413  15
  -1  -6   8 1517.88 206.241   4
   1   6  -8 988.867 292.362  13
  -1   6   8 1785.10 199.487  12
  -1   6   8 1620.38 189.750   7
  -1  -6   8 2053.43 206.215   9
  -1  -6   8 1790.59 200.164   7
  -1  -6   7 2050.07 400.200  15
  -1   6   7 1713.55 407.585   1
  -1  -6   7 1157.57 340.861   1
   1  -6  -7 1533.40 494.614  13
  -1  -6   7 1717.66 190.031   7
  -1   6   7 1925.73 200.378  12
  -1  -6   7 2215.77 209.774   9
  -1   6   7 1439.22 190.107   4
  -1   6   7 1976.52 208.647   7
  -1   6   6 14879.1 1106.17   1
   1  -6  -6 14406.3 1285.60  13
  -1  -6   6 17349.9 1064.56  15
  -1  -6   6 13144.2 1028.06   1
   1   6  -6 14374.0 915.588   5
  -1  -6   5 79791.8 2238.79   1
  -1  -6   5 88887.4 2220.24  15
   1   6  -5 86782.8 2162.91   5
  -1   6   5 80162.0 2288.74   1
   1   6  -4 253.500 110.070   5
  -1  -6   4 280.066 125.509   1
  -1  -6   4 382.546 145.369  15
  -1   6   4 260.550 124.034   1
   1  -6  -4 364.454 198.850  13
  -1   6   4 217.101 106.758  14
  -1   6   3 2459.13 315.679   1
  -1  -6   3 2642.34 309.516   1
   1   6  -3 3166.14 365.690   5
  -1  -6   3 3234.29 390.230  15
  -1   6   3 2860.55 383.903  14
   1  -6  -3 3031.10 437.074  13
  -1  -6   2 18465.9 717.124   1
   1  -6  -2 23517.0 748.283   6
   1   6  -2 21478.7 910.938   5
  -1  -6   2 23452.7 978.287  15
  -1   6   2 19330.5 759.926   1
   1  -6  -2 26531.3 1130.92  13
  -1   6   2 22287.3 988.785  14
  -1   6   1 3928.83 407.521  14
   1  -6  -1 4364.99 350.773   6
   1   6  -1 4097.76 387.516   5
   1  -6  -1 5067.25 457.081  13
  -1   6   1 3397.06 293.604   1
  -1  -6   1 2950.44 262.091   1
  -1  -6   1 4700.49 433.951  16
   1   6   0 31.6593 65.0158   5
  -1  -6   0 1.36674 77.2646  16
   1  -6   0 88.8541 77.4777  13
  -1  -6   0 51.0356 46.6036   1
   1  -6   0 20.9455 46.4731   6
   1  -6   0-76.1254 44.3211  15
  -1   6   0 53.1286 47.3425   1
  -1   6   0 63.5017 87.5245  14
   1  -6   1 23530.7 920.212   6
   1  -6   1 18655.1 783.965   2
   1   6   1 17305.8 729.583   2
  -1  -6  -1 20734.4 925.306  16
   1   6   1 20489.6 873.448   5
   1  -6   1 20350.5 735.143  15
  -1   6  -1 18679.8 892.903  14
   1  -6   1 21337.9 826.859  13
  -1   6  -2 14449.5 822.474  14
   1  -6   2 14312.6 761.975   2
   1  -6   2 13206.2 727.442   6
   1   6   2 13947.2 750.888   5
  -1  -6  -2 14544.9 807.651  16
   1  -6   2 15757.4 725.915  15
   1  -6   2 15120.0 704.988  13
   1   6   2 14888.5 757.918   2
   1  -6   3 85526.4 2106.70   2
   1  -6   3 89504.5 2020.04   6
   1  -6   3 94014.7 1980.94  15
  -1   6  -3 82949.8 2068.94  14
  -1  -6  -3 89863.7 2126.53  16
   1   6   3 83785.8 2014.59   2
   1   6   3 85924.5 1915.14   5
   1   6   4 21805.5 1156.17   2
   1  -6   4 21595.6 1088.28   6
  -1   6  -4 20261.4 1087.69  14
   1   6   4 18763.7 929.323   5
  -1  -6  -4 21923.5 1140.87  16
   1  -6   4 22281.6 1071.67  15
   1  -6   4 20361.4 1141.66   2
   1  -6   5 5841.96 684.492   2
   1   6   5 5872.65 668.758   2
  -1   6  -5 4884.96 570.934  14
   1  -6   5 5621.32 608.342   6
  -1  -6  -5 6138.20 662.544  16
   1  -6   5 6539.99 658.237  15
   1  -6   6 313.729 80.1754   8
   1  -6   6 235.724 168.682   2
  -1   6  -6 26.0103 90.7133  16
  -1  -6  -6 506.855 201.231  16
   1  -6   6 552.805 237.459   6
   1   6   6 321.596 89.4287  12
   1   6   6 273.503 153.100   2
   1  -6   7 11705.7 473.774   8
   1   6   7 10933.6 536.762   3
   1  -6   7 9468.63 943.858   6
   1  -6   7 11858.8 573.940   4
  -1   6  -7 10763.9 1101.55  16
   1  -6   7 11484.1 568.960   3
   1   6   7 11037.2 529.983   4
   1   6   7 10511.1 1078.90   2
  -1  -6  -7 10606.0 1004.29  16
   1   6   8-21.5264 41.4008   7
   1  -6   8 43.1211 66.8589   4
   1   6   8 49.2096 60.3645   4
   1   6   8 65.6835 59.6637   3
   1  -6   8 25.8091 52.0199   3
   1  -6   8-9.03087 42.1855   8
   1  -6   9 4950.18 352.981   4
   1   6   9 4605.10 326.893   4
   1   6   9 4311.32 273.182   7
  -1  -6 -10 474.882 91.5140  11
   1   6  10 497.625 95.3166   4
   1  -6  10 409.878 90.6282   4
  -1   7  12 323.282 53.1916   7
  -1   7  11 3169.42 203.083   7
  -1  -7  10 1992.27 189.980   7
  -1   7  10 2180.77 194.950   7
  -1   7   9 589.047 113.423   7
  -1  -7   9 712.094 122.799   9
  -1   7   9 585.901 110.499  12
  -1  -7   9 617.648 118.424   7
  -1   7   8 40801.7 926.692  12
  -1  -7   8 39267.5 917.646   7
  -1   7   8 41038.4 938.830   7
  -1  -7   7 1983.93 204.894   7
  -1   7   7 2202.77 218.922   7
  -1  -7   7 1938.77 407.564  15
   1  -7  -7 2078.13 471.193  13
  -1  -7   7 2214.26 212.665   9
  -1   7   7 2134.11 210.746  12
   1  -7  -6 5714.45 739.155  13
  -1  -7   6 4680.79 297.997   9
  -1  -7   6 4646.30 575.141  15
  -1  -7   6 4090.72 287.328   7
   1   7  -6 4756.48 566.375   5
  -1   7   6 4432.41 300.067   7
  -1   7   6 4441.13 289.470  12
  -1  -7   5 4439.86 524.498  15
  -1   7   5 4361.85 538.077   1
   1   7  -5 4854.56 541.901   5
   1  -7  -5 5674.94 683.435  13
  -1   7   4 15088.7 892.266   1
   1   7  -4 17641.7 975.341   5
  -1  -7   4 17073.1 980.217  15
  -1   7   4 17700.6 1082.64  14
  -1  -7   3 923.738 221.446  15
  -1   7   3 507.124 145.479   1
   1   7  -3 875.744 210.608   5
  -1   7   3 809.822 229.661  14
   1  -7  -3 1078.44 265.325  13
   1  -7  -2 11116.9 574.099   6
  -1  -7   2 11157.7 729.385  15
  -1   7   2 9136.74 528.506   5
   1   7  -2 9600.01 643.890   5
   1  -7  -2 11661.8 750.263  13
  -1   7   2 9244.31 698.279  14
   1  -7  -1 949.916 178.061   6
  -1  -7   1 985.122 225.179  16
   1   7  -1 891.468 195.567   5
  -1  -7   1 1067.79 226.827  15
  -1   7   1 1109.54 240.584  14
   1  -7  -1 1090.03 227.427  13
   1  -7   0 2313.52 311.208  13
   1  -7   0 1773.55 250.479   6
  -1  -7   0 2100.81 316.985  16
   1  -7   0 1943.53 207.163  15
   1   7   0 1822.63 295.352   5
  -1   7   0 2092.18 320.707  14
   1   7   1 907.197 217.182   5
   1  -7   1 637.876 163.953   6
  -1  -7  -1 1133.77 239.355  16
   1  -7   1 765.756 152.807  15
  -1   7  -1 688.324 198.705  14
   1  -7   1 870.631 189.675  13
  -1  -7  -2 685.177 196.456  16
  -1   7  -2 618.574 189.209  14
   1  -7   2 629.972 179.655   6
   1  -7   2 665.649 163.824  15
   1   7   2 603.375 178.686   5
   1  -7   3 9758.41 698.627   6
  -1   7  -3 9647.01 747.233  14
   1   7   3 9395.73 677.193   5
  -1  -7  -3 8976.48 717.127  16
   1  -7   3 10287.0 685.997  15
   1   7   3 8408.70 643.079   2
  -1   7  -4 19466.4 1123.17  14
   1  -7   4 21278.8 1133.14   6
  -1  -7  -4 20770.1 1165.92  16
   1  -7   4 20963.3 1087.13  15
   1   7   4 18193.9 959.900   5
   1  -7   5 23.6711 76.0445  15
   1  -7   5 58.9899 54.4142  11
   1  -7   5 160.288 119.058   6
  -1  -7  -5 168.286 124.105  16
   1  -7   5 69.1096 39.7145   8
   1   7   5 21.9653 45.8398  12
  -1   7  -6 1715.32 418.185  16
   1   7   6 1294.27 162.905  12
  -1  -7  -6 1726.70 396.131  16
   1  -7   6 1561.43 177.598   8
   1  -7   6 1567.83 381.334   6
   1   7   7 3727.34 270.883  12
   1  -7   7 4129.74 287.303   8
   1  -7   8 2003.89 190.317   8
   1   7   8 2039.98 207.787   7
  -1  -7  -9 1349.32 164.895  11
   1   7   9 1185.13 144.170   7
  -1  -7 -10 526.257 87.1457  11
   1   7  10 304.316 60.3345   7
  -1   8  11 6528.66 273.071   7
  -1   8  10 3191.54 225.082   7
  -1   8   9 19701.1 609.229   7
  -1   8   9 19431.4 600.689  12
  -1  -8   9 18229.2 589.887   7
  -1  -8   8 4343.65 304.962   9
  -1  -8   8 3642.94 279.014   7
  -1   8   8 3876.39 286.582   7
  -1   8   8 3897.93 282.308  12
  -1  -8   7 29444.2 776.191   9
  -1  -8   7 22993.4 1432.36  15
   1  -8  -7 22748.6 1413.95  13
  -1   8   7 26771.5 732.368  12
  -1  -8   7 25497.2 731.201   7
  -1   8   7 28093.8 770.165   7
  -1  -8   6 17.3477 32.4873   8
  -1  -8   6 31.1693 45.2162   9
  -1  -8   6 44.5341 78.9056  15
   1  -8  -6 128.949 124.533  13
  -1   8   6 36.7590 38.3322  12
  -1  -8   6 26.6089 36.6470   7
   1   8  -5 27212.6 1367.70   5
  -1  -8   5 26116.1 1346.73  15
   1  -8  -5 30263.5 1490.34  13
  -1  -8   4 179.631 118.855  15
  -1   8   4 122.691 119.406  14
   1  -8  -4 4.42066 74.7482  13
  -1  -8   3 5319.71 558.627  15
  -1   8   3 5609.39 619.357  14
   1   8  -3 5391.18 542.752   5
   1  -8  -3 5170.58 536.651  13
  -1   8   2 26447.9 1277.20  14
  -1  -8   2 28627.3 1256.09  15
   1   8  -2 24688.4 1119.38   5
  -1   8   2 23456.1 930.194   5
   1  -8  -2 28607.6 1202.98  13
   1  -8  -1 2573.05 320.850   6
   1   8  -1 1787.19 301.482   5
  -1   8   1 2179.87 357.177  14
  -1  -8   1 2449.96 359.926  15
   1  -8  -1 2423.75 353.624  13
  -1  -8   0 19477.4 1041.21  16
   1  -8   0 19978.2 916.490   6
   1  -8   0 21213.1 1010.87  13
  -1   8   0 17507.8 985.728  14
   1   8   0 17127.9 926.636   5
   1  -8   1 88833.0 2028.53   6
  -1  -8  -1 80715.3 2108.89  16
   1   8   1 81826.8 2016.89   5
   1  -8   1 78595.1 1635.89  15
  -1   8  -1 80903.4 2161.32  14
   1  -8   1 88832.2 2054.47  13
   1  -8   2 19062.2 990.965   6
  -1  -8  -2 18981.7 1044.83  16
   1  -8   2 19078.9 900.841  15
  -1   8  -2 18787.8 1072.35  14
   1   8   2 19678.9 1005.36   5
   1  -8   3 8428.75 686.374   6
  -1   8  -3 7937.19 726.899  14
   1   8   3 8494.76 684.831   5
  -1  -8  -3 8324.39 728.699  16
   1  -8   3 9008.71 677.578  15
  -1  -8  -4 45130.3 1814.37  16
  -1   8  -4 42014.8 1733.25  14
   1  -8   4 41975.1 1654.60   6
   1  -8   4 43706.9 1651.58  15
   1  -8   5 69.4300 54.5092  11
   1  -8   5 248.479 136.842   6
  -1   8  -5 162.332 114.957  14
   1  -8   5 151.501 110.967  15
   1  -8   5 156.384 65.0277   8
  -1  -8  -5 225.231 107.594  16
   1   8   5 255.768 81.2048  12
   1  -8   6 372.610 192.191   6
  -1  -8  -6 680.923 248.215  16
  -1   8  -6 640.031 263.604  16
   1   8   6 506.810 109.709  12
   1  -8   6 354.178 90.1377   8
   1  -8   7 10396.2 454.561   8
   1   8   7 9449.01 439.180  12
   1   8   8 14.6443 39.3736   7
  -1  -8  -8 41.3175 60.1589  11
   1   8   8 15.9370 51.4298  12
   1  -8   8-41.0121 40.2955   8
  -1  -8  -9 544.366 102.863  11
   1   8   9 523.472 95.5689   7
  -1  -8 -10 846.384 101.630  11
   1   8  10 560.039 76.9191   7
   1  -9 -11 352.999 61.4776  10
  -1   9  11 567.972 76.5260   7
  -1   9  10 1726.85 158.973   7
  -1   9   9 306.832 81.1183  12
  -1  -9   9 388.095 99.9235   9
  -1   9   9 363.184 86.5895   7
  -1   9   8 95.2483 60.9252   7
  -1  -9   8 170.939 74.4981   9
  -1   9   8 81.6486 58.3532  12
  -1  -9   8 93.5122 53.7990   7
  -1   9   7 73.8637 52.9817   7
  -1  -9   7 53.7583 49.1094   9
  -1  -9   7 131.781 55.6086   8
  -1  -9   7 55.6449 50.8230   7
  -1   9   7 134.280 66.9857  12
  -1   9   6 8190.33 402.125  12
  -1  -9   6 8009.00 395.527   9
  -1  -9   6 7927.05 810.976  15
  -1  -9   6 6846.73 380.291   8
   1   9  -6 6803.99 758.377   5
   1  -9  -6 7218.00 772.810  13
  -1  -9   6 7000.14 383.124   7
  -1  -9   5 5117.22 304.895   9
  -1  -9   5 6654.35 707.814  15
   1  -9  -5 6765.61 701.468  13
   1   9  -5 6298.43 707.188   5
  -1   9   5 5858.74 337.991  12
   1   9  -4 43.8277 82.4965   5
  -1  -9   4 6.88926 92.3317  15
  -1   9   4 65.6817 116.196  14
   1  -9  -4 0.75831 62.6752  13
  -1  -9   3 4139.69 538.330  15
  -1   9   3 4231.26 589.343  14
   1  -9  -3 4408.30 512.897  13
   1   9  -3 3916.75 492.029   5
   1  -9  -2 8.31857 97.7653  13
  -1  -9   2-55.4859 113.731  15
   1   9  -2 214.412 117.768   5
  -1   9   2 80.3114 115.834  14
  -1   9   1 1204.12 249.813   5
   1  -9  -1 1314.64 245.021   6
   1   9  -1 1197.14 266.222   5
  -1  -9   1 1694.83 325.936  15
  -1   9   1 1284.75 306.599  14
   1  -9  -1 1596.05 309.838  13
   1  -9   0 3043.81 391.393   6
   1   9   0 2655.74 387.253   5
  -1  -9   0 2829.94 433.433  16
  -1  -9   0 2755.27 408.422  15
  -1   9   0 2615.54 416.952  14
   1  -9   0 3110.67 423.005  13
  -1   9  -1 1937.40 370.723  14
   1  -9   1 1906.24 328.080   6
   1  -9   1 2490.47 385.738  13
   1   9   1 1832.18 324.046   5
  -1  -9  -1 2525.70 410.208  16
   1  -9   2 12128.6 837.674   6
  -1   9  -2 12616.0 940.081  14
  -1  -9  -2 13077.6 930.687  16
   1   9   2 12450.3 857.864   5
   1  -9   2 13094.3 797.241  15
   1  -9   3 13511.9 923.820   6
  -1   9  -3 11623.5 934.251  14
  -1  -9  -3 13591.7 990.621  16
   1  -9   3 14115.1 899.602  15
   1   9   3 12680.6 890.422   5
  -1  -9  -4 4863.70 321.943  11
   1  -9   4 4854.24 591.623   6
   1  -9   4 4981.90 331.767  11
  -1  -9  -4 5042.74 638.504  16
   1   9   4 4669.69 314.874  12
   1  -9   4 4980.68 583.571  15
   1  -9   4 4566.60 297.720   8
  -1   9  -4 4502.82 604.376  14
   1  -9   5 11413.5 516.542  11
  -1  -9  -5 10469.6 483.795  11
   1  -9   5 10751.9 469.306   8
   1  -9   5 10559.4 936.855   6
   1  -9   5 8445.33 858.882  15
  -1  -9  -5 9734.05 938.438  16
   1   9   5 10516.1 476.637  12
  -1  -9  -6 224.187 72.6956  11
   1   9   6 235.469 98.6121  12
   1  -9   6 292.773 86.1524   8
  -1  -9  -7 1696.08 200.639  11
   1  -9   7 1684.67 186.407   8
   1   9   7 1527.13 178.838  12
   1   9   8 395.125 93.5572   7
  -1  -9  -8 347.701 85.1091  11
   1  -9   8 370.822 82.2398   8
   1   9   8 268.111 71.2943  12
   1   9   9 3.55026 37.2528   7
  -1  -9  -9 2.35596 31.8146  11
  -1  -9 -10 943.525 95.3119  11
   1   9  10 691.342 79.7071   7
  -1  10  11 2501.89 141.212   7
  -1  10  10 153.083 50.9207   7
  -1  10   9-17.7469 39.9976   7
  -1  10   9-25.5043 39.6504  12
  -1 -10   8 13966.6 508.928   9
  -1  10   8 13954.8 503.561  12
  -1  10   8 13648.3 505.314   7
  -1  10   7 397.837 95.4962   7
  -1 -10   7 353.124 83.8670   9
  -1 -10   7 247.416 75.4590   8
  -1  10   7 312.831 85.0093  12
  -1 -10   6 21770.1 679.852   8
  -1  10   6 21756.3 659.333  12
  -1 -10   6 21147.2 630.813   9
   1  10  -6 16033.9 1232.25   5
   1 -10  -6 16534.0 1185.78  13
   1  10  -5 3928.60 572.004   5
  -1 -10   5 2824.51 226.775   9
  -1 -10   5 3297.12 526.339  15
   1 -10  -5 3123.30 494.046  13
  -1  10   5 3742.36 273.546  12
  -1  10   5 2557.85 209.295  18
  -1 -10   5 2687.46 239.724  11
  -1  10   4 163.849 65.6384  12
  -1 -10   4 161.079 69.9521  11
  -1 -10   4 109.164 108.148  15
  -1  10   4 169.518 57.0321  18
   1  10  -4 218.899 129.507   5
  -1  10   4-59.3526 200.722  14
   1 -10  -4 58.0398 88.9995  13
   1  10  -3 214.788 119.665   5
  -1 -10   3 80.9545 94.7655  15
  -1  10   3 548.685 221.462  14
   1 -10  -3 289.562 135.044  13
  -1 -10   2 14113.8 1014.91  15
   1  10  -2 11129.6 858.772   5
  -1  10   2 11872.4 993.914  14
   1 -10  -2 12350.5 885.807  13
  -1  10   1 1877.58 336.007   5
   1  10  -1 1923.16 360.786   5
  -1 -10   1 2345.37 403.429  15
  -1  10   1 2262.13 425.886  14
   1 -10  -1 2030.86 370.271  13
   1 -10   0 14590.0 914.357   6
  -1  10   0 14595.6 946.235   5
   1  10   0 15778.2 1012.07   5
  -1 -10   0 16107.7 1043.19  15
  -1  10   0 14748.3 1061.02  14
   1 -10   0 16926.4 1069.55  13
   1 -10   1 9398.97 761.193   6
   1  10   1 9678.24 801.167   5
  -1  10  -1 8636.33 751.142   5
  -1  10  -1 8210.13 800.359  14
  -1 -10  -1 9182.49 831.955  16
   1 -10   1 10495.5 846.975  13
  -1 -10  -2 356.282 86.4323  11
  -1 -10  -2 419.079 164.163  16
   1  10   2 236.825 122.757   5
  -1  10  -2 651.696 222.672  14
   1 -10   2-10.4571 47.0290   6
   1  10   2 172.903 56.0798  12
   1 -10   3 20478.4 660.620  11
  -1 -10  -3 21428.9 667.604  11
   1  10   3 19536.0 1168.67   5
   1 -10   3 23821.7 1296.91   6
  -1 -10  -3 16289.7 543.023  17
  -1 -10  -3 23351.5 1379.57  16
  -1  10  -3 20592.7 1308.46  14
   1 -10   3 20100.3 1124.59  15
   1 -10   3 21711.5 647.164   8
   1  10   3 22393.6 695.882  12
   1 -10   4 17632.5 633.067  11
  -1 -10  -4 17282.7 610.036  11
   1 -10   4 15544.7 1106.73   6
  -1  10  -4 13660.6 1097.24  14
  -1 -10  -4 17238.3 1242.97  16
   1 -10   4 17363.8 592.415   8
   1 -10   4 14326.5 1023.80  15
   1  10   4 17878.2 623.703  12
   1 -10   5 1512.47 181.291   8
  -1 -10  -5 449.715 209.866  16
  -1  10  -5 1309.26 346.578   5
   1 -10   5 869.613 273.727  15
   1 -10   5 1081.49 314.662   6
   1 -10   5 1478.51 192.330  11
   1  10   5 1584.26 191.814  12
  -1 -10  -5 1604.74 193.580  11
  -1 -10  -6 37488.7 920.272  11
   1 -10   6 36700.9 863.728   8
   1  10   6 36837.7 886.541  12
  -1 -10  -7 10759.7 479.916  11
   1 -10   7 10270.3 437.733   8
   1  10   7 10492.4 457.642  12
  -1 -10  -8 1162.87 151.225  11
   1  10   8 973.726 139.664   7
   1 -10   8 1124.70 133.077   8
   1  10   8 1199.51 142.658  12
  -1 -10  -9 5154.99 264.023  11
   1  10   9 4770.20 252.339   7
  -1  11  10 2028.39 146.392   7
  -1  11   9 1571.51 150.533  12
  -1  11   9 1579.46 150.855   7
  -1 -11   8 1343.80 157.573   9
  -1 -11   8 1612.99 162.582   8
  -1  11   8 1866.50 181.787  12
  -1  11   8 1965.54 186.365   7
  -1 -11   7 3725.47 265.631   9
  -1 -11   7 4465.56 300.476   8
  -1  11   7 4174.75 289.277   7
  -1  11   7 4640.55 299.469  12
  -1 -11   6 399.488 85.8945   9
  -1 -11   6 446.133 105.975   8
  -1  11   6 485.416 103.823  12
  -1 -11   5 2107.65 223.311  11
  -1  11   5 2182.85 198.362  18
   1  11  -5 2562.65 493.606   5
  -1 -11   5 2689.73 489.385  15
   1 -11  -5 2197.35 423.779  13
  -1  11   5 3056.55 249.779  12
  -1 -11   4 2901.64 257.426  11
  -1  11   4 2882.24 227.259  18
   1  11  -4 2928.99 516.190   5
  -1 -11   4 3194.04 547.191  15
  -1  11   4 3116.87 599.967  14
   1 -11  -4 3371.55 498.944  13
  -1  11   4 3294.39 259.539  12
  -1 -11   3 288.236 82.2235  11
  -1  11   3 478.342 95.6028  18
   1  11  -3 358.173 89.8541  12
   1  11  -3 393.240 178.335   5
  -1 -11   3 963.992 274.948  15
  -1  11   3 580.181 253.352  14
   1 -11  -3 586.290 205.297  13
  -1  11   3 541.602 108.087  12
   1  11  -2 283.045 77.2369  12
  -1 -11   2 370.310 94.3450  11
   1  11  -2 374.876 193.601   5
   1 -11  -2 177.729 53.4640  11
  -1  11   2 302.111 237.771  14
  -1 -11   2 655.790 236.014  15
   1 -11  -2 411.072 196.926  13
  -1  11   2 379.753 84.7188  18
  -1 -11   1 4464.94 318.044  11
   1  11  -1 5413.49 639.987   5
  -1 -11   1 6228.03 698.440  15
  -1  11   1 4574.63 556.793   5
  -1  11   1 4906.09 296.247  18
   1 -11  -1 3539.92 263.958  11
  -1  11   1 4716.99 641.752  14
   1 -11  -1 4905.76 605.708  13
   1  11  -1 4229.77 303.109  12
   1 -11   0 2621.77 233.336  11
  -1 -11   0 3711.59 291.028  11
   1  11   0 3865.66 291.547  12
  -1 -11   0 4200.07 560.391  15
   1  11   0 3853.86 537.960   5
  -1  11   0 3897.91 269.221  18
  -1  11   0 3662.16 575.213  14
   1 -11   0 4778.12 619.767  13
  -1  11   0 3878.59 533.381   5
   1 -11   1 354.260 92.3017  11
  -1 -11  -1 477.014 109.485  11
  -1 -11  -1 532.598 211.441  15
   1 -11   1 472.373 183.776   6
  -1  11  -1 376.412 186.157   5
  -1  11  -1 509.030 232.057  14
   1  11   1 559.392 212.144   5
   1  11   1 480.901 111.750  12
   1 -11   1 459.010 99.2569   8
   1 -11   2 14814.6 566.711  11
  -1 -11  -2 15495.6 581.446  11
   1 -11   2 14951.2 1053.93   6
  -1 -11  -2 12760.4 965.435  15
   1  11   2 13450.0 1017.71   5
   1 -11   2 16754.0 582.032   8
  -1  11  -2 15050.1 1180.16  14
  -1  11  -2 16238.2 1148.40   5
  -1 -11  -2 15870.4 1174.17  16
   1  11   2 16304.8 603.962  12
  -1 -11  -3 8313.93 423.583  11
  -1 -11  -3 8769.23 902.151  16
  -1  11  -3 8668.20 855.398   5
   1 -11   3 9464.15 865.499   6
  -1  11  -3 6993.38 812.673  14
   1  11   3 8692.60 441.547  12
   1 -11   3 8670.80 422.127   8
   1 -11   3 8331.58 433.825  11
   1 -11   4 2192.86 231.152  11
  -1 -11  -4 2258.41 224.548  11
   1 -11   4 1829.48 415.828   6
  -1  11  -4 1541.87 379.598   5
  -1 -11  -4 1796.94 410.010  16
   1 -11   4 2000.97 204.769   8
  -1  11  -4 906.129 319.330  14
   1  11   4 2091.39 219.570  12
   1 -11   5 5823.79 376.804  11
  -1 -11  -5 5771.70 359.372  11
   1  11   5 6156.21 375.239  12
   1 -11   5 5618.61 344.873   8
  -1 -11  -6 2767.41 249.433  11
   1 -11   6 2823.83 240.506   8
   1  11   6 2933.94 253.235  12
  -1 -11  -7 2184.50 210.572  11
   1 -11   7 2005.94 190.226   8
   1  11   7 2283.28 210.738  12
  -1 -11  -8 2109.08 185.973  11
   1 -11   8 2055.98 169.177   8
   1  11   8 1936.19 184.311   7
   1  11   8 2158.91 181.436  12
  -1 -11  -9 1086.01 109.393  11
   1  11   9 1060.00 112.600   7
   1 -12 -10 1110.35 107.137  10
  -1  12  10 1017.77 91.4827   7
  -1  12   9 697.588 96.4543  12
  -1  12   9 731.046 98.0335   7
  -1 -12   8 7659.58 332.352   8
  -1  12   8 8740.91 368.739  12
  -1  12   8 8550.11 364.337   7
  -1  12   7 87.7092 54.4578   7
  -1 -12   7 144.093 61.1170   8
  -1  12   7 91.0539 57.0970  12
  -1 -12   6 4047.77 295.131  11
  -1 -12   6 4665.00 313.034   8
  -1  12   6 4798.98 309.571  12
  -1  12   6 4058.58 291.764   7
  -1 -12   5 74.2808 45.5865  11
  -1  12   5 55.0572 36.7545  18
  -1 -12   5-22.2437 48.6619   8
  -1  12   5 50.9028 54.4693  12
  -1 -12   4 441.080 109.235  11
  -1  12   4 262.441 81.2194  18
  -1  12   4 337.157 90.0675  12
   1 -12  -3 184.988 64.6584  11
  -1 -12   3 58.4143 117.966  15
  -1  12   3 152.141 59.2120  18
   1  12  -3 368.591 186.952   5
  -1 -12   3 128.775 63.0504  11
  -1  12   3 92.5058 158.082  14
   1 -12  -3 197.529 137.386  13
  -1  12   3 84.8299 47.2661  12
  -1  12   2 24503.3 684.228  18
   1  12  -2 23643.9 1433.13   5
  -1 -12   2 22438.0 1418.72  15
  -1  12   2 22292.1 1547.06  14
   1 -12  -2 23504.4 1383.16  13
  -1 -12   2 24122.7 757.218  11
   1  12  -2 20341.0 674.767  12
   1 -12  -1 1312.60 168.965  11
  -1 -12   1 1598.74 197.453  11
  -1 -12   1 1218.68 319.918  15
   1  12  -1 1572.44 376.846   5
  -1  12   1 1525.70 385.055  14
   1 -12  -1 1229.56 334.512  13
  -1  12   1 1651.66 180.736  18
   1  12  -1 1531.47 187.455  12
   1 -12   0 29191.6 793.659  11
  -1 -12   0 34325.3 896.586  11
  -1 -12   0 31414.2 1596.01  15
  -1  12   0 29260.4 1528.49   5
   1  12   0 32842.2 1671.59   5
  -1  12   0 35622.4 830.044  18
   1 -12   0 27030.1 732.490   8
  -1  12   0 34021.5 1858.62  14
   1 -12   0 39666.6 1886.25  13
   1  12   0 34482.5 882.745  12
   1 -12   1 3838.99 292.396  11
  -1 -12  -1 4092.05 306.641  11
  -1  12  -1 3368.07 588.278  14
   1  12   1 4213.73 313.378  12
   1  12   1 3279.31 519.223   5
  -1  12  -1 3092.06 525.247   5
  -1 -12  -1 3474.91 528.371  15
   1 -12   1 3964.78 289.099   8
  -1 -12  -2 9.72125 46.5785  11
   1  12   2 93.4897 59.6284  12
  -1  12  -2-194.403 164.744   5
   1 -12   2 50.8561 43.7463   8
   1 -12   2 90.4858 60.4619  11
   1  12   2 42.7876 150.165   5
   1  12   3 14902.6 579.496  12
   1 -12   3 15073.6 592.395  11
  -1 -12  -3 13831.3 544.925  11
  -1  12  -3 11605.7 1045.37   5
   1 -12   3 11526.7 1000.27   6
   1 -12   3 15043.2 562.990   8
  -1  12  -3 9751.69 1027.75  14
   1 -12   4 28323.6 823.056  11
  -1 -12  -4 26583.7 759.192  11
  -1  12  -4 28260.6 750.448  18
   1 -12   4 28431.9 767.161   8
   1  12   4 29368.1 812.025  12
   1 -12   5 383.566 107.056  11
  -1 -12  -5 370.805 95.7071  11
  -1  12  -5 303.901 77.3693  18
   1 -12   5 397.460 102.999   8
   1  12   5 309.081 89.3877  12
  -1 -12  -6 175.609 67.6946  11
   1 -12   6 176.937 67.9976   8
   1  12   6 164.527 76.3448  12
  -1 -12  -7 819.670 123.865  11
   1 -12   7 833.056 115.158   8
   1  12   7 898.736 129.623  12
  -1 -12  -8 1978.91 164.208  11
   1  12   8 1850.91 158.098  12
   1 -12   8 1749.20 145.318   8
   1  12   8 1708.26 159.092   7
  -1 -12  -9 1336.23 101.191  11
   1  12   9 1456.00 113.952   7
   1 -13  -9 3659.44 216.033  10
  -1  13   9 3291.21 177.434   7
  -1 -13   8 6885.00 289.491   8
  -1  13   8 7523.44 315.294   7
  -1 -13   7 1118.96 144.344   8
  -1  13   7 1215.93 148.467  12
  -1  13   7 1197.95 141.699   7
  -1 -13   6 3352.61 258.118  11
  -1 -13   6 3940.35 280.163   8
  -1  13   6 4078.70 278.008  12
  -1  13   6 3312.35 251.599   7
  -1 -13   5 1624.64 191.998  11
  -1 -13   5 1736.51 194.620   8
  -1  13   5 1631.64 170.015  18
  -1  13   5 1908.87 197.545  12
  -1 -13   4 2971.32 254.723   8
  -1 -13   4 3447.37 282.380  11
  -1  13   4 3092.03 241.343  18
  -1  13   4 3139.99 255.035  12
  -1 -13   3-2.23993 47.7723  11
   1 -13  -3-43.6288 42.2385  11
  -1  13   3-43.5329 43.6206  18
  -1  13   3 36.7481 33.9231  12
   1 -13  -2 746.234 133.125  11
  -1 -13   2 834.078 152.754  11
  -1  13   2 1051.41 146.819  18
   1 -13  -2 699.894 131.409  10
   1  13  -2 808.060 133.678  12
   1 -13  -1 704.669 129.517  11
  -1  13   1 797.056 127.982  18
  -1 -13   1 252.257 167.201  15
  -1 -13   1 823.402 151.391  11
   1  13  -1 665.241 237.897   5
  -1  13   1 728.703 306.470  14
   1 -13  -1 680.219 281.359  13
   1  13  -1 769.143 136.387  12
   1 -13   0 31118.4 834.718  11
  -1 -13   0 34506.5 913.686  11
   1  13   0 28090.6 1634.38   5
  -1  13   0 36939.8 853.996  18
  -1 -13   0 22463.3 1403.17  15
  -1  13   0 23437.7 1437.99   5
   1 -13   0 29625.3 766.448   8
  -1  13   0 28615.0 1812.60  14
   1  13   0 34736.4 900.480  12
   1 -13   1 3671.01 289.303  11
  -1 -13  -1 3611.73 293.819  11
  -1  13  -1 3854.80 290.092  18
   1  13   1 2915.08 512.507   5
  -1  13  -1 2628.59 530.667   5
   1 -13   1 3656.83 277.021   8
  -1  13  -1 2644.76 562.235  14
   1  13   1 3954.00 305.157  12
   1 -13   2 920.189 152.100  11
  -1 -13  -2 808.545 143.124  11
   1  13   2 800.002 145.878  12
  -1  13  -2 1133.41 158.852  18
   1 -13   2 1067.24 153.774   8
   1 -13   3 652.008 134.530  11
  -1 -13  -3 486.126 108.458  11
  -1  13  -3 626.449 117.480  18
   1 -13   3 595.276 117.706   8
   1  13   3 599.279 117.310  12
   1 -13   4 2813.62 259.001  11
  -1 -13  -4 2590.23 237.968  11
  -1  13  -4 2687.64 226.746  18
   1 -13   4 2778.28 238.950   8
   1  13   4 2782.36 247.270  12
   1 -13   5 747.967 136.359  11
  -1 -13  -5 828.879 135.224  11
  -1  13  -5 589.639 101.498  18
   1 -13   5 802.404 128.531   8
   1  13   5 819.714 134.601  12
  -1 -13  -6 394.076 92.0310  11
   1  13   6 444.603 96.7128  12
   1 -13   6 414.539 85.9545   8
  -1 -13  -7 510.973 89.7789  11
   1 -13   7 472.883 87.5224   8
   1  13   7 473.705 89.3767  12
   1  13   8 42.2958 30.7553   7
   1 -13   8 71.4770 31.5939   8
  -1 -13  -8 102.801 37.0914  11
   1  13   8 13.4847 27.0552  12
   1 -14  -9 1749.65 128.026  10
  -1  14   8 503.106 79.3389  12
  -1  14   8 414.263 67.4954   7
   1 -14  -8 567.773 98.3808  10
  -1 -14   8 291.308 54.8916   8
  -1 -14   7 2493.25 197.171   8
  -1  14   7 2792.09 202.520  12
  -1  14   7 2489.19 184.950   7
  -1 -14   6 2609.98 220.459  11
  -1 -14   6 3103.66 240.405   8
  -1  14   6 3054.49 226.716  12
  -1  14   6 2813.99 215.413   7
  -1 -14   5 9631.02 444.798  11
  -1 -14   5 10480.9 465.138   8
  -1  14   5 10576.6 441.558  12
  -1 -14   4 13987.5 552.518  11
   1 -14  -4 12429.2 536.061  10
  -1  14   4 13396.9 479.025  18
  -1 -14   4 13764.0 522.276   8
  -1  14   4 12742.4 497.420  12
  -1 -14   3 1319.06 179.874  11
   1 -14  -3 840.945 130.736  11
  -1  14   3 1120.30 145.358  18
   1 -14  -3 1045.80 155.641  10
  -1  14   3 1117.44 147.439  12
   1 -14  -2 35352.4 858.694  11
  -1 -14   2 45067.0 1038.00  11
  -1  14   2 43591.8 915.578  18
   1  14  -2 35543.9 854.589  12
   1 -14  -1 129.688 55.0822  11
  -1 -14   1 29.4981 56.8736  11
  -1  14   1 34.4569 44.9525  18
   1  14  -1 71.5620 47.1599  12
   1 -14   0 7516.75 410.138  11
  -1 -14   0 8218.30 449.023  11
  -1  14   0 8972.18 428.175  18
   1  14   0 8190.54 430.882  12
   1 -14   1 3959.43 301.780  11
  -1 -14  -1 3555.91 290.769  11
  -1  14  -1 4413.54 305.973  18
   1 -14   1 4107.20 289.318   8
   1  14   1 4078.95 307.467  12
   1 -14   2 5838.97 369.649  11
  -1 -14  -2 5372.33 345.077  11
  -1  14  -2 6132.58 359.077  18
   1  14   2 6133.61 370.919  12
   1 -14   2 5747.27 344.096   8
   1 -14   3 2162.93 228.165  11
  -1 -14  -3 1959.09 203.159  11
  -1  14  -3 2016.99 200.300  18
   1 -14   3 2280.15 214.719   8
   1  14   3 2288.02 229.900  12
   1 -14   4 791.144 141.712  11
  -1 -14  -4 819.293 134.460  11
  -1  14  -4 881.114 129.712  18
   1 -14   4 911.328 131.632   8
   1  14   4 850.405 135.279  12
   1 -14   5-43.5640 64.6724  11
  -1 -14  -5 26.7864 34.6187  11
  -1  14  -5-0.91390 29.2592  18
   1 -14   5 35.0857 41.9514   8
   1  14   5-23.7125 46.3210  12
  -1 -14  -6 1820.28 172.354  11
   1 -14   6 1817.74 164.459   8
   1  14   6 1944.70 179.964  12
  -1 -14  -7 22.3097 29.8091  11
   1 -14   7-4.76944 30.5926   8
   1  14   7 7.62723 25.1367  12
   1 -14   8 2106.05 117.802   8
   1  14   8 1909.64 116.411  12
   1 -15  -8 152.571 43.7988  10
  -1  15   7-45.7949 25.7149   7
   1 -15  -7 46.3718 46.0870  10
  -1 -15   7 70.4347 34.5655   8
  -1  15   7 36.9892 33.8178  12
  -1  15   6 439.959 78.3260   7
  -1 -15   6 334.236 75.0099  11
   1 -15  -6 625.794 106.702  10
  -1 -15   6 658.541 107.005   8
  -1  15   6 612.025 99.7182  12
  -1 -15   5 2522.79 221.160  11
   1 -15  -5 2084.39 200.545  10
  -1 -15   5 2559.36 213.689   8
  -1  15   5 2512.77 202.432  12
  -1  15   5 2043.13 175.397   7
  -1 -15   4 10842.0 474.574  11
  -1  15   4 10534.5 400.386  18
  -1 -15   4 10133.2 429.065   8
  -1  15   4 9734.08 403.056  12
  -1 -15   3 1556.52 188.973  11
   1 -15  -3 1306.15 157.350  11
  -1  15   3 1440.04 162.725  18
  -1 -15   3 1204.13 155.109   8
   1 -15  -2 4094.99 281.433  11
  -1 -15   2 5128.65 345.567  11
   1  15  -2 3812.30 263.447  12
  -1  15   2 5408.12 316.507  18
  -1 -15   2 4690.81 301.057   8
   1 -15  -1 803.403 133.302  11
  -1 -15   1 896.123 156.617  11
  -1  15   1 1003.37 143.493  18
   1  15  -1 753.603 128.353  12
  -1 -15   0 126.272 67.5758  11
  -1  15   0 49.0587 50.2509  18
   1 -15   0 133.382 76.0110  11
   1  15   0 79.4200 77.2448  12
   1 -15   1 1032.70 154.664  11
  -1 -15  -1 1042.79 156.406  11
   1 -15   1 1174.29 150.966   8
  -1  15  -1 1046.76 146.583  18
   1  15   1 949.181 147.555  12
   1 -15   2 13600.3 539.606  11
  -1 -15  -2 12721.0 507.037  11
   1  15   2 13883.4 535.159  12
  -1  15  -2 14242.4 513.353  18
   1 -15   2 13662.0 503.636   8
   1 -15   3-46.3941 67.1115  11
  -1 -15  -3-29.8930 39.7177  11
   1  15   3 14.7743 57.3695  12
  -1  15  -3-30.0716 48.1666  18
   1 -15   3 23.8428 40.1044   8
   1 -15   4 482.023 105.817  11
  -1 -15  -4 343.650 83.0510  11
  -1  15  -4 437.044 85.3859  18
   1 -15   4 382.502 87.1451   8
   1  15   4 490.544 99.7296  12
  -1 -15  -5 251.758 70.1575  11
  -1  15  -5 83.2792 36.8576  18
   1 -15   5 220.553 60.3918   8
   1  15   5 209.562 65.0637  12
  -1 -15  -6 1041.20 119.766  11
   1 -15   6 1136.96 117.059   8
   1  15   6 1166.62 125.649  12
   1  15   7 69.8614 35.3280   7
  -1 -15  -7 63.3861 28.0819  11
   1 -15   7 98.5427 34.0752   8
   1  15   7 87.5505 33.8121  12
   1 -16  -7 245.645 47.9112  10
  -1 -16   7 280.654 53.9402   8
  -1  16   6 705.818 88.3347  12
   1 -16  -6 560.779 84.0981  10
  -1 -16   6 789.481 103.360   8
  -1 -16   5 181.295 63.2968  11
   1 -16  -5 228.600 61.8914  10
  -1 -16   5 359.618 75.4419   8
  -1  16   5 293.041 64.3869  12
  -1 -16   4 55.6246 44.0749  11
  -1  16   4 105.981 41.0786  18
  -1 -16   4 183.533 59.2224   8
  -1  16   4 212.494 52.2380  12
  -1 -16   3 3833.08 278.294  11
   1 -16  -3 2902.02 213.373  11
  -1  16   3 3619.17 233.990  18
  -1 -16   3 3599.16 245.897   8
   1 -16  -2 15425.7 509.519  11
  -1 -16   2 16821.4 585.119  11
  -1  16   2 17609.2 534.029  18
  -1 -16   2 15353.9 507.609   8
   1 -16  -1 4882.31 296.296  11
  -1 -16   1 4893.41 317.449  11
  -1  16   1 5535.32 311.496  18
  -1 -16   1 4535.79 277.079   8
   1  16  -1 4004.07 256.341  12
   1 -16   0 8328.80 395.154  11
  -1 -16   0 9091.35 426.585  11
  -1  16   0 9452.07 409.735  18
  -1 -16   0 8081.40 361.893   8
   1  16   0 8505.27 388.061  12
   1 -16   1-24.9078 44.1646  11
  -1  16  -1 23.5587 47.8946  18
  -1 -16  -1 15.2861 41.4977  11
   1  16   1-4.57263 32.7653  18
   1 -16   1 52.0808 32.6812   8
  -1 -16  -1-19.9414 21.0440   8
   1  16   1-6.41722 41.7879  12
   1 -16   2 111.580 60.6917  11
  -1 -16  -2 133.501 59.2808  11
  -1  16  -2 155.395 60.0506  18
   1 -16   2 98.4245 42.0090   8
   1  16   2 125.215 57.4991  12
   1 -16   3 581.915 112.609  11
  -1 -16  -3 517.521 97.9162  11
  -1  16  -3 540.148 96.1308  18
   1 -16   3 634.309 99.8013   8
   1  16   3 619.134 106.197  12
   1 -16   4 179.946 60.7556  11
  -1 -16  -4 233.929 65.3135  11
  -1  16  -4 44.6435 33.3003  18
   1 -16   4 185.351 55.5225   8
   1  16   4 222.536 66.3930  12
  -1 -16  -5 153.665 48.5542  11
  -1  16  -5 57.0253 26.5973  18
   1 -16   5 206.309 53.7782   8
   1  16   5 132.586 42.3919  12
  -1 -16  -6 3945.46 195.362  11
   1 -16   6 4539.34 196.629   8
   1  16   6 4567.47 206.412  12
   1  16   6 4186.55 203.085   7
  -1 -17   6 2822.99 154.267   8
   1  17  -6-26.3086 27.0175  18
  -1 -17   5 15.5047 20.5949  11
  -1 -17   5-18.2951 29.3726   8
  -1  17   4 777.763 87.7287  18
  -1 -17   4 987.213 129.016  11
  -1 -17   4 1124.44 121.972   8
  -1 -17   3 974.680 136.926  11
  -1  17   3 1138.73 118.507  18
  -1 -17   3 1021.76 120.786   8
   1 -17  -2 1230.32 130.774  11
  -1 -17   2 1603.38 167.048  11
  -1  17   2 1473.24 145.004  18
  -1 -17   2 1380.54 142.774   8
   1 -17  -1 3687.77 237.995  11
  -1 -17   1 4321.76 271.335  11
  -1  17   1 4483.71 255.963  18
  -1 -17   1 3820.18 232.395   8
   1 -17   0 94.6242 48.2474  11
  -1 -17   0 39.0781 36.8621  11
  -1  17   0 78.8327 47.3635  18
   1  17   0-1.75785 39.7500  18
  -1 -17   0 92.2419 40.3875   8
   1  17   0 50.7631 29.8855  12
   1 -17   1 595.959 100.616  11
  -1 -17  -1 635.656 104.668  11
  -1  17  -1 676.331 102.104  18
   1 -17   1 488.193 77.3967   8
   1  17   1 580.589 93.9541  12
   1 -17   2 647.793 105.956  11
  -1 -17  -2 616.409 100.080  11
   1 -17   2 596.427 86.4479   8
  -1  17  -2 576.959 94.7396  18
   1  17   2 560.125 91.4256  12
  -1 -17  -3 3.82374 27.9276  11
  -1  17  -3 12.2752 29.5795  18
   1 -17   3-1.25176 25.5550   8
   1 -17   3-6.65541 31.3556  11
   1  17   3-51.4167 43.2807  12
  -1 -17  -4 3615.88 204.910  11
   1 -17   4 3713.84 191.542   8
   1  17   4 3682.84 202.166  12
   1  17   5 4572.54 197.216  12
   1 -17   5 4472.94 186.177   8
  -1 -18   5 12.3080 17.3829   8
  -1 -18   4 529.774 78.1380  11
   1  18  -4 41.5896 30.7690  18
  -1 -18   3 3198.69 204.429  11
  -1  18   3 2669.03 150.988  18
   1 -18  -2 171.715 43.4033  11
  -1 -18   2 291.373 69.0604  11
  -1  18   2 333.309 61.2718  18
  -1 -18   2 274.386 59.1949   8
   1 -18  -1 878.041 103.180  11
  -1 -18   1 1033.82 118.618  11
  -1  18   1 1197.04 118.474  18
  -1 -18   1 856.642 95.7047   8
   1 -18   0 514.020 81.2701  11
  -1 -18   0 583.572 91.3036  11
  -1  18   0 676.453 89.0796  18
   1  18   0 326.560 54.0388  12
   1 -18   1-13.7455 24.3990  11
  -1 -18  -1 9.67445 27.1980  11
  -1  18  -1 18.7078 27.6623  18
   1  18   1-26.7046 29.9229  12
   1 -18   2 61.8004 36.7085  11
  -1 -18  -2-27.4061 33.1327  11
  -1  18  -2 14.2052 23.5090  18
   1 -18   2-51.1146 23.3284   8
   1  18   2 14.9026 19.0862  12
  -1 -18  -3 1407.36 125.429  11
  -1  18  -3 1146.55 95.6128  18
   1 -18   3 1289.97 96.1476   8
   1  18   3 1569.69 117.429  12
  -1 -18  -4 167.832 42.6439  11
   1  18   4 240.815 42.7402  12
  -1 -19   2 1081.08 99.8875  11
  -1 -19   1 2244.73 144.616  11
  -1  19   1 2995.39 147.691  18
  -1 -19   0 778.198 89.8622  11
  -1  19   0 1269.08 98.7311  18
  -1 -19  -1 173.452 42.9730  11
  -1  19  -1 191.563 40.2431  18
  -1 -19  -2 374.526 56.2207  11
  -1  19  -2 287.824 43.7823  18
  -2   0  12 2346.09 167.221   7
  -2   0  11 40.5511 43.0153   7
  -2   0  10 278.078 91.1454   7
  -2   0  10 110.196 46.1261   9
  -2   0  10 147.622 89.4423   4
  -2   0   9-45.8496 54.2825   7
  -2   0   9 21.4835 49.0634   9
  -2   0   9-1.36263 57.5059   4
  -2   0   8 21708.9 666.495   9
  -2   0   8 18628.8 1545.63   1
  -2   0   8 18979.8 654.382  18
  -2   0   8 23223.7 829.010   4
   2   0  -8 23622.5 1557.85  13
  -2   0   8 23992.2 741.747   7
  -2   0   7-117.855 70.1380   4
  -2   0   7-23.8314 42.3676   7
  -2   0   7 163.650 225.427   1
  -2   0   7 9.43579 38.1286  18
  -2   0   7 62.0334 42.2403   9
   2   0  -7 58.5538 82.8731  13
  -2   0   6 23345.5 1442.07   1
   2   0  -6 27028.1 1333.02  13
  -2   0   5-72.4351 85.4535   1
   2   0  -5 61.5366 80.0475  13
   2   0  -4 29951.3 1155.28  13
  -2   0   4 28602.4 1356.84   1
  -2   0   3-25.1528 88.4137   1
   2   0  -3-8.76422 38.7092   6
   2   0  -3-102.320 64.5848   5
  -2   0   3 99.5442 61.3844  15
   2   0  -3-49.4076 69.0908  13
   2   0  -2 109976. 1915.21   6
   2   0  -2 105126. 1858.88   5
  -2   0   2 111516. 1961.82  14
  -2   0   2 101498. 2316.21   1
   2   0  -2 106757. 1840.31  13
   2   0  -1 31.2116 60.7571   6
  -2   0   1-36.5419 65.6468  16
  -2   0   1 29.6608 75.6440  14
   2   0  -1 9.01966 55.2815  13
   2   0   0 401.391 135.614   6
  -2   0   0 601.231 178.030  16
   2   0   0 384.997 111.398  13
   2   0   1 27.1004 58.0488   6
  -2   0  -1 25.1468 78.3526  16
   2   0   2 9923.19 709.189   6
  -2   0  -2 13435.5 935.637  16
   2   0   3 5.72623 106.943   6
  -2   0  -3 23.7703 67.8378  16
   2   0   3 2.20854 101.697   2
   2   0   4 3056.96 478.079   6
   2   0   4 3667.59 584.709   2
  -2   0  -4 3533.56 542.087  16
   2   0   5-7.85667 64.6216  10
   2   0   5-17.4880 118.176   6
  -2   0  -5-137.363 115.972  16
   2   0   5 116.894 148.923   2
   2   0   5 21.2268 49.8127   3
   2   0   5-13.9074 25.0047   8
   2   0   6 1099.71 171.298  10
   2   0   6 1668.19 432.459   6
  -2   0  -6 1209.65 381.862  16
   2   0   6 953.312 350.347   2
   2   0   6 901.406 127.664   8
  -2   0  -6 747.320 117.535  17
   2   0   6 873.593 158.296   3
   2   0   6 979.932 172.148   4
   2   0   7-24.9832 66.3039   4
   2   0   7 36.3870 59.5707   3
   2   0   8 469.334 126.021   4
   2   0   8 335.861 99.7807   3
   2   0   9-30.0198 48.8053   4
   2   0   9 43.1188 54.3211   3
   2   0  10 400.902 85.9586   4
   2   0  10 429.730 88.9834   3
  -2  -1  12 18.4773 37.8973   7
  -2   1  12-9.75204 32.1816   7
  -2  -1  11 6187.41 337.031   7
  -2   1  11 6638.16 339.366   7
  -2  -1  10 288.368 87.4862   9
  -2  -1  10 683.836 132.603   7
  -2   1  10 805.290 139.771   7
  -2   1  10 554.698 126.370   4
  -2  -1  10 675.030 142.518   4
  -2  -1   9-30.2488 53.1671   7
  -2   1   9 51.9808 56.2043   7
  -2   1   9 35.8820 39.8377   9
  -2  -1   9-70.9299 51.9409   9
  -2   1   9 7.86616 59.4826   4
  -2  -1   9 69.5427 61.3201   4
  -2  -1   8 0.81150 43.9176   7
  -2   1   8-9.43664 52.1600   7
  -2   1   8 16.0274 44.2405   9
  -2  -1   8-9.89909 35.6821   9
  -2   1   8-329.832 213.209   1
  -2  -1   8-63.3859 182.408   1
  -2   1   8 106.129 51.9003  18
   2   1  -8-182.567 140.072  13
   2  -1  -8 376.291 223.077  13
  -2  -1   8-13.7872 45.8468   4
  -2   1   8 21.2564 64.7926   4
  -2   1   7 103.214 64.1327   4
  -2  -1   7 51.9024 38.8107   7
  -2   1   7 72.5450 43.0880   7
  -2   1   7 212.031 170.765   1
  -2  -1   7 236.401 93.2192   4
  -2  -1   7 65.5161 40.1302  18
  -2   1   7 220.486 71.5009  18
  -2   1   7 54.8661 32.2947   9
  -2  -1   7 82.7424 52.1694   9
   2  -1  -7 47.2282 76.5035  13
   2   1  -7-37.3229 54.6877  13
  -2   1   6 2403.05 476.188   1
  -2  -1   6 2276.03 463.370   1
   2   1  -6 2311.24 390.294  13
   2  -1  -6 2710.99 443.114  13
  -2   1   5 3557.14 522.752   1
  -2  -1   5 3353.07 509.821   1
   2  -1  -5 3478.75 458.925  13
   2   1  -5 3491.63 433.457  13
   2   1  -4 51250.9 1313.90   5
  -2  -1   4 49717.7 1388.47  15
   2   1  -4 55249.6 1582.27  13
   2  -1  -4 58708.3 1713.96  13
  -2   1   4 54801.5 1887.79   1
  -2  -1   4 54429.9 1876.10   1
  -2   1   3 353.097 152.538   1
  -2  -1   3 66.2012 113.286   1
   2  -1  -3 217.212 81.3701   6
   2   1  -3 195.726 82.7199   5
  -2  -1   3 299.786 106.704  15
   2   1  -3 149.380 91.9733  13
   2  -1  -3 294.120 113.634  13
   2  -1  -2 4126.42 367.480   6
   2   1  -2 4105.93 382.593   5
  -2  -1   2 4006.02 357.885  14
  -2   1   2 4287.62 402.302  14
  -2   1   2 4050.85 469.056   1
  -2  -1   2 4039.07 472.394   1
   2   1  -2 3981.05 354.958  13
   2  -1  -2 4310.36 390.722  13
   2  -1  -1 1823.25 261.276   6
  -2  -1   1 1879.55 259.341  16
  -2   1   1 2431.08 324.561  16
   2   1  -1 1628.83 247.738   5
  -2   1   1 2106.45 286.452  14
   2  -1  -1 2301.57 297.945  13
   2   1  -1 1783.97 215.847  13
  -2   1   0 289.682 133.131  16
   2   1   0 181.646 108.655   6
   2  -1   0 209.396 100.059   6
  -2  -1   0 154.333 84.1450  16
   2   1   0 147.633 95.0988   5
  -2   1   0 210.051 120.981  14
   2   1   0 135.396 56.3399  13
   2  -1   0 146.180 218.921  13
   2   1   1 413.022 142.602   6
   2  -1   1 387.029 137.346   6
  -2  -1  -1 339.087 137.139  16
  -2   1  -1 334.366 129.774  16
   2   1   1 507.648 161.063   5
   2   1   2 10815.9 747.966   6
   2  -1   2 11966.7 777.404   6
  -2  -1  -2 13708.7 889.071  16
  -2   1  -2 13604.5 917.282  16
   2   1   3 2295.66 387.799   6
   2  -1   3 2406.43 386.550   6
   2  -1   3 2538.80 445.458   2
   2   1   3 2194.17 418.259   2
  -2  -1  -3 2474.54 416.148  16
  -2   1  -3 2986.01 481.259  16
   2   1   4 2376.38 434.308   6
   2  -1   4 1818.01 374.675   6
   2  -1   4 1567.13 382.270   2
   2   1   4 1999.37 439.830   2
  -2   1  -4 1996.36 436.816  16
  -2  -1  -4 2287.22 431.338  16
   2   1   5 6195.98 747.449   6
   2  -1   5 5495.18 757.321   2
   2  -1   5 5734.05 712.027   6
   2   1   5 5128.45 734.238   2
   2   1   5 5402.37 364.983  10
   2  -1   5 4885.94 352.744  10
   2   1   5 4832.45 364.859   3
  -2   1  -5 6040.43 784.647  16
   2  -1   5 4960.34 366.413   3
  -2  -1  -5 4716.07 641.001  16
   2   1   5 3789.86 254.636   8
   2  -1   5 4102.40 267.456   8
  -2   1  -5 5400.01 686.459  14
  -2  -1  -5 3947.21 265.602  17
   2  -1   6 2552.45 506.534   6
   2  -1   6 3183.29 287.902  10
   2   1   6 3102.02 607.633   2
   2   1   6 2688.24 530.492   6
   2   1   6 3158.65 299.953   3
   2  -1   6 2842.28 283.102   3
   2  -1   6 2537.75 536.619   2
  -2  -1  -6 2936.04 539.375  16
  -2   1  -6 3540.19 632.735  16
  -2   1  -6 3052.98 560.479  14
   2   1   6 2438.92 202.090   8
   2  -1   6 2724.90 222.346   8
   2   1   6 3261.28 303.791   4
   2  -1   6 3016.83 291.142   4
   2   1   7 5578.85 397.601   3
   2  -1   7 5932.45 407.699   3
   2  -1   7 4675.67 286.895   8
   2   1   7 5945.01 407.819   4
   2  -1   7 5914.31 404.070   4
   2   1   8 13474.3 591.603   3
   2  -1   8 14402.7 605.220   3
   2   1   8 14790.7 614.928   4
   2  -1   8 13674.2 587.121   4
   2   1   9 154.142 58.4463   4
   2  -1   9 202.195 75.9770   4
   2   1   9 184.757 74.2506   3
   2  -1   9 189.971 74.5193   3
   2   1  10 846.718 117.400   3
   2  -1  10 924.842 126.010   3
   2   1  10 959.354 127.105   4
   2  -1  10 881.718 120.040   4
  -2  -2  12 88.4100 43.2371   7
  -2   2  12 21.2302 22.5422   7
  -2   2  11 118.498 57.8223   7
  -2  -2  11 13.7873 38.5673   9
  -2  -2  11 65.5825 57.5506   7
  -2  -2  10 5170.91 308.937   9
  -2  -2  10 5813.82 357.938   7
  -2   2  10 5887.55 353.623   7
  -2  -2   9 66.0674 76.2812   7
  -2   2   9 57.8975 46.9445   7
  -2  -2   9 26.3473 48.4936   9
  -2   2   9 62.3258 64.8079   4
  -2  -2   9 104.313 80.6957   4
  -2  -2   8 7535.53 995.621   1
  -2   2   8 8283.41 420.609  18
   2   2  -8 8926.61 907.610  13
  -2  -2   8 10664.0 563.708   4
  -2   2   8 10953.2 575.594   4
   2  -2  -8 9299.53 1238.55  13
  -2  -2   8 10169.3 482.147   7
  -2   2   8 9788.98 470.573   7
  -2  -2   8 10230.1 458.708   9
  -2   2   8 7135.35 971.505   1
  -2   2   7 2114.60 494.014   1
  -2   2   7 1471.27 177.342  18
  -2  -2   7 1708.58 456.941   1
  -2  -2   7 1764.61 195.550   9
  -2  -2   7 1484.75 186.359  18
  -2  -2   7 1831.18 229.309   4
  -2   2   7 1767.41 231.719   4
   2  -2  -7 2563.62 529.247  13
   2   2  -7 1996.98 385.621  13
  -2  -2   7 2001.09 210.691   7
  -2   2   7 1720.72 189.880   7
  -2   2   6 7302.27 839.646   1
  -2  -2   6 7305.15 825.538   1
   2   2  -6 8130.85 720.499  13
   2  -2  -6 9893.33 886.523  13
   2   2  -5 1265.11 270.022  13
  -2  -2   5 1140.05 235.680  15
   2  -2  -5 1669.48 335.577  13
  -2   2   5 1295.43 330.344   1
  -2  -2   5 1181.99 306.346   1
   2   2  -4 139245. 2549.18  13
   2   2  -4 134693. 2266.64   5
  -2  -2   4 141049. 2482.85  15
  -2   2   4 146323. 3145.93   1
  -2  -2   4 138549. 3031.58   1
  -2   2   3 117.330 92.0168   1
  -2  -2   3 528.288 191.361   1
   2   2  -3 114.221 73.5485   5
  -2  -2   3 190.292 103.744  15
  -2   2   3 203.171 89.4859  14
   2   2  -3 159.172 80.6714  13
   2  -2  -3 130.250 117.163  13
   2  -2  -2 88372.6 1690.98   6
   2   2  -2 90520.4 1861.06   5
  -2  -2   2 82898.0 1545.91  16
  -2  -2   2 82493.4 1606.38  14
  -2   2   2 91930.4 1942.20  14
  -2   2   2 93427.7 2277.78   1
  -2  -2   2 85972.9 2158.61   1
   2   2  -2 84537.1 1640.36  13
   2  -2  -1 18012.4 809.641   6
  -2  -2   1 18500.4 832.881  16
   2   2  -1 16797.9 808.868   5
   2   2  -1 15442.7 639.195  13
  -2   2   1 17224.6 809.612  16
  -2   2   1 18317.3 898.864  14
   2  -2   0 524.456 155.152   6
   2   2   0 997.798 215.549   5
  -2   2   0 508.846 146.347  16
  -2   2   0 547.126 172.165  14
   2   2   0 355.819 90.7631  13
   2  -2   0 393.119 194.641  13
   2   2   1 4109.94 439.795   6
   2  -2   1 4696.23 462.817   6
  -2  -2  -1 4567.21 469.086  16
  -2   2  -1 4703.48 493.404  16
   2   2   1 4360.34 440.232   5
  -2   2  -1 4661.25 507.824  14
   2   2   2 18925.3 1014.33   6
   2  -2   2 17242.9 946.068   6
  -2   2  -2 20191.1 1101.27  16
  -2  -2  -2 19035.0 1027.01  16
  -2   2  -2 19372.9 1067.43  14
   2   2   2 18433.3 967.721   5
   2   2   3 4516.38 534.073   6
   2  -2   3 4189.62 506.018   6
   2  -2   3 4269.74 582.765   2
   2   2   3 4637.72 618.631   2
  -2  -2  -3 5111.98 577.310  16
  -2   2  -3 5360.74 625.851  16
  -2   2  -3 4675.40 560.381  14
   2   2   4 11768.3 935.479   6
   2  -2   4 11109.0 904.474   6
   2  -2   4 10243.4 971.729   2
   2   2   4 10845.5 1007.97   2
  -2  -2  -4 11178.0 926.285  16
  -2   2  -4 12209.1 1055.49  16
  -2   2  -4 11869.8 943.819  14
   2  -2   5 763.833 302.353   2
   2   2   5 906.990 308.419   2
   2   2   5 1156.26 166.641  10
   2   2   5 1196.21 340.461   6
   2  -2   5 774.556 143.637  10
   2  -2   5 991.056 311.809   6
  -2   2  -5 1386.49 405.704  16
  -2  -2  -5 816.168 273.366  16
   2   2   5 615.317 102.307   8
   2  -2   5 855.411 127.052   8
   2   2   5 845.502 152.450   3
   2  -2   5 741.299 141.840   3
  -2   2  -5 1148.45 323.735  14
  -2  -2  -5 654.290 110.350  17
   2  -2   6 12442.3 1222.49   2
   2   2   6 12340.9 1219.84   2
   2   2   6 11234.0 1049.26   6
   2  -2   6 12336.1 1111.31   6
   2  -2   6 13527.8 588.462  10
   2  -2   6 12640.0 598.175   3
  -2   2  -6 13864.4 1287.20  16
   2  -2   6 12731.4 482.872   8
  -2  -2  -6 12963.9 1132.05  16
  -2   2  -6 11504.1 1074.65  14
   2   2   6 13169.9 613.614   4
   2  -2   6 13267.5 610.666   4
   2   2   6 13458.1 621.423   3
   2   2   7 19454.5 744.030   3
   2  -2   7 18070.4 707.586   3
   2  -2   7 16860.9 545.553   8
   2   2   7 18673.6 728.012   4
   2  -2   7 18325.0 710.212   4
   2   2   8-135.095 77.6409   4
   2  -2   8 44.6714 58.4459   4
   2   2   8 73.6254 75.4334   3
   2  -2   8 19.5076 58.9778   3
   2   2   9 599.805 121.093   4
   2  -2   9 393.137 96.3297   4
   2   2   9 417.442 95.1683   3
   2  -2   9 543.973 112.500   3
   2   2  10 789.526 113.738   3
   2  -2  10 665.433 104.746   3
   2   2  10 724.701 108.596   4
   2  -2  10 890.562 119.203   4
  -2   3  12 174.157 46.1075   7
  -2  -3  12 184.879 50.3753   7
  -2  -3  11 2673.76 221.402   7
  -2   3  11 2414.04 193.651   7
  -2   3  10 660.735 118.792   7
  -2  -3  10 679.816 116.621   9
  -2  -3  10 624.562 125.129   7
  -2  -3   9 564.014 123.727   7
  -2   3   9 475.419 107.564   7
  -2  -3   9 437.791 96.7280   9
  -2   3   9 384.760 106.505   4
  -2  -3   9 422.236 129.687   4
  -2  -3   8 655.181 127.860   7
  -2   3   8 571.836 119.054   7
  -2  -3   8 580.400 115.750   9
  -2   3   8 458.113 99.4139  18
  -2  -3   8 578.363 144.372   4
  -2   3   8 557.137 134.424   4
  -2  -3   7 166.798 63.8053   7
  -2   3   7 33.2323 48.8360   7
  -2  -3   7 197.147 219.440   1
  -2   3   7 41.3538 47.5454  18
  -2  -3   7 116.085 63.5128   9
  -2   3   7 130.132 121.417   1
   2   3  -7 81.2294 107.307  13
   2  -3  -7-249.997 231.465  13
  -2  -3   7 58.3223 40.2326   4
  -2   3   7 131.532 69.0900   4
  -2  -3   6 497.601 101.381   7
  -2  -3   6 163.172 71.4296  18
  -2  -3   6 311.573 80.5233   9
   2   3  -6 370.923 163.554  13
   2  -3  -6 453.669 217.617  13
  -2   3   6 431.946 208.555   1
  -2  -3   6 261.603 178.278   1
  -2  -3   6 197.901 82.8274   4
  -2   3   6 95.4987 60.6629   4
  -2  -3   5 482.258 161.910  15
   2   3  -5 312.037 145.565  13
  -2   3   5 432.842 188.376   1
   2  -3  -5 263.306 162.324  13
  -2  -3   5 587.152 211.607   1
   2   3  -4 11051.8 702.187   5
  -2  -3   4 11808.8 768.425  15
   2  -3  -4 11164.0 880.304  13
  -2   3   4 11313.0 894.924   1
  -2  -3   4 10396.1 848.953   1
   2   3  -3 10177.0 660.618   5
  -2   3   3 10169.9 666.716  14
   2  -3  -3 8788.47 773.603  13
  -2   3   3 8602.39 731.888   1
  -2  -3   3 10008.7 776.758   1
  -2  -3   3 10433.7 693.011  15
   2  -3  -2 98784.2 1768.95   6
   2   3  -2 100183. 2061.01   5
  -2  -3   2 94496.3 1750.14  16
  -2   3   2 103998. 2183.24  14
  -2  -3   2 97926.8 2316.69   1
  -2   3   2 106356. 2462.36   1
   2   3  -1 13381.2 758.922   5
   2  -3  -1 15179.4 755.535   6
  -2  -3   1 16241.2 822.101  16
  -2   3   1 13821.7 730.602  16
  -2   3   1 14139.6 898.878   1
  -2  -3   1 15267.4 920.789   1
  -2   3   1 15045.7 846.984  14
   2  -3   0 10215.6 661.867   6
   2   3   0 10293.6 670.411   5
  -2   3   0 10845.1 700.043  16
  -2  -3   0 11325.5 719.122  16
  -2   3   0 10982.7 751.756  14
   2  -3   0 12111.0 692.677  13
   2  -3   1 26352.4 1117.07   6
  -2  -3  -1 27238.6 1157.36  16
   2   3   1 26913.6 1131.37   5
  -2   3  -1 30044.5 1263.18  16
  -2   3  -1 31124.1 1308.80  14
   2   3   2 11559.6 809.414   6
   2  -3   2 10964.7 764.428   6
  -2  -3  -2 12131.1 821.562  16
  -2   3  -2 13092.9 901.168  16
   2   3   2 12073.1 798.361   5
  -2   3  -2 11268.7 820.918  14
   2   3   3 16517.9 1043.74   6
   2  -3   3 14595.9 939.193   6
   2  -3   3 15288.2 1117.42   2
   2   3   3 16631.1 1181.03   2
  -2   3  -3 18243.0 1158.99  16
  -2  -3  -3 15105.3 988.918  16
  -2   3  -3 14624.7 983.942  14
   2   3   4 14731.7 1057.22   6
   2  -3   4 14266.1 1013.82   6
   2  -3   4 14191.1 1153.48   2
   2   3   4 14648.0 1182.96   2
  -2  -3  -4 13138.8 993.794  16
  -2   3  -4 15495.6 1172.12  16
  -2   3  -4 13894.5 1025.47  14
   2  -3   5 2257.16 440.124   6
   2  -3   5 1523.48 199.866  10
   2  -3   5 1542.33 208.815   3
   2   3   5 2129.11 437.376   6
   2   3   5 1703.16 221.908   3
  -2  -3  -5 1264.84 150.519  17
   2  -3   5 1690.92 416.149   2
   2   3   5 2113.68 478.347   2
  -2  -3  -5 2251.14 441.013  16
   2   3   5 1330.75 148.855   8
  -2   3  -5 2128.71 489.502  16
   2  -3   5 1813.76 184.636   8
  -2   3  -5 1363.49 336.386  14
   2  -3   6 22383.2 1653.38   2
   2   3   6 27969.4 1875.81   2
   2  -3   6 28619.7 903.622   3
   2   3   6 22684.5 1482.22   6
   2  -3   6 27283.0 1649.24   6
   2  -3   6 26803.0 817.254  10
  -2  -3  -6 27474.6 1661.50  16
  -2   3  -6 32957.7 2046.10  16
   2  -3   6 28649.9 730.636   8
  -2   3  -6 22673.2 1530.16  14
   2   3   6 29214.8 921.547   3
   2   3   6 29708.6 927.329   4
   2  -3   6 29140.3 907.623   4
   2   3   7 4067.02 342.402   3
   2  -3   7 3663.45 322.141   3
   2  -3   7 3511.60 252.274   8
   2   3   7 4263.97 351.863   4
   2  -3   7 3874.88 332.160   4
   2   3   8 968.532 166.417   3
   2  -3   8 964.316 162.800   3
   2   3   8 1022.52 167.886   4
   2  -3   8 880.720 153.774   4
   2   3   9-39.0423 68.0200   4
   2  -3   9-29.2232 59.2446   4
   2  -3   9 20.2147 40.0557   3
   2   3   9-2.51458 42.5335   3
   2   3  10 934.967 118.379   4
   2  -3  10 808.066 108.388   4
  -2   4  12 283.631 52.7649   7
  -2  -4  12 320.955 61.4891   7
  -2  -4  11 8015.32 365.475   7
  -2   4  11 7305.18 321.808   7
  -2  -4  10 4348.10 304.649   7
  -2  -4  10 3896.09 263.535   9
  -2   4  10 3915.41 269.057   7
  -2  -4   9 1345.95 166.650   9
  -2  -4   9 1301.88 179.882   7
  -2   4   9 1319.40 174.142   7
  -2  -4   8 2171.81 255.469   4
  -2   4   8 2218.60 260.433   4
  -2  -4   8 2105.33 210.976   9
  -2  -4   8 2472.82 239.110   7
  -2   4   8 2214.99 222.119   7
  -2   4   7 159.854 67.6640   7
  -2   4   7 9.28668 40.0066  18
  -2   4   7 625.928 277.342   1
  -2  -4   7 147.057 63.9018   9
  -2  -4   7 470.900 238.614   1
   2   4  -7 160.117 112.623  13
   2  -4  -7 126.671 347.201  13
  -2  -4   7 146.889 74.2958   4
  -2   4   7 182.198 83.0928   4
  -2  -4   7 124.176 59.1795   7
  -2   4   6 3688.32 626.790   1
  -2  -4   6 4274.27 652.477   1
  -2   4   6 4283.38 286.891  18
  -2  -4   6 4056.42 282.971   9
  -2  -4   6 4555.07 543.368  15
   2  -4  -6 3121.85 722.846  13
  -2  -4   6 4240.58 300.330   7
  -2   4   6 3549.06 258.606   7
   2   4  -6 3692.90 516.415  13
  -2   4   5 16144.2 1160.81   1
  -2  -4   5 15910.3 1134.83   1
  -2  -4   5 17131.2 1015.18  15
  -2   4   4-2.60583 97.8622   1
  -2  -4   4 5.04067 115.057   1
   2   4  -4 28.3396 82.8277   5
  -2  -4   4 290.288 128.546  15
   2  -4  -4 168.065 247.227  13
   2   4  -3 1688.77 284.576   5
  -2  -4   3 1853.01 318.676  15
  -2   4   3 1818.89 311.596  14
   2  -4  -3 622.188 334.005  13
  -2   4   3 1849.49 356.806   1
  -2  -4   3 1917.64 349.094   1
   2  -4  -2 25203.6 901.340   6
  -2  -4   2 24661.3 968.562  16
  -2   4   2 26299.0 1163.31  14
  -2   4   2 27217.5 1264.58   1
  -2  -4   2 24426.2 1184.34   1
   2   4  -2 24509.9 1080.51   5
   2  -4  -1 9033.05 590.131   6
   2   4  -1 9520.87 666.607   5
  -2   4   1 10274.8 781.218   1
  -2  -4   1 9806.17 760.288   1
  -2   4   1 10758.8 746.770  14
   2  -4  -1 8310.64 782.189  13
  -2  -4   1 10759.1 704.299  16
   2  -4   0 16868.3 858.387   6
   2   4   0 17179.2 902.003   5
  -2  -4   0 17901.9 945.877  16
  -2   4   0 17669.8 987.359  14
   2  -4   0 18937.3 861.639  13
   2  -4   1 3176.17 400.654   6
  -2  -4  -1 3363.42 429.412  16
   2   4   1 3238.22 410.349   5
  -2   4  -1 3748.13 457.972  16
  -2   4  -1 3059.29 428.134  14
   2  -4   2 27511.3 1222.76   6
  -2  -4  -2 27726.7 1300.09  16
  -2   4  -2 31959.0 1440.46  16
   2   4   2 28661.6 1273.24   5
  -2   4  -2 28301.5 1348.47  14
   2   4   3 4443.80 558.964   6
   2  -4   3 3690.59 480.111   6
   2  -4   3 3803.51 576.463   2
   2   4   3 4299.68 612.409   2
  -2  -4  -3 3719.30 509.926  16
  -2   4  -3 3932.24 545.696  16
   2   4   3 3839.47 492.435   5
  -2   4  -3 3558.41 510.471  14
   2   4   4 26867.6 1455.14   6
   2  -4   4 25240.3 1349.93   6
   2  -4   4 25037.2 1578.35   2
   2   4   4 25871.7 1603.16   2
   2   4   4 22283.3 715.148  10
  -2  -4  -4 24694.5 1377.60  16
  -2   4  -4 26547.0 1551.20  16
   2  -4   4 21101.0 604.063   8
  -2   4  -4 25218.8 1432.50  14
   2   4   5 43210.8 1955.21   6
   2  -4   5 42796.4 2188.71   2
   2   4   5 45359.1 2254.70   2
   2  -4   5 50451.0 2092.20   6
   2  -4   5 36323.2 949.037  10
   2   4   5 42404.1 1099.43   3
   2  -4   5 41592.3 1093.66   3
  -2  -4  -5 45603.0 2014.75  16
  -2   4  -5 48907.8 2282.15  16
  -2   4  -5 41788.5 1962.26  14
   2  -4   5 42179.5 882.107   8
  -2  -4  -5 34275.8 788.109  17
   2   4   6 558.651 134.448   4
   2  -4   6 615.718 143.305   4
   2   4   6 790.136 330.794   2
   2  -4   6 496.935 115.146  10
   2  -4   6 497.371 239.056   6
   2  -4   6 955.073 337.097   2
  -2   4  -6 1133.03 338.128  14
   2   4   6 537.571 131.055   3
   2  -4   6 526.793 136.978   3
   2  -4   6 467.137 98.0211   8
   2   4   7 25265.5 845.570   3
   2  -4   7 26210.8 858.195   3
   2  -4   7 24286.7 661.432   8
   2   4   7 26921.4 867.731   4
   2  -4   7 26491.1 855.650   4
   2   4   8 1737.85 211.808   3
   2  -4   8 1723.10 211.438   3
   2  -4   8 1331.97 141.720   8
   2   4   8 1983.78 226.888   4
   2  -4   8 1508.87 194.455   4
   2   4   9 1669.84 187.028   3
   2  -4   9 1859.18 196.449   3
   2   4   9 1985.27 199.301   4
   2  -4   9 1832.60 192.185   4
   2   4  10 5153.88 256.364   4
   2  -4  10 4845.88 246.001   4
  -2   5  12 77.3166 27.1370   7
  -2   5  11 15.1524 27.3854   7
  -2  -5  11-27.3214 45.1514   9
  -2  -5  11 3.60719 35.1189   7
  -2   5  10 495.788 98.1049   7
  -2  -5  10 516.282 98.4262   9
  -2  -5  10 489.561 104.076   7
   2  -5  -9 1827.40 200.709  10
  -2  -5   9 2434.36 219.468   9
  -2  -5   9 2192.44 224.007   7
  -2   5   9 2517.05 228.474   7
  -2  -5   8 11561.4 485.663   9
  -2  -5   8 11142.5 500.460   7
  -2   5   8 10084.9 467.180   7
  -2   5   7 17710.4 1466.87   1
  -2  -5   7 14937.3 1349.98   1
  -2  -5   7 24579.6 703.889   9
  -2   5   7 19685.9 622.537  18
   2   5  -7 18372.3 1211.29  13
   2  -5  -7 9938.03 1547.65  13
  -2  -5   7 21851.7 695.293   7
  -2   5   7 20096.3 648.755   7
  -2   5   6 681.845 116.087   7
  -2   5   6 1048.96 323.465   1
  -2  -5   6 534.907 254.531   1
  -2  -5   6 1123.52 290.466  15
  -2   5   6 994.830 141.345  18
  -2  -5   6 1054.84 143.403   9
   2   5  -6 704.444 237.937  13
  -2  -5   6 1054.96 155.386   7
  -2   5   6 814.656 134.098  12
  -2   5   5 8316.30 848.247   1
  -2  -5   5 8959.67 883.822   1
   2   5  -5 7665.37 679.535   5
  -2  -5   5 8916.86 762.824  15
  -2   5   4 37488.6 1688.27   1
  -2  -5   4 37259.1 1666.19   1
   2   5  -4 38283.3 1467.72   5
  -2  -5   4 41236.8 1587.21  15
   2   5  -3 3154.12 417.127   5
  -2  -5   3 3058.82 426.557  15
  -2   5   3 3277.05 435.328  14
   2  -5  -3 1550.48 532.859  13
  -2   5   3 2769.89 432.862   1
  -2  -5   3 2489.31 407.392   1
  -2   5   2 1207.65 274.095   1
  -2  -5   2 1036.41 261.139   1
   2  -5  -2 876.915 175.462   6
  -2  -5   2 692.501 170.089  16
   2   5  -2 641.994 184.491   5
  -2   5   2 1545.56 309.004  14
   2  -5  -2 269.907 291.592  13
   2  -5  -1 1812.35 274.296   6
  -2   5   1 1716.45 324.611   1
  -2  -5   1 1801.65 342.633   1
  -2   5   1 1750.23 318.705  14
  -2  -5   1 2068.54 327.549  16
   2  -5  -1 2303.13 373.611  13
   2   5  -1 1867.94 308.074   5
   2  -5   0 9.55372 79.6988   6
  -2  -5   0 82.0379 81.6909  16
  -2   5   0 80.7486 118.884  14
   2  -5   0 55.9589 93.9745  13
   2  -5   1 33565.9 1308.99   6
  -2  -5  -1 31272.3 1350.72  16
   2   5   1 31629.1 1333.82   5
  -2   5  -1 33273.8 1443.06  14
   2  -5   2 3982.72 483.814   6
   2  -5   2 4008.26 565.238   2
   2   5   2 3824.68 546.674   2
  -2  -5  -2 4040.69 507.959  16
   2   5   2 4111.39 503.290   5
  -2   5  -2 4290.06 538.381  14
   2   5   3 3264.41 491.433   6
   2  -5   3 2722.89 424.780   6
   2  -5   3 2484.67 471.019   2
   2   5   3 3162.85 526.746   2
  -2  -5  -3 2697.75 440.906  16
  -2   5  -3 3079.55 500.180  16
   2   5   3 3006.26 451.763   5
  -2   5  -3 2869.23 461.201  14
   2   5   4-18.9417 131.241   6
   2  -5   4 35.2928 43.6732  10
   2  -5   4 165.833 113.859   6
  -2  -5  -4 323.598 169.011  16
   2  -5   4-83.7078 109.308   2
   2   5   4-111.770 140.277   2
  -2   5  -4-97.4772 99.1545  16
   2   5   4 15.4915 44.6767   3
   2  -5   4-99.8408 60.4080   3
  -2   5  -4-245.089 153.751  14
   2  -5   4-36.2585 52.9225   8
  -2  -5  -4-25.3664 34.3782  17
   2   5   5-50.4676 48.9539   4
   2  -5   5 17.3754 40.8777   4
   2   5   5 69.1782 189.389   6
   2  -5   5-5.90641 47.2279  10
   2  -5   5 43.4539 82.9872   6
   2  -5   5 408.744 215.540   2
  -2  -5  -5-7.95606 45.7994  17
  -2  -5  -5 49.2015 201.526  16
  -2   5  -5-634.964 282.115  16
   2   5   5-86.6440 60.5568   3
   2  -5   5 0.17170 56.2735   3
  -2   5  -5-360.316 201.274  14
   2  -5   5 4.29942 38.1987   8
   2   5   5 71.5390 169.742   2
   2   5   6 4936.53 373.597   3
   2  -5   6 4832.07 378.205   3
   2  -5   6 4753.25 375.078   4
   2  -5   6 4989.45 307.157   8
   2   5   6 5333.84 388.103   4
   2   5   7 4079.33 333.289   3
   2  -5   7 4407.53 349.172   3
   2  -5   7 3759.83 260.488   8
   2   5   7 4047.35 332.059   4
   2  -5   7 4375.79 347.197   4
   2   5   8 3630.83 291.317   3
   2  -5   8 3713.93 298.815   3
   2  -5   8 3585.97 230.110   8
   2   5   8 4092.04 306.887   4
   2  -5   8 3845.24 298.829   4
   2   5   9 5297.09 310.637   3
   2  -5   9 5459.34 318.116   3
   2   5   9 5999.31 324.841   4
   2  -5   9 5240.19 307.016   4
   2   5  10 4035.22 199.143   4
   2  -5  10 4403.35 206.594   4
  -2  -6  11 4830.96 245.585   9
  -2  -6  11 5599.56 281.876   7
  -2   6  11 5238.64 243.383   7
  -2  -6  10 1917.06 179.057   9
  -2  -6  10 1877.15 192.999   7
  -2   6  10 1994.61 178.556   7
  -2   6   9 562.401 109.936   7
   2  -6  -9 529.706 118.780  10
  -2  -6   9 559.914 108.889   9
  -2  -6   9 583.522 114.862   7
  -2  -6   8 6908.09 372.725   9
  -2  -6   8 6468.69 381.096   7
  -2   6   8 6376.28 365.028   7
  -2   6   7 19354.3 609.933  18
  -2  -6   7 23959.8 699.468   9
  -2  -6   7 14594.8 1097.42  15
   2   6  -7 14509.5 1101.87  13
   2  -6  -7 15793.0 1698.51  13
  -2  -6   7 21528.4 689.486   7
  -2   6   7 20347.5 649.410   7
  -2   6   7 13740.4 1290.62   1
  -2  -6   6 506.007 202.659  15
  -2  -6   6 1009.08 151.517   9
  -2   6   6 974.254 325.882   1
  -2   6   6 1020.59 144.542  18
  -2  -6   6 425.594 244.360   1
  -2  -6   6 966.890 152.718   7
   2  -6  -6 1196.20 733.775  13
  -2   6   6 1064.97 154.333  12
  -2   6   6 992.754 142.103   7
  -2  -6   5 373.632 87.4821   9
   2   6  -5 368.514 124.785   5
  -2  -6   5 285.268 156.092  15
   2  -6  -5-37.0912 468.298  13
  -2   6   5-25.3931 95.3067   1
  -2   6   5 346.931 79.4001  18
  -2   6   5 269.248 80.3558  12
  -2  -6   5 521.384 109.152   7
  -2  -6   5 515.507 211.790   1
   2   6  -4 555.297 185.226   5
  -2  -6   4 788.281 221.297  15
  -2   6   4 666.654 242.247  14
  -2   6   4 997.102 271.512   1
   2  -6  -4 658.552 450.106  13
  -2  -6   4 986.457 275.689   1
   2   6  -3 118.127 83.9863   5
  -2  -6   3 42.7284 79.2265  15
  -2   6   3 62.1789 76.2626   1
  -2  -6   3 67.5524 106.782   1
  -2   6   3 67.2491 111.274  14
   2  -6  -3 43.6371 283.866  13
   2   6  -2 1458.20 302.418   5
  -2  -6   2 1259.15 288.161   1
  -2  -6   2 1511.07 289.304  16
  -2   6   2 1212.89 274.938   1
  -2   6   2 1635.91 332.656  14
   2  -6  -2 1667.29 371.001  13
  -2   6   1 995.354 257.773   1
  -2  -6   1 1472.82 319.126   1
   2  -6  -1 1525.76 262.524   6
   2   6  -1 1612.07 303.454   5
  -2  -6   1 1395.91 287.786  16
  -2   6   1 1442.32 314.498  14
   2  -6  -1 1843.13 333.867  13
   2  -6   0 3722.58 429.974   6
   2   6   0 3383.53 442.651   5
  -2  -6   0 4113.78 500.870  16
  -2   6   0 2643.27 431.579   1
  -2  -6   0 2667.90 433.359   1
  -2   6   0 3668.16 490.361  14
   2  -6   0 3506.26 409.503  13
   2  -6   1 44144.9 1558.71   6
  -2  -6  -1 49044.8 1793.88  16
   2   6   1 46798.0 1691.85   5
  -2   6  -1 46334.0 1774.86  14
   2  -6   2 1221.52 279.720   6
   2   6   2 1215.94 312.719   2
  -2  -6  -2 1115.38 279.558  16
   2   6   2 1130.80 283.243   5
   2  -6   2 684.400 236.540   2
  -2   6  -2 1081.81 295.130  14
   2  -6   3 2732.16 436.852   6
   2  -6   3 2780.93 503.589   2
   2   6   3 2663.51 487.336   2
  -2  -6  -3 2925.39 485.220  16
   2   6   3 2917.15 452.477   5
  -2   6  -3 2872.93 498.587  16
   2  -6   3 2402.96 205.192   8
  -2   6  -3 2869.19 489.013  14
   2   6   4 391.449 193.762   6
   2  -6   4 370.639 93.9055  10
   2  -6   4 767.381 262.472   6
  -2  -6  -4 541.089 99.1497  17
   2  -6   4 466.708 232.249   2
   2   6   4 339.816 185.955   2
  -2  -6  -4 546.990 213.642  16
  -2   6  -4 777.479 277.636  16
   2  -6   4 685.390 117.062   8
   2  -6   4 471.981 109.004   3
  -2   6  -4 900.391 281.712  14
   2   6   5 1128.00 340.209   6
   2  -6   5 1049.26 176.932   3
   2   6   5 1329.52 377.557   2
  -2  -6  -5 1068.83 140.643  17
   2   6   5 1204.49 182.428   3
  -2   6  -5 990.772 330.108  16
   2  -6   5 1270.40 159.525   8
   2  -6   5 1327.05 358.359   6
  -2   6  -5 760.809 331.795  14
  -2  -6  -5 1004.28 321.951  16
   2   6   5 1085.02 173.490   4
   2  -6   5 1155.73 187.254   4
   2   6   6 88.7965 53.8282   4
   2  -6   6 174.667 73.2630   4
   2  -6   6 46.7138 35.8980   3
   2  -6   6 28.7175 36.5901   8
   2   6   7 14261.3 590.842   3
   2  -6   7 14908.7 627.245   3
   2  -6   7 15647.4 524.760   8
   2   6   7 15711.4 618.826   4
   2  -6   7 15754.8 635.662   4
   2   6   8-26.8064 61.4230   4
   2  -6   8 86.6446 63.9837   4
   2   6   8 45.3329 43.5121   3
   2  -6   8 7.58828 45.9825   3
   2  -6   8 1.69372 24.8524   8
   2   6   9 136.747 51.1620   4
   2  -6   9 25.6615 29.7123   4
  -2  -6  -9 73.2254 43.1322  11
   2  -6   9 120.198 48.9341   3
  -2  -6 -10 2337.83 145.912  11
  -2   7  11 1232.55 110.900   7
  -2  -7  10 18131.8 519.358   9
  -2  -7  10 16735.9 532.128   7
  -2   7  10 16813.5 485.870   7
  -2   7   9 182.284 62.2683   7
   2  -7  -9 126.958 58.4443  10
  -2  -7   9 216.257 77.1063   9
  -2  -7   9 155.476 76.5751   7
  -2  -7   8 1118.58 158.137   9
  -2  -7   8 901.527 146.340   7
  -2   7   8 1166.72 153.380   7
  -2   7   7 318.935 78.9522   7
  -2   7   7 234.314 76.0554  18
  -2  -7   7 186.111 72.3928   9
  -2   7   7 229.856 81.0939  12
  -2  -7   7 246.200 83.8029   7
  -2   7   6 1137.64 151.376  18
  -2  -7   6 1168.73 163.860   9
  -2  -7   6 1222.00 315.127  15
  -2  -7   6 1074.85 160.268   7
   2  -7  -6 737.560 406.070  13
  -2   7   6 1250.78 164.366  12
  -2   7   5 2990.30 232.553  18
  -2  -7   5 3339.42 264.244   9
  -2  -7   5 2404.07 453.850  15
   2   7  -5 2900.91 474.616   5
  -2  -7   5 2937.81 250.712   7
   2  -7  -5 3842.80 757.856  13
  -2   7   5 3065.38 254.022  12
  -2  -7   4 5387.31 320.332   9
   2  -7  -4 4572.13 326.778  10
  -2   7   4 5234.49 302.367  18
  -2  -7   4 5289.72 630.362  15
  -2   7   4 5499.60 680.509  14
   2  -7  -4 6456.88 806.464  13
  -2  -7   4 4380.59 299.689   7
   2   7  -4 5535.29 632.490   5
  -2   7   3 390.653 153.212   1
   2   7  -3 581.023 214.138   5
  -2  -7   3 293.676 161.131  15
  -2   7   3 381.641 186.540  14
   2  -7  -3 575.189 252.852  13
  -2   7   2 683.001 202.847   1
  -2  -7   2 673.408 220.868  16
   2   7  -2 809.421 225.202   5
  -2  -7   2 516.138 199.969  15
  -2   7   2 750.581 256.209  14
   2  -7  -2 745.813 239.944  13
   2  -7  -1 5399.34 508.240   6
   2   7  -1 4920.58 556.626   5
  -2  -7   1 5563.36 611.759  16
  -2   7   1 4795.19 585.263  14
  -2   7   1 3940.99 494.687   1
   2  -7  -1 5009.80 547.750  13
   2  -7   0 21217.9 1067.91   6
  -2  -7   0 24636.4 1292.63  16
  -2   7   0 18589.5 1101.39   1
  -2   7   0 21009.8 1229.29  14
   2  -7   0 22353.4 1093.63  13
   2   7   0 21268.5 1151.72   5
   2  -7   1-25.0683 47.6646   6
   2   7   1-14.1361 86.1554   5
  -2  -7  -1 21.4688 57.7799  16
  -2   7  -1-23.1323 83.0066  14
   2  -7   2 42398.1 1660.57   6
  -2  -7  -2 43734.0 1797.87  16
   2   7   2 42255.3 1735.95   5
  -2   7  -2 41032.0 1802.63  14
   2  -7   3 3363.05 479.436   6
  -2  -7  -3 2628.87 214.107  17
  -2  -7  -3 3266.79 520.905  16
   2   7   3 2956.97 481.960   5
   2  -7   3 3104.77 237.389   8
  -2   7  -3 2870.84 500.622  14
   2   7   3 2772.93 252.268  12
   2   7   4 1030.48 320.418   6
   2  -7   4 1787.20 385.104   6
  -2  -7  -4 1463.09 166.746  17
  -2  -7  -4 1537.72 385.303  16
  -2   7  -4 2074.00 457.134  16
   2  -7   4 1496.90 169.075   8
  -2   7  -4 1994.19 424.167  14
   2   7   4 1298.23 169.005  12
  -2  -7  -5 1259.36 151.684  17
   2  -7   5 1700.71 182.735   8
   2  -7   6 1485.06 170.225   8
   2  -7   7 8.03236 37.9574   8
  -2  -7  -8 2903.47 236.305  11
   2  -7   8 2749.46 193.786   8
  -2  -7  -9 131.547 52.7863  11
  -2   8  11 5178.60 200.554   7
   2  -8 -10 992.623 117.616  10
  -2  -8  10 1358.78 141.798   9
  -2   8  10 1222.70 123.204   7
   2  -8  -9 4906.69 312.398  10
  -2  -8   9 5540.47 305.859   9
  -2   8   9 5009.65 281.315   7
  -2  -8   8 1505.03 174.878   9
   2  -8  -8 1386.71 189.282  10
  -2  -8   8 1231.15 169.999   7
  -2   8   8 1340.79 162.691   7
  -2  -8   7 6864.79 381.676   9
  -2  -8   7 5840.69 359.252   7
  -2   8   7 6159.78 360.028  12
  -2   8   7 5863.36 340.572   7
  -2   8   7 5471.23 317.270  18
  -2   8   6 1638.46 181.132  18
  -2  -8   6 1759.23 201.148   9
  -2  -8   6 1331.96 332.353  15
  -2  -8   6 1340.51 172.435   7
  -2   8   6 1667.02 191.660  12
  -2  -8   5 1497.68 179.412   9
  -2   8   5 1273.11 154.649  18
   2   8  -5 709.557 238.916   5
  -2  -8   5 1054.86 302.355  15
   2  -8  -5 1190.02 409.450  13
  -2   8   5 1311.87 166.679  12
  -2   8   4 1864.79 185.273  18
   2  -8  -4 1834.83 209.938  10
  -2  -8   4 1650.51 179.425   9
  -2  -8   4 2085.80 416.572  15
   2   8  -4 1894.67 394.567   5
  -2   8   4 2102.59 460.709  14
   2  -8  -4 2102.21 447.717  13
  -2   8   4 1478.29 169.509  12
   2   8  -3 366.939 185.130   5
  -2  -8   3 175.085 157.958  15
   2  -8  -3 167.965 60.6755  10
  -2   8   3 238.303 69.5867  18
  -2  -8   3 191.044 62.3886  17
  -2   8   3 439.854 203.446  14
   2  -8  -3 292.937 180.478  13
  -2  -8   2 9988.51 896.889  15
   2   8  -2 8566.35 780.157   5
  -2   8   2 8471.07 832.078  14
   2  -8  -2 8751.95 778.703  13
   2  -8  -1 15196.6 896.711   6
   2   8  -1 16518.7 1061.38   5
  -2  -8   1 19052.0 1214.09  16
  -2   8   1 16965.8 1148.77  14
   2  -8  -1 17930.6 1065.95  13
   2  -8   0 2683.47 397.844   6
   2   8   0 2735.96 435.225   5
  -2  -8   0 3132.07 491.240  16
  -2   8   0 3239.60 512.401  14
   2  -8   0 2902.34 419.129  13
   2  -8   1 4108.77 522.595   6
  -2  -8  -1 3239.68 233.922  17
  -2  -8  -1 3856.07 550.094  16
   2   8   1 3870.98 532.023   5
  -2   8  -1 3863.17 560.460  14
   2   8   1 3800.91 290.366  12
   2  -8   2 214.318 69.7921  11
  -2  -8  -2 514.601 108.625  11
   2  -8   2 675.223 219.554   6
  -2  -8  -2 556.076 219.770  16
   2   8   2 591.069 240.268   5
  -2   8  -2 789.300 256.544  14
   2  -8   2 395.120 91.3683   8
  -2  -8  -2 307.651 76.8766  17
   2   8   2 539.455 122.773  12
   2  -8   2 226.359 87.2577  10
  -2  -8  -3 2284.81 233.569  11
   2  -8   3 2199.95 409.061   6
  -2  -8  -3 2064.30 195.418  17
  -2  -8  -3 2239.87 429.384  16
   2  -8   3 1976.85 195.540   8
   2   8   3 1990.93 404.630   5
  -2   8  -3 1854.61 408.818  14
   2   8   3 1882.73 214.826  12
  -2  -8  -4 384.882 106.141  11
  -2  -8  -4 306.199 81.3243  17
   2   8   4 162.847 146.953   6
   2  -8   4-41.6284 82.9732   6
  -2  -8  -4 268.817 178.091  16
  -2   8  -4 210.213 170.340  16
  -2   8  -4-119.780 110.963  14
   2  -8   4 360.695 83.4195   8
   2   8   4 373.078 93.8524  12
  -2  -8  -5 13414.8 559.621  11
  -2  -8  -5 10782.4 438.232  17
   2  -8   5 13041.8 500.129   8
   2   8   5 11609.7 494.645  12
  -2  -8  -6 106.840 66.3055  11
   2  -8   6 86.6436 46.2645   8
  -2  -8  -7 601.887 118.383  11
   2  -8   7 610.061 106.247   8
  -2  -8  -8 803.037 122.304  11
   2  -8   8 911.833 108.418   8
  -2  -8  -9 1209.05 119.695  11
   2  -9 -10 1793.57 150.337  10
  -2  -9  10 1572.69 148.106   9
  -2   9  10 1781.91 136.980   7
   2  -9  -9 4495.63 289.585  10
  -2  -9   9 5165.72 291.322   9
  -2   9   9 4488.09 250.841   7
   2  -9  -8 17716.6 639.655  10
  -2   9   8 16833.6 532.111   7
  -2   9   7 7542.10 361.296  18
  -2   9   7 8096.19 405.992  12
  -2   9   7 7570.44 375.239   7
  -2   9   6 132.971 66.1362  18
  -2  -9   6 352.332 95.9551   9
  -2   9   6 287.511 83.6606  12
   2  -9  -5 5059.37 362.934  10
  -2   9   5 4954.71 300.137  18
  -2  -9   5 5201.06 334.695   9
   2   9  -5 4477.09 630.953   5
  -2  -9   5 4234.89 646.456  15
   2  -9  -5 4446.15 646.042  13
  -2   9   5 5028.18 327.553  12
   2  -9  -4-46.7522 65.7155  10
  -2   9   4 3.76433 37.0145  18
  -2  -9   4 30.9999 29.7026   9
  -2  -9   4 89.3277 121.404  15
  -2   9   4 175.420 152.090  14
  -2   9   4-24.8912 30.1747  12
   2  -9  -3 489.804 120.116  10
  -2  -9   3 418.043 92.9397  17
  -2   9   3 441.784 91.9446  18
  -2  -9   3 409.406 91.1568   9
   2   9  -3 331.454 197.186   5
  -2  -9   3 393.742 186.591  15
  -2   9   3 573.591 268.276  14
   2  -9  -3 554.889 211.687  13
  -2  -9   2 276.853 75.7742  17
   2  -9  -2 309.647 94.8233  10
  -2   9   2 292.525 81.1584  18
   2   9  -2 460.315 191.778   5
  -2  -9   2 20.3848 90.9306  15
  -2   9   2 464.513 220.976  14
   2  -9  -2 429.973 193.480  13
  -2  -9   1 1220.71 151.356  17
   2  -9  -1 1038.33 160.435  10
  -2   9   1 1187.08 153.726  18
  -2  -9   1 1528.89 366.041  16
   2   9  -1 1350.61 318.014   5
  -2  -9   1 1665.41 377.018  15
  -2   9   1 1587.43 375.722  14
   2  -9  -1 1110.29 290.637  13
   2   9   0 40.8411 44.0717  12
  -2  -9   0 196.695 71.0669  11
   2  -9   0-92.8319 89.6140   6
   2  -9   0 34.8182 58.1404  10
  -2   9   0 142.765 59.5308  18
   2   9   0 113.488 94.7220   5
  -2   9   0 42.6520 111.127  14
   2  -9   0 156.689 134.833  13
  -2  -9   0 179.914 61.8243  17
  -2  -9  -1 919.224 151.639  11
   2  -9   1 771.387 240.532   6
   2  -9   1 740.173 142.323  10
  -2   9  -1 693.233 116.360  18
  -2  -9  -1 896.785 126.640  17
  -2  -9  -1 831.852 269.228  16
   2   9   1 775.245 272.432   5
  -2   9  -1 701.414 229.190  14
   2  -9   1 680.946 114.704   8
   2   9   1 1033.51 160.482  12
   2  -9   2 1104.01 155.859  11
  -2  -9  -2 1818.07 212.885  11
  -2  -9  -2 1784.37 403.593  16
  -2   9  -2 1382.03 158.035  18
   2  -9   2 1596.85 360.077   6
  -2  -9  -2 1511.10 167.433  17
   2   9   2 1281.60 345.986   5
   2  -9   2 1825.58 189.667   8
  -2   9  -2 999.859 307.357  14
   2   9   2 1888.23 214.913  12
  -2  -9  -3-0.96252 64.4471  11
  -2  -9  -3 71.0162 42.0018  17
  -2  -9  -3 514.824 232.446  16
   2   9   3 25.8794 152.503   5
  -2   9  -3 386.644 194.329  14
   2  -9   3 170.655 70.2373   8
   2   9   3 19.8530 52.4401  12
  -2  -9  -4 7743.26 421.527  11
  -2  -9  -4 6940.07 360.633  17
   2  -9   4 7311.34 375.374   8
   2   9   4 7689.17 423.992  12
  -2  -9  -5 2336.75 238.119  11
   2  -9   5 2359.25 213.810   8
   2   9   5 2475.75 231.663  12
  -2  -9  -6 1129.74 159.045  11
   2  -9   6 994.389 136.357   8
  -2  -9  -7 542.007 107.120  11
   2  -9   7 533.164 91.5955   8
  -2  -9  -8 127.190 48.2047  11
   2  -9   8 146.046 42.6523   8
  -2  -9  -9 9341.48 294.597  11
   2 -10 -10 9333.52 310.430  10
  -2  10  10 6987.65 232.528   7
   2 -10  -9 1057.94 135.745  10
  -2 -10   9 695.635 105.605   9
  -2  10   9 830.999 99.1352   7
   2 -10  -8 1299.46 168.457  10
  -2 -10   8 1150.45 137.308   9
  -2  10   8 1226.73 137.049   7
   2 -10  -7 2744.80 264.634  10
  -2 -10   7 2426.84 212.899   9
  -2 -10   7 2017.97 193.883   8
  -2  10   7 2659.03 230.320  12
  -2  10   7 2119.88 185.521  18
   2 -10  -6 477.701 123.417  10
  -2  10   6 368.299 86.7361  18
  -2 -10   6 512.022 110.490   9
  -2  10   6 401.454 99.5227  12
   2 -10  -5 798.248 155.712  10
  -2 -10   5 709.969 122.510   9
  -2  10   5 608.122 105.729  18
  -2  10   5 684.837 121.460  12
   2 -10  -4 4495.63 343.266  10
  -2  10   4 4710.10 307.566  18
  -2 -10   4 3508.70 267.600   9
   2  10  -4 3770.50 603.802   5
  -2 -10   4 2463.35 555.240  15
  -2  10   4 2698.88 564.171  14
   2 -10  -4 3514.17 553.380  13
  -2  10   4 3516.13 265.518  12
   2 -10  -3 3038.83 282.480  10
  -2  10   3 3241.57 244.538  18
  -2 -10   3 2636.04 532.119  15
  -2  10   3 2317.45 518.282  14
   2 -10  -3 2724.12 460.188  13
   2  10  -3 3265.62 546.598   5
   2 -10  -2 17602.3 665.750  10
  -2  10   2 19290.0 590.208  18
   2  10  -2 18103.7 1237.32   5
  -2 -10   2 19528.4 627.446  17
  -2 -10   2 20866.3 1442.89  15
  -2  10   2 17285.9 1334.24  14
   2 -10  -2 17880.8 1190.12  13
  -2 -10   1 5723.64 363.359  11
   2 -10  -1 6483.49 407.624  10
  -2  10   1 7466.37 385.446  18
  -2 -10   1 7232.43 373.813  17
   2  10  -1 7225.41 785.504   5
  -2 -10   1 7928.08 880.564  15
  -2  10   1 7564.69 864.623  14
   2 -10  -1 6967.01 748.120  13
   2  10  -1 7156.09 399.306  12
  -2 -10   0 15452.7 610.627  11
   2 -10   0 14113.5 1011.02   6
   2 -10   0 13637.8 595.919  10
  -2  10   0 15613.7 577.861  18
  -2 -10   0 15560.1 533.647  17
   2  10   0 17173.3 1202.44   5
  -2 -10   0 17287.2 1306.91  16
  -2 -10   0 16650.1 1267.29  15
   2 -10   0 13341.2 491.642   8
  -2  10   0 16850.3 1272.73  14
   2 -10   0 13727.4 1063.68  13
   2  10   0 17724.8 626.545  12
   2 -10   1 4125.00 296.258  11
  -2 -10  -1 5555.12 367.356  11
   2 -10   1 5105.38 627.916   6
   2 -10   1 4325.76 331.589  10
  -2  10  -1 5578.85 328.792  18
  -2 -10  -1 5607.90 322.378  17
  -2 -10  -1 5671.88 736.344  16
   2  10   1 5298.27 686.424   5
   2 -10   1 5430.81 328.226   8
  -2  10  -1 5317.76 720.256  14
   2  10   1 5833.93 369.256  12
   2 -10   2 24699.5 732.721  11
  -2 -10  -2 29723.4 839.618  11
   2 -10   2 23846.4 1402.71   6
  -2  10  -2 25332.7 684.504  18
  -2 -10  -2 28079.6 724.920  17
  -2 -10  -2 24779.8 1545.71  16
   2  10   2 22996.7 1451.01   5
   2 -10   2 29499.9 766.838   8
  -2  10  -2 23782.7 1561.03  14
   2  10   2 30323.5 849.075  12
  -2 -10  -3 9983.19 479.475  11
  -2 -10  -3 8916.91 412.347  17
   2 -10   3 10013.8 446.009   8
   2  10   3 10397.7 501.118  12
  -2 -10  -4 18699.9 653.048  11
  -2 -10  -4 17438.8 567.787  17
   2 -10   4 18175.0 591.229   8
   2  10   4 19622.0 669.536  12
  -2 -10  -5 6171.68 367.536  11
   2 -10   5 5634.29 322.605   8
   2  10   5 6013.39 352.684  12
  -2 -10  -6 341.756 92.4097  11
   2 -10   6 370.295 85.9494   8
   2  10   6 288.939 77.1527  12
  -2 -10  -7 7831.70 356.841  11
   2 -10   7 7499.45 320.313   8
  -2 -10  -8 307.505 65.9484  11
   2 -10   8 234.623 50.5702   8
   2 -11  -9 15.7132 32.4717  10
  -2 -11   9 101.140 45.9757   9
   2 -11  -8 571.842 109.848  10
  -2 -11   8 206.956 61.5611   9
  -2  11   7 3966.24 242.849  18
  -2 -11   7 3825.10 246.535   9
  -2 -11   7 3928.58 255.804   8
  -2  11   6 3930.50 256.445  18
   2 -11  -6 4527.91 337.536  10
  -2 -11   6 4184.60 271.533   9
  -2  11   6 4613.56 301.929  12
   2 -11  -5 1405.71 200.586  10
  -2  11   5 1221.15 151.809  18
  -2 -11   5 1162.17 145.825   9
  -2  11   5 1396.92 168.875  12
   2 -11  -4 429.187 116.222  10
  -2  11   4 483.719 98.0688  18
  -2  11   4 261.274 71.1788  12
  -2  11   3 752.218 122.427  18
   2 -11  -3 736.659 147.823  10
   2 -11  -2 8420.36 465.984  10
  -2  11   2 8870.74 404.408  18
   2  11  -2 7714.98 841.507   5
  -2 -11   2 7750.02 908.587  15
  -2  11   2 6353.19 873.557  14
   2 -11  -2 7171.41 789.398  13
   2  11  -2 8816.48 444.563  12
  -2 -11   1 1050.84 155.454  11
  -2 -11   1 1195.62 157.505  17
   2 -11  -1 1141.15 178.482  10
  -2  11   1 1121.27 152.156  18
   2  11  -1 906.633 292.658   5
  -2 -11   1 773.852 275.993  15
  -2  11   1 1303.82 397.026  14
   2 -11  -1 1100.07 316.793  13
   2  11  -1 1092.01 162.498  12
  -2 -11   0 8288.34 453.522  11
   2 -11   0 7024.04 430.802  10
  -2 -11   0 7292.79 374.353  17
   2  11   0 7850.67 852.462   5
  -2  11   0 9118.56 423.924  18
  -2 -11   0 7556.66 877.020  15
  -2  11   0 6225.94 819.992  14
   2 -11   0 6031.88 743.218  13
   2  11   0 8464.31 438.103  12
   2 -11   1 33553.7 853.124  11
  -2 -11  -1 45640.3 1048.63  11
   2 -11   1 32266.2 1636.45   6
  -2  11  -1 44834.8 937.374  18
  -2 -11  -1 34279.1 1881.70  16
  -2 -11  -1 39982.2 873.750  17
   2 -11   1 41918.0 913.880   8
   2  11   1 46054.1 1032.57  12
   2 -11   2 1340.04 174.638  11
  -2 -11  -2 1477.59 190.963  11
  -2 -11  -2 1340.18 166.786  17
  -2  11  -2 1343.14 162.564  18
   2 -11   2 1424.68 173.709   8
   2  11   2 1483.22 192.968  12
  -2 -11  -3 4900.12 335.947  11
  -2 -11  -3 4429.95 294.594  17
   2 -11   3 4754.70 309.360   8
   2  11   3 4897.58 341.813  12
  -2 -11  -4 12376.8 514.953  11
  -2 -11  -4 11733.3 459.087  17
   2 -11   4 12056.2 477.586   8
   2  11   4 12834.8 531.645  12
  -2 -11  -5 5636.83 339.414  11
   2 -11   5 5464.32 305.228   8
   2  11   5 5497.24 326.393  12
  -2 -11  -6 70.6718 57.0809  11
   2 -11   6 46.4988 42.0859   8
   2  11   6 47.1344 41.0210  12
  -2 -11  -7 187.499 60.3702  11
   2 -11   7 208.167 54.4204   8
  -2 -11  -8 51.3663 37.0103  11
   2 -11   8 72.7928 28.3449   8
   2 -12  -9 1213.07 121.932  10
   2 -12  -8 8613.78 378.338  10
  -2 -12   8 1797.12 157.129   9
  -2 -12   7 198.726 56.0722   9
  -2 -12   7 364.814 76.8686   8
   2  12  -6 121.791 45.9680  12
   2 -12  -6 27.0021 54.5362  10
  -2  12   6 70.5509 44.5256  18
  -2 -12   6-56.0415 59.6956   8
  -2  12   6 1.56207 39.6044  12
   2  12  -5 72.0115 55.0817  12
   2 -12  -5 57.8626 67.4513  10
  -2  12   5 79.7879 41.2451  18
  -2  12   5 123.035 55.7638  12
   2 -12  -4 10927.4 526.886  10
  -2  12   4 9796.40 434.075  18
   2  12  -4 10456.5 477.014  12
   2  12  -3 547.146 118.496  12
  -2  12   3 468.242 97.7036  18
   2 -12  -3 460.199 110.655  10
   2 -12  -2 39345.6 995.266  10
  -2  12   2 40434.6 871.665  18
   2  12  -2 39824.9 951.921  12
  -2 -12   1 3362.87 286.463  11
   2 -12  -1 3264.51 292.784  10
  -2  12   1 3542.18 267.735  18
   2  12  -1 3575.61 289.731  12
  -2 -12   0 94.7173 62.1890  11
  -2  12   0-6.05594 52.6075  18
   2 -12   0 56.9867 66.7995  10
   2  12   0 24.1297 51.7523  12
   2 -12   1 1647.60 191.543  11
  -2 -12  -1 1714.36 204.915  11
  -2  12  -1 1829.63 193.074  18
  -2 -12  -1 1801.75 190.825  17
   2 -12   1 1799.73 190.259   8
   2  12   1 2047.89 221.461  12
   2 -12   2 4971.44 332.469  11
  -2 -12  -2 5837.86 363.505  11
  -2  12  -2 5480.61 317.372  18
  -2 -12  -2 5379.32 325.670  17
   2 -12   2 5672.17 335.555   8
   2  12   2 5886.95 369.963  12
  -2 -12  -3 2471.53 232.114  11
  -2  12  -3 1978.31 182.463  18
   2 -12   3 2466.72 217.611   8
   2  12   3 2830.07 255.570  12
  -2 -12  -4 10689.7 462.813  11
   2 -12   4 10717.0 436.512   8
   2  12   4 11556.5 485.777  12
  -2 -12  -5 683.539 118.610  11
   2 -12   5 643.343 103.958   8
   2  12   5 685.574 113.174  12
  -2 -12  -6 2612.48 201.441  11
   2 -12   6 2548.07 182.273   8
   2  12   6 2390.99 180.078  12
  -2 -12  -7 1064.14 111.968  11
   2 -12   7 1095.94 105.950   8
  -2 -12  -8 28.8176 21.0276  11
   2 -13  -9 18.8363 21.7195  10
   2 -13  -8 55.4205 41.0217  10
   2 -13  -7 3982.36 264.816  10
  -2 -13   7 3319.41 211.851   8
   2 -13  -6-16.9113 58.2418  10
  -2  13   6 2.51742 30.6384  18
  -2 -13   6 39.0902 39.3311   8
   2 -13  -5-15.1490 63.4133  10
  -2  13   5 11.8837 32.2584  18
  -2  13   5-23.6417 26.2106  12
   2  13  -5-139.379 52.7484  12
   2 -13  -4 306.199 96.4873  10
  -2  13   4 220.374 72.2651  18
   2  13  -4 238.936 75.9451  12
  -2  13   3 84.1934 43.7403  18
   2 -13  -3 209.038 82.1039  10
   2  13  -3 173.154 77.5300  12
  -2 -13   2 6577.59 385.542  11
   2 -13  -2 7201.22 420.812  10
  -2  13   2 7278.92 364.385  18
   2  13  -2 7279.75 399.606  12
  -2 -13   1 186.336 76.7550  11
  -2  13   1 108.199 53.5413  18
   2 -13  -1 129.446 73.1850  10
   2  13  -1 75.4739 47.8845  12
  -2 -13   0 902.114 148.219  11
  -2  13   0 973.932 141.033  18
   2  13   0 799.389 141.040  12
   2 -13   1 30.7819 40.8677  11
  -2 -13  -1-59.7048 72.7797  11
  -2  13  -1 6.59221 44.4281  18
   2 -13   1-33.1294 52.4599   8
   2  13   1 27.7718 55.1269  12
  -2 -13  -2 7643.04 404.416  11
  -2  13  -2 7340.58 353.918  18
   2 -13   2 7147.88 361.993   8
   2  13   2 6920.63 380.098  12
  -2 -13  -3-4.38992 61.3527  11
  -2  13  -3 55.7713 41.0917  18
   2 -13   3 65.7612 45.9639   8
   2  13   3 43.2860 45.9622  12
  -2 -13  -4 24.6175 39.8039  11
   2 -13   4 20.6432 30.5985   8
   2  13   4-20.9913 49.9503  12
  -2 -13  -5 260.359 71.6776  11
   2 -13   5 385.336 73.8893   8
   2  13   5 320.227 71.2656  12
  -2 -13  -6 4554.65 239.759  11
   2 -13   6 4637.11 224.637   8
   2  13   6 3879.89 207.271  12
  -2 -13  -7 1607.06 123.714  11
   2 -13   7 1737.33 115.445   8
   2 -14  -8 148.264 42.5728  10
   2 -14  -7 518.487 89.8700  10
  -2 -14   7 468.113 73.3782   8
  -2  14   6 185.676 53.6092  18
   2 -14  -6 224.405 72.1477  10
  -2 -14   6 184.246 62.6656   8
   2 -14  -5 506.336 103.458  10
  -2  14   5 524.802 87.3565  18
  -2 -14   5 531.885 105.727   8
   2  14  -5 366.724 71.5079  12
   2 -14  -4 9727.87 446.784  10
  -2  14   4 10290.9 395.850  18
   2  14  -4 9268.49 390.354  12
  -2  14   3-24.3230 42.9591  18
   2 -14  -3-40.0199 57.3330  10
   2  14  -3 28.2267 46.8164  12
  -2 -14   2 1148.38 159.212  11
   2 -14  -2 1363.87 180.834  10
  -2  14   2 1483.39 162.393  18
   2  14  -2 1365.88 169.478  12
  -2 -14   1 84.6233 65.1774  11
  -2  14   1 14.8810 37.9475  18
   2  14  -1 47.0466 49.6003  12
  -2 -14   0 484.722 115.201  11
  -2  14   0 505.521 103.461  18
   2  14   0 383.446 104.457  12
   2 -14   1 1634.75 175.219  11
  -2 -14  -1 2379.30 221.675  11
  -2  14  -1 2499.73 209.146  18
   2 -14   1 2323.20 191.255   8
   2  14   1 2350.93 220.463  12
  -2 -14  -2 2094.41 201.899  11
  -2  14  -2 2358.04 191.983  18
   2 -14   2 2326.82 192.704   8
   2  14   2 2035.55 198.792  12
  -2 -14  -3 389.994 85.1172  11
  -2  14  -3 417.148 77.0554  18
   2 -14   3 433.565 84.1402   8
   2  14   3 394.814 87.1073  12
  -2 -14  -4 203.882 64.0301  11
   2 -14   4 273.109 65.9228   8
   2  14   4 179.594 55.7025  12
  -2 -14  -5 15.1191 35.0732  11
   2  14   5-14.5544 27.2246  12
   2  14   6 151.664 39.8593   7
  -2 -14  -6 264.320 54.4782  11
   2 -14   6 359.216 56.8011   8
   2  14   6 276.015 48.4101  12
   2 -15  -7 2097.06 149.785  10
   2 -15  -6 8663.80 342.136  10
  -2 -15   6 9004.37 328.121   8
  -2  15   5-26.8598 33.5105  18
   2 -15  -5-8.29969 42.9865  10
  -2 -15   5 56.2612 43.6585   8
   2 -15  -4 4338.48 274.507  10
  -2  15   4 4885.92 254.342  18
  -2 -15   4 4891.43 275.710   8
   2 -15  -3 1566.40 171.075  10
  -2  15   3 1851.02 163.956  18
   2  15  -3 1454.26 152.268  12
  -2 -15   2 208.552 68.9479  11
  -2  15   2 286.526 73.8671  18
   2  15  -2 339.711 79.5686  12
  -2 -15   1 1063.42 145.204  11
  -2  15   1 1219.25 138.961  18
   2  15  -1 965.151 132.141  12
  -2 -15   0 11846.4 469.968  11
  -2  15   0 12889.7 447.699  18
   2  15   0 12174.1 460.940  12
   2 -15   1 40.0247 24.4818  11
  -2 -15  -1 92.8678 50.4188  11
  -2  15  -1 140.253 55.3359  18
   2  15   1 158.309 57.5921  12
  -2 -15  -2 3608.06 241.870  11
  -2  15  -2 3683.54 219.106  18
   2 -15   2 3776.04 220.417   8
   2  15   2 3345.49 229.839  12
  -2 -15  -3 64.1446 46.1276  11
  -2  15  -3 43.7807 22.8257  18
   2 -15   3 32.8914 30.1385   8
   2  15   3-1.98295 34.6698  12
  -2 -15  -4 4813.76 244.923  11
   2 -15   4 4731.61 222.911   8
   2  15   4 4683.02 236.057  12
  -2 -15  -5 321.574 59.8860  11
   2 -15   5 359.356 55.5656   8
   2  15   5 274.320 52.1179  12
   2 -16  -6 352.152 59.6844  10
  -2 -16   6 464.087 64.5884   8
  -2  16   5 242.450 47.9070  18
  -2 -16   5 426.017 71.3313   8
   2 -16  -5 290.143 60.8181  10
  -2  16   4 12351.9 361.371  18
  -2 -16   4 12895.3 395.471   8
  -2  16   3 4046.15 221.982  18
  -2 -16   3 4034.07 228.286   8
  -2 -16   2 5387.91 273.696  11
   2  16  -2 6325.81 289.746  12
  -2 -16   1 411.899 80.6370  11
  -2  16   1 618.040 94.0115  18
   2  16  -1 426.111 79.3186  12
  -2 -16   0 1370.71 146.780  11
  -2  16   0 1641.69 149.612  18
   2  16   0 1377.37 143.416  12
  -2 -16  -1 373.111 81.1639  11
  -2  16  -1 410.278 73.1891  18
   2  16   1 409.042 78.8728  12
  -2 -16  -2 485.988 87.1693  11
  -2  16  -2 481.352 70.9658  18
   2 -16   2 348.609 58.8378   8
   2  16   2 441.926 78.8367  12
  -2 -16  -3 1042.79 113.932  11
   2 -16   3 1169.84 100.043   8
   2  16   3 1197.74 115.865  12
  -2 -16  -4 9.97747 17.0786  11
   2 -16   4 22.4603 17.0088   8
   2  16   4 15.7733 21.5066  12
  -2 -17   5 4283.39 173.277   8
  -2  17   4 2964.47 151.911  18
  -2 -17   4 3972.93 187.026   8
  -2  17   3 314.047 58.3738  18
  -2 -17   3 258.852 54.1018   8
  -2  17   2 6835.68 265.009  18
  -2 -17   2 6901.60 263.503   8
  -2 -17   1 73.6774 33.7181  11
  -2  17   1 69.5088 33.6768  18
  -2 -17   1 69.0679 31.3777   8
   2  17  -1 136.756 39.0302  12
  -2 -17   0 96.5695 40.4268  11
  -2  17   0 96.2314 36.4893  18
  -2 -17   0 46.5034 28.7582   8
   2  17   0 41.7680 33.4823  12
  -2 -17  -1 186.866 46.4900  11
  -2  17  -1 242.193 52.8275  18
   2  17   1 256.424 55.1943  12
  -2 -17  -2 3039.85 171.961  11
  -2  17  -2 2397.90 132.511  18
  -2 -17  -3 1624.60 113.663  11
   2  17   3 2261.35 128.514  12
  -2  18   2 356.203 52.3783  18
  -2  18   1 337.114 53.5042  18
  -2  18   0-8.89902 15.7068  18
  -3   0  11-3.46551 18.7112   7
  -3   0  10 11757.7 414.500   7
  -3   0   9 77.0064 47.5638   9
  -3   0   9 26.1349 30.7793   7
  -3   0   8 946.734 137.676   9
  -3   0   8 1093.87 163.140  18
  -3   0   8 1009.42 147.777   7
  -3   0   7 13.8950 42.6956  18
  -3   0   7 32.2669 53.2091   9
  -3   0   7 11.1108 35.8690   7
  -3   0   6 33.7920 47.2701  18
  -3   0   6 164.078 69.2196   9
  -3   0   5-101.165 56.6347   9
  -3   0   5-12.9744 43.5935  18
  -3   0   5-25.6070 172.536   1
   3   0  -5-219.206 178.672  13
  -3   0   4 43473.9 901.015  18
  -3   0   4 38787.2 890.508   9
  -3   0   4 42984.2 2073.76   1
  -3   0   3-44.5607 109.867   1
  -3   0   3-100.598 54.8018  18
  -3   0   3-30.1260 41.4122   9
  -3   0   2 387.321 195.425   1
   3   0  -2 892.082 241.623   6
  -3   0   2 714.789 113.894  18
  -3   0   1-287.682 178.481   1
   3   0  -1 339.362 155.467   6
  -3   0   1-59.1315 43.9745  17
  -3   0   1 135.295 140.627  14
   3   0  -1-2.56672 48.2337   8
   3   0  -1 44.6858 39.2721  10
   3   0   0 71.2076 84.1561   6
   3   0   0 93.9723 58.7510  10
  -3   0   0 72.0804 48.0970  17
   3   0   0-15.3511 44.0444   8
   3   0   1-12.6217 86.2181   6
   3   0   1-129.116 64.3601  10
  -3   0  -1 67.6913 37.8635  17
  -3   0  -1 141.198 140.149  14
   3   0   1-9.10668 26.3446   8
   3   0   2 4379.07 631.284   6
   3   0   2 4023.93 318.768  10
  -3   0  -2 3843.20 276.015  17
   3   0   2 3367.91 315.328   3
  -3   0  -2 3618.86 578.713  16
   3   0   2 4362.20 279.268   8
  -3   0  -2 3854.05 635.414  14
   3   0   3 48.3107 86.5593   6
   3   0   3-9.54014 46.5556  10
  -3   0  -3-7.54122 39.1311  17
   3   0   3 2.95597 138.101   2
  -3   0  -3 352.596 209.529  16
  -3   0  -3 284.067 241.782  14
   3   0   3 25.7853 39.4169   8
   3   0   3 7.23055 45.5712   3
   3   0   4 6267.67 409.573  10
   3   0   4 5804.14 417.267   3
  -3   0  -4 5916.88 354.280  17
   3   0   4 5810.97 331.232   8
   3   0   5 13.3959 54.7157  10
  -3   0  -5 20.4213 57.5798  17
   3   0   5 2.02007 56.9344   3
   3   0   5 3.42626 40.4251   8
   3   0   6 27085.0 828.872   3
  -3   0  -6 28390.7 703.237  17
   3   0   6 26741.4 653.205   8
   3   0   6 27737.9 836.045   4
   3   0   7 39.9654 49.4878   4
  -3   0  -7-20.2920 37.9494  17
   3   0   7-35.3454 48.7228   3
   3   0   8 419.214 86.0826   3
   3   0   8 539.543 98.3215   4
   3   0   9-48.9470 27.3662   4
   3   0   9-19.2135 19.4025   3
  -3  -1  11 110.444 37.0759   7
  -3   1  11 104.791 36.0430   7
  -3  -1  10-1.10480 30.2519   9
  -3  -1  10 33.2290 37.6092   7
  -3   1  10 1.24302 42.8478   7
  -3  -1   9 350.307 80.9993   9
  -3  -1   9 275.974 76.2972   7
  -3   1   9 358.158 85.4977   7
  -3   1   8 5238.70 309.095   9
  -3  -1   8 5819.86 331.140   9
  -3   1   8 5746.60 369.994  18
  -3  -1   8 4912.66 320.966   7
  -3   1   8 4866.31 312.108   7
  -3  -1   7 670.219 140.989  18
  -3  -1   7 715.105 126.136   9
  -3   1   7 642.501 113.416   9
  -3   1   7 786.984 143.404  18
  -3  -1   7 606.968 125.181   7
  -3   1   7 404.388 97.4969   7
  -3  -1   6 2.42087 52.1443  18
  -3   1   6-76.0577 60.6975  18
  -3   1   6-140.377 63.3187   9
  -3  -1   6 3.79166 61.3203   9
  -3   1   5 876.161 138.838  18
  -3   1   5 806.743 128.184   9
  -3  -1   5 1006.34 145.610   9
  -3  -1   5 827.918 144.745  18
  -3   1   5 1201.13 362.574   1
  -3  -1   5 948.367 341.522   1
   3   1  -5 1225.33 311.234  13
   3  -1  -5 1145.11 392.391  13
  -3  -1   4 928.431 139.079   9
  -3  -1   4 763.052 121.872  18
  -3   1   4 804.271 291.887   1
  -3  -1   4 639.488 267.026   1
  -3   1   4 463.217 104.487   9
   3   1  -4 998.698 290.579  13
   3  -1  -4 417.927 318.374  13
  -3   1   4 830.182 129.140  18
   3  -1  -3 1808.04 207.199  10
  -3  -1   3 2394.61 483.897   1
  -3   1   3 2514.51 213.082  18
  -3  -1   3 2509.19 235.276   9
  -3   1   3 1606.52 192.995   9
   3   1  -3 2624.07 441.944  13
  -3   1   3 2485.40 489.736   1
   3  -1  -3 2219.81 553.072  13
  -3  -1   3 1988.17 194.422  18
  -3   1   2 482.481 209.249   1
  -3  -1   2 91.6641 103.084   1
   3   1  -2 419.500 170.240   6
   3  -1  -2 190.934 75.1761  10
  -3  -1   2 92.2802 48.6480  18
  -3   1   2 182.792 60.4053  18
  -3   1   1 56.4412 94.1002   1
  -3  -1   1 349.770 178.356   1
   3   1  -1 580.011 202.602   6
   3  -1  -1 100.347 61.9302   6
   3   1  -1 116.235 70.0388  10
  -3   1   1 220.084 72.1726  17
  -3  -1   1 175.843 62.7264  17
  -3   1   1 233.723 160.338  14
   3  -1  -1 203.245 66.8305   8
   3  -1  -1 242.772 92.7795  10
   3  -1   0 1875.21 386.193   6
   3   1   0 1262.47 175.544  10
   3  -1   0 1484.93 195.219  10
   3   1   0 1621.27 357.258   6
  -3  -1   0 1489.50 171.308  17
   3  -1   0 1470.43 162.026   8
   3   1   0 1448.81 165.369   8
  -3  -1   0 1467.89 363.035  14
  -3   1   0 1316.96 337.803  14
   3  -1   1 1000.46 161.230  10
   3   1   1 729.503 254.114   6
   3  -1   1 770.619 283.992   6
   3   1   1 816.002 140.358  10
  -3  -1  -1 937.135 288.752  16
  -3  -1  -1 880.692 133.894  17
   3   1   1 856.033 126.789   8
  -3   1  -1 1486.52 347.912  16
   3  -1   1 954.178 132.164   8
  -3  -1  -1 810.519 275.771  14
  -3   1  -1 346.344 193.162  14
   3   1   2 975.254 166.905  10
   3  -1   2 1049.57 162.033  10
   3   1   2 1122.30 337.120   6
  -3  -1  -2 1133.51 151.957  17
   3  -1   2 758.169 265.053   6
   3   1   2 919.379 169.972   3
   3   1   2 1149.26 146.964   8
  -3  -1  -2 1163.45 317.565  16
  -3   1  -2 823.358 285.299  16
   3  -1   2 1009.22 136.458   8
  -3  -1  -2 930.855 306.384  14
  -3   1  -2 740.656 270.857  14
   3  -1   2 799.158 160.326   3
   3   1   3 72.8070 177.655   6
   3   1   3 107.866 56.3170  10
   3  -1   3 337.377 195.902   6
   3  -1   3 156.916 76.2912  10
  -3  -1  -3 139.370 56.7037  17
   3  -1   3 432.977 227.588   2
   3   1   3 244.543 191.057   2
  -3  -1  -3-290.121 173.028  16
  -3   1  -3-379.358 197.850  16
  -3  -1  -3-63.5462 252.913  14
  -3   1  -3 519.687 231.902  14
   3   1   3 161.269 64.7081   8
   3  -1   3 143.846 58.5631   8
   3   1   3 112.066 77.0656   3
   3  -1   3 48.5505 47.5883   3
   3   1   4 17257.6 662.216  10
   3  -1   4 18221.3 701.741  10
   3   1   4 16459.1 710.918   3
  -3  -1  -4 17117.2 595.097  17
   3  -1   4 16451.6 700.238   3
   3   1   4 17089.1 564.401   8
   3  -1   4 17365.7 572.431   8
  -3   1  -4 16675.7 591.172  17
   3   1   5 16617.1 651.774  10
   3  -1   5 17424.4 673.248  10
   3   1   5 15630.5 673.240   3
   3  -1   5 14540.1 647.518   3
  -3  -1  -5 15425.7 552.432  17
  -3   1  -5 15871.8 564.094  17
   3   1   5 16299.4 540.070   8
   3  -1   5 16172.6 542.761   8
   3   1   6 1921.42 227.132   3
  -3   1  -6 2012.16 190.036  17
   3  -1   6 2096.95 187.157   8
  -3  -1  -6 1906.45 183.182  17
   3   1   6 1952.00 222.328   4
   3  -1   6 1969.14 232.673   4
   3  -1   6 1787.51 216.607   3
   3   1   7 2801.78 246.387   3
   3  -1   7 2808.07 248.151   3
  -3   1  -7 2383.98 176.526  17
   3  -1   7 2936.76 192.897   8
   3   1   7 3010.12 254.627   4
   3  -1   7 2718.01 240.064   4
   3   1   8 1520.17 158.096   3
   3  -1   8 1597.25 160.642   3
   3   1   8 1641.47 162.122   4
   3  -1   8 1591.26 160.253   4
   3   1   9 1151.30 104.353   3
   3  -1   9 1153.68 106.626   3
   3   1   9 1380.72 111.434   4
   3  -1   9 1164.98 103.567   4
  -3  -2  11 63.6249 28.4632   9
  -3  -2  11 33.5519 28.7756   7
  -3  -2  10 4573.98 240.812   9
  -3   2  10 4783.87 253.050   7
  -3  -2   9 81.3196 36.6629   9
  -3  -2   9 118.148 62.9021   7
  -3   2   9 81.7526 51.0031   7
  -3   2   8 178.666 74.2857  18
  -3  -2   8 147.297 66.9803   9
  -3  -2   8 197.884 74.7097   7
  -3   2   8 249.723 71.4286   7
  -3   2   7 2093.90 226.487  18
  -3  -2   7 2033.38 208.453   9
  -3  -2   7 2089.96 210.565   7
  -3  -2   6 39674.0 892.144   9
  -3   2   6 39600.2 926.813  18
  -3   2   6 30110.4 761.330   9
  -3  -2   6 32569.2 901.493  18
  -3  -2   6 31699.5 814.082   7
   3  -2  -5 57.8615 58.8366  10
  -3  -2   5-53.2195 52.6826  18
  -3   2   5-9.27565 50.0839  18
  -3   2   5 38.9722 38.2207   9
  -3  -2   5 2.58046 46.6619   9
  -3   2   5-611.308 282.714   1
  -3  -2   5 664.265 272.308   1
   3   2  -5 74.7271 112.999  13
   3  -2  -5 513.281 491.705  13
   3  -2  -4 2361.60 238.463  10
  -3   2   4 3060.13 245.502  18
  -3   2   4 1611.11 185.901   9
  -3  -2   4 3384.34 261.992   9
  -3  -2   4 2631.01 228.714  18
   3   2  -4 2858.43 473.784  13
   3  -2  -4 2463.32 746.114  13
  -3   2   4 2729.18 539.916   1
  -3  -2   4 3033.41 587.193   1
   3  -2  -3 38.9755 51.5240  10
  -3   2   3 75.7802 56.9632  18
  -3   2   3 87.8619 113.349   1
  -3  -2   3 89.7242 115.047   1
  -3  -2   3 0.91200 40.3867  18
  -3  -2   3 44.3712 48.8241   9
  -3   2   3-125.312 58.7586   9
   3  -2  -3-97.6904 531.836  13
   3   2  -2 5603.31 638.801   6
   3  -2  -2 4712.66 336.977  10
  -3   2   2 4185.69 270.788  18
  -3  -2   2 3301.58 257.200  18
  -3   2   2 5067.03 687.980   1
  -3  -2   2 5088.65 693.969   1
  -3  -2   2 4521.61 301.024  17
   3   2  -1 3079.01 494.505   6
   3  -2  -1 2749.00 444.492   6
   3  -2  -1 2649.38 256.055  10
  -3  -2   1 2593.56 226.082  17
   3  -2  -1 2459.99 210.226   8
  -3   2   1 2550.20 489.489   1
  -3  -2   1 2925.80 540.068   1
  -3   2   1 2996.62 499.153  14
   3   2   0 6411.62 717.249   6
   3  -2   0 5189.59 632.944   6
   3   2   0 4225.95 310.968  10
   3  -2   0 4950.21 352.827  10
  -3  -2   0 5318.88 320.371  17
   3  -2   0 4974.11 302.446   8
  -3  -2   0 5874.33 698.826  14
  -3   2   0 5556.03 721.017  14
   3   2   1 10726.5 957.747   6
   3  -2   1 10537.3 931.671   6
   3   2   1 9679.54 482.030  10
   3  -2   1 10329.1 507.608  10
  -3  -2  -1 10448.5 449.997  17
  -3  -2  -1 9710.72 906.887  16
  -3   2  -1 9786.95 931.478  16
   3   2   1 11050.9 443.031   8
   3  -2   1 10848.6 451.428   8
  -3   2  -1 11249.3 1057.69  14
   3   2   2 8912.85 907.820   6
   3  -2   2 9508.63 915.780   6
   3   2   2 9011.05 477.815  10
   3  -2   2 9266.07 485.919  10
   3  -2   2 8072.15 976.019   2
   3   2   2 7655.08 958.788   2
  -3  -2  -2 9118.82 424.915  17
   3   2   2 8919.67 519.419   3
   3  -2   2 8106.01 487.753   3
  -3  -2  -2 8234.52 881.359  16
  -3   2  -2 8329.82 908.667  16
   3   2   2 9784.85 420.570   8
   3  -2   2 9568.48 420.680   8
  -3   2  -2 9549.19 998.343  14
   3   2   3 295.235 163.676   6
   3   2   3 358.703 101.341  10
   3  -2   3 298.277 175.120   6
   3  -2   3 419.682 122.584  10
  -3  -2  -3 346.626 89.3216  17
   3  -2   3 89.1919 180.403   2
   3   2   3 549.079 290.617   2
  -3  -2  -3 712.593 262.446  16
  -3   2  -3 21.4067 198.892  16
  -3   2  -3 418.685 205.935  14
   3   2   3 294.644 81.5107   8
   3  -2   3 372.427 91.4960   8
   3   2   3 272.031 97.3505   3
   3  -2   3 260.938 92.2260   3
   3   2   4 14348.1 601.632  10
   3  -2   4 13846.1 614.970  10
   3  -2   4 13716.6 642.484   3
   3   2   4 14048.3 659.580   3
  -3  -2  -4 13884.1 538.427  17
   3   2   4 13376.7 495.914   8
   3  -2   4 13437.2 502.475   8
   3  -2   5 16327.8 649.267  10
   3   2   5 15478.2 674.045   3
   3  -2   5 15047.8 655.115   3
  -3  -2  -5 15547.2 552.107  17
  -3   2  -5 15924.1 568.131  17
   3  -2   5 16207.3 539.005   8
   3  -2   6 1351.06 185.272   3
  -3  -2  -6 1520.53 158.917  17
  -3   2  -6 1659.25 173.055  17
   3  -2   6 1691.81 167.581   8
   3   2   6 1682.08 214.255   3
   3   2   6 1643.30 206.578   4
   3  -2   6 1761.95 215.079   4
   3   2   7 1001.84 147.857   3
   3  -2   7 1011.70 148.771   3
  -3   2  -7 1078.97 118.723  17
   3  -2   7 900.151 108.702   8
   3   2   7 950.800 145.679   4
   3  -2   7 971.512 143.169   4
   3   2   8 729.631 109.595   3
   3  -2   8 640.115 100.724   3
   3   2   8 776.072 110.751   4
   3  -2   8 701.895 107.747   4
  -3  -3  11 102.248 47.5773   9
  -3  -3  10 72.1833 38.1303   9
  -3  -3  10 25.4468 36.6124   7
  -3   3   9-15.8977 36.2269  18
  -3  -3   9 15.3311 35.7952   9
  -3  -3   9 39.9820 39.6202   7
  -3   3   9 112.585 53.2765   7
  -3   3   8 5291.51 335.886  18
  -3  -3   8 5342.71 316.637   9
  -3  -3   8 4639.14 310.780   7
  -3  -3   7 3171.63 253.244   9
  -3  -3   7 2596.97 238.826   7
  -3   3   7 2909.01 256.287  18
   3  -3  -6 23101.5 753.709  10
  -3   3   6 31748.5 815.587  18
  -3  -3   6 31555.6 801.209   9
  -3  -3   6 25944.4 740.866   7
  -3  -3   5 53.9919 70.0209  18
  -3   3   5 234.139 83.8091  18
   3  -3  -5 116.036 67.7083  10
  -3  -3   5 106.220 51.5135   9
  -3   3   5 638.156 273.501   1
  -3  -3   5 463.637 272.526   1
   3   3  -5 56.2619 126.235  13
   3  -3  -5 138.773 708.361  13
  -3  -3   5 174.579 74.0576   7
   3  -3  -4 27557.9 830.714  10
  -3   3   4 33900.6 813.671  18
  -3  -3   4 36880.9 870.723   9
  -3  -3   4 25642.8 735.690  18
   3   3  -4 26481.8 1398.25  13
  -3   3   4 28741.3 1789.36   1
  -3  -3   4 30643.9 1833.65   1
   3  -3  -3 4866.40 346.920  10
  -3  -3   3 3411.34 279.175  18
  -3   3   3 5015.50 313.820  18
  -3  -3   3 5259.35 351.720   9
   3   3  -3 4987.66 604.791   5
  -3   3   3 5520.82 757.176   1
  -3  -3   3 5073.51 735.444   1
   3  -3  -3 3011.29 862.208  13
  -3   3   2 465.919 206.329   1
  -3  -3   2 683.535 259.587   1
   3   3  -2 433.167 190.108   6
   3  -3  -2 585.074 125.204  10
  -3   3   2 582.587 105.032  18
  -3  -3   2 286.190 86.1591  18
  -3  -3   2 585.461 107.832  17
   3   3  -2 501.301 190.751   5
   3   3  -1 3579.41 526.286   6
   3  -3  -1 3245.96 485.612   6
   3  -3  -1 3267.35 288.017  10
  -3   3   1 2386.09 201.610  18
  -3  -3   1 3188.16 253.764  17
   3   3  -1 3403.50 499.343   5
   3  -3  -1 2647.83 216.512   8
  -3   3   1 3193.73 531.837  14
  -3   3   1 2801.26 533.421   1
  -3  -3   1 3353.54 602.449   1
   3   3   0 5084.87 656.936   6
   3  -3   0 5174.37 630.762   6
   3   3   0 3826.73 296.167  10
   3  -3   0 5190.47 360.772  10
  -3  -3   0 4903.93 310.493  17
   3  -3   0 5002.43 302.885   8
  -3   3   0 4599.87 687.964   1
  -3  -3   0 4681.78 714.158   1
  -3   3   0 5692.67 735.378  14
   3   3   1 6489.07 751.587   6
   3  -3   1 6417.97 731.099   6
   3   3   1 5829.92 373.501  10
   3  -3   1 6148.59 391.755  10
  -3  -3  -1 6603.09 357.121  17
  -3  -3  -1 5288.34 674.392  16
  -3   3  -1 6400.84 785.143  16
   3  -3   1 6603.68 348.741   8
  -3   3  -1 6200.34 800.238  14
   3   3   2 2078.61 229.013  10
   3  -3   2 2323.07 248.219  10
   3   3   2 1714.99 397.683   6
   3  -3   2 1990.56 422.705   6
  -3  -3  -2 2097.11 206.488  17
   3   3   2 1935.40 249.425   3
   3  -3   2 1852.67 241.186   3
  -3  -3  -2 2194.61 463.323  16
  -3   3  -2 2605.45 541.739  16
   3  -3   2 1732.32 459.407   2
   3   3   2 1411.96 408.808   2
   3  -3   2 2551.30 218.902   8
  -3   3  -2 2718.11 536.434  14
   3   3   3 9701.96 494.878  10
   3  -3   3 9955.88 516.046  10
   3  -3   3 6943.40 946.289   2
   3   3   3 8181.96 1048.31   2
  -3  -3  -3 9973.55 451.868  17
   3   3   3 9881.99 558.200   3
   3  -3   3 9039.81 524.738   3
  -3  -3  -3 8436.80 926.746  16
  -3   3  -3 8296.91 979.031  16
   3  -3   3 9871.83 428.714   8
   3   3   4 5630.33 377.137  10
   3  -3   4 5678.03 392.898  10
   3   3   4 5794.06 427.793   3
   3  -3   4 5145.09 394.349   3
  -3  -3  -4 5488.68 337.467  17
   3  -3   4 5543.50 321.865   8
   3  -3   5 4750.05 348.012  10
   3   3   5 4477.74 363.046   3
   3  -3   5 4222.83 346.289   3
  -3  -3  -5 4697.73 300.793  17
   3  -3   5 4733.39 291.114   8
   3  -3   5 4233.02 345.887   4
   3   3   5 4520.93 364.810   4
   3  -3   6 1617.24 190.862  10
   3   3   6 1400.35 192.140   3
  -3  -3  -6 1274.51 141.774  17
  -3   3  -6 1574.17 166.791  17
   3  -3   6 1369.38 189.687   3
   3  -3   6 1523.44 158.767   8
   3   3   6 1448.66 197.441   4
   3  -3   6 1409.87 189.707   4
   3   3   7 96.9751 51.9676   4
   3  -3   7 56.4626 51.3175   4
  -3   3  -7 24.7146 23.5559  17
   3   3   7 2.25335 35.7671   3
   3  -3   7 29.1654 42.8215   3
   3  -3   7 67.1424 42.2939   8
   3   3   8 1692.36 157.634   3
   3  -3   8 1800.29 161.131   3
   3   3   8 1834.94 163.509   4
   3  -3   8 1680.54 154.952   4
  -3  -4  11 275.837 67.4749   9
  -3  -4  10 752.838 100.585   9
  -3  -4  10 680.999 104.530   7
  -3   4  10 578.325 79.4060   7
  -3   4   9 3288.14 230.971  18
  -3  -4   9 3782.04 244.246   9
  -3  -4   9 3244.44 242.552   7
  -3  -4   8 790.965 132.470   9
  -3   4   8 833.065 132.094  18
  -3  -4   8 667.714 120.156   7
  -3   4   7 10909.2 472.206  18
  -3  -4   7 10537.8 463.997   9
  -3  -4   7 10113.6 462.424   7
   3  -4  -6 76.1561 67.4744  10
  -3   4   6 54.9506 44.6741  18
  -3  -4   6 109.519 67.1572   9
  -3  -4   6 64.2695 59.8783   7
  -3   4   5 5044.65 788.696   1
  -3  -4   5 4795.54 795.686   1
   3  -4  -5 7192.46 430.648  10
  -3   4   5 8766.52 419.888  18
  -3  -4   5 8965.87 426.070   9
   3   4  -5 5242.97 688.088  13
  -3  -4   5 6406.63 365.991   7
   3  -4  -5 4131.05 1150.31  13
   3  -4  -4 24868.7 791.807  10
  -3   4   4 29050.6 755.492  18
   3   4  -4 19089.8 1226.34  13
   3  -4  -4 13204.7 1550.06  13
  -3  -4   4 30072.2 785.449   9
  -3   4   4 19729.6 1518.84   1
  -3  -4   4 19867.3 1535.81   1
  -3   4   3-60.9739 82.9766   1
  -3  -4   3 228.544 129.401   1
   3  -4  -3 135.596 66.2928  10
  -3  -4   3 192.343 78.5612   9
  -3   4   3 275.059 80.0962  18
   3   4  -3 408.594 180.597   5
   3  -4  -3-172.970 471.386  13
   3   4  -2 2157.48 420.592   6
  -3   4   2 1553.72 400.270   1
  -3  -4   2 1827.73 450.966   1
   3  -4  -2 1852.16 220.483  10
  -3  -4   2 1674.07 185.164  17
  -3  -4   2 1745.77 216.444   9
  -3   4   2 1900.68 186.197  18
   3   4  -2 1946.60 383.943   5
  -3   4   1 1222.00 342.969   1
  -3  -4   1 1431.83 402.584   1
   3  -4  -1 1405.10 189.114  10
   3   4  -1 1290.58 317.279   6
  -3  -4   1 1702.70 188.406  17
   3  -4  -1 1317.37 153.223   8
   3   4  -1 1551.09 341.452   5
  -3   4   1 1461.02 358.480  14
  -3   4   1 1431.49 159.012  18
   3   4   0 4718.97 637.073   6
   3  -4   0 5224.65 629.008   6
   3   4   0 3773.97 291.659  10
   3  -4   0 5095.73 358.882  10
  -3  -4   0 5096.62 320.008  17
   3   4   0 5486.01 665.990   5
   3  -4   0 4798.76 297.126   8
  -3   4   0 3775.45 635.836   1
  -3  -4   0 4066.20 688.434   1
  -3   4   0 5289.66 732.655  14
   3   4   1 929.073 152.078  10
   3   4   1 880.518 276.246   6
   3  -4   1 1126.38 303.185   6
   3  -4   1 876.500 157.167  10
  -3  -4  -1 1046.79 148.003  17
   3  -4   1 1063.53 178.669   3
  -3  -4  -1 458.857 205.373  16
  -3   4  -1 567.914 244.419  16
   3  -4   1 847.485 127.617   8
  -3   4  -1 802.488 292.368  14
   3   4   1 745.463 144.205   3
   3   4   2 3762.26 600.029   6
   3  -4   2 4118.80 601.662   6
   3   4   2 4223.76 320.570  10
   3  -4   2 4311.93 339.831  10
  -3  -4  -2 4210.78 289.911  17
   3   4   2 3714.66 338.400   3
   3  -4   2 3973.47 346.806   3
  -3  -4  -2 4012.75 613.294  16
  -3   4  -2 4112.83 704.460  16
   3  -4   2 2717.99 574.540   2
   3   4   2 3034.42 629.955   2
   3  -4   2 4710.68 300.400   8
  -3   4  -2 4474.96 705.410  14
   3   4   3 7208.99 425.395  10
   3  -4   3 6576.09 423.939  10
   3   4   3 6475.69 443.557   3
   3  -4   3 6685.36 451.438   3
  -3  -4  -3 7104.64 380.703  17
   3  -4   3 6749.44 353.002   8
   3  -4   4 1355.21 192.093  10
   3   4   4 1048.44 183.432   3
   3  -4   4 1041.63 183.495   3
  -3  -4  -4 1276.15 164.577  17
   3  -4   4 1057.51 147.891   8
   3  -4   5 7194.62 422.019  10
   3   4   5 6454.58 427.075   3
   3  -4   5 6617.05 432.255   3
  -3  -4  -5 6547.49 346.576  17
   3  -4   5 6747.28 345.583   8
   3  -4   5 6715.18 429.742   4
   3   4   5 6932.13 440.394   4
   3  -4   6 3204.51 258.956  10
   3   4   6 3505.56 289.144   3
   3  -4   6 3003.11 269.842   3
  -3  -4  -6 3195.93 215.918  17
  -3   4  -6 3331.93 238.444  17
   3  -4   6 3464.52 230.500   8
   3   4   6 3045.96 271.795   4
   3  -4   6 3007.89 267.749   4
   3   4   7 94.6428 38.2818   4
   3  -4   7 218.475 68.3902   4
  -3   4  -7 169.784 49.9593  17
   3   4   7 134.246 52.7583   3
   3  -4   7 152.629 68.3183   3
   3  -4   7 115.087 41.0074   8
   3   4   8 64.4691 38.2927   4
   3  -4   8 36.0515 34.6538   4
  -3  -4  -8 34.1624 38.5533  11
   3   4   8 118.991 45.9209   3
   3  -4   8 80.0866 41.8813   3
  -3  -5  11-11.8740 25.2596   9
  -3  -5  10 8125.09 304.003   9
  -3  -5   9 12834.3 436.413   9
  -3   5   9 11536.8 398.831  18
  -3  -5   9 11669.9 443.290   7
  -3   5   8 282.050 78.8921  18
  -3  -5   8 197.904 78.2438   9
  -3  -5   8 236.917 80.3508   7
   3  -5  -7 1241.01 178.672  10
  -3   5   7 1615.51 177.798  18
  -3  -5   7 1779.25 189.644   9
  -3  -5   7 1322.37 172.867   7
   3  -5  -6 6049.16 393.687  10
  -3   5   6 6750.26 374.228  18
  -3  -5   6 5962.87 357.897   7
   3  -5  -5-16.9496 70.6652  10
  -3   5   5-15.5824 43.0685  18
  -3  -5   5 5.43588 50.0404   9
   3  -5  -4 13679.8 595.850  10
  -3   5   4 15377.3 552.703  18
  -3  -5   4 16835.9 597.842   9
   3   5  -4 8383.28 820.085  13
   3  -5  -4 10301.0 1241.47  13
  -3   5   4 11191.4 1146.67   1
  -3  -5   4 10021.3 1121.23   1
  -3   5   3 1458.33 172.125  18
   3  -5  -3 1210.72 183.331  10
  -3   5   3 734.522 272.292   1
  -3  -5   3 989.587 147.018  17
  -3  -5   3 1430.44 185.744   9
  -3  -5   3 1305.12 417.667   1
  -3  -5   3 554.458 231.492  15
   3   5  -3 1342.39 329.661   5
   3  -5  -3 768.780 348.449  13
   3  -5  -2 3993.36 321.105  10
  -3  -5   2 3081.41 599.468   1
  -3   5   2 4414.08 286.038  18
  -3  -5   2 4070.72 288.855  17
  -3  -5   2 4288.26 331.262   9
   3   5  -2 4330.85 597.803   5
  -3   5   2 3680.74 629.851   1
  -3   5   1 20658.0 605.349  18
   3   5  -1 22146.2 1394.60   6
   3  -5  -1 21828.2 742.800  10
  -3  -5   1 23662.6 686.973  17
   3   5  -1 23331.3 1391.09   5
  -3   5   1 20139.6 1410.45  14
  -3   5   1 19352.6 1412.96   1
  -3  -5   1 18254.9 1419.75   1
   3   5   0 14454.8 1137.56   6
   3  -5   0 12021.4 979.306   6
   3  -5   0 13883.8 596.051  10
  -3  -5   0 14947.9 539.057  17
   3   5   0 15670.1 1143.67   5
   3  -5   0 13718.0 501.166   8
  -3   5   0 11793.9 1127.81   1
  -3  -5   0 10448.3 1124.24   1
  -3   5   0 13271.3 1173.60  14
   3  -5   1 2624.03 462.161   6
   3   5   1 2263.99 228.526  10
   3  -5   1 2431.21 254.387  10
   3   5   1 2268.85 449.476   6
  -3  -5  -1 2154.13 206.522  17
   3   5   1 1693.99 224.169   3
   3  -5   1 1816.70 237.089   3
  -3  -5  -1 1819.14 420.524  16
   3   5   1 2187.94 443.994   5
   3  -5   1 2447.18 214.917   8
  -3   5  -1 2458.31 518.419  14
  -3  -5  -1 1636.05 445.484   1
   3   5   2 8132.13 909.407   6
   3  -5   2 7723.47 827.562   6
   3   5   2 7866.36 437.150  10
   3  -5   2 8318.74 471.486  10
   3  -5   2 5317.95 830.114   2
   3   5   2 5432.60 824.296   2
  -3  -5  -2 7999.71 395.756  17
   3   5   2 6930.43 453.645   3
   3  -5   2 7295.11 470.452   3
  -3  -5  -2 7554.01 839.970  16
  -3   5  -2 6884.19 906.926  16
   3  -5   2 9337.43 419.080   8
  -3   5  -2 7977.87 944.652  14
   3  -5   3 5351.80 379.333  10
   3   5   3 4688.53 371.237   3
   3  -5   3 5102.46 394.911   3
  -3  -5  -3 4982.08 317.757  17
   3  -5   3 4788.93 300.128   8
   3  -5   4 7339.42 435.016  10
   3   5   4 6840.82 439.669   3
   3  -5   4 6602.45 437.828   3
  -3  -5  -4 6938.51 368.662  17
   3  -5   4 6833.75 354.665   8
   3   5   5 591.386 128.074   4
   3  -5   5 601.731 125.006  10
  -3  -5  -5 714.197 115.548  17
   3  -5   5 613.868 108.544   8
   3   5   5 555.203 126.600   3
   3  -5   5 612.644 129.131   3
   3  -5   5 826.494 148.019   4
   3   5   6 1902.97 203.411   3
   3  -5   6 1864.21 209.761   3
  -3  -5  -6 1929.84 163.040  17
  -3   5  -6 2063.15 184.622  17
   3  -5   6 2308.08 185.887   8
   3   5   6 2055.55 213.667   4
   3  -5   6 1804.71 198.249   4
  -3  -5  -7 3476.06 239.551  11
   3   5   7 3876.83 250.690   3
   3  -5   7 4064.49 262.742   3
  -3   5  -7 4536.91 230.491  17
   3  -5   7 4915.25 235.847   8
   3   5   7 4413.77 267.177   4
   3  -5   7 4056.21 257.934   4
  -3  -5  -8 1289.57 117.186  11
   3  -5   8 1078.51 108.173   3
   3   5   8 1125.40 104.304   4
   3  -5   8 1007.49 102.201   4
  -3  -6  10 189.333 50.3566   9
  -3   6   9 384.333 72.2794  18
  -3  -6   9 458.053 87.2319   9
   3  -6  -8-19.0091 50.6871  10
  -3   6   8 39.4963 26.0656  18
  -3  -6   8-56.0364 44.7016   9
  -3   6   7 144.239 62.9582  18
   3  -6  -7 114.796 67.0451  10
  -3  -6   7 114.586 65.3934   9
  -3   6   6 41.1444 57.6277  18
  -3  -6   6-2.69883 45.1797   9
   3  -6  -6 41.4800 68.9671  10
   3  -6  -5 128.697 84.1089  10
  -3   6   5 154.266 70.7978  18
  -3  -6   5 136.666 70.6483   9
   3  -6  -4 210.919 89.5115  10
  -3   6   4 229.399 74.6216  18
  -3  -6   4 339.332 95.8512   9
   3  -6  -4 80.3752 221.182  13
   3  -6  -3 6930.16 426.566  10
  -3   6   3 7640.26 387.614  18
  -3  -6   3 6803.03 377.209  17
  -3  -6   3 8663.07 441.290   9
   3   6  -3 5774.64 711.884   5
  -3  -6   3 3882.33 629.631  15
   3  -6  -3 5710.22 743.978  13
  -3   6   3 4780.74 726.789   1
   3  -6  -2 2198.07 244.007  10
  -3   6   2 2701.59 225.678  18
  -3   6   2 2125.46 469.844   1
  -3  -6   2 2451.66 227.655  17
  -3  -6   2 2021.71 231.741   9
   3   6  -2 2223.01 443.813   5
  -3   6   2 1623.34 414.159  14
  -3   6   1 3130.77 568.830   1
   3  -6  -1 4231.05 330.986  10
  -3  -6   1 4546.70 301.705  17
  -3   6   1 4393.46 280.982  18
  -3  -6   1 3089.24 320.984   9
   3   6  -1 4125.33 604.716   5
  -3   6   1 3982.40 635.101  14
  -3   6   0 2043.42 471.272   1
   3   6   0 3179.20 558.965   6
   3  -6   0 3389.67 499.287   6
   3  -6   0 3694.64 309.662  10
  -3   6   0 3230.72 237.547  18
  -3  -6   0 3635.30 269.531  17
   3   6   0 3939.74 590.965   5
   3  -6   0 3427.53 251.449   8
  -3   6   0 3072.18 582.313  14
   3   6   1 81.2956 56.1903  12
   3   6   1 360.742 195.403   6
   3  -6   1 493.802 227.493   6
  -3  -6  -1 106.455 55.9403  17
  -3  -6  -1-127.265 120.899  16
   3   6   1-103.754 173.532   2
   3   6   1 416.346 193.631   5
  -3   6  -1 314.835 202.688  14
   3  -6   1 92.1423 45.4914   8
   3   6   1 91.0159 59.9376   3
   3  -6   1-67.9264 55.4873   3
   3  -6   1 71.8320 63.2545  10
  -3   6  -1 207.141 161.733   1
   3  -6   2 142.507 87.9459  10
  -3  -6  -2 137.903 67.6147  17
   3   6   2 76.3635 47.1869   3
   3  -6   2 121.251 66.9126   3
   3  -6   2 161.466 67.6964   8
  -3  -6  -3 2217.01 238.935  11
   3  -6   3 2880.25 275.561  10
   3   6   3 2413.84 258.732   3
   3  -6   3 2900.52 293.944   3
  -3  -6  -3 3090.48 247.897  17
   3  -6   3 3175.57 244.569   8
  -3  -6  -4 223.905 82.5956  11
   3  -6   4 224.119 82.5181  10
  -3  -6  -4 91.2820 44.5776  17
   3   6   4 263.986 90.4126   3
   3  -6   4 285.035 105.232   3
   3  -6   4 160.662 63.8086   8
  -3  -6  -5 13959.2 538.598  11
   3  -6   5 14768.0 555.511  10
   3   6   5 14188.3 560.173   3
   3  -6   5 13810.7 575.687   3
  -3  -6  -5 15618.7 503.008  17
   3  -6   5 15615.0 501.724   8
   3  -6   5 13639.9 562.321   4
   3   6   5 14352.4 566.865   4
   3   6   6 101.262 48.1598   4
  -3  -6  -6-3.44782 40.5048  11
  -3  -6  -6-21.9443 25.2414  17
   3   6   6 50.8200 30.2477   3
   3  -6   6 105.917 56.5767   3
   3  -6   6 121.070 49.3468   8
  -3  -6  -7 3948.13 233.152  11
   3   6   7 2736.49 186.110   3
   3  -6   7 3553.60 225.699   3
  -3   6  -7 4510.87 216.750  17
   3  -6   7 5030.19 230.141   8
   3   6   7 3582.74 212.008   4
   3  -6   7 2850.12 194.498   4
  -3  -6  -8 3263.63 169.386  11
  -3  -7  10 2174.89 144.525   9
   3  -7  -9 532.583 86.1738  10
  -3   7   9 674.410 86.5846  18
   3  -7  -8 1064.59 146.552  10
  -3   7   8 1107.34 125.952  18
  -3  -7   8 1300.43 150.042   9
   3  -7  -7 1191.00 171.235  10
  -3   7   7 1182.47 147.407  18
  -3  -7   7 1135.41 165.548   9
   3  -7  -6 1392.80 188.117  10
  -3   7   6 1184.38 152.498  18
  -3  -7   6 1124.54 167.311   9
   3  -7  -5-16.4913 67.8513  10
  -3   7   5-16.8336 41.1009  18
  -3  -7   5 45.4170 63.6803   9
  -3   7   4 760.053 125.953  18
   3  -7  -4 782.074 153.128  10
  -3  -7   4 1061.53 162.138   9
  -3   7   3 2311.76 216.285  18
   3  -7  -3 2200.88 241.971  10
  -3  -7   3 2134.11 214.389  17
  -3  -7   3 2551.00 237.378   9
   3  -7  -2 6189.45 402.156  10
  -3   7   2 6942.01 363.233  18
  -3  -7   2 7161.02 387.059  17
  -3  -7   2 6845.18 408.889   9
   3   7  -2 5409.05 710.424   5
  -3  -7   2 3857.04 671.082  15
  -3   7   2 4491.05 712.337  14
   3  -7  -1 350.533 110.487  10
  -3   7   1 369.362 90.6713  18
  -3  -7   1 475.629 104.639  17
  -3  -7   1 136.471 62.4848   9
   3   7  -1 336.493 174.341   5
  -3   7   1 362.292 267.726  14
   3  -7   0 5675.84 389.654  10
  -3   7   0 5237.56 302.227  18
  -3  -7   0 5470.97 328.031  17
   3  -7   0 5401.54 314.775   8
  -3   7   0 4599.40 741.009  14
   3   7   0 5310.25 353.305  12
   3  -7   1 6967.40 433.064  10
  -3  -7  -1 6406.51 347.590  17
   3  -7   1 7119.79 368.135   8
   3   7   1 6410.18 395.070  12
   3  -7   2 1647.88 212.186  10
  -3  -7  -2 1703.54 187.054  17
   3  -7   2 1931.42 194.900   8
   3   7   2 1402.74 178.618  12
  -3  -7  -3 191.196 75.2515  11
   3  -7   3 96.0252 61.2226  10
  -3  -7  -3 131.699 64.0252  17
   3  -7   3 206.596 66.8261   8
  -3  -7  -4 172.591 61.9749  11
   3  -7   4 73.6528 60.8320  10
  -3  -7  -4 144.222 60.0153  17
   3  -7   4 120.653 47.6706   3
   3  -7   4 200.025 70.2105   8
  -3  -7  -5 2959.64 237.584  11
   3  -7   5 2578.57 223.270  10
  -3  -7  -5 3070.11 215.586  17
   3  -7   5 2947.15 212.417   8
  -3  -7  -6 6390.19 318.878  11
   3  -7   6 7306.43 306.600   8
  -3  -7  -7 128.073 45.1460  11
  -3   7  -7 81.3915 29.1591  17
   3  -7   7 104.394 36.7573   8
  -3  -8  10 3903.47 177.115   9
   3  -8  -9 885.156 103.815  10
  -3  -8   9 1325.49 129.746   9
   3  -8  -8 1386.33 160.043  10
  -3   8   8 1326.72 132.173  18
  -3  -8   8 1462.69 152.534   9
   3  -8  -7 578.926 117.123  10
  -3   8   7 415.922 82.3789  18
  -3  -8   7 368.174 88.5480   9
  -3   8   6 5.15983 46.1320  18
   3  -8  -6-82.7968 81.4688  10
  -3  -8   6-9.12755 46.4821   9
   3  -8  -5 7.96897 71.6142  10
  -3   8   5 133.277 65.9113  18
  -3  -8   5 7.36657 47.2263   9
   3  -8  -4 1581.53 212.074  10
  -3   8   4 1794.27 188.860  18
  -3  -8   4 1915.75 210.428   9
   3  -8  -3 1308.96 190.950  10
  -3   8   3 1739.50 186.008  18
  -3  -8   3 1694.72 192.248  17
  -3  -8   3 1910.17 204.233   9
   3  -8  -2 2705.44 271.430  10
  -3   8   2 2551.30 226.213  18
  -3  -8   2 2933.46 249.709  17
  -3  -8   2 2964.45 251.737   9
   3  -8  -1 5675.93 391.422  10
  -3   8   1 6343.64 343.315  18
  -3  -8   1 5968.47 347.318  17
  -3  -8   1 5144.69 334.339   9
   3  -8   0 3998.28 326.787  10
  -3  -8   0 3963.50 278.715  17
   3  -8   0 3525.13 251.605   8
   3   8   0 4035.86 309.260  12
  -3   8   0 3775.14 258.250  18
  -3  -8  -1 601.173 110.876  17
   3  -8   1 661.588 144.793  10
   3  -8   1 687.014 115.127   8
   3   8   1 687.604 129.872  12
   3  -8   2 4437.81 335.346  10
  -3  -8  -2 4166.39 284.921  17
   3  -8   2 4739.79 302.074   8
   3   8   2 4373.62 312.095  12
  -3  -8  -3 8354.30 414.142  11
   3  -8   3 8660.28 452.464  10
  -3  -8  -3 9353.44 415.952  17
   3  -8   3 9831.57 418.455   8
  -3  -8  -4 551.766 111.809  11
   3  -8   4 235.291 76.4883  10
  -3  -8  -4 547.698 101.605  17
   3  -8   4 480.660 92.4911   8
  -3  -8  -5 2806.32 196.610  17
  -3  -8  -5 2459.68 207.142  11
   3  -8   5 2770.24 200.345   8
  -3  -8  -6 56.0200 36.8876  11
   3  -8   6 54.2541 31.0898   8
  -3  -8  -7 4508.69 212.166  11
  -3   8  -7 3970.64 173.802  17
   3  -9  -9 2411.98 157.876  10
  -3  -9   9 3209.28 183.417   9
   3  -9  -8 307.940 78.8259  10
  -3   9   8 368.963 64.7864  18
  -3  -9   8 433.272 83.8693   9
   3  -9  -7 4066.09 292.274  10
  -3   9   7 3640.39 227.033  18
  -3  -9   7 4283.13 267.391   9
   3  -9  -6 58.3271 59.9994  10
  -3   9   6 92.7822 47.2951  18
  -3  -9   6 173.289 77.2434   9
   3  -9  -5 1595.43 207.963  10
  -3   9   5 1545.75 164.935  18
  -3  -9   5 1751.29 192.250   9
   3  -9  -4 930.789 161.047  10
  -3   9   4 734.396 119.236  18
  -3  -9   4 1033.84 147.475   9
   3  -9  -3 31.5826 66.0679  10
  -3   9   3 126.828 61.1308  18
  -3  -9   3 73.9350 53.6156  17
  -3  -9   3 178.602 69.8774   9
   3  -9  -2 5552.24 387.888  10
  -3   9   2 5584.47 330.857  18
  -3  -9   2 5774.86 345.001  17
  -3  -9   2 5919.72 334.864   9
   3  -9  -1 922.460 162.979  10
  -3   9   1 943.603 136.646  18
  -3  -9   1 942.517 142.734  17
  -3  -9   1 780.607 122.061   9
   3   9  -1 937.487 153.457  12
   3  -9   0 3368.33 300.648  10
  -3   9   0 3571.66 250.804  18
  -3  -9   0 3179.18 247.373  17
   3  -9   0 3013.89 228.458   8
   3   9   0 3358.49 284.585  12
   3  -9   1 11162.4 532.152  10
  -3  -9  -1 10683.4 444.564  17
   3  -9   1 11475.0 453.324   8
   3   9   1 11340.2 508.613  12
   3  -9   2 13042.9 555.302  10
  -3  -9  -2 12965.0 487.886  17
   3  -9   2 13741.8 498.435   8
   3   9   2 12159.1 512.896  12
  -3  -9  -3 2248.11 212.764  11
   3  -9   3 2238.41 225.248  10
  -3  -9  -3 2513.22 211.826  17
   3  -9   3 2877.44 222.307   8
   3   9   3 1962.85 191.275  12
  -3  -9  -4 208.472 66.8673  11
  -3  -9  -4 358.408 79.6478  17
   3  -9   4 257.067 66.9367   8
  -3  -9  -5 369.646 76.8307  11
  -3  -9  -5 235.732 56.1181  17
   3  -9   5 327.616 68.4087   8
  -3  -9  -6 77.5100 35.9323  11
   3  -9   6 118.810 40.8947   8
  -3  -9  -7 1612.89 113.664  11
   3  -9   7 2571.97 132.001   8
  -3 -10   9 754.923 80.8958   9
   3  10  -8 346.182 69.3777  12
   3 -10  -8 694.059 104.168  10
  -3  10   8 587.320 76.3694  18
  -3 -10   8 427.897 75.9977   9
   3 -10  -7 1422.62 167.602  10
  -3  10   7 1256.89 125.654  18
  -3 -10   7 1029.35 124.682   9
   3 -10  -6 1277.71 172.264  10
  -3  10   6 1267.24 137.831  18
  -3 -10   6 993.438 161.408   9
   3 -10  -5 1081.29 166.499  10
  -3  10   5 850.359 123.434  18
  -3 -10   5 734.981 116.399   9
   3 -10  -4 16379.9 633.509  10
  -3  10   4 15932.5 523.600  18
  -3 -10   4 17159.4 545.910   9
   3 -10  -3 3295.79 293.725  10
  -3  10   3 3188.64 241.221  18
  -3 -10   3 3169.04 235.890   9
   3 -10  -2 15646.6 636.115  10
  -3  10   2 16421.9 546.885  18
  -3 -10   2 17202.2 584.264  17
  -3 -10   2 14896.4 502.617   9
   3  10  -2 15815.2 586.017  12
   3  10  -1 457.453 113.162  12
  -3  10   1 557.845 108.335  18
   3 -10  -1 430.194 112.096  10
  -3 -10   1 621.562 112.789  17
   3 -10   0 13536.9 583.067  10
  -3  10   0 12998.9 478.686  18
  -3 -10   0 12776.5 484.141  17
   3  10   0 14398.8 566.131  12
   3 -10   1 3640.46 298.719  10
  -3  10  -1 3120.32 218.979  18
  -3 -10  -1 3576.28 253.688  17
   3 -10   1 3535.00 246.164   8
   3  10   1 3622.34 279.349  12
   3 -10   2 1080.70 160.943  10
  -3 -10  -2 1319.81 155.566  17
   3 -10   2 1079.51 139.699   8
   3  10   2 883.651 136.841  12
  -3 -10  -3 1973.27 186.703  11
  -3 -10  -3 2257.49 191.234  17
   3 -10   3 2267.95 190.153   8
   3  10   3 1689.56 170.705  12
  -3 -10  -4 315.687 76.0749  11
  -3 -10  -4 239.540 61.5689  17
   3 -10   4 278.931 66.2006   8
  -3 -10  -5 1639.57 146.348  11
   3 -10   5 2047.66 154.677   8
  -3 -10  -6-4.88020 21.6448  11
   3 -10   6 22.4093 22.7441   8
   3 -11  -8 1313.89 128.107  10
  -3 -11   8 440.855 64.2670   9
  -3  11   7 3062.65 179.075  18
   3  11  -7 2628.41 186.203  12
   3  11  -6 321.956 80.3345  12
   3 -11  -6 211.632 74.2048  10
  -3  11   6 271.276 63.8684  18
  -3 -11   6 89.5043 41.7042   9
   3  11  -5-2.33252 43.2221  12
   3 -11  -5 125.853 75.7619  10
  -3  11   5 49.2758 39.2670  18
  -3 -11   5 136.466 53.2539   9
   3 -11  -4 9685.13 469.703  10
  -3  11   4 9162.74 381.764  18
  -3 -11   4 8011.87 339.178   9
   3  11  -4 9238.40 418.506  12
   3 -11  -3 2510.82 249.680  10
  -3  11   3 2690.46 213.624  18
   3  11  -3 2131.08 211.282  12
   3  11  -2 266.282 83.0202  12
   3 -11  -2 387.121 106.834  10
  -3  11   2 359.501 81.2827  18
   3 -11  -1 23462.1 746.903  10
  -3  11   1 25463.0 658.756  18
  -3 -11   1 24215.2 665.975  17
   3  11  -1 24061.5 706.340  12
   3 -11   0 870.088 148.244  10
  -3  11   0 776.473 113.505  18
  -3 -11   0 821.771 125.284  17
   3  11   0 794.460 132.633  12
  -3  11  -1 239.604 55.9774  18
  -3 -11  -1 361.561 86.6121  17
   3 -11   1 185.227 79.7528  10
   3 -11   1 201.000 54.0253   8
   3  11   1 248.610 84.8778  12
  -3 -11  -2 2135.30 192.314  11
   3 -11   2 1998.64 198.631  10
  -3 -11  -2 2647.81 206.892  17
   3 -11   2 2750.04 204.332   8
   3  11   2 2787.88 225.693  12
  -3 -11  -3 3053.19 216.392  11
  -3 -11  -3 3790.97 234.497  17
   3 -11   3 3814.88 231.544   8
   3  11   3 3073.48 217.587  12
  -3 -11  -4-50.0095 39.8179  11
   3 -11   4 20.2543 23.9859   8
  -3 -11  -5 2154.07 153.182  11
   3 -11   5 2490.05 155.734   8
  -3  11  -6 233.040 39.9273  17
   3 -11   6 423.361 54.8002   8
   3 -12  -8 343.544 57.6509  10
  -3  12   7 368.320 57.5369  18
   3  12  -7 325.669 56.6571  12
   3 -12  -6 3728.76 248.658  10
  -3  12   6 3313.89 191.037  18
   3  12  -6 3125.00 201.677  12
   3  12  -5 481.388 90.2293  12
   3 -12  -5 550.184 109.126  10
  -3  12   5 420.143 77.9375  18
   3 -12  -4 14891.6 548.469  10
  -3  12   4 14520.4 461.359  18
   3  12  -4 14625.6 495.938  12
   3  12  -3 57.9903 56.2471  12
   3 -12  -3 96.9808 59.6059  10
  -3  12   3 33.9942 34.1411  18
   3 -12  -2 542.468 121.042  10
  -3  12   2 555.629 99.7446  18
   3  12  -2 328.021 90.1568  12
   3 -12  -1 2797.55 248.199  10
  -3  12   1 3150.65 224.093  18
   3  12  -1 2756.63 232.800  12
  -3  12   0-53.9348 38.1303  18
   3 -12   0-18.7692 56.5403  10
   3  12   0 14.8064 46.0512  12
   3 -12   1 1124.52 148.495  10
  -3  12  -1 1268.91 127.933  18
   3 -12   1 1280.22 128.073   8
   3  12   1 1460.03 164.714  12
   3 -12   2 16500.4 457.554   8
   3  12   2 15042.9 484.511  12
  -3 -12  -3 1073.22 117.680  11
   3 -12   3 1301.62 126.326   8
   3  12   3 1048.23 120.392  12
  -3 -12  -4-3.97203 19.0009  11
   3 -12   4-4.35105 23.9999   8
   3  12   4 62.2908 26.4327  12
  -3 -12  -5 582.640 69.2283  11
   3 -12   5 816.669 78.7523   8
   3 -13  -7 8.29978 22.4136  10
   3 -13  -6 73.0614 38.8807  10
  -3  13   6 71.3340 30.2872  18
  -3 -13   6 21.5141 17.0134   8
   3  13  -6 60.5646 28.4590  12
   3 -13  -5 124.048 49.8885  10
  -3  13   5 103.153 40.8451  18
   3  13  -5 126.329 45.8894  12
   3 -13  -4 80.0561 52.7051  10
  -3  13   4 38.1930 39.5465  18
   3  13  -4 24.8088 44.3878  12
   3 -13  -3 1541.84 169.576  10
  -3  13   3 1562.29 150.678  18
   3  13  -3 1743.59 169.854  12
   3 -13  -2 3950.39 271.604  10
  -3  13   2 4268.66 250.639  18
   3  13  -2 4526.60 270.723  12
   3 -13  -1 459.987 95.3081  10
  -3  13   1 442.482 83.0733  18
   3  13  -1 541.233 102.311  12
  -3  13   0 2476.96 181.104  18
   3  13   0 2252.25 192.365  12
  -3  13  -1 3254.97 184.540  18
   3  13   1 3510.35 230.982  12
   3 -13   2 5507.43 233.256   8
   3  13   2 5557.19 268.585  12
  -3 -13  -3 227.550 47.9155  11
   3 -13   3 219.533 47.6472   8
   3  13   3 137.839 43.4236  12
   3 -13   4 5896.66 206.965   8
   3 -14  -6 1486.36 119.606  10
  -3  14   6 931.275 78.9996  18
   3 -14  -5 588.348 86.6290  10
  -3  14   5 592.572 73.8045  18
  -3 -14   5 573.550 77.1689   8
   3  14  -5 452.275 64.8849  12
   3 -14  -4 1607.16 149.313  10
  -3  14   4 1802.87 137.174  18
   3  14  -4 1670.35 138.523  12
   3 -14  -3 82.5545 43.6632  10
  -3  14   3 228.632 55.6916  18
   3  14  -3 119.274 49.0829  12
   3 -14  -2 1854.34 163.274  10
  -3  14   2 2298.25 165.970  18
   3  14  -2 2299.90 178.684  12
   3 -14  -1 791.436 102.180  10
  -3  14   1 1063.23 114.596  18
   3  14  -1 1000.82 120.608  12
  -3  14   0 1190.45 112.965  18
   3  14   0 1172.54 127.558  12
  -3  14  -1 59.0085 24.6643  18
   3  14   1 24.2909 26.4736  12
   3  14   2 786.992 91.8240  12
   3  14   3 69.9046 25.1824  12
   3 -15  -4 249.593 47.2660  10
  -3  15   4 245.210 47.9057  18
  -3 -15   4 332.920 56.3466   8
   3  15  -4 255.958 46.0634  12
  -3  15   3-4.47916 27.5481  18
   3 -15  -3 14.4843 20.6343  10
   3  15  -3 12.5579 23.2942  12
  -3  15   2 435.265 66.6545  18
   3  15  -2 506.597 73.5815  12
  -3  15   1 326.144 57.3566  18
   3  15  -1 341.320 62.0490  12
  -3  15   0 4607.15 184.417  18
   3  15   0 5292.82 228.949  12
   3  15   1 186.449 43.0550  12
   3  15   2 699.392 70.2199  12
   3  16  -1 407.879 53.7242  12
  -4   0   8 2191.89 145.023   9
  -4   0   7-46.8178 38.3890   9
  -4   0   6 7678.89 376.395  18
  -4   0   6 7250.26 331.021   9
  -4   0   5-29.5786 57.1626  18
  -4   0   5-35.6436 46.8104   9
  -4   0   4 23.2201 40.1311  18
  -4   0   4 39.2224 40.1044   9
  -4   0   3-53.9944 50.1459  18
  -4   0   3-65.2137 71.1421   9
   4   0  -2 299.023 88.1545  10
  -4   0   2 346.433 82.5093  17
   4   0  -1-38.0293 62.9597  10
  -4   0   1 31.3000 31.9297  17
   4   0   0 2979.16 266.940  10
  -4   0   0 3142.79 250.434  17
   4   0   0 2338.28 251.947   3
   4   0   1-9.90983 52.3312  10
  -4   0  -1 0.11032 49.5071  17
   4   0   1-43.0145 76.4139   3
   4   0   2 29716.6 801.539  10
  -4   0  -2 30827.7 735.566  17
   4   0   2 28965.6 846.242   3
   4   0   3 50.3761 48.5939  10
  -4   0  -3-31.8130 48.5685  17
   4   0   3-18.8350 50.9726   3
   4   0   4 20920.8 627.912   3
   4   0   4 21085.0 628.889   4
   4   0   5-21.5973 43.0279   4
  -4   0  -5 11.8715 23.7049  17
   4   0   5-12.9341 42.6959   3
   4   0   6 763.472 88.9371   3
   4   0   6 827.639 91.2591   4
  -4  -1   8 2139.89 148.484   9
  -4   1   7 110.932 40.1235   9
  -4  -1   7 106.400 43.0111   9
  -4   1   6 7586.81 383.845  18
  -4   1   6 7020.07 318.585   9
  -4  -1   6 7985.70 345.949   9
  -4   1   5 320.348 91.0030  18
  -4   1   5 323.318 72.3262   9
  -4  -1   5 378.691 83.9130   9
  -4  -1   4-104.379 59.3461  18
  -4   1   4-47.5354 53.0647  18
  -4   1   4-1.38884 33.1795   9
  -4  -1   4 10.8053 38.2715   9
   4  -1  -3 431.249 104.926  10
  -4   1   3 304.037 85.9413  18
  -4  -1   3 312.307 99.5399   9
  -4   1   3 258.686 83.6381   9
   4   1  -2-1.40155 36.8406  10
   4  -1  -2-46.7376 59.8164  10
  -4   1   2 57.0983 39.6521  18
  -4  -1   2-3.18991 39.0651  17
  -4  -1   2 36.5170 54.3132   9
  -4   1   2 22.2459 37.8750   9
   4   1  -1 4158.74 309.664  10
   4  -1  -1 4227.53 315.201  10
  -4  -1   1 4551.23 299.058  17
  -4   1   1 4672.17 301.255  17
   4   1   0 519.522 117.205  10
   4  -1   0 522.003 120.664  10
  -4  -1   0 605.030 112.800  17
  -4   1   0 615.636 113.378  17
   4   1   0 418.511 119.750   3
   4  -1   0 308.565 99.8243   3
   4   1   1 9.43028 50.0130  10
   4  -1   1 58.3817 65.6850  10
  -4  -1  -1 124.362 61.6605  17
  -4   1  -1 111.799 61.2516  17
   4   1   1 47.6374 52.0868   3
   4  -1   1 79.7893 73.7383   3
   4   1   2 6603.13 375.249  10
   4  -1   2 6953.47 389.567  10
   4   1   2 6080.39 390.229   3
  -4  -1  -2 6831.55 345.973  17
   4  -1   2 5887.81 388.174   3
  -4   1  -2 6761.28 347.166  17
   4   1   3 17544.4 583.591  10
   4  -1   3 17379.3 579.782  10
   4   1   3 16549.3 611.045   3
   4  -1   3 15394.6 589.958   3
  -4  -1  -3 17703.3 529.308  17
  -4   1  -3 16698.8 511.905  17
   4  -1   4 3512.27 243.742  10
   4   1   4 3299.01 253.168   3
   4  -1   4 3448.50 260.414   3
  -4  -1  -4 3662.93 223.734  17
  -4   1  -4 3475.29 218.174  17
   4  -1   4 3470.95 260.707   4
   4   1   4 3420.74 256.539   4
   4   1   5 6323.04 304.606   3
   4  -1   5 5854.76 295.246   3
  -4  -1  -5 6773.48 260.526  17
  -4   1  -5 6857.48 266.388  17
   4  -1   5 6059.94 298.318   4
   4   1   5 6052.77 298.209   4
   4  -1   6 22.7579 22.3620   4
   4   1   6 35.9148 25.4233   4
   4   1   6-31.9117 30.8815   3
   4  -1   6 4.88088 18.8950   3
  -4  -2   9 1388.06 98.0086   9
  -4  -2   8 752.929 94.1668   9
  -4   2   7 2398.34 197.290  18
  -4  -2   7 2398.49 179.144   9
  -4   2   6 78.2174 53.8165  18
  -4  -2   6 167.137 60.0208   9
  -4   2   5 2904.30 239.662  18
  -4   2   5 2591.67 198.863   9
  -4  -2   5 2953.70 225.299   9
   4  -2  -4 1637.85 189.502  10
  -4   2   4 1640.22 188.095  18
  -4   2   4 1474.28 162.406   9
  -4  -2   4 1806.77 184.137   9
   4  -2  -3 1693.00 199.557  10
  -4   2   3 1826.01 186.879  18
  -4  -2   3 2001.99 198.725   9
  -4   2   3 1522.63 178.583   9
   4  -2  -2 271.716 91.6976  10
  -4   2   2 241.093 71.6310  18
  -4  -2   2 274.805 70.8775  17
  -4  -2   2 262.598 88.6833   9
  -4   2   2 9.46334 51.0864   9
   4   2  -1 5846.62 357.599  10
   4  -2  -1 6468.77 389.808  10
  -4  -2   1 7176.16 371.179  17
  -4   2   1 6770.20 357.144  17
  -4  -2   1 6732.40 390.202   9
   4   2   0 2854.13 253.564  10
   4  -2   0 3007.58 267.760  10
  -4  -2   0 3330.53 252.114  17
  -4   2   0 3135.91 245.858  17
   4   2   0 2559.03 264.782   3
   4  -2   0 2655.06 271.951   3
   4   2   1 1547.06 187.136  10
   4  -2   1 1509.59 192.431  10
  -4  -2  -1 1498.46 172.142  17
  -4   2  -1 1541.72 171.643  17
   4   2   1 1218.58 183.675   3
   4  -2   1 1346.87 194.613   3
   4   2   2 2211.67 217.780  10
   4  -2   2 2196.60 223.317  10
   4   2   2 2038.73 229.263   3
   4  -2   2 2124.88 234.647   3
  -4  -2  -2 2267.63 199.974  17
  -4   2  -2 2170.80 195.980  17
   4  -2   3 4195.88 286.232  10
   4   2   3 4049.45 302.238   3
   4  -2   3 3755.53 292.733   3
  -4  -2  -3 4145.16 255.289  17
  -4   2  -3 4159.17 256.399  17
   4  -2   4 552.645 99.3448  10
  -4  -2  -4 697.183 98.4195  17
  -4   2  -4 702.532 100.209  17
   4   2   4 559.113 105.326   3
   4  -2   4 513.071 107.365   3
   4  -2   4 640.451 118.347   4
   4   2   4 583.343 112.897   4
   4  -2   5 68.7566 39.3328   4
   4   2   5 106.537 47.7955   4
  -4  -2  -5 118.555 42.7914  17
  -4   2  -5 137.194 45.1035  17
   4   2   5 25.2050 33.7729   3
   4  -2   5 45.6948 32.2467   3
   4   2   6 2278.90 141.466   3
   4  -2   6 2458.54 152.090   3
   4  -2   6 2414.54 146.295   4
   4   2   6 2660.78 152.195   4
  -4  -3   9 1472.22 104.865   9
  -4  -3   8 10885.3 345.825   9
  -4   3   7 377.407 80.1727  18
  -4  -3   7 328.941 74.9182   9
  -4   3   6 7396.27 352.218  18
  -4  -3   6 7276.87 333.688   9
  -4   3   5-44.7409 45.5891  18
  -4  -3   5 26.6154 46.8422   9
   4  -3  -4 608.895 122.411  10
  -4   3   4 706.133 123.069  18
  -4  -3   4 686.086 120.247   9
  -4   3   4 475.624 91.5807   9
   4  -3  -3 1182.85 167.302  10
  -4   3   3 1076.82 142.200  18
  -4  -3   3 1285.68 162.469   9
   4  -3  -2 2454.41 239.874  10
  -4   3   2 2092.35 194.695  18
  -4  -3   2 2669.81 222.004  17
  -4  -3   2 2587.47 234.334   9
   4  -3  -1 1451.60 185.926  10
  -4  -3   1 1506.40 171.664  17
  -4   3   1 1542.87 170.361  17
  -4  -3   1 1311.70 173.113   9
   4   3   0-147.533 67.6267  10
   4  -3   0 1.74573 63.6161  10
  -4  -3   0-21.5962 55.7446  17
  -4   3   0-17.8754 42.8209  17
   4   3   0 12.7483 45.9578   3
   4  -3   0 37.8446 70.5417   3
   4   3   1 1928.44 202.407  10
   4  -3   1 2126.34 223.059  10
  -4  -3  -1 2275.49 203.136  17
  -4   3  -1 2191.83 201.652  17
   4   3   1 1897.26 227.803   3
   4  -3   1 1895.23 230.750   3
   4  -3   1 2366.45 197.837   8
   4   3   2 223.898 72.5371  10
   4  -3   2 12.7344 52.5143  10
  -4  -3  -2 187.327 66.9828  17
  -4   3  -2 175.365 64.1047  17
   4   3   2 60.6319 57.7947   3
   4  -3   2 170.265 91.1941   3
   4  -3   2 186.558 60.6840   8
   4  -3   3 957.501 141.179  10
   4   3   3 969.621 148.050   3
  -4  -3  -3 1051.92 129.200  17
  -4   3  -3 1013.16 127.474  17
   4  -3   3 1060.99 120.602   8
   4  -3   3 687.732 126.773   3
   4  -3   4 7160.21 335.919  10
   4   3   4 5914.47 321.050   3
   4  -3   4 6178.52 333.257   3
  -4  -3  -4 7305.23 302.291  17
  -4   3  -4 6949.80 298.567  17
   4  -3   4 6046.40 327.612   4
   4   3   4 6452.20 338.013   4
   4  -3   5-8.42458 29.7500   4
   4   3   5 28.7606 31.5316   4
  -4  -3  -5 27.1104 23.1115  17
  -4   3  -5-9.68047 26.1407  17
   4   3   5 25.5991 33.6862   3
  -4  -4   9 583.878 71.5989   9
  -4  -4   8 1227.99 113.470   9
  -4   4   7 2298.90 183.418  18
  -4  -4   7 2527.09 183.230   9
  -4   4   6 8996.54 377.956  18
  -4  -4   6 9059.76 370.478   9
   4  -4  -5 443.748 99.3654  10
  -4  -4   5 736.140 115.814   9
  -4   4   5 742.287 117.857  18
   4  -4  -4 351.760 97.7588  10
  -4   4   4 580.795 103.994  18
  -4  -4   4 457.104 109.925   9
   4  -4  -3 3379.45 277.610  10
  -4  -4   3 4010.84 277.645   9
  -4   4   3 3205.02 235.885  18
   4  -4  -2-35.5799 56.4825  10
  -4   4   2-16.7499 46.6727  18
  -4  -4   2 8.21121 32.1297  17
  -4  -4   2-1.19066 51.7721   9
  -4   4   2-1.20839 49.5197   9
   4  -4  -1 411.039 108.409  10
  -4  -4   1 345.651 83.2768  17
  -4   4   1 342.524 79.6487  17
  -4  -4   1 293.417 92.5224   9
   4   4  -1 210.299 90.0964   3
   4  -4  -1 267.437 89.0485   3
   4  -4   0 73.4276 75.5408  10
  -4  -4   0 83.4821 51.1048  17
  -4   4   0 11.4541 45.1911  17
  -4  -4   0-0.98538 49.5103   9
   4   4   0-50.9850 45.4135   3
   4  -4   0 0.74694 51.4551   3
   4  -4   1 447.583 104.356  10
  -4  -4  -1 560.278 105.889  17
  -4   4  -1 527.187 101.526  17
   4  -4   1 587.704 100.092   8
   4   4   1 212.814 81.1609   3
   4  -4   1 315.945 91.8562   3
   4  -4   2-3.20053 65.5570  10
  -4  -4  -2 16.8791 37.9641  17
  -4   4  -2 56.5887 45.2577  17
   4   4   2 85.4179 56.3688   3
   4  -4   2 26.1660 42.6457   3
   4  -4   2 61.1242 40.1696   8
   4  -4   3 2285.56 206.491  10
   4   4   3 1913.86 198.785   3
   4  -4   3 1866.92 200.284   3
  -4  -4  -3 2374.68 185.866  17
  -4   4  -3 2214.56 180.690  17
   4  -4   3 2403.45 176.498   8
   4  -4   4 439.561 85.9462   4
   4  -4   4 572.626 96.5371  10
  -4  -4  -4 556.519 82.6684  17
  -4   4  -4 607.722 88.7836  17
   4  -4   4 641.858 85.6555   8
   4   4   4 569.934 95.8166   3
   4  -4   4 514.927 97.2623   3
   4   4   4 564.192 100.600   4
   4  -4   5 5.14956 24.8195   4
   4   4   5-36.9013 28.6539   4
  -4  -4  -5-3.45921 15.9346  17
  -4   4  -5-22.1653 28.6654  17
   4   4   5-6.99761 17.6027   3
   4  -4   5 21.4940 28.6727   3
  -4   5   8 694.353 91.3835  18
  -4  -5   8 879.470 94.7841   9
  -4   5   7 1492.25 140.723  18
  -4  -5   7 1445.32 137.499   9
  -4   5   6 21567.2 556.751  18
  -4  -5   6 22068.1 568.441   9
   4  -5  -5 106.921 62.6042  10
  -4   5   5 324.012 79.3763  18
  -4  -5   5 319.081 81.7521   9
   4  -5  -4 1159.89 161.387  10
  -4   5   4 1265.71 148.635  18
  -4  -5   4 1479.35 166.269   9
   4  -5  -3 8648.49 434.635  10
  -4   5   3 8310.03 375.771  18
   4  -5  -2 11334.3 500.695  10
  -4   5   2 10183.0 397.198  18
  -4  -5   2 12214.2 462.998  17
  -4  -5   2 13223.4 503.996   9
   4  -5  -1 3295.76 272.550  10
  -4  -5   1 3727.70 260.015  17
  -4  -5   1 3724.04 272.723   9
  -4   5   1 3124.18 227.467  17
   4   5  -1 2793.42 265.946   3
   4  -5  -1 2589.26 253.905   3
   4  -5   0 4922.78 325.844  10
  -4  -5   0 5110.16 296.477  17
  -4  -5   0 4575.28 307.891   9
  -4   5   0 5099.32 297.213  17
   4   5   0 4288.41 322.724   3
   4  -5   0 3764.68 306.880   3
   4  -5   0 5285.09 277.488   8
   4  -5   1 1109.31 155.154  10
  -4  -5  -1 1227.80 143.068  17
   4   5   1 960.010 149.781   3
   4  -5   1 871.093 151.950   3
  -4   5  -1 1031.43 134.603  17
  -4  -5  -1 772.590 129.434   9
   4  -5   1 1155.22 131.829   8
   4  -5   2 2754.17 233.520  10
   4   5   2 2436.47 226.842   3
   4  -5   2 2263.49 224.954   3
  -4  -5  -2 3055.91 217.863  17
  -4   5  -2 2926.83 215.933  17
   4  -5   2 3297.26 214.482   8
   4  -5   3 242.538 76.1375   4
   4   5   3 195.994 64.8402   4
   4  -5   3 181.120 62.6094  10
  -4  -5  -3 258.295 59.7619  17
  -4   5  -3 226.642 63.9307  17
   4   5   3 206.761 66.4305   3
   4  -5   3 188.808 66.7293   3
   4  -5   3 234.794 57.6851   8
   4  -5   4 397.591 78.1344   4
   4  -5   4 781.161 107.039  10
   4   5   4 516.856 85.0436   3
   4  -5   4 522.950 89.4107   3
  -4  -5  -4 695.803 89.7482  17
  -4   5  -4 667.764 88.5182  17
   4  -5   4 734.110 88.2966   8
   4   5   4 545.689 88.2964   4
  -4  -5  -5 324.498 49.0530  17
  -4   5  -5 336.047 54.1909  17
  -4   6   8 131.239 37.3397  18
  -4  -6   8 45.5030 28.1572   9
  -4   6   7 15.3758 24.2878  18
  -4  -6   7 41.4068 38.7049   9
   4  -6  -6 1201.20 138.526  10
  -4   6   6 1387.99 140.813  18
  -4  -6   6 1574.74 150.076   9
  -4   6   5 8225.49 353.533  18
  -4  -6   5 8734.18 374.541   9
   4  -6  -4 7512.38 391.090  10
  -4   6   4 8394.99 359.928  18
  -4  -6   4 8741.00 392.993   9
   4  -6  -3-21.5316 44.5593  10
  -4   6   3-1.76075 41.6489  18
  -4  -6   3 12.7295 31.9106  17
  -4  -6   3 83.9720 48.8062   9
   4   6  -2-2.66339 40.8899  12
   4  -6  -2 24.6455 61.9951  10
  -4   6   2 10.4311 28.4648  18
  -4  -6   2 60.9309 48.6235  17
  -4  -6   2 94.9183 61.1824   9
   4   6  -2-88.1763 55.7382   3
   4  -6  -2 57.7170 49.1937   3
   4   6  -1 151.941 62.5584  12
   4  -6  -1 197.827 78.9946  10
  -4  -6   1 157.559 58.0354  17
  -4   6   1 207.401 60.6708  17
  -4  -6   1 155.683 59.8474   9
   4   6  -1 87.4678 46.2105   3
   4  -6  -1 53.6453 52.0850   3
   4  -6   0 1184.94 162.867  10
  -4  -6   0 1138.77 138.879  17
  -4  -6   0 1110.63 142.886   9
   4   6   0 793.299 131.642   3
   4  -6   0 767.197 131.692   3
  -4   6   0 1129.98 138.828  17
   4  -6   0 1047.16 119.360   8
   4  -6   1 9025.06 421.622  10
   4   6   1 7866.96 393.919   3
   4  -6   1 7168.51 386.827   3
  -4  -6  -1 9605.77 385.367  17
  -4  -6  -1 7367.67 365.164   9
  -4   6  -1 9516.03 389.160  17
   4  -6   1 10118.8 370.074   8
   4  -6   2 1632.98 174.689  10
   4   6   2 1154.87 143.670   3
   4  -6   2 1290.22 161.078   3
  -4  -6  -2 1763.92 158.882  17
  -4  -6  -2 1216.09 149.058   9
  -4   6  -2 1793.18 164.025  17
   4  -6   2 1933.63 159.090   8
   4  -6   3 4279.77 258.961  10
   4   6   3 3236.08 209.960   3
   4  -6   3 3000.28 215.287   3
  -4  -6  -3 4873.85 246.323  17
  -4  -6  -3 2441.12 193.367   9
  -4   6  -3 4565.37 242.550  17
   4  -6   3 5027.23 237.779   8
   4  -6   3 2340.77 182.726   4
   4   6   3 3102.95 210.007   4
   4  -6   4-24.7582 38.5053  10
  -4  -6  -4-1.37256 22.1828  17
  -4   6  -4 10.1979 23.8442  17
  -4  -6  -4-60.9219 28.2251   9
   4  -6   4 9.13655 24.3848   3
   4  -6   4 18.3041 26.3854   8
  -4   6  -5 6339.56 211.408  17
  -4   7   8 98.6106 29.5378  18
  -4  -7   8 114.266 32.4235   9
   4  -7  -7-41.5296 27.0344  10
  -4   7   7 31.2995 25.3291  18
  -4  -7   7 22.5106 30.7129   9
   4  -7  -6 870.264 117.485  10
  -4   7   6 977.670 110.277  18
  -4  -7   6 743.404 112.513   9
   4  -7  -5-53.9183 47.0249  10
  -4   7   5-21.3236 38.4241  18
  -4  -7   5-16.0829 41.5203   9
   4  -7  -4 845.200 133.173  10
  -4   7   4 979.754 123.969  18
  -4  -7   4 1039.10 133.909   9
   4   7  -3 159.157 63.6598  12
   4  -7  -3 347.126 92.1490  10
  -4   7   3 274.231 67.4338  18
  -4  -7   3 159.724 52.9955  17
  -4  -7   3 236.830 69.0796   9
   4   7  -2 131.074 55.4055  12
   4  -7  -2 209.421 77.7781  10
  -4   7   2 146.211 46.1033  18
  -4  -7   2 202.174 61.2218  17
  -4  -7   2 149.030 59.3159   9
   4  -7  -1 323.122 86.1503  10
  -4  -7   1 450.778 88.5741  17
  -4  -7   1 461.064 89.5021   9
   4   7  -1 286.626 74.5507  12
   4  -7   0 6689.84 359.758  10
  -4  -7   0 7589.31 340.803  17
  -4  -7   0 7828.47 341.688   9
  -4   7   0 6893.04 321.075  17
   4  -7   1 270.843 77.0736  10
  -4  -7  -1 292.635 75.1257  17
  -4   7  -1 381.010 78.7735  17
  -4  -7  -1 223.052 60.6700   9
   4  -7   1 316.665 63.7105   8
   4  -7   2 203.448 64.3510  10
  -4  -7  -2 278.017 63.3423  17
  -4   7  -2 221.522 58.8973  17
  -4  -7  -2 65.1970 36.3180   9
   4  -7   2 251.562 57.1311   8
   4  -7   3 2657.62 192.717  10
  -4  -7  -3 3157.76 188.913  17
  -4   7  -3 2890.49 183.030  17
   4  -7   3 3192.14 179.094   8
  -4  -7  -4 3555.06 171.136  17
  -4   7  -4 3204.72 170.120  17
   4  -7   4 3756.07 172.260   8
   4   8  -7 56.1391 29.7742  12
  -4   8   7 119.462 34.4410  18
  -4  -8   7 49.5487 30.7714   9
   4  -8  -6 1081.67 123.536  10
  -4   8   6 1185.18 114.209  18
  -4  -8   6 1138.15 115.997   9
   4  -8  -5 985.067 130.127  10
  -4   8   5 1165.96 120.053  18
  -4  -8   5 1037.58 121.782   9
   4  -8  -4 8737.48 394.659  10
  -4   8   4 10030.2 362.634  18
  -4  -8   4 9333.53 374.645   9
   4  -8  -3 2942.79 235.233  10
  -4   8   3 3257.94 211.918  18
  -4  -8   3 3272.23 222.009   9
   4   8  -3 2528.33 205.901  12
   4  -8  -2 872.268 133.772  10
  -4   8   2 916.897 111.043  18
  -4  -8   2 854.799 114.974  17
  -4  -8   2 857.922 113.349   9
   4   8  -2 733.893 111.845  12
   4  -8  -1 9773.93 424.082  10
  -4  -8   1 10323.8 388.414  17
  -4  -8   1 10596.9 375.264   9
   4  -8   0 4600.71 287.104  10
  -4  -8   0 4962.15 265.328  17
  -4  -8   0 4849.19 244.269   9
  -4   8   0 3980.58 229.708  17
   4  -8   1 2775.44 217.641  10
  -4  -8  -1 2772.28 192.351  17
  -4  -8  -1 2381.65 159.203   9
  -4   8  -1 2608.19 187.656  17
   4  -8   1 2456.10 160.179   8
   4  -8   2 378.852 79.1658  10
  -4  -8  -2 396.295 74.2582  17
  -4   8  -2 229.011 57.3149  17
   4  -8   2 327.947 59.2499   8
  -4  -8  -3 5196.10 224.706  17
  -4   8  -3 4936.93 222.066  17
   4  -8   3 5052.10 206.569   8
  -4   8  -4 771.912 77.5461  17
   4  -8   4 912.089 76.4896   8
   4   9  -7 207.025 46.2162  12
  -4   9   7 311.929 48.4500  18
   4  -9  -6 2215.50 161.049  10
  -4   9   6 2467.20 149.627  18
  -4  -9   6 1760.32 127.562   9
   4   9  -6 1772.73 141.315  12
   4   9  -5 210.485 59.8549  12
   4  -9  -5 300.817 69.9005  10
  -4   9   5 340.964 64.4815  18
  -4  -9   5 257.135 55.8104   9
   4  -9  -4 4544.72 270.674  10
  -4  -9   4 3929.98 213.914   9
   4   9  -4 4087.48 238.932  12
   4  -9  -3 5267.37 294.989  10
  -4   9   3 5750.44 263.097  18
  -4  -9   3 4661.91 235.394   9
   4   9  -3 4365.43 255.528  12
   4  -9  -2 6504.52 329.381  10
  -4   9   2 6520.22 271.973  18
  -4  -9   2 6195.95 265.506   9
   4   9  -2 6146.18 297.072  12
  -4  -9   1 3780.58 207.160   9
   4   9  -1 4055.65 232.655  12
   4  -9   0 2305.38 193.737  10
  -4  -9   0 2523.95 179.678  17
  -4   9   0 1871.24 146.806  17
   4  -9   1 1433.25 147.178  10
  -4  -9  -1 1476.75 132.803  17
  -4   9  -1 1378.69 126.968  17
   4  -9   2 36.5863 31.8138  10
  -4   9  -2-8.58864 25.5841  17
   4  -9   2 2.38348 16.9077   8
  -4  -9  -3 354.192 55.0606  17
  -4   9  -3 337.469 54.3713  17
   4  -9   3 329.305 47.8546   8
   4 -10  -6 6081.39 231.039  10
  -4  10   6 6988.58 222.537  18
   4 -10  -5 360.808 68.2349  10
  -4  10   5 401.928 61.9164  18
   4  10  -5 395.274 70.1336  12
   4 -10  -4 3542.29 219.827  10
  -4  10   4 3981.46 200.487  18
   4  10  -4 3373.78 199.795  12
   4 -10  -3 758.461 108.630  10
  -4  10   3 741.670 89.8365  18
   4  10  -3 608.528 94.0967  12
   4 -10  -2 10.0793 34.9457  10
  -4  10   2-4.53004 27.7861  18
   4  10  -2-49.3757 36.8150  12
   4 -10  -1 35.6325 36.3787  10
   4  10  -1-51.2937 39.0035  12
   4 -10   0 107.513 44.3168  10
  -4 -10   0 146.534 46.9698  17
  -4  10   0 130.478 33.5747  17
   4  10   0 9.95617 27.9088  12
   4 -10   1 1046.29 113.742  10
  -4  10  -1 1044.97 97.5369  17
  -4  10  -2 385.919 56.9970  17
   4 -11  -5 229.659 48.2714  10
  -4  11   5 278.294 46.4336  18
   4  11  -5 224.812 47.1376  12
   4 -11  -4-2.19259 22.4054  10
  -4  11   4 39.8995 27.6402  18
   4  11  -4 23.6181 22.0584  12
   4 -11  -3 1493.42 134.395  10
  -4  11   3 1746.15 122.034  18
   4  11  -3 1428.10 122.036  12
   4 -11  -2 2680.64 182.455  10
  -4  11   2 2439.21 136.428  18
   4  11  -2 2525.17 160.786  12
   4 -11  -1 173.221 50.9352  10
   4  11  -1 130.398 40.5480  12
   4 -11   0 111.014 40.5366  10
   4  11   0 44.4118 22.6091  12
   4 -12  -3 2311.60 140.346  10
   4  12  -3 1653.51 114.422  12
   4 -12  -2-20.5352 21.0413  10
   4  12  -2-4.30568 18.3712  12
   5   0  -4 16.2480 22.1376   3
  -5   0   3-2.50797 15.6887   9
   5   0  -3 20.1282 25.0186   3
  -5   0   2 523.948 65.6237   9
   5   0  -2 669.183 90.2269   3
  -5   0   1-4.21173 22.5358   9
   5   0  -1 14.8829 22.0662   3
   5   0   0 15079.1 379.649   3
  -5   0   0 15133.5 322.943   9
   5   1  -4-20.8980 23.2570   3
   5  -1  -4 108.202 39.0738   3
   5   1  -3 2979.46 179.220   3
   5  -1  -3 2895.99 180.532   3
  -5   1   2 53.1139 22.0968   9
  -5  -1   2 54.5984 29.3415   9
   5   1  -2 57.3363 34.4300   3
   5  -1  -2 61.1525 32.8439   3
  -5   1   1 24.0213 16.6262   9
  -5  -1   1 54.5321 27.9353   9
   5   1  -1 53.5530 27.9120   3
   5  -1  -1 11.3206 24.9069   3
  -5  -1   0 64.8801 24.0804   9
   5   1   0 58.3303 27.6636   3
   5  -1   0 42.1558 26.6841   3
  -5  -2   4-8.75669 21.0542   9
   5  -2  -4 78.4926 33.0830   3
   5  -2  -3 585.042 82.0715   3
  -5  -2   3 474.355 64.5035   9
  -5  -2   2 20.4784 21.2006   9
   5  -2  -2 48.9294 30.3375   3
   5  -2  -1 413.011 68.5213   3
  -5  -2   1 429.615 60.8791   9
   5   2  -1 353.388 62.3273   3
  -5  -2   0 96.8432 28.2921   9
  -5  -3   3 73.0810 29.4828   9
  -5  -3   2 432.852 60.7864   9
   5  -3  -2 307.734 55.4926   3
  -5  -3   1 67.8912 27.3673   9
  -5  -4   2-14.7934 21.4378   9
   0   0   0    0.00    0.00   0

TITL RH074 in P2(1)/c
REM P2(1)/c (#14 in standard setting)
CELL 1.54184   4.076729  15.807339  10.354880  90.0000  99.7864  90.0000
ZERR    4.00   0.000255   0.000976   0.000682   0.0000   0.0064   0.0000
LATT  1
SYMM -x, y+1/2,-z+1/2
SFAC C H N O
UNIT 40.00 40.00 8.00 8.00
TREF
HKLF 4
END
;
_shelx_hkl_checksum              15794
_olex2_exptl_crystal_mounting_method 'mounted on a nylon loop'
_olex2_submission_special_instructions 'No special instructions were received'
_oxdiff_exptl_absorpt_empirical_details
;
Empirical correction (ABSPACK) includes:
- Absorption correction using spherical harmonics
- Frame scaling
- Detector area scaling
;
_oxdiff_exptl_absorpt_empirical_full_max 2.463
_oxdiff_exptl_absorpt_empirical_full_min 0.706
loop_
_space_group_symop_operation_xyz
'x, y, z'
'-x, y+1/2, -z+1/2'
'-x, -y, -z'
'x, -y-1/2, z-1/2'
loop_
_atom_site_label
_atom_site_type_symbol
_atom_site_fract_x
_atom_site_fract_y
_atom_site_fract_z
_atom_site_U_iso_or_equiv
_atom_site_adp_type
_atom_site_occupancy
_atom_site_site_symmetry_order
_atom_site_calc_flag
_atom_site_refinement_flags_posn
_atom_site_refinement_flags_adp
_atom_site_refinement_flags_occupancy
_atom_site_disorder_assembly
_atom_site_disorder_group
O1 O 0.1044(3) 0.45390(6) 0.85096(10) 0.0254(3) Uani 1 1 d . . . . .
N1 N -0.0685(3) 0.54502(7) 0.68488(12) 0.0214(3) Uani 1 1 d . . . . .
C1 C 0.0976(3) 0.53318(8) 0.79890(14) 0.0190(3) Uani 1 1 d . . . . .
C2 C -0.0980(4) 0.40125(9) 0.75344(13) 0.0226(4) Uani 1 1 d . . . . .
H2A H -0.2879 0.3765 0.7885 0.027 Uiso 1 1 calc R . . . .
H2B H 0.0358 0.3550 0.7242 0.027 Uiso 1 1 calc R . . . .
C3 C -0.2191(4) 0.46273(9) 0.64072(14) 0.0217(4) Uani 1 1 d . . . . .
H3A H -0.1444 0.4441 0.5592 0.026 Uiso 1 1 calc R . . . .
H3B H -0.4651 0.4666 0.6244 0.026 Uiso 1 1 calc R . . . .
C4 C 0.2887(4) 0.59658(9) 0.88724(14) 0.0226(4) Uani 1 1 d . . . . .
H4A H 0.5113 0.5731 0.9220 0.027 Uiso 1 1 calc R . . . .
H4B H 0.1729 0.6067 0.9625 0.027 Uiso 1 1 calc R . . . .
C5 C 0.3314(4) 0.68072(9) 0.82017(14) 0.0226(4) Uani 1 1 d . . . . .
H5A H 0.4507 0.6712 0.7458 0.027 Uiso 1 1 calc R . . . .
H5B H 0.1096 0.7045 0.7849 0.027 Uiso 1 1 calc R . . . .
C6 C 0.5185(4) 0.74144(9) 0.91179(14) 0.0231(4) Uani 1 1 d . . . . .
C7 C 0.6693(4) 0.78980(9) 0.98751(15) 0.0254(4) Uani 1 1 d . . . . .
H7 H 0.7898 0.8284 1.0480 0.030 Uiso 1 1 calc R . . . .
loop_
_atom_site_aniso_label
_atom_site_aniso_U_11
_atom_site_aniso_U_22
_atom_site_aniso_U_33
_atom_site_aniso_U_23
_atom_site_aniso_U_13
_atom_site_aniso_U_12
O1 0.0337(6) 0.0203(5) 0.0193(6) 0.0032(4) -0.0041(4) -0.0041(4)
N1 0.0249(6) 0.0207(6) 0.0173(6) 0.0000(4) -0.0001(5) 0.0003(4)
C1 0.0206(7) 0.0191(7) 0.0176(7) 0.0019(5) 0.0039(5) 0.0012(5)
C2 0.0274(7) 0.0208(7) 0.0185(7) -0.0016(5) 0.0012(6) -0.0031(5)
C3 0.0235(7) 0.0227(7) 0.0182(7) -0.0016(5) 0.0016(5) -0.0014(5)
C4 0.0252(7) 0.0241(7) 0.0173(7) 0.0009(5) 0.0004(5) -0.0031(5)
C5 0.0265(7) 0.0216(7) 0.0189(7) -0.0008(5) 0.0015(5) -0.0013(5)
C6 0.0252(7) 0.0225(7) 0.0218(7) 0.0031(6) 0.0042(6) 0.0010(5)
C7 0.0279(8) 0.0252(7) 0.0223(7) -0.0005(5) 0.0022(6) -0.0033(5)
loop_
_atom_type_symbol
_atom_type_description
_atom_type_scat_dispersion_real
_atom_type_scat_dispersion_imag
_atom_type_scat_source
C C 0.0181 0.0091 'International Tables Vol C Tables 4.2.6.8 and 6.1.1.4'
H H 0.0000 0.0000 'International Tables Vol C Tables 4.2.6.8 and 6.1.1.4'
N N 0.0311 0.0180 'International Tables Vol C Tables 4.2.6.8 and 6.1.1.4'
O O 0.0492 0.0322 'International Tables Vol C Tables 4.2.6.8 and 6.1.1.4'
loop_
_exptl_crystal_face_index_h
_exptl_crystal_face_index_k
_exptl_crystal_face_index_l
_exptl_crystal_face_perp_dist
1 -7 -4 0.0689
0 -6 5 0.0752
-2 5 3 0.0482
-2 2 6 0.0395
-1 8 4 0.0203
0 2 -7 0.0916
-1 10 -1 0.0550
-1 1 7 0.0469
2 -1 -6 0.0569
2 -3 -4 0.0572
2 6 -3 0.0423
1 4 5 0.0561
0 -8 -4 0.0816
0 -10 -2 0.0837
-3 -1 3 0.0623
3 1 -3 0.0491
-1 -7 -3 0.0974
loop_
_geom_angle_atom_site_label_1
_geom_angle_atom_site_label_2
_geom_angle_atom_site_label_3
_geom_angle
_geom_angle_site_symmetry_1
_geom_angle_site_symmetry_3
_geom_angle_publ_flag
C1 O1 C2 106.32(10) . . ?
C1 N1 C3 106.60(11) . . ?
O1 C1 C4 113.81(12) . . ?
N1 C1 O1 118.33(12) . . ?
N1 C1 C4 127.85(13) . . ?
O1 C2 C3 103.73(11) . . ?
N1 C3 C2 105.02(11) . . ?
C1 C4 C5 113.38(11) . . ?
C6 C5 C4 111.28(11) . . ?
C7 C6 C5 178.99(15) . . ?
loop_
_geom_bond_atom_site_label_1
_geom_bond_atom_site_label_2
_geom_bond_distance
_geom_bond_site_symmetry_2
_geom_bond_publ_flag
O1 C1 1.3627(16) . ?
O1 C2 1.4525(16) . ?
N1 C1 1.2713(19) . ?
N1 C3 1.4775(18) . ?
C1 C4 1.4850(19) . ?
C2 C3 1.5345(19) . ?
C4 C5 1.5241(19) . ?
C5 C6 1.4687(19) . ?
C6 C7 1.189(2) . ?
loop_
_exptl_oxdiff_crystal_face_indexfrac_h
_exptl_oxdiff_crystal_face_indexfrac_k
_exptl_oxdiff_crystal_face_indexfrac_l
_exptl_oxdiff_crystal_face_x
_exptl_oxdiff_crystal_face_y
_exptl_oxdiff_crystal_face_z
1.0013 -7.0008 -4.0020 -0.8039 0.3654 -0.3481
0.0010 -5.9919 4.9902 -0.3048 0.1535 0.8889
-2.0016 4.9976 2.9993 0.9183 0.0884 0.2539
-2.0011 2.0023 5.9940 0.7752 0.1416 0.7694
-1.0014 8.0006 4.0030 0.8702 -0.4302 0.3184
-0.0005 1.9903 -6.9925 0.0024 0.2001 -1.0540
-1.0019 9.9935 -0.9911 0.9098 -0.3243 -0.4515
-1.0004 1.0064 6.9938 0.4620 -0.1176 0.9530
2.0010 -1.0026 -5.9930 -0.7089 -0.2064 -0.7992
2.0013 -2.9994 -3.9965 -0.8043 -0.1710 -0.4555
2.0002 5.9994 -2.9886 -0.1891 -0.8016 -0.5814
1.0002 4.0079 5.0015 0.0926 -0.7719 0.6029
0.0009 -8.0030 -4.0046 -0.6047 0.7072 -0.3301
0.0012 -9.9999 -2.0081 -0.7001 0.7426 0.0136
-3.0014 -1.0033 2.9919 0.7861 0.7544 0.4209
3.0014 1.0033 -2.9919 -0.7861 -0.7544 -0.4209
-0.9998 -7.0045 -3.0060 -0.2543 0.8722 -0.2295
