#------------------------------------------------------------------------------
#$Date: 2020-01-31 02:29:04 +0200 (Fri, 31 Jan 2020) $
#$Revision: 247393 $
#$URL: file:///home/coder/svn-repositories/cod/cif/1/55/71/1557193.cif $
#------------------------------------------------------------------------------
#
# This file is available in the Crystallography Open Database (COD),
# http://www.crystallography.net/
#
# All data on this site have been placed in the public domain by the
# contributors.
#
data_1557193
loop_
_publ_author_name
'Shibuya, Yusuke'
'Aonuma, Kazuhiro'
'Kimura, Tomohiro'
'Kaneko, Takuro'
'Fujiwara, Wataru'
'Yamaguchi, Yuji'
'Kumaki, Daisuke'
'Tokito, Shizuo'
'Katagiri, Hiroshi'
_publ_section_title
;
 Linear Biazulene Isomers: Effects of Molecular and Packing Structure on
 Optoelectronic and Charge-Transport Properties
;
_journal_name_full               'The Journal of Physical Chemistry C'
_journal_paper_doi               10.1021/acs.jpcc.9b11214
_journal_year                    2020
_chemical_formula_moiety         'C20 H14'
_chemical_formula_sum            'C20 H14'
_chemical_formula_weight         254.31
_space_group_crystal_system      monoclinic
_space_group_IT_number           14
_space_group_name_Hall           '-P 2ybc'
_space_group_name_H-M_alt        'P 1 21/c 1'
_atom_sites_solution_hydrogens   geom
_atom_sites_solution_primary     direct
_atom_sites_solution_secondary   difmap
_audit_creation_method           SHELXL-2014/7
_cell_angle_alpha                90
_cell_angle_beta                 92.837(3)
_cell_angle_gamma                90
_cell_formula_units_Z            2
_cell_length_a                   14.0565(7)
_cell_length_b                   5.9201(3)
_cell_length_c                   7.8474(4)
_cell_measurement_reflns_used    3891
_cell_measurement_temperature    296
_cell_measurement_theta_max      67.87
_cell_measurement_theta_min      3.15
_cell_volume                     652.23(6)
_computing_cell_refinement       'PROCESS-AUTO (Rigaku, 1998)'
_computing_data_collection       'PROCESS-AUTO (Rigaku, 1998)'
_computing_data_reduction        'PROCESS-AUTO (Rigaku, 1998)'
_computing_molecular_graphics    'ORTEP-3 for Windows (Farrugia, 2012)'
_computing_publication_material  'Yadokari-XG (Wakita, Nemoto et al., 2009)'
_computing_structure_refinement  'SHELXL-2014/7 (Sheldrick, 2014)'
_computing_structure_solution    'SHELXT 2014/5 (Sheldrick, 2014)'
_diffrn_ambient_temperature      296
_diffrn_measured_fraction_theta_full 1.000
_diffrn_measured_fraction_theta_max 0.999
_diffrn_measurement_device_type  'Rigaku RAXIS-RAPID'
_diffrn_measurement_method       \w
_diffrn_radiation_type           CuK\a
_diffrn_radiation_wavelength     1.54187
_diffrn_reflns_av_R_equivalents  0.0983
_diffrn_reflns_av_unetI/netI     0.0740
_diffrn_reflns_Laue_measured_fraction_full 1.000
_diffrn_reflns_Laue_measured_fraction_max 0.999
_diffrn_reflns_limit_h_max       16
_diffrn_reflns_limit_h_min       -16
_diffrn_reflns_limit_k_max       7
_diffrn_reflns_limit_k_min       -7
_diffrn_reflns_limit_l_max       9
_diffrn_reflns_limit_l_min       -9
_diffrn_reflns_number            11264
_diffrn_reflns_point_group_measured_fraction_full 1.000
_diffrn_reflns_point_group_measured_fraction_max 0.999
_diffrn_reflns_theta_full        67.687
_diffrn_reflns_theta_max         68.222
_diffrn_reflns_theta_min         3.148
_diffrn_source                   'rotating anode'
_exptl_absorpt_coefficient_mu    0.554
_exptl_absorpt_correction_T_max  1.0000
_exptl_absorpt_correction_T_min  0.7333
_exptl_absorpt_correction_type   multi-scan
_exptl_absorpt_process_details   '(ABSCOR; Higashi, 1995)'
_exptl_crystal_colour            Blue
_exptl_crystal_density_diffrn    1.295
_exptl_crystal_description       Platelet
_exptl_crystal_F_000             268
_exptl_crystal_size_max          0.130
_exptl_crystal_size_mid          0.090
_exptl_crystal_size_min          0.030
_refine_diff_density_max         0.195
_refine_diff_density_min         -0.210
_refine_diff_density_rms         0.058
_refine_ls_extinction_method     none
_refine_ls_goodness_of_fit_ref   0.905
_refine_ls_hydrogen_treatment    constr
_refine_ls_matrix_type           full
_refine_ls_number_parameters     181
_refine_ls_number_reflns         1191
_refine_ls_number_restraints     138
_refine_ls_restrained_S_all      0.867
_refine_ls_R_factor_all          0.1901
_refine_ls_R_factor_gt           0.0958
_refine_ls_shift/su_max          0.000
_refine_ls_shift/su_mean         0.000
_refine_ls_structure_factor_coef Fsqd
_refine_ls_weighting_details
'w=1/[\s^2^(Fo^2^)+(0.1980P)^2^] where P=(Fo^2^+2Fc^2^)/3'
_refine_ls_weighting_scheme      calc
_refine_ls_wR_factor_gt          0.2527
_refine_ls_wR_factor_ref         0.3442
_reflns_Friedel_coverage         0.000
_reflns_number_gt                413
_reflns_number_total             1191
_reflns_threshold_expression     'I > 2\s(I)'
_cod_data_source_file            jp9b11214_si_002.cif
_cod_data_source_block           BiAz1_a
_cod_original_sg_symbol_H-M      'P 21/c'
_cod_database_code               1557193
_shelx_shelxl_version_number     2014/7
_shelx_space_group_comment
;
The symmetry employed for this shelxl refinement is uniquely defined
by the following loop, which should always be used as a source of
symmetry information in preference to the above space-group names.
They are only intended as comments.
;
_shelx_estimated_absorpt_t_min   0.931
_shelx_estimated_absorpt_t_max   0.984
_exptl_absorpt_special_details
; 
 Higashi, T. (1995). Program for Absorption Correction.
 Rigaku Corporation, Tokyo, Japan. 
;
_shelx_res_file
;

    BiAz1_a.res created by SHELXL-2014/7

TITL BiAz1_a.res in P2(1)/c
REM  Yadorkari-X generated
CELL 1.54187 14.0565 5.9201 7.8474 90.0000 92.8370 90.0000
ZERR 2.0 0.0007 0.0003 0.0004 0.0000 0.0030 0.0000
LATT 1
SYMM -X, 1/2+Y, 1/2-Z
REM  SPGR P21/c monoclinic
SFAC C H
UNIT 40 28
SIZE 0.13 0.09 0.03
TEMP 23.0
L.S. 30
FMAP 2
PLAN -20
ACTA
CONF
LIST 4
BOND $H

SIMU 0.007 0.014 1.7

WGHT    0.198000
FVAR       0.95547
PART -1
C1A   1    0.148452    0.668797    0.739671    10.50000    0.08223    0.06708 =
         0.07870    0.00224    0.00321   -0.00618
AFIX  43
H1A   2    0.134321    0.792601    0.806846    10.50000   -1.20000
AFIX   0
C2A   1    0.086190    0.488896    0.688837    10.50000    0.08531    0.06551 =
         0.08670    0.00763    0.00866   -0.01649
AFIX  43
H2A   2    0.022024    0.490399    0.712568    10.50000   -1.20000
AFIX   0
C3A   1    0.126783    0.308339    0.600679    10.50000    0.08229    0.06253 =
         0.08405    0.00768    0.00777   -0.01354
AFIX  43
H3A   2    0.099635    0.172306    0.564298    10.50000   -1.20000
AFIX   0
C4A   1    0.293673    0.273625    0.504748    10.50000    0.09316    0.06258 =
         0.07211   -0.00064    0.00182   -0.00679
AFIX  43
H4A   2    0.271640    0.134644    0.464092    10.50000   -1.20000
AFIX   0
C5A   1    0.381986    0.307755    0.475592    10.50000    0.08976    0.05382 =
         0.06789   -0.00086   -0.00097   -0.00936
AFIX  43
H5A   2    0.409939    0.195046    0.412388    10.50000   -1.20000
AFIX   0
C6A   1    0.444947    0.493343    0.525278    10.50000    0.08686    0.05877 =
         0.06392   -0.00064   -0.00102   -0.00336
C7A   1    0.410114    0.692117    0.606627    10.50000    0.08541    0.06356 =
         0.07183   -0.00018   -0.00134   -0.00187
AFIX  43
H7A   2    0.453122    0.811568    0.612476    10.50000   -1.20000
AFIX   0
C8A   1    0.324606    0.737656    0.677448    10.50000    0.08229    0.07116 =
         0.07077   -0.00149   -0.00066   -0.00965
AFIX  43
H8A   2    0.323212    0.867283    0.744224    10.50000   -1.20000
AFIX   0
C9A   1    0.241209    0.617784    0.662873    10.50000    0.08720    0.06469 =
         0.07512    0.00383    0.00074   -0.00607
C10A  1    0.224808    0.395028    0.581862    10.50000    0.08770    0.06099 =
         0.07702    0.00441    0.00147   -0.01153
C11A  1    0.606025    0.665427    0.510399    10.50000    0.08652    0.06552 =
         0.06694   -0.00296   -0.00116   -0.00474
AFIX  43
H11A  2    0.591254    0.798950    0.565656    10.50000   -1.20000
AFIX   0
C12A  1    0.544118    0.494787    0.475699    10.50000    0.08796    0.06197 =
         0.06084   -0.00119   -0.00322   -0.00487
C13A  1    0.585516    0.332077    0.374511    10.50000    0.08957    0.06672 =
         0.06443    0.00309   -0.00245   -0.00117
AFIX  43
H13A  2    0.554901    0.209077    0.322455    10.50000   -1.20000
AFIX   0
C14A  1    0.750430    0.263959    0.287789    10.50000    0.08979    0.07133 =
         0.07195    0.00640    0.00686   -0.00198
AFIX  43
H14A  2    0.725834    0.135665    0.233254    10.50000   -1.20000
AFIX   0
C15A  1    0.839134    0.286877    0.274640    10.50000    0.08758    0.06598 =
         0.07838    0.01078    0.01118   -0.00717
AFIX  43
H15A  2    0.868309    0.166181    0.222185    10.50000   -1.20000
AFIX   0
C16A  1    0.898903    0.455550    0.323294    10.50000    0.09147    0.07344 =
         0.08440    0.01067    0.00853   -0.01484
AFIX  43
H16A  2    0.962351    0.446286    0.295581    10.50000   -1.20000
AFIX   0
C17A  1    0.869414    0.641506    0.412725    10.50000    0.08833    0.07125 =
         0.08073    0.01143    0.00090   -0.01819
AFIX  43
H17A  2    0.920488    0.734035    0.445938    10.50000   -1.20000
AFIX   0
C18A  1    0.783389    0.728346    0.466891    10.50000    0.09129    0.06431 =
         0.07560    0.00717   -0.00398   -0.02387
AFIX  43
H18A  2    0.783057    0.870794    0.516821    10.50000   -1.20000
AFIX   0
C19A  1    0.699176    0.609764    0.448686    10.50000    0.09011    0.06353 =
         0.06755    0.00291   -0.00301   -0.01275
C20A  1    0.682731    0.389195    0.365923    10.50000    0.09014    0.06537 =
         0.06887    0.00457   -0.00143   -0.00410
PART 0

HKLF 4 1 1 0 0 0 1 0 0 0 1

REM  BiAz1_a.res in P2(1)/c
REM R1 =  0.0958 for     413 Fo > 4sig(Fo)  and  0.1901 for all    1191 data
REM    181 parameters refined using    138 restraints

END

WGHT      0.1980      0.0000

REM Highest difference peak  0.195,  deepest hole -0.210,  1-sigma level  0.058
Q1    1   0.4538  0.8989  0.5002  11.00000  0.05    0.17
Q2    1   0.0802  0.8671  0.6515  11.00000  0.05    0.17
Q3    1  -0.0073  0.4983  0.7478  11.00000  0.05    0.16
Q4    1   0.4772  1.1370  0.6592  11.00000  0.05    0.16
Q5    1   0.0000  1.0000  0.5000  10.50000  0.05    0.15
Q6    1   0.0799  0.8385  0.5163  11.00000  0.05    0.15
Q7    1   0.4578  0.2213  0.2606  11.00000  0.05    0.15
Q8    1   0.8405  0.7821  0.6420  11.00000  0.05    0.15
Q9    1   0.4083  0.6712  0.8307  11.00000  0.05    0.15
Q10   1   0.2464  0.7721  0.4473  11.00000  0.05    0.14
Q11   1   0.1984  0.4018  0.3675  11.00000  0.05    0.14
Q12   1   0.3570  0.0850  0.3086  11.00000  0.05    0.14
Q13   1   0.2176  0.2582  0.7712  11.00000  0.05    0.14
Q14   1   0.0635  0.7860  0.8034  11.00000  0.05    0.14
Q15   1   0.0627  0.1814  0.5254  11.00000  0.05    0.14
Q16   1  -0.0184  0.5130  0.5652  11.00000  0.05    0.14
Q17   1   0.4614  0.1130  0.5430  11.00000  0.05    0.13
Q18   1   0.0000  0.5000  0.5000  10.50000  0.05    0.13
Q19   1   0.4742  0.8693  0.6658  11.00000  0.05    0.13
Q20   1   0.3387  0.6071  0.8660  11.00000  0.05    0.13
;
_shelx_res_checksum              55281
_shelx_hkl_file
;
   1   0   0  426.50   25.75
   1   0   0  412.72   25.51
   1   0   0  403.81   25.12
   1   0   0  388.38   18.25
   1   0   0  437.74   18.21
   1   0   0  391.38   27.98
   1   0   0  421.19   21.23
  -1   0   0  378.30   19.79
  -1   0   0  363.75   17.50
  -1   0   0  386.17   17.35
  -1   0   0  375.37   17.47
  -1   0   0  386.72   19.23
  -1   0   0  408.99   24.19
  -1   0   0  411.12   30.97
  -1   0   0  369.45   20.66
  -1   0   0  392.28   17.48
   2   0   0 1468.73  104.21
   2   0   0 1404.96  135.80
   2   0   0 1266.73  109.90
   2   0   0 1295.28   86.68
   2   0   0 1500.88   97.07
  -2   0   0 1366.91  100.30
  -2   0   0 1247.63   84.99
  -2   0   0 1307.95  102.80
  -2   0   0 1322.45   89.02
  -2   0   0 1310.26   99.68
  -2   0   0 1297.09   85.10
  -2   0   0 1287.70   92.91
  -2   0   0 1356.30   99.40
   3   0   0  175.33   22.50
   3   0   0  176.04   30.49
   3   0   0  159.42   21.75
   3   0   0  181.74   25.28
   3   0   0  181.33   32.20
  -3   0   0  165.90   40.03
  -3   0   0  150.83   25.92
  -3   0   0  178.15   30.21
  -3   0   0  168.65   31.68
  -3   0   0  179.42   26.00
  -3   0   0  163.87   32.75
  -3   0   0  152.56   17.44
  -3   0   0  167.32   32.60
  -3   0   0  184.18   25.58
   4   0   0  755.83   63.12
   4   0   0  725.19   73.36
   4   0   0  715.20   59.76
   4   0   0  662.13   55.14
   4   0   0  762.24   77.62
  -4   0   0  645.48   74.22
  -4   0   0  744.43   97.54
  -4   0   0  655.20   63.04
  -4   0   0  706.74   71.87
  -4   0   0  673.43   85.00
  -4   0   0  633.26   75.43
  -4   0   0  684.41   76.52
  -4   0   0  666.85   46.14
   5   0   0   47.50   12.41
   5   0   0   46.93   19.22
   5   0   0   34.63   16.97
   5   0   0   44.74   13.45
   5   0   0   44.45   15.44
  -5   0   0   -1.69   12.91
  -5   0   0   37.45    9.82
  -5   0   0   39.45   11.01
  -5   0   0   43.18   14.68
  -5   0   0   -0.77   16.76
  -5   0   0   42.81    9.28
  -5   0   0   45.90   15.78
  -5   0   0   -0.81   13.54
   6   0   0  521.30   82.32
   6   0   0  561.64   45.88
   6   0   0  532.51   38.44
   6   0   0  527.20   53.70
   6   0   0  533.40   60.17
   6   0   0  507.08   46.55
  -6   0   0  515.21   44.05
  -6   0   0  526.89   52.41
  -6   0   0  453.76   38.73
  -6   0   0  477.67   40.59
  -6   0   0  554.06   83.26
  -6   0   0  533.87   98.51
  -6   0   0  530.76   56.68
  -6   0   0  490.78   36.08
   7   0   0  381.55   40.16
   7   0   0  358.15   34.88
   7   0   0  343.45   24.47
   7   0   0  339.13   41.40
   7   0   0  378.85   58.83
   7   0   0  359.31   29.27
  -7   0   0  276.28   17.79
  -7   0   0  354.49   60.60
  -7   0   0  321.74   27.38
  -7   0   0  352.32   32.35
  -7   0   0  333.67   38.06
  -7   0   0  380.91   68.69
  -7   0   0  371.56   38.06
  -7   0   0  328.47   24.03
  -7   0   0  389.56   49.90
   8   0   0    2.18    2.88
   8   0   0    0.85    1.97
   8   0   0    1.42    5.38
   8   0   0    1.58    4.34
   8   0   0    2.84    2.82
   8   0   0   -0.05    4.57
  -8   0   0    1.98    6.98
  -8   0   0    0.94    2.17
  -8   0   0    1.75    5.48
  -8   0   0    0.69    3.35
  -8   0   0    0.05    4.19
  -8   0   0    1.34    5.12
  -8   0   0    5.53    6.07
  -8   0   0    5.12   10.99
   9   0   0   60.96    8.47
   9   0   0   79.26   16.29
   9   0   0   62.95   13.56
   9   0   0   69.43    8.80
   9   0   0   69.03   20.86
  -9   0   0   77.77   22.95
  -9   0   0   72.90   14.33
  -9   0   0   81.67   17.17
  -9   0   0   76.91   20.01
  -9   0   0   67.84   16.62
  -9   0   0   73.01   21.20
  10   0   0    7.71    8.23
  10   0   0    5.48    3.38
 -10   0   0    8.83    7.70
 -10   0   0   10.06    9.02
 -10   0   0    0.01   10.25
 -10   0   0    5.87    4.23
  11   0   0   69.91   11.77
 -11   0   0    1.02   28.94
 -11   0   0   52.31    9.01
 -11   0   0   88.37   14.07
 -11   0   0   87.23   20.22
  12   0   0   -0.08    2.56
 -12   0   0    0.21   10.61
 -12   0   0   -0.33   12.89
 -12   0   0    4.04    5.43
  13   0   0   44.62   10.23
 -13   0   0   55.12   16.36
 -13   0   0   49.85   15.63
 -13   0   0   59.15   13.60
  14   0   0   -1.82    6.46
 -14   0   0    0.18    8.13
 -14   0   0   -0.59    5.78
 -14   0   0    5.23    5.61
  15   0   0    0.30    2.23
 -15   0   0    4.57    4.99
 -15   0   0   -0.33    4.21
 -15   0   0    0.83    4.90
  16   0   0    4.42    3.12
  16   0   0    1.54    4.10
 -16   0   0   -0.63    2.15
 -16   0   0    1.16    2.88
   0   1   0   -0.64    5.93
   0  -1   0   -0.99    3.25
   0   1   0   -1.34    2.37
   0  -1   0   -0.22    2.83
   0  -1   0   -0.85    2.63
   0  -1   0    0.18    1.52
   0  -1   0    2.83    3.42
   0   1   0    1.43    3.29
   0  -1   0   -0.22    2.82
   0   1   0    0.63    5.71
   0   1   0   -0.29    0.84
   0   1   0   -0.01    2.23
   0   1   0    1.37    2.99
   0   1   0   -0.06    1.97
   0  -1   0    2.45    2.43
   0  -1   0    0.61    3.28
   1   1   0    1.70    5.69
   1   1   0    2.82    4.14
   1  -1   0    4.19    5.69
   1   1   0    5.20    5.20
   1  -1   0    1.33    4.63
   1   1   0    4.20    5.40
   1   1   0    2.86    2.71
   1  -1   0    0.48    3.19
   1  -1   0    1.57    8.58
   1   1   0    0.58    5.06
   1   1   0    0.27    3.39
   1  -1   0    2.37    9.55
   1  -1   0    1.39    6.44
  -1  -1   0    4.19    5.37
  -1  -1   0    0.07    9.95
  -1  -1   0   -0.31    5.16
  -1  -1   0    3.41    4.40
  -1   1   0   -2.07    8.34
  -1   1   0   -0.10    9.79
  -1  -1   0    0.03    4.96
  -1   1   0    1.89    4.69
  -1   1   0    2.26    3.39
  -1  -1   0    4.21    5.22
  -1   1   0    3.22   10.31
  -1   1   0   -0.19    7.60
  -1  -1   0    4.39    5.07
  -1  -1   0   -0.34    5.06
  -1   1   0    2.20    2.37
  -1   1   0    2.41    5.32
   2  -1   0   28.34   11.59
   2   1   0   18.48    6.95
   2   1   0   16.66   10.49
   2  -1   0   21.35   20.57
   2   1   0    2.06   23.51
   2  -1   0   20.06   10.82
   2  -1   0   19.75   21.96
   2  -1   0   20.07    9.59
   2   1   0   24.10   10.69
   2   1   0   22.05    9.39
   2   1   0   17.63   19.96
   2  -1   0   24.39    5.14
   2   1   0   -1.11    9.52
   2   1   0   25.89    9.91
   2  -1   0   18.26    8.89
   2   1   0   23.35   11.32
  -2   1   0    0.48   18.19
  -2  -1   0   -1.26   10.86
  -2  -1   0   21.36    6.89
  -2   1   0   22.94    4.39
  -2   1   0   21.26   18.18
  -2  -1   0   20.22    8.04
  -2   1   0   -0.04    8.65
  -2   1   0   23.52   10.19
  -2  -1   0   17.41    8.62
  -2  -1   0   24.58   19.54
  -2   1   0    0.29    4.29
  -2   1   0   21.44    9.44
   3  -1   0    0.03    2.82
   3   1   0   -0.70    2.65
   3  -1   0    0.24    3.34
   3   1   0    2.14    3.76
   3  -1   0    0.33    3.53
   3   1   0    0.77    7.01
   3  -1   0    3.59    7.20
   3  -1   0    0.61    3.87
   3  -1   0   -1.47    4.18
   3   1   0   -0.76    3.63
   3  -1   0    1.75    3.70
   3   1   0    0.96    4.19
   3  -1   0    0.61    5.67
   3   1   0   -1.61    4.39
   3   1   0   -1.65    2.84
   3   1   0    0.32    3.45
  -3  -1   0    0.54    5.14
  -3   1   0    2.95    7.04
  -3   1   0    0.54    9.54
  -3  -1   0   -0.04    4.60
  -3  -1   0    0.73    4.72
  -3   1   0    0.13    4.91
  -3   1   0    0.75    2.30
  -3   1   0   -0.68    2.53
  -3  -1   0   -0.32    3.66
  -3  -1   0    3.76    7.81
  -3  -1   0    0.47    3.46
  -3   1   0   -0.03    4.25
  -3   1   0    2.40    4.74
  -3   1   0   -0.67    3.40
   4  -1   0   38.06   21.03
   4  -1   0   33.36   10.81
   4   1   0    1.87   12.33
   4  -1   0   33.42   13.60
   4   1   0   30.29   12.11
   4   1   0   32.38   14.02
   4  -1   0   35.89   14.17
   4  -1   0   43.98   23.00
   4   1   0   31.66    9.90
   4   1   0   29.42    7.89
   4   1   0   36.46   11.41
   4   1   0   29.36   10.32
   4  -1   0   30.18    9.20
   4   1   0   12.04   14.76
   4   1   0   -1.32   13.55
  -4   1   0    0.45   13.22
  -4   1   0   41.68   29.10
  -4   1   0   -0.50   10.10
  -4   1   0   35.79   10.97
  -4   1   0   32.88   13.28
  -4   1   0    0.62   18.40
  -4  -1   0   27.60   10.21
  -4  -1   0    0.20   14.27
  -4  -1   0   33.79   22.96
  -4   1   0   25.35    2.66
  -4   1   0   37.06   13.79
  -4  -1   0   32.92    7.70
  -4  -1   0   31.54   12.10
   5  -1   0    1.03    5.80
   5  -1   0    1.07    8.30
   5   1   0    3.65    2.29
   5   1   0    1.79    6.20
   5   1   0    2.37    6.17
   5   1   0    0.89    4.46
   5   1   0    2.74    6.93
   5  -1   0    2.34    3.66
   5  -1   0    1.96    4.90
   5   1   0   -1.20    3.72
   5   1   0   -1.03    5.34
   5   1   0    1.73    3.32
   5  -1   0   -0.62    6.38
   5   1   0    0.99    2.98
  -5  -1   0    0.83    3.03
  -5  -1   0    0.39    3.96
  -5  -1   0    0.82    4.68
  -5   1   0    0.48    4.00
  -5  -1   0   -0.32    8.13
  -5   1   0    1.67    4.64
  -5   1   0    0.44    0.66
  -5   1   0   -2.30    4.95
  -5  -1   0    1.06    2.78
  -5   1   0    0.73    6.87
  -5  -1   0    0.85    4.91
  -5  -1   0    1.67    4.92
  -5   1   0    6.84    6.17
  -5   1   0   -0.61    9.03
  -5   1   0   -3.19    4.34
  -5   1   0    0.19    3.37
   6   1   0   36.05    5.22
   6   1   0   38.96    7.74
   6   1   0   56.17   15.56
   6  -1   0   36.28   13.08
   6   1   0   38.64    6.50
   6   1   0   44.10    8.67
   6  -1   0   40.23    7.88
   6   1   0   39.46   12.29
   6  -1   0   40.84   18.53
   6  -1   0   38.69   19.39
   6  -1   0   49.25   14.58
   6   1   0   54.28   16.21
   6   1   0   34.69    7.21
  -6   1   0   47.86   17.00
  -6  -1   0   33.85   21.36
  -6  -1   0   47.58   11.44
  -6   1   0   51.32   22.73
  -6  -1   0   41.84    7.39
  -6   1   0   41.38   11.86
  -6   1   0   43.73   14.68
  -6   1   0   38.51   21.97
  -6  -1   0   -0.02   18.50
  -6  -1   0   -0.09   13.63
  -6   1   0    0.98   11.38
  -6  -1   0   29.03    4.90
  -6   1   0   54.97   13.19
  -6  -1   0   41.67   13.57
  -6   1   0   37.34    7.66
  -6  -1   0   -0.32   16.71
   7  -1   0   90.85   14.21
   7  -1   0   94.79   16.03
   7   1   0   76.59    9.44
   7  -1   0   83.23   22.20
   7  -1   0   91.34   18.84
   7   1   0   97.77   34.02
   7   1   0   65.50    7.46
   7   1   0   66.17    8.66
   7   1   0  112.75   19.93
   7   1   0   88.41   15.38
   7  -1   0   82.27    8.65
   7   1   0   66.99    9.75
  -7  -1   0   91.52   19.17
  -7  -1   0   96.45   22.69
  -7   1   0   81.79   27.42
  -7   1   0   75.29   15.85
  -7  -1   0   95.81   31.59
  -7  -1   0   51.96   10.48
  -7   1   0  103.85   36.93
  -7  -1   0   84.35   15.86
  -7   1   0   67.93   10.51
  -7   1   0   75.89   32.45
  -7  -1   0   78.19   11.64
  -7   1   0   80.21   10.86
  -7   1   0   88.50   15.34
  -7  -1   0   82.29   27.77
  -7  -1   0   84.12    9.32
  -7   1   0   91.17   16.76
   8  -1   0    9.31    7.51
   8  -1   0   17.54    9.09
   8   1   0   11.07    3.55
   8  -1   0    1.01    5.75
   8   1   0   11.74    2.87
   8  -1   0   15.94    5.22
   8   1   0    8.93    5.50
   8  -1   0   13.49    6.32
   8   1   0   18.83    9.01
   8  -1   0   11.51    5.87
   8   1   0   21.30    9.63
   8   1   0   16.16    7.31
   8   1   0    8.75    2.41
  -8  -1   0    6.30    4.15
  -8  -1   0    1.37   10.63
  -8   1   0   14.02    8.87
  -8   1   0   16.47    7.53
  -8  -1   0   14.88   15.12
  -8   1   0    0.03    4.84
  -8  -1   0   11.17   12.55
  -8   1   0    0.17    6.62
  -8  -1   0   10.68    2.77
  -8   1   0   15.09    9.95
  -8  -1   0   -1.01   15.18
  -8   1   0   13.51    6.70
  -8   1   0   13.77    7.12
  -8  -1   0   11.51    4.19
  -8  -1   0    9.14    4.59
  -8  -1   0   12.85   12.30
   9  -1   0   -3.25    3.63
   9  -1   0   -0.60    1.63
   9  -1   0   -0.66    2.28
   9  -1   0   -0.29    2.21
   9   1   0    1.31    3.00
   9   1   0    0.97    5.71
   9  -1   0    0.92    3.64
   9  -1   0    2.00    2.89
   9   1   0    1.73    3.63
  -9  -1   0    0.66    7.12
  -9  -1   0   -0.81    1.17
  -9   1   0    6.54    5.35
  -9   1   0   -3.04    6.28
  -9   1   0    1.25    3.38
  -9  -1   0    0.01    6.45
  -9   1   0    1.91    3.70
  -9  -1   0   -3.11    3.94
  -9   1   0    0.89    4.30
  -9   1   0   -2.99    4.80
  10  -1   0    8.82    4.90
  10   1   0    0.06    6.28
  10  -1   0    6.59    4.49
 -10   1   0    1.29   16.48
 -10   1   0    7.40    7.34
 -10  -1   0    0.10    6.84
 -10   1   0    7.99    6.80
 -10   1   0    5.94    6.29
 -10  -1   0   10.66    7.30
 -10  -1   0    7.75    6.91
  11  -1   0  153.14   18.08
  11  -1   0  144.72   15.36
  11   1   0  185.46   22.69
 -11  -1   0  189.80   28.22
 -11   1   0  216.26   36.13
 -11   1   0  162.80   17.77
 -11  -1   0  163.43   25.41
 -11   1   0  196.59   35.73
 -11  -1   0  196.64   26.69
 -11   1   0  185.30   25.70
  12  -1   0    0.23    3.63
  12   1   0    0.00    6.25
 -12   1   0    0.21    6.06
 -12  -1   0    0.94    4.20
 -12  -1   0    2.69    4.50
 -12  -1   0   -0.72    4.66
 -12   1   0   -0.62    2.67
 -12   1   0   -2.68    3.49
 -12   1   0   -0.18    4.23
  13  -1   0   27.67    6.81
  13   1   0   60.00   12.21
 -13   1   0   37.07    8.61
 -13   1   0   51.30   10.26
 -13   1   0   -3.00   19.07
 -13  -1   0    0.10   15.23
 -13   1   0   46.43   20.11
 -13  -1   0   66.93   14.51
 -13  -1   0   54.19   13.22
  14  -1   0   -0.68    1.79
  14   1   0    0.69    3.38
  14   1   0   -0.02    3.46
 -14   1   0   -1.49    8.07
 -14   1   0    1.48    3.03
 -14   1   0    0.09    3.83
 -14   1   0    0.08    3.53
 -14   1   0   -0.47    3.39
 -14  -1   0    0.03    6.38
 -14  -1   0   -3.86    6.69
  15   1   0    0.24    3.22
  15   1   0    0.82    2.97
 -15   1   0    1.48    3.82
 -15   1   0   -1.36    1.73
 -15   1   0    1.10    1.61
 -15  -1   0    0.41    4.07
 -15  -1   0    0.34    3.59
 -15   1   0   -0.06    2.87
  16   1   0    2.42    2.62
  16   1   0    3.49    3.18
 -16  -1   0    4.01    4.49
 -16   1   0    0.12    4.83
 -16   1   0    0.55    2.20
 -16  -1   0    0.28    4.01
 -16   1   0    0.79    3.92
   0   2   0 1186.12   96.70
   0  -2   0 1235.78   95.83
   0  -2   0 1197.80  134.11
   0  -2   0 1176.21  115.38
   0   2   0 1132.84   52.09
   0   2   0 1134.62   72.04
   0  -2   0 1155.36   97.09
   0   2   0 1137.02  100.94
   0   2   0 1171.82  131.32
   0   2   0 1076.99   93.64
   0  -2   0  996.06   92.54
   0  -2   0 1213.73   90.73
   0   2   0 1221.36   97.15
   0   2   0 1193.30  127.27
   1  -2   0   59.56   16.32
   1   2   0   51.27   26.00
   1  -2   0   44.59   22.33
   1   2   0   50.02   14.01
   1   2   0   40.41    9.02
   1   2   0   42.47    9.74
   1   2   0   44.45    5.46
   1  -2   0   48.00   14.91
   1  -2   0   33.34   15.58
   1   2   0   51.04   14.08
   1  -2   0   51.56   14.93
   1   2   0   44.30   13.22
   1  -2   0   39.43    9.43
   1   2   0   47.36   12.89
  -1  -2   0   52.20   14.27
  -1  -2   0   45.81   12.50
  -1   2   0    0.12   25.07
  -1   2   0   45.69   24.99
  -1  -2   0   44.29   11.70
  -1  -2   0   -0.49   27.80
  -1  -2   0   52.60   13.62
  -1   2   0   40.18    9.45
  -1   2   0   42.60   11.97
  -1   2   0   43.21   13.13
  -1  -2   0   54.54   14.08
  -1  -2   0   41.16   10.13
  -1  -2   0   34.54    4.34
  -1   2   0   42.52   11.53
  -1   2   0   35.63   14.68
   2   2   0  947.34  114.30
   2   2   0  912.50   74.73
   2   2   0  925.23   49.04
   2   2   0  918.13   77.83
   2   2   0  949.16   48.03
   2   2   0  878.94  100.81
   2   2   0  927.60   77.59
   2  -2   0  897.79   70.53
   2   2   0  913.12   68.10
   2  -2   0  875.46   70.61
   2  -2   0  999.92   89.78
   2  -2   0  884.15   72.82
   2  -2   0  932.22   79.65
   2  -2   0  949.30   82.62
   2   2   0 1042.42   64.30
  -2  -2   0  893.86   71.13
  -2   2   0  866.02   66.80
  -2  -2   0  813.78   64.04
  -2   2   0  862.83   78.47
  -2  -2   0  895.52   80.68
  -2  -2   0  907.14   73.81
  -2   2   0  875.67   75.51
  -2  -2   0  851.20   50.94
  -2  -2   0  892.91   70.38
  -2   2   0  873.17   71.55
  -2   2   0  853.57   72.70
  -2  -2   0  949.62   74.39
  -2   2   0  903.00   65.11
   3   2   0   11.14    7.25
   3  -2   0    8.09    8.11
   3  -2   0   13.94   13.83
   3   2   0   13.70    8.40
   3   2   0   13.03    7.11
   3   2   0   -0.06    5.65
   3   2   0   12.70    8.87
   3   2   0    9.26    2.78
   3  -2   0   14.35    8.71
   3  -2   0   15.11   10.36
   3  -2   0   16.95    3.60
   3   2   0    2.27   17.74
   3   2   0   13.43    7.57
   3   2   0   11.81    6.08
   3   2   0    9.36    1.46
   3  -2   0    6.55   11.39
   3  -2   0   12.11    9.35
   3  -2   0   13.94    7.45
  -3  -2   0   14.91    8.85
  -3  -2   0   12.37    6.67
  -3   2   0   -0.23    9.80
  -3   2   0    9.76    1.30
  -3   2   0    0.18    7.47
  -3  -2   0   -2.54    9.84
  -3  -2   0    9.46    4.38
  -3  -2   0   13.83    7.61
  -3   2   0    9.85   15.02
  -3   2   0   11.38   11.87
  -3  -2   0   10.74    6.37
  -3   2   0   12.22   15.10
   4  -2   0  130.09   30.61
   4  -2   0  151.79   25.17
   4  -2   0  128.22   33.24
   4   2   0  145.43   23.80
   4   2   0  137.25   18.49
   4  -2   0  130.57    8.98
   4  -2   0  156.39   22.80
   4   2   0  160.51   23.20
   4   2   0  168.64   26.35
   4   2   0  118.79   18.65
   4  -2   0  170.99   26.07
   4  -2   0  117.92   15.83
   4   2   0  154.85   34.84
   4  -2   0  160.32   23.69
   4   2   0  115.14   13.95
  -4   2   0  139.31   20.58
  -4   2   0  130.48   21.16
  -4  -2   0  133.99   13.77
  -4  -2   0  145.70   40.24
  -4   2   0   96.18   10.17
  -4   2   0  113.49    6.33
  -4  -2   0  135.93   18.98
  -4   2   0  157.97   23.50
  -4  -2   0  141.93   15.41
  -4  -2   0  155.54   24.03
  -4  -2   0  125.57   30.77
  -4   2   0  118.38   16.33
  -4   2   0  116.36   14.86
   5  -2   0  120.07    6.99
   5   2   0  169.37   24.04
   5   2   0  132.81   16.00
   5  -2   0  150.52   23.70
   5   2   0  111.07   11.87
   5  -2   0  134.41   15.91
   5   2   0  167.08   20.71
   5  -2   0  154.78   36.33
   5   2   0  148.93   37.84
   5  -2   0  148.00   19.72
   5  -2   0  121.62   14.38
   5   2   0  160.56   24.25
   5  -2   0  173.22   24.64
   5   2   0  132.50   17.96
  -5  -2   0  141.93   13.48
  -5   2   0  113.32    7.37
  -5   2   0  144.46   19.36
  -5   2   0  166.49   25.27
  -5  -2   0  136.07   18.30
  -5   2   0  146.75   39.28
  -5  -2   0  132.61   15.05
  -5  -2   0  189.03   30.72
  -5  -2   0  134.36   18.57
  -5  -2   0  168.86   24.72
  -5   2   0  139.20   18.15
  -5   2   0  116.42   15.26
   6   2   0   17.33    8.75
   6   2   0    0.00    5.15
   6   2   0   17.11   10.45
   6   2   0   19.21    8.52
   6  -2   0   16.28    4.82
   6  -2   0    8.81    8.85
   6  -2   0   20.42    8.98
   6   2   0   23.51   11.09
   6  -2   0    1.03    7.71
   6   2   0    0.23    3.60
   6  -2   0   23.05    8.33
   6   2   0   23.05    9.13
   6   2   0   19.14    6.61
   6  -2   0   14.49    4.57
  -6   2   0   13.23    2.54
  -6   2   0    9.06    5.82
  -6   2   0   -0.08    6.48
  -6  -2   0   13.37    7.46
  -6   2   0   24.10   11.93
  -6   2   0   10.66    2.81
  -6  -2   0   13.20    6.13
  -6  -2   0   14.79    3.86
  -6  -2   0   22.36   10.24
  -6   2   0   17.53    9.83
  -6  -2   0   15.99    6.13
  -6   2   0    0.18    6.34
   7  -2   0   59.62   14.18
   7   2   0   52.22   13.80
   7  -2   0   48.17   12.19
   7  -2   0   44.62    7.13
   7   2   0   52.27    8.22
   7   2   0   60.41   17.37
   7   2   0   47.56   10.56
   7  -2   0   41.34    5.99
   7   2   0   54.59   22.72
   7   2   0   30.54    5.07
   7   2   0   46.87    7.47
   7  -2   0   51.97   14.29
  -7  -2   0   55.07    8.55
  -7   2   0   38.71    6.76
  -7  -2   0   56.16   12.91
  -7   2   0   58.60   25.18
  -7   2   0   41.91    8.63
  -7   2   0   63.80   18.10
  -7   2   0   32.76    4.64
  -7  -2   0   48.40    9.91
  -7  -2   0   46.24    9.27
  -7   2   0   54.19   10.02
  -7  -2   0   51.39   11.70
  -7   2   0   33.07   14.48
  -7   2   0   -0.28   17.32
   8   2   0   42.46    6.56
   8   2   0   50.69   10.28
   8   2   0   55.91   28.37
   8   2   0   47.44   10.56
   8  -2   0   34.64   19.18
   8   2   0   49.44   13.89
   8  -2   0   57.61   13.83
   8   2   0   58.78   14.14
   8  -2   0   52.92   14.46
   8  -2   0   33.66    8.36
   8  -2   0   40.15    6.64
  -8   2   0   54.00    9.57
  -8   2   0   26.66    4.43
  -8   2   0    0.06   13.04
  -8   2   0   31.17    7.30
  -8   2   0   49.00   12.85
  -8  -2   0   49.23   15.31
  -8   2   0   37.26    9.17
  -8  -2   0   49.23    9.68
  -8   2   0   51.24   28.41
  -8  -2   0   38.96   11.21
  -8  -2   0   41.62    7.05
  -8   2   0   29.91    6.33
   9  -2   0   77.42   13.73
   9   2   0   68.05   12.50
   9   2   0   85.48   16.31
   9  -2   0   46.20    8.72
  -9  -2   0   66.74   15.48
  -9   2   0   85.46   18.06
  -9  -2   0   62.48    8.39
  -9  -2   0   76.69   14.35
  -9   2   0   73.20   13.17
  -9   2   0   59.09   12.03
  -9   2   0   80.95   21.69
  10  -2   0    1.50    3.40
  10  -2   0   -0.41    2.34
  10   2   0    0.04    4.49
  10   2   0    0.92    3.31
 -10  -2   0    0.63    4.54
 -10   2   0   -1.20    5.49
 -10   2   0   -0.19    6.40
 -10   2   0    2.12    5.01
 -10  -2   0   -0.10    4.09
 -10  -2   0   -1.87    2.84
  11  -2   0   90.91   22.22
  11  -2   0   61.59    9.81
  11   2   0   71.05   14.08
  11   2   0   98.16   18.22
 -11   2   0   92.14   27.13
 -11  -2   0   93.88   18.10
 -11   2   0   74.02   14.56
 -11  -2   0   90.61   31.79
 -11   2   0   88.42   33.70
  12   2   0    0.20    5.03
  12  -2   0    0.73    3.19
  12   2   0    1.68    3.94
 -12  -2   0    1.82   12.27
 -12   2   0    3.53    4.84
 -12   2   0    0.24   15.90
 -12  -2   0   -0.96    6.32
 -12   2   0    7.38    6.64
  13   2   0    0.13    3.94
  13   2   0   -3.34    5.07
 -13  -2   0    3.09    5.84
 -13   2   0    2.45    6.31
 -13   2   0    0.45    7.69
 -13   2   0   -0.49    5.14
 -13  -2   0    0.19    9.17
  14   2   0   -1.29    5.96
  14   2   0    0.00    2.80
 -14  -2   0    0.21    6.80
 -14   2   0   -3.62    5.81
 -14   2   0   -7.05    3.98
 -14   2   0    1.52    9.37
 -14  -2   0   -5.09    7.54
  15   2   0   -0.97    3.81
  15   2   0    4.76    4.89
 -15  -2   0    6.43    6.91
 -15   2   0    2.72    8.25
 -15  -2   0    6.36    6.39
 -15   2   0   -1.87   12.26
  16   2   0   -1.17    2.34
 -16  -2   0   -1.54    3.36
 -16   2   0    2.59    3.26
 -16  -2   0    0.08    6.34
   0  -3   0    0.01    1.90
   0   3   0    2.06    3.17
   0   3   0    1.35    3.16
   0   3   0    0.23    1.64
   0  -3   0    0.86    5.05
   0  -3   0   -1.93    3.96
   0  -3   0    2.37    6.90
   0   3   0   -1.77    6.90
   0  -3   0   -2.55    3.36
   0   3   0    3.40    3.57
   0   3   0   -0.10    1.66
   0   3   0   -1.34    2.44
   0  -3   0    1.30    2.68
   1  -3   0    8.61    6.87
   1  -3   0    2.01    5.86
   1   3   0    2.48    6.54
   1  -3   0    4.66    3.95
   1  -3   0    4.68    3.82
   1  -3   0    3.66    4.76
   1   3   0    3.69    2.91
   1   3   0    4.24    2.20
   1   3   0    1.87   10.24
   1   3   0    3.94    8.52
   1   3   0    6.47    6.00
   1   3   0    4.57    5.23
   1  -3   0    6.39    6.57
  -1  -3   0    5.12    8.36
  -1   3   0    2.64    5.86
  -1   3   0    1.88    4.37
  -1   3   0    0.21    6.49
  -1   3   0    4.14    5.72
  -1   3   0    0.38    7.76
  -1  -3   0    4.67    6.32
  -1  -3   0    4.30    4.91
  -1  -3   0    3.31    5.54
  -1   3   0    6.54    5.55
  -1  -3   0    3.48    5.72
  -1  -3   0    0.33    5.36
  -1   3   0    5.25    5.93
   2  -3   0   -1.75    2.33
   2   3   0    0.55    3.79
   2   3   0    3.53    4.88
   2  -3   0    2.64    3.97
   2  -3   0   -0.94    6.16
   2   3   0   -0.02    1.05
   2   3   0   -0.40    0.72
   2  -3   0   -2.93    4.08
   2   3   0    1.15    2.15
   2  -3   0    1.30    6.43
   2   3   0    0.97    3.55
   2  -3   0   -0.27    2.11
   2   3   0   -0.88    5.78
   2   3   0    1.28    3.41
  -2  -3   0    3.87    6.03
  -2  -3   0   -0.96    4.01
  -2   3   0   -0.79    4.20
  -2  -3   0   -2.40    3.50
  -2  -3   0   -0.05    2.56
  -2   3   0    4.27    4.25
  -2   3   0   -1.29    1.72
  -2  -3   0   -0.20    1.45
  -2   3   0    1.67    4.88
  -2   3   0   -0.79    2.97
  -2   3   0   -1.35    3.23
   3   3   0    2.92    5.28
   3  -3   0    2.44    6.38
   3  -3   0    5.23    6.77
   3   3   0    3.67    3.84
   3   3   0    0.25   11.83
   3  -3   0    7.62    3.88
   3   3   0    1.21    5.89
   3  -3   0    6.67    5.91
   3   3   0    3.42    5.32
   3   3   0   -0.05    4.16
   3  -3   0    3.32    5.43
   3   3   0   -0.05    6.11
   3  -3   0    4.85    6.53
   3  -3   0    2.77    2.52
  -3  -3   0    2.61    5.29
  -3  -3   0    9.09    5.86
  -3   3   0   -0.60    3.79
  -3   3   0    5.82    4.85
  -3  -3   0    2.05    3.85
  -3   3   0   -0.10    6.54
  -3  -3   0    4.26    3.69
  -3   3   0    3.25    4.38
  -3  -3   0    1.92    1.48
  -3   3   0    3.48    9.77
  -3   3   0    3.01    5.15
   4  -3   0   16.47    6.19
   4  -3   0   14.05    4.57
   4   3   0   -0.17    4.38
   4   3   0   10.40    6.22
   4   3   0   10.40    9.67
   4   3   0    0.17    6.86
   4  -3   0   15.69    7.92
   4   3   0   11.31    7.66
   4   3   0    9.59   10.09
   4  -3   0    1.39    4.87
   4  -3   0    2.61    3.45
   4  -3   0   15.77    7.43
   4   3   0   20.29    7.97
   4  -3   0   13.30   14.61
  -4  -3   0    1.64   21.17
  -4   3   0   14.37    8.22
  -4  -3   0   14.53    7.43
  -4   3   0    9.93    7.23
  -4   3   0    8.72    7.68
  -4  -3   0   12.93    8.75
  -4  -3   0   16.69    9.24
  -4   3   0   14.84    7.81
  -4   3   0    0.18    5.45
  -4  -3   0   10.87    7.85
  -4  -3   0    9.40    4.66
  -4   3   0   11.85    3.56
   5  -3   0    3.30    3.05
   5  -3   0    1.25   10.76
   5   3   0    3.18   10.17
   5  -3   0    7.42    5.79
   5   3   0    6.97    4.53
   5   3   0   -0.51    2.74
   5  -3   0    0.60    5.67
   5   3   0    5.86    4.55
   5   3   0    3.19    5.82
   5  -3   0    2.72    4.03
   5   3   0   -0.17    5.29
   5  -3   0    0.77    3.59
   5   3   0    3.19    6.88
  -5   3   0   -1.29    5.67
  -5  -3   0   -0.35    3.79
  -5  -3   0    5.49    6.79
  -5  -3   0   -0.21    3.66
  -5   3   0    2.35    5.75
  -5  -3   0    6.25    4.99
  -5  -3   0    2.20    8.03
  -5   3   0    0.12    6.00
  -5   3   0    5.55    5.31
  -5   3   0    1.34    5.18
  -5   3   0    4.66    2.41
  -5  -3   0    0.46    2.55
   6   3   0    4.70    4.09
   6   3   0    4.47    4.33
   6   3   0    0.07    5.58
   6   3   0    1.85    4.95
   6  -3   0    2.05    5.66
   6   3   0    0.24    4.21
   6   3   0   -0.47    2.04
   6  -3   0    0.20    3.46
   6  -3   0    2.85    9.15
   6  -3   0    3.42    3.07
   6  -3   0    2.29    2.49
   6   3   0    2.35    9.05
  -6   3   0    1.88    2.44
  -6  -3   0    1.01    3.98
  -6  -3   0   -0.01    4.31
  -6  -3   0    0.83    7.35
  -6  -3   0    3.40    4.70
  -6  -3   0    2.48    3.53
  -6   3   0    3.81    5.74
  -6  -3   0    6.67    7.61
  -6   3   0    5.27    7.67
  -6   3   0    0.06    3.15
  -6   3   0    6.39    6.16
   7   3   0   -0.03    5.55
   7   3   0   -2.06    6.83
   7   3   0    4.30   10.49
   7  -3   0    4.32    2.64
   7  -3   0    2.33    6.28
   7   3   0    1.56    8.04
  -7   3   0   -0.01    3.76
  -7   3   0    0.65    7.12
  -7   3   0    3.85    3.67
  -7  -3   0    0.01    4.42
  -7  -3   0    1.75    3.87
  -7   3   0    5.67    8.80
  -7   3   0   -0.87    2.77
  -7   3   0    0.07    3.46
  -7  -3   0    4.22    4.16
   8   3   0    8.07    7.56
   8   3   0    0.10   10.83
   8   3   0   -0.08    4.62
   8  -3   0    4.79    6.22
  -8   3   0   -0.07    2.79
  -8   3   0   -0.23    2.58
  -8  -3   0    0.48    5.91
  -8  -3   0    5.27    3.74
  -8   3   0    0.15    4.92
  -8  -3   0   -0.06    4.57
  -8   3   0    0.00    6.71
  -8   3   0   -0.04    2.88
   9   3   0    3.02    7.45
   9   3   0   -0.14   11.04
   9  -3   0    2.60   10.16
  -9   3   0   -1.89   12.90
  -9   3   0    0.22    5.96
  -9   3   0   -0.14    2.78
  -9  -3   0    0.78    5.45
  -9  -3   0   -2.15    4.35
  -9   3   0   -2.04    2.87
  -9  -3   0    0.01    5.46
  10   3   0   -0.18    6.92
  10   3   0   -0.37    9.86
  10  -3   0    2.37    5.10
 -10  -3   0    2.40    3.17
 -10   3   0    0.57    4.78
 -10  -3   0   -0.07    6.97
 -10  -3   0    3.92    5.19
 -10   3   0    0.44    8.27
 -10   3   0   -2.18    6.92
  11   3   0   10.05   10.42
  11   3   0    0.02   15.97
  11  -3   0    9.23    7.42
 -11  -3   0    5.22    6.47
 -11  -3   0    3.99    3.24
 -11  -3   0    0.13    5.20
 -11   3   0    1.45   10.28
 -11   3   0   13.57   14.22
 -11   3   0    3.66    3.38
  12   3   0   -0.39    4.75
  12   3   0   -0.14    3.20
  12  -3   0   -1.16    6.11
 -12   3   0    8.66    7.71
 -12  -3   0    0.72    5.23
 -12  -3   0    4.25    6.25
 -12   3   0    1.52    9.71
  13   3   0    0.06    2.86
  13   3   0   -0.25    4.58
  13  -3   0    0.98    2.71
 -13  -3   0   -0.26    3.45
 -13  -3   0   -6.07    4.15
 -13   3   0   10.16    4.85
 -13   3   0    0.62    6.34
  14   3   0   -2.36    5.80
  14   3   0    4.91    3.22
 -14   3   0    1.56    4.68
 -14  -3   0  -11.13    5.87
 -14  -3   0    2.14    2.63
 -14   3   0   -0.55    3.45
  15   3   0   -0.47    3.04
 -15  -3   0    0.32    6.58
 -15  -3   0   -4.30    4.38
 -15   3   0   -3.83   10.03
 -15   3   0    2.79    7.34
   0   4   0   23.44   11.13
   0  -4   0   22.53    4.74
   0  -4   0   25.19    9.91
   0   4   0   25.51    8.87
   0  -4   0   18.26    6.70
   0   4   0   20.59   12.51
   0  -4   0   16.27    6.83
   0   4   0   19.08    5.60
   0   4   0   25.77    9.94
   1   4   0    2.62    1.93
   1  -4   0    0.60    3.02
   1   4   0    2.39    3.94
   1  -4   0    0.21    2.18
   1  -4   0    2.03    5.11
   1   4   0    5.43    8.05
   1   4   0    2.03    4.29
   1   4   0    4.07    9.77
   1  -4   0    0.41    5.46
  -1   4   0    0.53    1.25
  -1   4   0   -0.11    3.75
  -1   4   0    0.85    5.08
  -1   4   0    3.07    4.72
  -1  -4   0    1.74    3.35
  -1  -4   0    3.73    3.93
  -1  -4   0    5.38    3.60
  -1  -4   0   -0.07    1.85
   2   4   0   13.25   23.10
   2  -4   0   39.92   12.04
   2  -4   0   46.74    7.19
   2   4   0   50.74    9.21
   2   4   0   53.79   12.36
   2   4   0   42.47    5.96
   2  -4   0   57.99   14.34
   2   4   0   53.45   12.37
  -2   4   0   47.15   12.55
  -2  -4   0   44.81    9.20
  -2   4   0   50.40   13.06
  -2  -4   0   29.09    5.71
  -2   4   0   39.53    8.73
  -2   4   0   34.52    6.19
  -2   4   0   34.95    5.85
   3   4   0   10.69    6.42
   3   4   0    9.36    5.80
   3  -4   0   16.17    7.40
   3   4   0   -1.19    3.85
   3   4   0   10.48   11.14
   3  -4   0   10.00    3.45
   3   4   0   11.50    5.34
   3  -4   0   -0.19    2.50
  -3  -4   0    0.95    6.14
  -3  -4   0   10.01    4.64
  -3   4   0    0.00    8.71
  -3   4   0    7.53   13.13
  -3   4   0   11.16   15.06
  -3   4   0   13.55    4.65
  -3   4   0    8.61    4.23
   4   4   0    5.89    5.16
   4   4   0    7.50    5.39
   4   4   0    1.78   11.30
   4   4   0    0.43    2.93
   4  -4   0    6.15    6.71
  -4  -4   0    4.19    5.38
  -4   4   0    7.21    6.69
  -4   4   0    0.04    3.65
  -4   4   0    4.91    6.02
  -4  -4   0   -0.84    5.36
  -4   4   0    5.58    6.53
   5   4   0   -2.11    4.29
   5   4   0    2.94    5.75
   5   4   0    2.62    3.35
   5   4   0   -0.85    1.65
   5  -4   0   -3.52    8.06
  -5   4   0   -0.16    5.81
  -5   4   0   10.04    6.34
  -5  -4   0    3.53    5.64
  -5   4   0    0.11    8.29
  -5   4   0    9.19    6.54
  -5  -4   0   -0.33    3.63
   6  -4   0    6.16    6.52
   6   4   0   -0.47    5.58
   6   4   0    1.95    7.08
   6   4   0    0.07    3.73
  -6   4   0   -0.51    3.75
  -6  -4   0    6.55    4.02
  -6  -4   0   -1.93    2.85
  -6   4   0   -0.26    2.23
  -6   4   0    3.82    6.78
   7  -4   0    4.19    5.68
   7   4   0   -2.58    6.29
   7   4   0    0.10    2.95
   7   4   0    1.24    5.30
  -7   4   0    1.04    4.47
  -7   4   0   -0.37    6.97
  -7   4   0   -5.12    4.07
  -7  -4   0    1.90    3.18
  -7  -4   0   -1.29    4.28
   8   4   0    0.05    4.30
   8  -4   0   19.24    9.03
   8   4   0   -3.14    9.13
   8   4   0   18.62    6.19
  -8  -4   0   17.91    6.50
  -8   4   0   -0.59    7.87
  -8   4   0    3.83    5.48
  -8  -4   0    1.29    5.42
  -8   4   0    0.37   11.35
   9   4   0    0.85    7.69
   9   4   0    3.62    5.05
   9  -4   0    7.80   12.55
  -9   4   0   -0.25   14.94
  -9   4   0   -0.07    4.99
  -9  -4   0    5.59    4.39
  -9   4   0   -1.01    6.35
  -9  -4   0   -0.02    4.38
  10   4   0    0.05    3.80
  10   4   0   -1.00    6.33
  10  -4   0   -4.38    5.68
 -10  -4   0    9.81    4.82
 -10   4   0   -0.76   10.19
 -10  -4   0    0.08    5.58
 -10   4   0   -0.03    8.24
  11   4   0    0.17   10.28
  11  -4   0   25.58    9.21
  11   4   0    6.14   10.61
 -11  -4   0   11.99    7.35
 -11  -4   0   -0.01    6.36
 -11  -4   0    9.10    5.08
 -11   4   0    1.24   11.64
 -11   4   0   -0.50   15.35
  12   4   0   -3.94    5.42
  12  -4   0    2.77    7.45
  12   4   0   -0.36    4.70
 -12  -4   0    0.00    3.08
 -12   4   0    0.25    4.55
 -12  -4   0    0.14    1.62
 -12   4   0    0.48    5.70
  13   4   0    4.45    2.55
  13   4   0   -2.69   11.14
 -13   4   0    7.41    7.62
 -13  -4   0    4.64    5.09
 -13   4   0    9.60    9.78
  14   4   0    0.48    3.03
 -14   4   0    1.37    6.88
   0   5   0   -0.16    4.13
   0  -5   0   -0.13    3.62
   0   5   0   -3.98    5.07
   0  -5   0    0.11    4.86
   0   5   0   -4.21    6.10
   1  -5   0   -0.84    3.93
   1   5   0    3.28    4.51
   1   5   0    0.53    3.34
   1   5   0   -1.03    3.67
   1  -5   0   -0.11    2.25
  -1  -5   0    0.06    7.16
  -1   5   0    0.33    3.56
  -1   5   0    7.02    9.77
  -1  -5   0    1.32    4.27
  -1   5   0    0.95    8.60
   2   5   0   -1.00    4.61
   2   5   0   -1.88    5.72
   2   5   0    0.57    6.86
  -2   5   0    5.39    8.00
  -2  -5   0   -0.53    9.02
  -2   5   0    5.65    6.38
  -2   5   0    0.04    6.92
   3   5   0   12.23   10.69
   3  -5   0    5.71    8.18
   3   5   0    0.13    6.43
   3   5   0    6.77    7.58
  -3   5   0    5.50    5.27
  -3  -5   0    8.88    7.87
  -3   5   0   -0.28    3.10
  -3   5   0    2.73    6.64
  -3  -5   0   -0.95    3.19
   4   5   0    5.77    6.79
   4  -5   0    6.17   15.67
   4   5   0    0.44    6.83
   4   5   0    8.65    9.91
  -4  -5   0   -0.33    3.26
  -4   5   0    7.94    6.64
  -4   5   0   17.08    7.77
  -4   5   0   -0.03    3.38
  -4  -5   0    8.58    5.98
   5   5   0   10.36    7.48
   5   5   0    8.13    6.63
   5  -5   0   15.07   10.71
   5   5   0    0.34    8.38
  -5   5   0   10.30   13.45
  -5   5   0   -2.22   12.67
  -5   5   0    0.79    3.81
  -5  -5   0   11.80    6.60
   6   5   0   -0.55    4.81
   6   5   0   -0.02    3.56
   6  -5   0   -2.22    5.67
   6   5   0    0.23    3.52
  -6   5   0   -2.98    7.34
  -6   5   0   -8.99    5.37
  -6   5   0    1.44    3.44
  -6  -5   0    2.11    4.99
   7   5   0    0.05    3.41
   7   5   0   -0.03    3.73
   7   5   0    0.07    5.66
   7  -5   0    7.16    6.35
  -7   5   0    4.54    5.40
  -7   5   0    6.11   10.32
  -7   5   0    5.32    6.54
  -7  -5   0    0.62   11.73
   8   5   0    0.27    2.65
   8   5   0   -0.58    5.50
   8  -5   0   13.62    9.62
   8   5   0    0.30    3.40
  -8   5   0    1.18    9.40
  -8   5   0   -0.07    7.81
  -8   5   0    9.21    9.01
  -8  -5   0    1.33    9.53
   9   5   0   -0.94    6.00
   9  -5   0    7.24    5.96
   9   5   0    0.05    3.28
  -9  -5   0   -1.06    1.81
  -9   5   0    4.61   10.43
  -9   5   0    2.19    2.21
  -9   5   0   -0.28    6.53
  -9  -5   0    0.76    6.76
  10   5   0    0.83    5.75
  10  -5   0    4.06    5.46
  10   5   0    0.67    2.64
 -10  -5   0    1.75    2.21
 -10   5   0    2.21    5.54
 -10   5   0   11.66    8.23
 -10  -5   0    3.06    4.67
  11   5   0    3.68    2.76
  11   5   0   -4.02    4.77
  11  -5   0   -8.34    6.99
 -11  -5   0    1.52    2.87
 -11   5   0    2.88    4.43
 -11  -5   0    0.84    1.58
 -11   5   0    1.33    6.51
  12   5   0   -1.12    4.03
 -12   5   0   -3.42    4.46
 -12   5   0   -4.88   11.83
   0   6   0    0.09    5.83
   0  -6   0    4.91    5.96
   0   6   0    0.01    4.23
   0  -6   0   -0.01    9.09
   0   6   0   19.38    8.32
   1   6   0    1.31    8.10
   1  -6   0    0.50    9.69
   1   6   0    0.00    6.33
   1   6   0    4.42    7.15
  -1  -6   0   -0.01    2.62
  -1  -6   0   -0.03    2.47
  -1   6   0   -0.01    1.79
  -1   6   0   -0.11    4.78
  -1   6   0    0.38    3.32
   2   6   0    0.65   23.81
   2  -6   0   83.84   19.00
   2   6   0   74.02   13.22
   2   6   0  104.09   34.72
  -2   6   0   61.39   15.41
  -2  -6   0   42.80   10.05
  -2   6   0   84.82   21.24
   3   6   0   20.72   10.48
   3   6   0    0.00    4.46
   3  -6   0   -0.75    6.26
   3   6   0    0.01    4.25
  -3  -6   0   -0.01    1.85
  -3   6   0   -0.78    6.39
  -3   6   0   -0.13    5.17
   4  -6   0   -1.55    5.48
   4   6   0   -1.86    7.48
   4   6   0    0.42    3.54
  -4   6   0   65.71   29.32
  -4  -6   0   37.73   13.91
  -4   6   0   54.77   30.06
   5   6   0    2.03    6.03
   5   6   0   -0.07    2.87
   5  -6   0    0.86    5.01
   5   6   0   -0.23    4.04
  -5   6   0   -7.03    6.39
  -5  -6   0    2.65    5.54
  -5   6   0   -2.40    7.22
   6  -6   0    0.53   10.81
   6   6   0    5.89    5.53
   6   6   0    6.60    7.56
   6   6   0   -0.53    3.40
  -6   6   0    2.53   11.04
  -6   6   0    8.83    8.37
  -6  -6   0   15.79    8.40
   7   6   0    3.76    3.10
   7  -6   0   15.81   12.12
   7   6   0    2.86    6.22
   7   6   0    1.62    3.65
  -7   6   0    8.21   10.91
  -7  -6   0    9.65    8.20
  -7   6   0   14.69   10.80
   8  -6   0    7.95    5.24
   8   6   0    0.57    1.77
   8   6   0    2.22    4.90
  -8   6   0    1.34    1.97
  -8  -6   0   -4.42    3.35
  -8   6   0   -0.38    4.46
   9  -6   0   -7.03    5.09
   9   6   0    1.11    4.78
  -9  -6   0    1.74    2.66
  -9   6   0   -4.02    3.75
   0   7   0   -0.45    9.88
   0   7   0    1.98    5.59
   1  -7   0    0.06    4.32
   1   7   0   -1.78   10.05
   1   7   0   -3.94    4.29
  -1   7   0    8.95    5.26
  -1   7   0    6.52    8.71
   2  -7   0   -2.73    5.41
   2   7   0   -1.78    5.25
  -2   7   0    0.87    3.38
  -2   7   0    2.24    5.26
   3   7   0   -1.52    3.53
   3  -7   0    1.00    4.83
  -3   7   0    5.68    6.88
  -3   7   0    7.10    4.76
 -16   0   1   16.59    8.74
 -16   0   1   -0.85    3.97
  16   0  -1    2.82    2.36
 -15   0   1    1.56    3.99
 -15   0   1   11.43    6.22
 -15   0   1    0.01    5.09
  15   0  -1   -0.05    2.09
 -14   0   1    1.26    4.62
 -14   0   1    9.15    6.48
 -14   0   1    0.37    5.41
 -13   0   1   -1.58    3.86
 -13   0   1    0.14    4.29
 -13   0   1    0.45    8.82
 -12   0   1   -1.26    6.10
 -12   0   1    1.21    8.33
 -12   0   1   -2.85    8.00
  12   0  -1   -1.40    2.54
  12   0  -1    0.14    4.29
 -11   0   1    3.34    5.33
 -11   0   1   -0.05    6.79
 -11   0   1    2.84    5.70
  11   0  -1    1.10    2.86
  11   0  -1    0.20    2.43
 -10   0   1   -0.07    3.30
 -10   0   1   -2.03    2.73
 -10   0   1    3.78    4.22
 -10   0   1    0.21    3.61
  10   0  -1   -0.76    4.95
  10   0  -1   -0.57    2.18
  10   0  -1    1.50    2.23
  -9   0   1   -2.43    3.10
  -9   0   1    3.03    4.93
  -9   0   1    0.61    6.83
  -9   0   1   -0.27   13.36
  -9   0   1    4.50    2.44
  -9   0   1    0.05    4.40
  -9   0   1   -1.18    9.47
   9   0  -1   -2.04    2.49
   9   0  -1    2.63    5.92
   9   0  -1   -0.04    2.67
   9   0  -1   -2.05    3.73
  -8   0   1   -3.03    7.99
  -8   0   1   -0.09    2.55
  -8   0   1    3.18    2.49
  -8   0   1   -0.26    7.33
  -8   0   1    0.31    6.72
  -8   0   1    4.79    9.87
  -8   0   1    0.84    3.58
  -8   0   1    0.00    7.27
   8   0  -1    2.86    3.81
   8   0  -1   -0.26    1.94
   8   0  -1    1.31    3.14
   8   0  -1   -0.07    2.97
   8   0  -1    0.49    1.49
   8   0  -1   -0.75    1.70
  -7   0   1    0.93    3.48
  -7   0   1    1.55    3.38
  -7   0   1   -0.53    4.65
  -7   0   1    0.82    5.37
  -7   0   1   -0.07    4.03
  -7   0   1    0.08    5.90
  -7   0   1   -1.08    4.18
  -7   0   1   -2.16    6.48
   7   0  -1    0.68    0.77
   7   0  -1    1.84    2.32
   7   0  -1    0.33    4.16
   7   0  -1   -1.88    3.14
   7   0  -1    1.33    4.13
   7   0  -1    0.55    0.71
   7   0  -1    0.31    2.33
   7   0  -1   -0.39    3.63
  -6   0   1    3.15    2.94
  -6   0   1   -0.78    6.81
  -6   0   1   -1.00    2.94
  -6   0   1   -1.43    6.28
  -6   0   1   -1.74    4.28
  -6   0   1    2.25    4.64
  -6   0   1    1.06    5.21
  -6   0   1    0.73    8.79
   6   0  -1   -0.27    0.86
   6   0  -1    0.80    2.37
   6   0  -1   -1.08    3.24
   6   0  -1   -2.79    4.40
   6   0  -1   -2.87    3.51
   6   0  -1   -0.09    5.89
   6   0  -1   -0.25    4.78
  -5   0   1   -1.98    5.25
  -5   0   1    0.28    3.56
  -5   0   1    0.01    6.58
  -5   0   1   -2.11    4.83
  -5   0   1    1.90    4.30
  -5   0   1    0.08    6.38
  -5   0   1    1.66    3.17
  -5   0   1    1.15    4.67
   5   0  -1    0.55    3.11
   5   0  -1   -0.93    2.45
   5   0  -1   -0.19    3.78
   5   0  -1   -0.14    1.49
   5   0  -1    2.57    4.47
   5   0  -1   -1.44    4.62
   5   0  -1   -0.50    3.25
  -4   0   1    0.13    7.98
  -4   0   1    1.88    6.18
  -4   0   1    0.36    7.68
  -4   0   1    1.89    6.05
  -4   0   1    1.79    5.03
  -4   0   1    1.47    4.99
  -4   0   1    0.39    3.63
   4   0  -1   -0.12    4.21
   4   0  -1   -0.95    4.43
   4   0  -1   -0.52    8.45
   4   0  -1    0.31    2.84
   4   0  -1   -0.02    4.31
   4   0  -1   -0.17    1.30
   4   0  -1   -2.22    5.25
   4   0  -1    1.02    3.05
   4   0  -1    1.45    5.35
  -3   0   1    0.06    6.15
  -3   0   1   -0.96    5.43
  -3   0   1   -0.38    6.01
  -3   0   1    0.55    8.66
  -3   0   1    1.26    4.42
   3   0  -1   -5.33    6.87
   3   0  -1   -0.66    5.85
   3   0  -1   -1.46   12.31
   3   0  -1    1.16    5.14
   3   0  -1    0.12    3.95
   3   0  -1    0.67    6.02
   3   0  -1   -2.03    3.64
  -2   0   1    3.10    4.99
  -2   0   1    0.50    2.35
  -2   0   1   -0.02    3.11
  -2   0   1   -1.14    5.18
  -2   0   1    1.23    5.25
  -2   0   1    0.07   10.73
   2   0  -1   -0.77   11.63
   2   0  -1    0.05   11.26
   2   0  -1    0.79    4.85
   2   0  -1   -1.29    4.09
   2   0  -1   -3.50    6.42
   2   0  -1   -0.97    6.75
  -1   0   1    0.77    3.93
  -1   0   1    0.08    1.68
  -1   0   1    0.50    3.07
  -1   0   1   -0.42    0.95
  -1   0   1    0.13    6.11
  -1   0   1   -0.39    3.54
  -1   0   1   -0.57    3.34
   1   0  -1    0.31    1.05
   1   0  -1   -0.24    6.07
   1   0  -1   -0.73    1.82
   1   0  -1   -0.11    0.80
   1   0  -1    0.66    3.08
   1   0  -1    0.32    3.11
   1   0  -1    0.46    2.44
   1   0  -1    0.09    5.42
   0   0   1   -0.24    2.55
   0   0   1    0.96    1.85
   0   0   1   -1.14    2.73
   0   0   1   -0.07    0.96
   0   0   1   -0.89    1.53
   0   0   1   -0.62    3.60
   0   0   1   -0.08    2.44
   0   0  -1    0.18    1.53
   0   0  -1   -2.80    2.45
   0   0  -1    1.10    1.43
   0   0  -1    0.25    2.36
   0   0  -1    0.21    3.30
   0   0  -1   -0.56    4.30
   0   0  -1   -1.20    2.65
   1   0   1    2.27    2.05
   1   0   1   -0.44    5.13
   1   0   1   -0.77    3.51
   1   0   1    0.13    2.27
   1   0   1    0.12    2.19
   1   0   1   -0.19    1.34
   1   0   1   -0.11    7.36
  -1   0  -1   -0.23    2.89
  -1   0  -1    0.85    3.39
  -1   0  -1    0.28    3.18
  -1   0  -1    0.31    4.16
  -1   0  -1    0.81    1.25
  -1   0  -1    2.62    6.95
  -1   0  -1   -1.19    2.02
  -1   0  -1    0.33    4.51
   2   0   1    1.62    5.18
   2   0   1   -0.37    2.47
   2   0   1   -0.68    4.41
   2   0   1    0.06    6.44
   2   0   1   -2.05    6.58
   2   0   1   -0.32    9.07
   2   0   1   -0.62    9.06
   2   0   1    0.66    1.03
  -2   0  -1   -0.31    1.44
  -2   0  -1    1.20    3.02
  -2   0  -1    0.78    4.26
  -2   0  -1    0.94    4.73
  -2   0  -1    0.34    4.97
  -2   0  -1   -0.13    5.54
  -2   0  -1    3.89    6.32
   3   0   1   -0.09    5.45
   3   0   1   -0.44    3.67
   3   0   1   -2.04   10.20
   3   0   1    0.14    5.29
   3   0   1   -1.06    2.93
   3   0   1    1.12    4.16
   3   0   1    0.81    8.01
  -3   0  -1    1.22    3.14
  -3   0  -1    3.86    6.71
  -3   0  -1    0.29    5.43
  -3   0  -1    0.37    6.94
  -3   0  -1    0.01    4.86
  -3   0  -1   -0.02    6.83
  -3   0  -1   -3.02    2.36
  -3   0  -1   -2.16    4.38
   4   0   1   -0.65    4.77
   4   0   1   -0.80    5.39
   4   0   1    0.21    9.31
   4   0   1    0.03    4.34
   4   0   1   -1.12    3.86
   4   0   1    0.87    1.70
   4   0   1   -1.29    3.99
  -4   0  -1    5.15    5.51
  -4   0  -1   -1.19    4.05
  -4   0  -1   -0.62    8.67
  -4   0  -1    0.29    2.86
  -4   0  -1    2.56    3.78
  -4   0  -1   -0.06    0.85
  -4   0  -1   -2.86    5.40
  -4   0  -1    0.94    3.43
   5   0   1    0.73    4.00
   5   0   1   -0.72    4.53
   5   0   1    1.04    1.73
   5   0   1   -3.14    4.30
   5   0   1   -2.60    8.99
   5   0   1   -0.05    5.80
  -5   0  -1    0.15    0.67
  -5   0  -1   -1.39    3.77
  -5   0  -1   -1.91    5.40
  -5   0  -1    0.73    3.91
  -5   0  -1   -0.18    4.60
  -5   0  -1   -1.89    1.93
  -5   0  -1    0.06    3.27
  -5   0  -1   -1.27    3.68
  -5   0  -1   -0.28    9.56
   6   0   1   -1.73    5.52
   6   0   1   -3.15    4.74
   6   0   1   -0.87    3.37
   6   0   1    1.90    5.16
   6   0   1   -0.13    8.14
   6   0   1   -0.51    7.73
   6   0   1    0.18   11.66
  -6   0  -1    0.53    4.16
  -6   0  -1   -1.93    5.14
  -6   0  -1   -0.06    3.53
  -6   0  -1   -0.52    0.58
  -6   0  -1   -2.26   10.78
  -6   0  -1    0.02    1.77
  -6   0  -1    1.15    4.09
  -6   0  -1   -1.56    3.85
   7   0   1    3.23    3.62
   7   0   1    4.84    4.38
   7   0   1   -0.62    1.41
   7   0   1    2.59    8.44
   7   0   1   -0.54    3.45
   7   0   1    2.92    4.89
  -7   0  -1   -1.07    3.93
  -7   0  -1    0.47    3.92
  -7   0  -1    0.00    3.15
  -7   0  -1    6.94    5.39
  -7   0  -1   -0.25    4.63
  -7   0  -1   -2.17    3.18
  -7   0  -1    1.95    3.71
   8   0   1    1.15    5.69
   8   0   1    2.09    3.31
   8   0   1    2.11    5.58
   8   0   1   -0.49    3.61
   8   0   1    2.64    5.05
  -8   0  -1   -0.10    3.02
  -8   0  -1   -0.01    3.06
  -8   0  -1   -1.62    2.98
  -8   0  -1    2.85    3.87
  -8   0  -1    2.72    3.66
  -8   0  -1   -8.11    5.42
  -8   0  -1   -2.62    8.11
   9   0   1    1.71    2.78
   9   0   1    2.72    5.15
   9   0   1    0.46    5.69
   9   0   1   -2.01    5.70
   9   0   1    1.24    4.95
  -9   0  -1    2.28    5.36
  -9   0  -1   -0.49    4.78
  -9   0  -1    0.07    3.62
  -9   0  -1    0.04    3.07
  -9   0  -1   -0.95    2.69
  -9   0  -1    0.96    3.89
  -9   0  -1    3.73    6.12
  10   0   1   -0.91    2.99
  10   0   1   -0.03    4.58
 -10   0  -1    1.57    4.88
 -10   0  -1    0.10    2.94
 -10   0  -1   -2.11    2.33
 -10   0  -1   -0.08    1.67
 -10   0  -1    2.97    2.81
  11   0   1    0.04    5.18
 -11   0  -1   -0.43    3.82
 -11   0  -1   -2.38    4.49
 -11   0  -1    0.94    3.64
 -11   0  -1   -0.52    6.24
  12   0   1    0.02    2.97
 -12   0  -1    0.61    3.50
 -12   0  -1   -1.94    8.15
 -12   0  -1   -2.02    5.29
 -12   0  -1    0.50    2.37
  13   0   1   -1.65    4.54
 -13   0  -1    0.04    2.15
 -13   0  -1    1.07    6.23
 -13   0  -1    5.77    4.43
 -13   0  -1    0.44    4.28
  14   0   1    1.36    4.19
 -14   0  -1   -8.65    8.15
 -14   0  -1   -0.25    6.58
 -14   0  -1   -0.55    4.49
  15   0   1    1.51    6.96
 -15   0  -1    0.24    6.61
 -15   0  -1    7.28    5.00
 -15   0  -1    0.60    4.33
  16   0   1   -2.78    4.30
  16   0   1   -0.99    2.82
 -16   0  -1    2.72    3.52
 -16   0  -1   -0.40    5.01
 -16  -1   1    1.92    5.22
 -16  -1   1    5.17    4.71
 -16   1   1   -0.89    4.21
 -16   1   1   -2.63    2.85
 -16   1   1    4.32    1.93
  16   1  -1   -0.56    1.73
 -15  -1   1  -12.39    7.14
 -15   1   1    3.29    3.66
 -15   1   1    1.65    3.61
 -15   1   1   -0.63    3.12
 -15  -1   1    0.69    6.57
  15   1  -1   -1.82    1.97
  15   1  -1    0.38    1.78
 -14   1   1    0.21    7.18
 -14  -1   1   -0.33    4.35
 -14  -1   1   -3.72    4.47
 -14   1   1   -1.46    6.95
 -14   1   1    0.98    2.64
  14   1  -1    0.01    1.97
  14   1  -1   -0.11    3.10
 -13   1   1    0.98    6.13
 -13  -1   1   -0.19    5.76
 -13  -1   1   18.08    6.16
 -13   1   1   -1.90    3.76
 -13   1   1    0.26    3.44
  13   1  -1    0.14    4.61
  13   1  -1    0.55    4.86
  13  -1  -1   16.93    4.66
 -12   1   1    9.92    9.62
 -12  -1   1   16.19    6.16
 -12  -1   1    0.04    8.65
 -12   1   1   -0.04    9.46
 -12   1   1   -0.11    9.88
 -12   1   1   19.99    9.71
 -12  -1   1   16.10    9.13
  12  -1  -1   13.05    7.65
  12   1  -1   -0.28    4.39
 -11   1   1    2.36    2.75
 -11   1   1   -0.14    2.63
 -11   1   1   -0.07    4.01
 -11  -1   1   -0.93    6.46
 -11   1   1    0.16    7.11
 -11  -1   1   -2.81    2.68
 -11  -1   1    3.40    6.61
  11   1  -1    0.24    3.74
  11  -1  -1    2.60    4.21
 -10  -1   1   24.94   11.58
 -10  -1   1   -0.38    2.45
 -10  -1   1    0.16    5.91
 -10   1   1   -0.56   11.91
 -10  -1   1   -0.19    4.33
 -10   1   1   -0.04    4.18
 -10   1   1    0.54    6.64
 -10   1   1   22.78    4.71
  10   1  -1    0.38    7.83
  10   1  -1   18.58   10.72
  10  -1  -1    9.47    3.47
  10  -1  -1   25.63    7.85
  10  -1  -1   12.49    5.29
  -9   1   1   12.30    5.86
  -9  -1   1   18.29    7.81
  -9  -1   1    1.26    6.41
  -9  -1   1   -0.36    3.71
  -9   1   1   19.17    8.33
  -9   1   1   19.46    7.88
  -9   1   1   -0.04    4.84
  -9   1   1   19.37    9.93
  -9  -1   1   -0.06    5.09
  -9  -1   1   24.05    6.72
   9   1  -1   17.09    6.52
   9  -1  -1   16.31    6.84
   9   1  -1   18.11    5.05
   9   1  -1   11.14    9.52
   9  -1  -1   10.39    3.38
   9  -1  -1   21.85   13.46
   9  -1  -1   13.51    3.70
   9   1  -1    0.60    5.28
   9   1  -1    0.02    3.51
  -8  -1   1   25.65    9.62
  -8   1   1   -0.03   13.78
  -8  -1   1   33.03    7.52
  -8   1   1   33.90   11.44
  -8  -1   1   -0.23   14.69
  -8   1   1   31.82   12.83
  -8  -1   1    0.22   12.76
  -8   1   1   35.70    9.67
  -8   1   1   40.93   12.01
  -8   1   1   27.42    9.21
  -8  -1   1    0.27   11.31
  -8  -1   1   34.46   11.16
   8   1  -1   35.02    9.94
   8   1  -1   35.19    7.75
   8   1  -1   25.28   13.40
   8   1  -1   -0.25   12.66
   8  -1  -1   38.72   10.93
   8   1  -1   23.72    5.75
   8  -1  -1   21.73    4.88
   8  -1  -1   28.03    5.16
   8  -1  -1   30.21    9.87
  -7  -1   1    0.25    0.94
  -7  -1   1    3.06    3.93
  -7  -1   1   -0.17    4.73
  -7   1   1    0.02    3.06
  -7   1   1   -0.02    3.52
  -7   1   1    2.60    4.87
  -7   1   1    0.18    1.00
  -7   1   1    0.77    6.06
  -7   1   1    4.54    7.90
  -7   1   1   -0.17    3.79
  -7  -1   1    1.21    6.13
  -7  -1   1   -2.77    3.40
  -7  -1   1   -1.65    3.51
  -7   1   1    4.96    4.46
  -7  -1   1   -0.28    5.42
   7   1  -1    0.45    3.53
   7   1  -1    0.02    4.92
   7   1  -1    1.41    5.93
   7   1  -1    0.74    1.16
   7   1  -1   -0.87    3.92
   7   1  -1    0.30    4.66
   7  -1  -1    0.27    1.78
   7  -1  -1    1.90    4.10
   7  -1  -1   -0.39    4.80
   7  -1  -1    0.62    3.94
   7  -1  -1    1.89    2.05
   7  -1  -1    0.08    2.16
   7   1  -1    0.91    1.06
  -6  -1   1  222.88   26.13
  -6  -1   1  164.10   12.96
  -6  -1   1  233.73   40.67
  -6  -1   1  235.30   44.48
  -6  -1   1  183.18   31.40
  -6   1   1  244.59   31.66
  -6   1   1  199.79   32.06
  -6   1   1  207.00   22.17
  -6   1   1  171.58   11.84
  -6   1   1  219.11   27.07
  -6   1   1  209.52   40.63
  -6   1   1  254.78   28.47
  -6  -1   1  237.07   29.30
   6   1  -1  244.46   24.75
   6   1  -1  199.04   17.68
   6   1  -1  196.84   23.51
   6   1  -1  180.48   10.60
   6   1  -1  245.64   30.88
   6   1  -1  199.30   37.90
   6  -1  -1  241.84   29.89
   6  -1  -1  177.56   15.52
   6  -1  -1  205.61   25.31
   6  -1  -1  244.29   37.34
   6  -1  -1  187.86   23.31
   6   1  -1  179.71   34.42
  -5  -1   1    1.76    4.92
  -5  -1   1    0.30    2.03
  -5  -1   1    0.47    5.06
  -5  -1   1    4.01    5.08
  -5  -1   1   -0.02    6.17
  -5  -1   1   -0.26    4.92
  -5   1   1    2.81    2.24
  -5   1   1   -0.39    4.68
  -5   1   1    5.75    6.51
  -5   1   1    3.37    4.09
  -5   1   1   -0.23    4.86
  -5   1   1   -2.79    6.34
  -5   1   1    0.63    5.54
  -5  -1   1    2.01    6.50
   5  -1  -1    2.61    3.25
   5   1  -1    0.81    1.71
   5   1  -1    1.79    5.44
   5  -1  -1    1.83    7.20
   5  -1  -1   -1.72   10.89
   5   1  -1   -0.45    5.00
   5  -1  -1   -0.07    5.22
   5  -1  -1    1.64    2.60
   5  -1  -1    0.05    4.96
   5   1  -1    3.71    3.96
   5   1  -1    0.94    4.38
   5   1  -1    1.83    7.52
  -4  -1   1    5.36    5.45
  -4  -1   1    1.20    4.12
  -4  -1   1   -3.57   10.56
  -4  -1   1    5.18    6.05
  -4  -1   1    0.01    2.02
  -4  -1   1    2.90    5.66
  -4  -1   1   -0.17    7.49
  -4   1   1    1.56    5.38
  -4   1   1    3.46    6.40
  -4   1   1    0.82    7.24
  -4   1   1    4.88    5.77
  -4   1   1    6.08    3.16
  -4   1   1    3.63    3.25
  -4   1   1    4.31    6.17
  -4   1   1   -0.74    8.59
   4  -1  -1    4.56    5.57
   4   1  -1   -1.16    5.49
   4   1  -1    4.27    7.37
   4   1  -1    7.20    3.57
   4   1  -1    4.15    2.64
   4   1  -1    3.44    8.16
   4  -1  -1    9.37   18.47
   4  -1  -1    2.00    7.92
   4  -1  -1    4.81    5.11
   4  -1  -1    3.43   11.95
   4  -1  -1    4.36    3.51
   4  -1  -1    4.73    6.09
   4   1  -1    6.47    6.35
  -3  -1   1   68.84   25.77
  -3   1   1   51.85   14.63
  -3  -1   1    1.16   42.85
  -3  -1   1   54.02   13.00
  -3  -1   1   63.21   14.27
  -3  -1   1   65.81   18.91
  -3   1   1    1.17   32.52
  -3   1   1   52.71   13.85
  -3   1   1   56.05   17.49
  -3   1   1   50.42   10.87
  -3   1   1   69.44   29.96
  -3   1   1   66.61   19.64
  -3   1   1   56.84    8.66
   3   1  -1   64.75   13.95
   3   1  -1   57.45   12.65
   3   1  -1   59.82   20.44
   3   1  -1   66.51    9.32
   3   1  -1   66.53   15.63
   3   1  -1   61.70   33.35
   3  -1  -1   59.97   18.99
   3  -1  -1   67.78   10.40
   3  -1  -1   64.88   16.63
   3  -1  -1   71.07   24.07
   3  -1  -1   65.60   26.12
   3  -1  -1   42.90   11.65
   3  -1  -1   72.11   30.62
  -2  -1   1  301.31   28.03
  -2  -1   1  327.89   75.22
  -2  -1   1  322.21   32.92
  -2   1   1  288.02   30.02
  -2  -1   1  318.02   52.11
  -2   1   1  297.80   39.62
  -2   1   1  320.46   51.37
  -2   1   1  303.57   35.38
  -2   1   1  316.72   25.18
  -2   1   1  317.89   37.39
  -2   1   1  316.47   38.98
  -2   1   1  326.11   43.86
  -2  -1   1  331.37   34.86
   2   1  -1  277.19   30.67
   2   1  -1  315.59   44.95
   2   1  -1  283.72   23.07
   2   1  -1  282.72   44.00
   2   1  -1  309.44   23.51
   2  -1  -1  314.31   34.27
   2  -1  -1  322.31   40.95
   2  -1  -1  347.45   42.96
   2  -1  -1  304.64   44.08
   2  -1  -1  315.70   35.03
   2   1  -1  324.90   56.81
   2  -1  -1  285.29   25.37
   2   1  -1  321.38   27.20
  -1  -1   1  274.32   26.68
  -1  -1   1  269.09   20.52
  -1  -1   1  331.17   41.60
  -1  -1   1  316.58   47.85
  -1  -1   1  326.75   38.55
  -1   1   1  325.30   33.47
  -1   1   1  300.97   30.75
  -1  -1   1  325.40   33.88
  -1   1   1  305.40   27.73
  -1   1   1  338.66   41.61
  -1   1   1  311.80   40.26
  -1   1   1  319.65   28.66
  -1   1   1  324.62   18.05
  -1  -1   1  300.80   19.05
   1  -1  -1  281.17   36.29
   1   1  -1  264.68   18.56
   1   1  -1  273.55   38.40
   1   1  -1  330.74   42.43
   1   1  -1  316.46   21.98
   1   1  -1  276.29   25.05
   1   1  -1  314.26   21.72
   1  -1  -1  326.49   33.12
   1   1  -1  316.16   34.46
   1   1  -1  320.66   47.73
   1  -1  -1  339.41   27.04
   1  -1  -1  301.25   32.97
   1  -1  -1  322.66   32.27
   1  -1  -1  314.47   40.12
   1  -1  -1  320.35   28.97
   1  -1  -1  298.27   33.03
   0  -1   1 4040.40  339.45
   0  -1   1 4074.50  345.53
   0  -1   1 4170.90  321.98
   0  -1   1 3705.50  284.21
   0  -1   1 4112.78  359.13
   0   1   1 4112.65  345.75
   0   1   1 4014.17  300.30
   0   1   1 3588.91  286.70
   0   1   1 4099.44  337.74
   0   1   1 4256.83  445.39
   0   1   1 3954.78  394.00
   0   1   1 3981.55  335.04
   0   1   1 3897.28  321.59
   0   1  -1 3911.76  339.65
   0   1  -1 3860.09  337.66
   0   1  -1 3866.98  332.36
   0   1  -1 3924.87  338.00
   0   1  -1 3778.98  316.00
   0   1  -1 4052.99  279.33
   0   1  -1 4008.87  325.89
   0   1  -1 3932.00  342.60
   0  -1  -1 3930.74  313.09
   0  -1  -1 4167.67  369.33
   0  -1  -1 4242.57  357.65
   0  -1  -1 3851.07  320.32
   0  -1  -1 3674.69  293.60
   0  -1  -1 4034.16  395.95
   0  -1  -1 3971.53  416.04
   0  -1  -1 3847.55  334.10
   1  -1   1 2250.43  134.48
   1  -1   1 2669.09  188.64
   1  -1   1 2575.69  226.99
   1  -1   1 2434.62  192.64
   1  -1   1 2626.85  216.71
   1  -1   1 2447.56  197.84
   1   1   1 2549.16  202.92
   1   1   1 2519.80  201.08
   1   1   1 2540.30  193.72
   1   1   1 2491.13  183.71
   1   1   1 2324.83  172.44
   1   1   1 2540.44  200.58
   1   1   1 2491.81  251.91
   1   1   1 2389.61  238.50
   1   1   1 2486.04  204.87
  -1   1  -1 2575.16  214.91
  -1   1  -1 2588.94  196.87
  -1   1  -1 2039.29  128.96
  -1   1  -1 2265.66  157.74
  -1   1  -1 2559.03  218.34
  -1   1  -1 2661.36  207.28
  -1   1  -1 2580.25  216.41
  -1   1  -1 2439.28  220.58
  -1  -1  -1 2658.36  197.39
  -1  -1  -1 2302.02  178.59
  -1  -1  -1 2609.88  262.89
  -1  -1  -1 2348.03  176.76
  -1  -1  -1 2530.15  187.03
   2  -1   1  177.54   26.43
   2  -1   1  146.02    7.03
   2  -1   1  195.75   48.67
   2  -1   1  159.57   46.62
   2  -1   1  164.23   14.53
   2  -1   1  169.65   29.55
   2   1   1  176.39   21.42
   2   1   1  202.19   32.91
   2   1   1  153.58   34.99
   2   1   1  164.27   24.31
   2   1   1  201.93   36.24
   2   1   1  164.85   38.93
  -2   1  -1  159.41   10.53
  -2   1  -1  168.68   27.42
  -2   1  -1  185.76   22.09
  -2   1  -1  156.80   30.89
  -2   1  -1  147.68   13.58
  -2   1  -1  135.63   23.20
  -2   1  -1  170.82   33.00
  -2  -1  -1  164.24   20.23
  -2   1  -1  162.08   13.19
  -2  -1  -1  166.57   30.65
  -2  -1  -1  180.87   40.20
  -2  -1  -1  179.93   26.94
  -2  -1  -1  184.23   17.95
   3  -1   1  332.72   22.90
   3   1   1  326.91   40.19
   3  -1   1  295.93   40.88
   3  -1   1  304.68   44.83
   3  -1   1  299.95   39.18
   3  -1   1  322.94   65.94
   3   1   1  317.17   42.94
   3   1   1  323.54   66.82
   3   1   1  339.15   50.58
   3   1   1  312.29   48.09
   3   1   1  334.37   47.17
   3   1   1  302.39   32.35
  -3   1  -1  305.03   43.22
  -3   1  -1  296.42   39.39
  -3   1  -1  279.66   26.76
  -3   1  -1  279.55   40.58
  -3   1  -1  291.65   19.00
  -3   1  -1  274.17   23.03
  -3   1  -1  315.38   42.88
  -3  -1  -1  306.60   29.73
  -3  -1  -1  320.36   33.31
  -3  -1  -1  276.98   40.03
  -3  -1  -1  315.21   22.37
  -3  -1  -1  294.54   36.47
  -3  -1  -1  280.32   40.66
  -3  -1  -1  305.83   41.39
   4  -1   1   62.26   18.82
   4  -1   1   55.07   16.40
   4  -1   1   69.01   30.71
   4  -1   1   65.68    9.70
   4  -1   1   66.31   17.67
   4   1   1   73.72   34.06
   4  -1   1   62.75   11.14
   4   1   1   72.32   29.68
   4   1   1   62.89   17.90
   4   1   1   55.52   11.20
   4   1   1   64.83   20.83
   4   1   1   61.52   19.92
   4   1   1   66.28   20.58
  -4  -1  -1   72.84   12.57
  -4   1  -1   69.46   19.84
  -4   1  -1   60.65   17.13
  -4  -1  -1   44.80   10.57
  -4   1  -1   57.16   17.96
  -4   1  -1   59.22   13.01
  -4   1  -1   60.06    7.94
  -4   1  -1   -0.03   18.08
  -4  -1  -1   66.40   16.73
  -4  -1  -1   55.42   15.83
  -4  -1  -1    0.03   16.49
  -4  -1  -1   52.85    6.91
  -4  -1  -1   68.05   14.33
  -4   1  -1   52.65   10.60
  -4  -1  -1   65.47   18.37
   5   1   1   46.22   14.84
   5  -1   1   36.10   12.21
   5  -1   1   42.61   14.68
   5  -1   1   38.67   15.84
   5  -1   1   22.18   25.57
   5   1   1   47.77   16.33
   5  -1   1   28.49   14.24
   5   1   1   45.55   28.93
   5   1   1   45.57   15.47
   5   1   1   38.03   15.43
   5   1   1   44.87   14.99
   5   1   1   45.44   14.42
  -5   1  -1   46.76   29.44
  -5   1  -1   38.83   15.55
  -5   1  -1   38.32   14.32
  -5   1  -1    0.02   11.09
  -5   1  -1   35.62    8.15
  -5   1  -1   -0.16   23.42
  -5   1  -1   31.55    6.63
  -5  -1  -1    0.05   11.57
  -5  -1  -1   35.42   12.54
  -5  -1  -1   39.03    5.89
  -5  -1  -1   32.30    7.95
  -5  -1  -1   46.76   11.62
  -5  -1  -1   46.20   11.65
  -5   1  -1   43.28   13.70
  -5  -1  -1   38.15   14.77
  -5  -1  -1   38.10    8.44
   6  -1   1    9.97    6.28
   6  -1   1   10.21    7.95
   6  -1   1    6.88   14.78
   6  -1   1    7.52    8.21
   6  -1   1    7.70    4.59
   6   1   1    9.87    9.14
   6   1   1   10.58   17.08
   6   1   1    2.08    4.77
   6   1   1    0.12   12.86
   6   1   1   10.99    8.32
   6   1   1    7.16    8.48
   6   1   1   11.82   14.41
  -6   1  -1    5.02    3.71
  -6   1  -1    0.04    4.70
  -6   1  -1    8.65   15.94
  -6   1  -1    6.52    7.79
  -6   1  -1    6.72    6.58
  -6   1  -1    5.90    9.55
  -6   1  -1    0.93    8.33
  -6   1  -1   -0.02    7.24
  -6  -1  -1   -0.16    5.98
  -6  -1  -1    7.03    1.57
  -6  -1  -1   11.93    6.58
  -6  -1  -1    0.26    4.11
  -6  -1  -1   10.12    5.36
  -6  -1  -1   10.17    4.95
  -6  -1  -1    4.97   14.42
  -6  -1  -1   11.25    6.87
   7  -1   1  116.70   21.32
   7  -1   1  123.00   15.88
   7  -1   1  130.90   22.01
   7  -1   1  121.57   19.90
   7   1   1  141.54   22.18
   7   1   1  159.71   28.16
   7   1   1  128.43   25.48
   7  -1   1  131.22   39.73
   7   1   1  129.80   38.21
   7   1   1  117.02   17.46
  -7   1  -1  103.68   13.12
  -7   1  -1  118.82   20.51
  -7   1  -1  111.01   14.14
  -7   1  -1  109.46   17.26
  -7   1  -1  133.12   25.97
  -7   1  -1  123.95   18.26
  -7  -1  -1  129.97   25.99
  -7  -1  -1  119.79   36.45
  -7  -1  -1  100.53   11.50
  -7  -1  -1   99.66   14.81
  -7  -1  -1  109.92   18.86
  -7   1  -1   98.47   11.12
  -7   1  -1  136.73   23.97
  -7  -1  -1  134.95   18.80
  -7  -1  -1  105.86   11.28
  -7  -1  -1   93.02   10.88
   8  -1   1   -0.04    2.01
   8  -1   1    1.12    1.63
   8  -1   1    3.18    5.70
   8  -1   1    1.33    3.38
   8  -1   1    3.09    3.90
   8   1   1   -0.08    2.33
   8   1   1    0.09    4.54
   8   1   1   -1.36    1.32
   8   1   1    0.66    5.52
   8   1   1    0.23    4.13
  -8   1  -1   -2.95    6.14
  -8   1  -1   -0.05    2.79
  -8   1  -1    0.04    5.10
  -8   1  -1   -1.71    4.13
  -8   1  -1    0.75    5.40
  -8  -1  -1   -0.05    2.50
  -8  -1  -1   -0.89    1.90
  -8  -1  -1   -1.86    4.45
  -8   1  -1    2.42    6.99
  -8  -1  -1    0.56    4.45
  -8  -1  -1   -2.49    3.75
  -8  -1  -1   -6.86    5.35
  -8  -1  -1    0.15    0.97
  -8   1  -1   -2.35    4.57
  -8   1  -1   -1.17    2.06
  -8  -1  -1    1.30    3.68
  -8  -1  -1    0.26    1.42
   9  -1   1   58.09    7.71
   9  -1   1    5.45   12.28
   9  -1   1   45.01    9.10
   9   1   1   53.25    7.36
   9   1   1   63.69   13.74
   9   1   1   76.93   13.52
   9   1   1   46.26    6.00
  -9   1  -1   -0.61   19.19
  -9   1  -1   70.06   11.09
  -9   1  -1   53.52   11.82
  -9   1  -1   86.11   21.04
  -9   1  -1   59.73    8.39
  -9   1  -1   62.56   11.18
  -9  -1  -1   59.74   16.36
  -9  -1  -1   40.98    6.91
  -9   1  -1   53.44   23.90
  -9  -1  -1   68.13   14.57
  -9  -1  -1   74.43   13.81
  10  -1   1   -0.05    2.94
  10   1   1   -0.02    1.44
  10   1   1    0.05    3.20
 -10   1  -1    6.19    3.64
 -10   1  -1    4.27    5.11
 -10   1  -1   -0.25    4.26
 -10   1  -1    9.42    6.44
 -10   1  -1    2.31   16.90
 -10  -1  -1   -0.48    7.53
 -10  -1  -1    0.27    6.58
 -10  -1  -1   12.88    6.31
  11  -1   1    0.00    2.97
  11   1   1    0.01    3.34
 -11   1  -1    0.35    5.10
 -11   1  -1    0.22    4.14
 -11   1  -1    0.76    6.80
 -11  -1  -1   -0.81    5.06
 -11  -1  -1   -3.25    4.46
 -11   1  -1    0.14    4.06
 -11  -1  -1    0.10    4.55
  12  -1   1   -0.88    3.93
  12   1   1    0.12    4.57
 -12   1  -1    1.08    9.04
 -12   1  -1    8.96    3.99
 -12   1  -1   -6.33    5.06
 -12   1  -1   -0.17    5.39
 -12  -1  -1    5.28    9.98
 -12  -1  -1    1.02    6.54
 -12  -1  -1    0.36    5.92
  13  -1   1    0.19    3.15
  13   1   1   -3.54    7.35
  13   1   1   -0.42    4.47
 -13   1  -1    0.20    5.68
 -13   1  -1    0.71    6.67
 -13   1  -1   -0.40    2.37
 -13   1  -1    0.89    3.11
 -13  -1  -1   -0.10    4.55
 -13  -1  -1    5.75    8.21
 -13  -1  -1    1.39    5.03
  14  -1   1   -2.07    2.64
  14   1   1    0.11    4.10
  14   1   1    3.81    4.15
 -14   1  -1    3.12    2.88
 -14   1  -1   -0.18    3.31
 -14   1  -1   -0.67    2.20
 -14  -1  -1   -0.02    4.45
 -14  -1  -1    0.27    4.65
 -14   1  -1   -0.53    9.46
  15  -1   1    0.39    3.81
  15   1   1   -1.42    3.88
  15   1   1   -0.49    3.94
 -15   1  -1   -0.68    5.45
 -15   1  -1    5.60    3.08
 -15   1  -1    0.54    3.22
 -15  -1  -1    1.37    5.59
 -15  -1  -1    0.23    5.20
 -15   1  -1    0.60    6.48
  16  -1   1    2.55    1.59
  16   1   1   -2.66    3.72
  16   1   1   -1.21    5.60
 -16   1  -1    2.21    4.63
 -16   1  -1   -0.79    1.84
 -16  -1  -1   -6.41    4.06
 -16  -1  -1    2.46    6.53
 -16  -2   1    4.09    2.96
 -16   2   1   -3.32    1.97
 -16  -2   1    1.87    2.84
 -16   2   1    0.01    1.65
 -15   2   1   -0.69    7.86
 -15  -2   1    7.17    5.12
 -15   2   1    3.66    3.78
 -15   2   1   -6.15    5.33
 -15  -2   1    3.92    5.40
  15   2  -1   -1.04    2.48
 -14   2   1    0.32    3.44
 -14   2   1    0.91    4.99
 -14  -2   1    4.59    4.57
 -14  -2   1   -0.98    7.27
 -14   2   1   -6.80    6.46
  14  -2  -1   -1.16    2.59
  14   2  -1   -0.53    3.18
  14   2  -1    0.06    3.15
 -13   2   1   -0.46    7.31
 -13   2   1    6.90    5.54
 -13   2   1    0.08    8.93
 -13  -2   1    0.65    5.89
 -13  -2   1    0.04   10.52
  13   2  -1   -0.39    7.27
  13   2  -1    0.06    2.79
  13  -2  -1    6.45    4.28
 -12   2   1    9.78    6.65
 -12  -2   1   -0.25    6.45
 -12  -2   1    7.51    6.61
 -12   2   1    0.82   14.38
 -12   2   1    0.38    6.52
  12   2  -1    8.50    4.47
  12  -2  -1   10.95    7.42
  12   2  -1   -0.21   11.10
 -11  -2   1    9.85    3.60
 -11   2   1   -0.13   14.60
 -11  -2   1   11.97    7.96
 -11   2   1   20.44    8.70
 -11   2   1    2.84   10.63
 -11  -2   1    0.10    7.72
  11  -2  -1   18.64   14.23
  11   2  -1   10.78    4.62
  11   2  -1    0.09    6.93
 -10  -2   1    3.47    2.67
 -10   2   1    6.01    5.48
 -10   2   1   -0.43    2.20
 -10  -2   1    0.04    7.91
 -10   2   1   -1.21    6.67
 -10  -2   1    4.86    4.90
 -10   2   1   -0.54    5.45
  10   2  -1    3.55    3.07
  10   2  -1    0.04    4.62
  10  -2  -1   -2.97    5.62
  -9   2   1    3.51    7.73
  -9   2   1   -0.29    2.69
  -9  -2   1   -2.95    3.50
  -9  -2   1   -0.87    2.33
  -9  -2   1    0.14    2.00
  -9  -2   1   -0.24    5.74
  -9   2   1   -2.18    8.47
  -9   2   1   -1.81    4.10
  -9   2   1    0.28    1.62
   9   2  -1   -0.67    3.66
   9   2  -1    0.03    2.28
   9   2  -1   -0.29    3.57
   9  -2  -1    3.73    4.38
  -8   2   1    2.45    4.70
  -8   2   1    2.46    1.97
  -8  -2   1    0.77    5.14
  -8  -2   1    2.69    4.08
  -8  -2   1   -0.50    4.23
  -8   2   1    0.00    3.86
  -8  -2   1   -0.16    3.37
  -8  -2   1    3.08    5.05
  -8   2   1    1.02    5.26
  -8   2   1    0.22    5.77
  -8   2   1    8.98    6.62
   8   2  -1   -0.34    2.63
   8   2  -1   -0.79    2.58
   8   2  -1    0.47    2.25
   8   2  -1   -0.89    2.05
   8   2  -1    3.02    4.41
   8   2  -1    2.65    3.36
   8  -2  -1    4.79    3.60
   8  -2  -1   -0.38    1.04
   8  -2  -1    3.19    4.05
  -7   2   1    4.70    5.38
  -7   2   1    3.09    4.60
  -7   2   1   -0.04    1.90
  -7   2   1    0.06    5.92
  -7  -2   1   -1.08    3.52
  -7   2   1    1.99    3.48
  -7  -2   1    5.21    5.52
  -7  -2   1    3.91    3.13
  -7  -2   1    5.06    3.71
  -7   2   1   -0.01    2.10
  -7   2   1    0.08    3.28
  -7   2   1    2.12    6.26
   7  -2  -1    1.06    1.37
   7  -2  -1    0.74    5.76
   7   2  -1    0.67    4.18
   7   2  -1   -0.09    2.22
   7   2  -1    0.44    1.65
   7   2  -1    6.75    5.55
   7   2  -1   -0.25    2.52
   7   2  -1    0.27    3.10
   7   2  -1    0.23    3.43
   7  -2  -1    3.31    8.50
   7  -2  -1    1.78    1.35
   7   2  -1    0.06    3.24
   7  -2  -1   -0.32    4.37
  -6  -2   1    5.75    4.07
  -6   2   1    0.78    2.16
  -6   2   1    1.53    4.84
  -6   2   1    8.68   12.57
  -6   2   1   -0.37    3.86
  -6   2   1    2.32    6.36
  -6   2   1    5.18    2.46
  -6   2   1    0.53    6.84
  -6   2   1    0.07    4.84
  -6  -2   1   -0.64    3.75
  -6  -2   1    2.64    4.34
  -6  -2   1    6.85    5.61
  -6  -2   1    3.98   11.68
  -6   2   1    5.75    5.21
   6  -2  -1    5.03    6.34
   6  -2  -1    2.44    5.38
   6  -2  -1    5.16    2.15
   6   2  -1   -0.35    4.15
   6   2  -1    0.81    4.63
   6   2  -1   -0.89    3.07
   6   2  -1    0.11    3.97
   6   2  -1    3.23    2.58
   6   2  -1    2.90    3.45
   6   2  -1    5.90    5.24
   6  -2  -1    1.47    1.74
   6  -2  -1    0.59    6.72
   6  -2  -1    1.90    5.71
  -5   2   1    3.22    2.24
  -5   2   1    3.63    5.56
  -5   2   1    1.38    5.39
  -5   2   1    6.98    6.49
  -5  -2   1    0.44    3.19
  -5  -2   1    3.02    5.68
  -5   2   1    0.32    3.28
  -5   2   1    1.98    2.19
  -5   2   1    1.91    4.98
  -5  -2   1    1.92    3.46
  -5  -2   1    0.78    7.59
  -5   2   1   -0.15    3.00
  -5  -2   1    0.66    4.70
   5  -2  -1    1.52    2.69
   5  -2  -1    5.41    5.29
   5   2  -1   -0.22    5.57
   5  -2  -1    3.45    2.69
   5   2  -1    1.30    5.29
   5   2  -1    0.65    4.96
   5  -2  -1    1.27    5.75
   5  -2  -1    0.37    3.12
   5  -2  -1    6.54    6.03
   5   2  -1    1.64    4.10
   5   2  -1    2.21    2.97
   5  -2  -1    1.35   11.75
   5   2  -1    0.30    4.20
   5   2  -1    0.36    7.95
  -4   2   1    9.18    7.12
  -4   2   1    3.88    2.91
  -4  -2   1    3.80    4.21
  -4  -2   1    8.36    7.70
  -4  -2   1    4.86    3.67
  -4  -2   1   16.69   10.60
  -4  -2   1    3.87    6.77
  -4   2   1    0.05    7.62
  -4   2   1    8.25    5.41
  -4   2   1    6.21    6.46
  -4   2   1    5.18    6.61
  -4   2   1   10.73    8.61
   4  -2  -1    8.02    2.87
   4  -2  -1    7.80    4.45
   4   2  -1    7.03    5.46
   4   2  -1    4.96    7.43
   4  -2  -1    9.02   14.04
   4   2  -1    0.38   11.14
   4  -2  -1    6.51    3.74
   4   2  -1    4.18    4.05
   4   2  -1   -0.51    5.84
   4   2  -1    8.23    4.73
   4   2  -1    4.03    7.25
   4  -2  -1    7.82   12.64
   4  -2  -1    8.17    9.05
   4  -2  -1    9.53    8.38
   4   2  -1    5.90   12.96
  -3   2   1    1.44   11.26
  -3  -2   1    4.15    4.28
  -3   2   1    1.12    6.16
  -3  -2   1    5.25    6.06
  -3  -2   1    3.56    2.67
  -3  -2   1    0.30    9.40
  -3  -2   1    2.97    5.68
  -3  -2   1    3.99    6.52
  -3   2   1    2.02    3.99
  -3   2   1    0.49    4.61
  -3   2   1    4.06    3.48
  -3   2   1    3.77    6.16
  -3   2   1    4.95    7.46
   3  -2  -1    5.25    4.49
   3  -2  -1   -0.50   13.80
   3  -2  -1    2.55    6.66
   3  -2  -1    7.18    6.59
   3  -2  -1   -1.41   12.48
   3   2  -1    4.75    4.26
   3   2  -1    4.33    6.89
   3   2  -1    5.89    4.16
   3   2  -1    4.56    6.28
   3   2  -1    3.81    4.37
   3   2  -1   -0.44    5.39
   3   2  -1    1.64    6.95
   3  -2  -1    5.19    8.41
   3  -2  -1    5.54    4.93
  -2   2   1    4.08    4.03
  -2   2   1    2.61    3.64
  -2  -2   1    2.29    4.76
  -2   2   1    0.00    4.76
  -2  -2   1    2.28    1.94
  -2  -2   1    3.97    6.65
  -2  -2   1    0.34    8.80
  -2  -2   1    0.22    2.67
  -2  -2   1    6.47    5.85
  -2   2   1    2.02    5.45
  -2   2   1    6.20    5.94
  -2   2   1    3.99    5.75
  -2   2   1    2.33   11.85
   2  -2  -1    9.03    6.51
   2   2  -1    5.77    5.91
   2  -2  -1    4.01    4.58
   2   2  -1    1.67    3.80
   2   2  -1    0.58    3.15
   2   2  -1   -0.67    6.13
   2   2  -1    2.80    4.59
   2   2  -1    0.76    4.41
   2  -2  -1    1.29    2.90
   2  -2  -1   -0.74    5.88
   2  -2  -1    5.10    6.42
   2  -2  -1    4.68    5.63
   2  -2  -1    2.39    4.33
   2   2  -1    4.25    6.24
  -1   2   1   41.86    5.19
  -1   2   1   54.38   14.86
  -1   2   1   59.82   14.73
  -1  -2   1   36.33    5.85
  -1   2   1   49.16   11.97
  -1  -2   1   56.92   16.66
  -1  -2   1   55.50   13.40
  -1  -2   1   47.85   10.11
  -1  -2   1   56.28   14.70
  -1   2   1   47.55   22.22
  -1   2   1   46.13   11.64
  -1   2   1   54.64   13.63
  -1   2   1   45.71    8.29
   1  -2  -1   43.31   12.76
   1  -2  -1   55.94   24.86
   1   2  -1   52.45   10.07
   1   2  -1   55.27   23.91
   1   2  -1   44.53   26.57
   1   2  -1   46.14    6.02
   1   2  -1   40.06    5.81
   1   2  -1   48.87   26.10
   1   2  -1   37.61    6.69
   1  -2  -1   50.25   12.38
   1  -2  -1   49.29   12.22
   1  -2  -1   55.57   15.16
   1   2  -1   45.98   13.86
   1  -2  -1   50.23   12.31
   1  -2  -1   58.11   15.15
   0   2   1  219.40   28.35
   0   2   1  210.24   25.04
   0   2   1  214.98   19.79
   0   2   1  209.23   13.85
   0   2   1  227.82   22.75
   0   2   1  223.25   50.13
   0  -2   1  211.67   48.51
   0  -2   1  219.70   32.77
   0  -2   1  196.04   13.85
   0  -2   1  218.46   28.91
   0  -2   1  219.06   36.33
   0   2   1  208.38   24.75
   0   2   1  209.08   43.08
   0   2  -1  200.63   29.17
   0   2  -1  198.56   15.45
   0   2  -1  181.69   23.07
   0   2  -1  221.73   35.63
   0   2  -1  202.07   30.11
   0   2  -1  198.61   28.16
   0   2  -1  181.06   21.09
   0  -2  -1  204.23   25.55
   0  -2  -1  198.90   16.86
   0  -2  -1  220.05   27.90
   0  -2  -1  196.30   23.59
   0  -2  -1  225.33   40.99
   0  -2  -1  194.72   42.35
   1  -2   1  226.99   20.85
   1  -2   1  196.71   18.16
   1  -2   1  246.47   27.97
   1  -2   1  236.40   53.60
   1  -2   1  232.15   30.74
   1  -2   1  224.96   54.66
   1   2   1  242.53   30.37
   1   2   1  251.08   40.02
   1   2   1  247.57   20.31
   1   2   1  237.44   33.30
   1   2   1  251.53   32.06
   1   2   1  248.79   26.46
   1   2   1  244.36   33.74
   1   2   1  209.42   25.14
   1   2   1  232.05   25.88
  -1   2  -1  214.87   26.00
  -1   2  -1  189.39   30.39
  -1   2  -1  212.09   31.35
  -1   2  -1  231.92   56.67
  -1   2  -1  211.12   16.23
  -1   2  -1  235.72   30.95
  -1  -2  -1  227.78   30.14
  -1  -2  -1  235.99   28.97
  -1  -2  -1  235.34   21.70
  -1  -2  -1  228.63   17.60
  -1  -2  -1  221.85   25.70
  -1  -2  -1  261.55   41.75
  -1  -2  -1  225.76   24.12
   2  -2   1   31.80   12.65
   2  -2   1   38.07    8.46
   2  -2   1   38.71   13.77
   2  -2   1   30.03   16.16
   2  -2   1   39.19   20.29
   2  -2   1   34.30   13.46
   2   2   1   -0.58   14.13
   2   2   1   31.93    7.74
   2   2   1   33.77   23.62
   2   2   1   28.97   14.38
   2   2   1   34.86   23.48
   2   2   1   33.35   10.70
   2   2   1   35.09    7.09
   2   2   1   32.23   10.64
  -2   2  -1   13.71   16.03
  -2   2  -1   31.11   12.72
  -2   2  -1   28.04   18.03
  -2   2  -1   37.85   11.17
  -2   2  -1   27.45    6.66
  -2   2  -1   -0.02   24.96
  -2  -2  -1   35.27   10.92
  -2  -2  -1   34.50    7.16
  -2  -2  -1   -0.97   12.58
  -2  -2  -1   38.20   10.67
  -2  -2  -1   32.76    7.10
  -2  -2  -1   28.63   21.10
   3  -2   1    3.29    5.10
   3  -2   1    2.93    5.26
   3  -2   1    0.20    8.37
   3  -2   1    3.04    5.75
   3  -2   1    1.40    2.08
   3   2   1   -0.64    7.25
   3   2   1    0.93    2.53
   3   2   1    5.91    7.21
   3   2   1    1.85    5.01
   3   2   1    0.83    9.85
   3   2   1    1.26    5.43
   3   2   1    0.15   12.76
   3   2   1    2.84    5.47
  -3   2  -1    0.86    4.83
  -3   2  -1    2.61    4.72
  -3   2  -1    2.91    3.44
  -3   2  -1    3.70    5.47
  -3   2  -1    0.08    6.38
  -3   2  -1    0.80    8.31
  -3  -2  -1    4.97    9.27
  -3  -2  -1    2.23    4.87
  -3  -2  -1   -0.97    3.54
  -3  -2  -1    4.52    4.38
  -3  -2  -1    4.66    5.29
  -3  -2  -1   -0.19    2.33
   4  -2   1   10.83    8.23
   4  -2   1   17.68    9.16
   4  -2   1   15.81    8.13
   4  -2   1   17.96    9.26
   4  -2   1   15.07   15.44
   4   2   1    3.86    6.35
   4   2   1   20.59    8.84
   4   2   1   16.40    7.71
   4   2   1    0.04   11.44
   4   2   1   18.54   11.64
   4   2   1   13.36    8.88
   4   2   1   16.23    9.33
   4   2   1   16.81   15.24
  -4   2  -1   13.36    7.44
  -4   2  -1    8.21    7.64
  -4   2  -1    9.53    2.76
  -4   2  -1    0.06    3.22
  -4   2  -1    0.15    9.22
  -4   2  -1    8.21    3.01
  -4   2  -1    7.07    1.05
  -4   2  -1   10.46   12.78
  -4  -2  -1   16.20   10.23
  -4  -2  -1   13.11    2.74
  -4  -2  -1   17.18    8.20
  -4  -2  -1   11.05    9.64
  -4  -2  -1    9.59    7.73
   5  -2   1  106.98   17.39
   5  -2   1  137.47   35.60
   5  -2   1  123.10   35.61
   5  -2   1  115.77   19.64
   5  -2   1  131.78   17.33
   5   2   1  100.33    8.66
   5   2   1  110.61   17.65
   5   2   1  137.71   42.13
   5   2   1  144.51   39.86
   5   2   1  107.83   31.52
   5   2   1  102.49   18.84
   5   2   1  127.85   23.42
   5   2   1  140.26   19.03
  -5   2  -1  124.70   21.04
  -5   2  -1  116.35   18.85
  -5   2  -1  117.91   31.10
  -5   2  -1  135.86   23.08
  -5   2  -1   77.21    6.54
  -5   2  -1  102.94    9.66
  -5   2  -1   86.09    8.25
  -5   2  -1   82.81    6.47
  -5  -2  -1  118.45   23.52
  -5  -2  -1  111.48   18.53
  -5  -2  -1  139.94   17.92
  -5  -2  -1  115.39   21.95
  -5  -2  -1   82.78    8.37
   6  -2   1   -0.76    5.81
   6  -2   1    1.16    4.06
   6  -2   1    2.51    8.29
   6  -2   1   -1.72    3.79
   6  -2   1   -2.55    4.97
   6   2   1   -0.03    4.36
   6   2   1    1.44    4.44
   6   2   1   -1.91    3.51
   6   2   1    0.14    4.86
   6   2   1    1.54    5.35
   6   2   1    2.61    4.25
   6   2   1   -1.55    1.35
   6   2   1    1.78    5.73
   6   2   1   -2.04    5.67
  -6   2  -1   -0.27    1.10
  -6   2  -1   -1.79    3.45
  -6   2  -1   -0.12    2.21
  -6   2  -1   -0.17    3.29
  -6   2  -1   -0.37    0.95
  -6   2  -1    1.25    3.28
  -6   2  -1    1.79    1.53
  -6   2  -1   -0.83    4.27
  -6  -2  -1   -0.68    2.60
  -6  -2  -1    0.43    3.24
   7  -2   1   22.39    7.76
   7  -2   1   17.86   11.32
   7  -2   1   15.96    8.01
   7  -2   1   28.67    7.42
   7  -2   1   26.68   19.45
   7   2   1    9.08   21.69
   7   2   1   21.69    6.93
   7   2   1    0.07    8.76
   7   2   1   23.19   10.00
   7   2   1   25.51   12.65
   7   2   1   26.70    9.36
   7   2   1   30.28   12.03
  -7   2  -1    0.68    8.66
  -7   2  -1   27.74   13.73
  -7   2  -1    1.68    8.52
  -7   2  -1   23.47   19.26
  -7   2  -1   28.82   11.05
  -7   2  -1   18.96   15.36
  -7  -2  -1   27.44    5.30
  -7  -2  -1   30.37    8.26
  -7  -2  -1   20.26   17.66
  -7  -2  -1   20.59    8.32
   8  -2   1    2.14    3.18
   8  -2   1    2.10    2.98
   8   2   1    1.24    4.49
   8   2   1   -0.11    2.90
   8   2   1   -1.03    5.75
   8   2   1    2.74    8.56
   8  -2   1    0.44    3.45
  -8   2  -1    3.43    6.67
  -8   2  -1    0.03    4.37
  -8   2  -1   -2.58    5.23
  -8   2  -1    0.04    4.01
  -8   2  -1   -0.06    4.25
  -8   2  -1   -0.91    5.72
  -8  -2  -1    2.04    2.17
  -8  -2  -1    2.60    4.36
  -8  -2  -1    3.05    9.02
  -8  -2  -1    2.72    3.21
   9  -2   1   18.23    5.74
   9   2   1   -0.08    8.23
   9   2   1    0.08   16.19
   9   2   1   23.14    8.84
  -9   2  -1    0.22    8.00
  -9   2  -1   -0.04    5.79
  -9   2  -1   -0.75   11.07
  -9   2  -1    0.38    3.98
  -9   2  -1   22.15   15.10
  -9  -2  -1   -0.50   11.95
  -9  -2  -1   13.91    2.86
  -9  -2  -1   27.12   14.20
  10  -2   1   -0.52    2.29
  10  -2   1    2.01    3.41
  10   2   1    0.19    8.22
  10   2   1    1.06    4.01
  10   2   1   -0.09    3.33
 -10   2  -1   -3.48    8.77
 -10   2  -1   -0.78    2.34
 -10   2  -1   -0.02    6.86
 -10   2  -1    0.47    4.80
 -10  -2  -1    0.04    4.99
 -10  -2  -1    0.27    7.49
  11  -2   1   57.78   12.36
  11   2   1   49.69   15.02
  11   2   1   57.80   17.91
 -11   2  -1   29.16   12.94
 -11   2  -1   57.71   17.18
 -11   2  -1   -0.51   38.37
 -11  -2  -1   58.39   16.51
 -11  -2  -1   60.76   14.94
  12  -2   1    2.96    7.11
  12   2   1   -0.03   11.03
  12   2   1   40.81    9.31
 -12   2  -1    0.82   15.80
 -12   2  -1   30.46   11.16
 -12   2  -1   12.88    4.65
 -12  -2  -1   28.73   11.21
 -12  -2  -1    0.46   10.10
  13  -2   1    0.24    5.27
  13   2   1   -0.27    4.45
  13   2   1   -1.92    5.26
 -13   2  -1   30.47   10.74
 -13   2  -1    0.30   16.23
 -13  -2  -1   31.60   11.90
 -13  -2  -1    0.99   10.79
  14  -2   1    0.78    1.76
  14   2   1   -2.25    3.81
  14   2   1   -0.56    3.29
 -14   2  -1    4.76    9.96
 -14   2  -1    0.84    9.00
 -14  -2  -1    6.62    6.68
 -14  -2  -1   -0.37    6.18
  15  -2   1   -2.65    1.56
  15   2   1    3.40    7.50
  15   2   1   -1.23    8.65
 -15   2  -1    7.85    5.24
 -15   2  -1    9.51   12.47
 -15  -2  -1   -9.62   10.50
 -15  -2  -1   -1.37   11.18
  16   2   1    1.68    2.52
  16   2   1   -1.55    2.06
 -16   2  -1    0.29    3.37
 -16  -2  -1   -1.76    3.47
 -16  -2  -1    0.53    3.35
 -15  -3   1   -0.85    2.28
 -15  -3   1    0.91    2.67
 -15   3   1    1.83    4.53
 -15   3   1    2.35    5.68
  15   3  -1    1.02    2.30
 -14  -3   1    4.07    4.71
 -14   3   1    3.08    7.49
 -14   3   1    6.85    6.23
 -14  -3   1    1.65    8.58
  14  -3  -1    6.91    6.65
  14   3  -1    2.66    4.96
 -13   3   1    6.33    4.42
 -13  -3   1   13.16    5.76
 -13   3   1   -7.81   12.73
 -13   3   1   -1.36   15.27
 -13  -3   1   -0.93    5.21
  13  -3  -1   -1.15    3.88
  13   3  -1    1.94    3.87
 -12  -3   1    0.93    3.50
 -12  -3   1   14.82    9.44
 -12   3   1   13.18    5.44
 -12   3   1   -2.31    9.79
 -12   3   1   28.99    8.96
 -12  -3   1    0.01    6.41
  12  -3  -1   22.10   10.36
  12   3  -1    7.80    9.52
 -11  -3   1   77.92   15.41
 -11   3   1  110.94   22.72
 -11  -3   1   80.77   13.77
 -11   3   1   90.31   25.26
 -11   3   1  102.44   25.26
 -11  -3   1   54.35   17.63
  11   3  -1   94.16   17.22
  11   3  -1   48.06    9.28
  11  -3  -1  103.05   30.60
 -10  -3   1   70.10   14.31
 -10  -3   1   72.02   13.29
 -10   3   1   96.93   21.92
 -10  -3   1   85.70   12.84
 -10   3   1   80.70   24.45
 -10   3   1   85.41   15.80
  10  -3  -1  101.82   20.94
  10   3  -1   53.65   10.19
  10   3  -1  110.46   18.79
  -9  -3   1    0.07    3.97
  -9  -3   1    4.34    5.05
  -9   3   1    6.98    5.41
  -9   3   1    1.08    9.27
  -9  -3   1    5.05    4.80
  -9   3   1   14.33   13.09
   9   3  -1    0.14    7.76
   9  -3  -1    4.44    8.97
   9   3  -1    7.49    3.96
  -8  -3   1  156.03   19.31
  -8   3   1  237.60   32.37
  -8  -3   1  188.27   22.76
  -8  -3   1  171.14   16.29
  -8   3   1  258.58   37.26
   8   3  -1  137.99   13.80
   8   3  -1  219.42   26.60
   8   3  -1  154.06   15.65
   8  -3  -1  247.06   48.88
  -7  -3   1    6.65    3.85
  -7  -3   1    0.06    2.94
  -7   3   1    7.77    7.19
  -7  -3   1   10.09    5.47
  -7  -3   1    6.78    3.51
  -7   3   1    9.06    8.97
  -7   3   1   -0.08    3.36
   7   3  -1    0.35    3.15
   7   3  -1   10.20    5.98
   7  -3  -1    6.59    6.52
   7   3  -1   -0.01    2.16
   7  -3  -1    1.92    5.68
   7   3  -1    0.70    3.19
   7  -3  -1    3.20    1.98
   7   3  -1    4.43    3.91
  -6   3   1    5.50    4.16
  -6   3   1    5.72    6.38
  -6  -3   1    6.87    6.41
  -6  -3   1    3.89    3.30
  -6  -3   1    5.76    5.28
  -6  -3   1    0.03    2.36
  -6   3   1    7.82    6.50
  -6   3   1    2.10    3.80
   6   3  -1    4.74    3.09
   6   3  -1    0.22    3.53
   6  -3  -1    4.98    2.37
   6   3  -1    6.91    6.04
   6   3  -1   -0.07    3.22
   6  -3  -1   -0.93    5.49
   6   3  -1    0.02    2.58
   6  -3  -1    9.15    6.34
   6   3  -1   -0.23    3.51
  -5  -3   1    1.26    3.77
  -5  -3   1    0.16    1.36
  -5   3   1    2.31    4.25
  -5  -3   1   -3.66    2.03
  -5   3   1   -1.70    3.03
  -5   3   1    3.57    7.43
  -5   3   1   -2.33    8.22
  -5   3   1   -1.25    2.85
  -5  -3   1    0.74    6.32
  -5  -3   1   -0.18    3.06
  -5   3   1   -0.02    1.62
  -5  -3   1    3.73    4.84
   5   3  -1    1.45    4.97
   5   3  -1   -0.03    5.55
   5   3  -1    0.17    2.74
   5   3  -1    0.02    2.55
   5  -3  -1    0.25    4.76
   5  -3  -1    2.66    2.36
   5  -3  -1    1.69    4.72
   5  -3  -1   -2.02    5.59
   5  -3  -1    0.57    2.86
   5   3  -1    2.10    2.53
   5   3  -1   -0.04    5.24
   5  -3  -1    1.17    2.44
   5  -3  -1   -0.02    5.37
   5   3  -1    1.59    4.54
  -4  -3   1  540.67   47.87
  -4   3   1  363.30   58.15
  -4   3   1  356.01   32.32
  -4   3   1  455.33   66.87
  -4  -3   1  489.93   56.41
  -4  -3   1  293.48   30.22
  -4  -3   1  411.41   54.93
  -4   3   1  445.65   38.80
  -4   3   1  403.28   32.93
  -4  -3   1  386.84   37.73
   4   3  -1  402.10   27.03
   4   3  -1  425.49   31.02
   4   3  -1  443.00   33.69
   4   3  -1  479.23   33.86
   4  -3  -1  423.41   63.68
   4  -3  -1  410.53   41.30
   4  -3  -1  491.85   49.37
   4   3  -1  451.20   43.43
   4  -3  -1  344.11   25.32
   4  -3  -1  375.58   22.89
   4  -3  -1  413.35   40.96
   4   3  -1  347.92   47.96
   4  -3  -1  406.37   31.65
   4   3  -1  337.88   27.82
  -3  -3   1   16.37    6.15
  -3  -3   1    9.76    6.88
  -3   3   1    2.08    8.82
  -3  -3   1    0.34    2.96
  -3   3   1    9.88    5.78
  -3   3   1    9.01    7.03
  -3  -3   1   12.12    6.53
  -3   3   1   -0.23    5.51
  -3   3   1   10.14    5.69
  -3   3   1   11.00    7.10
  -3  -3   1   -0.24   10.30
  -3  -3   1   12.10    5.38
   3   3  -1    8.85    7.66
   3  -3  -1    9.24    7.43
   3  -3  -1    6.44    2.42
   3  -3  -1    9.68    7.60
   3  -3  -1   10.94    5.64
   3  -3  -1    9.01   10.96
   3   3  -1    0.17    7.98
   3   3  -1    6.13    6.42
   3   3  -1    8.64    9.45
   3  -3  -1   -0.59    6.99
   3  -3  -1   11.52    8.41
   3   3  -1    0.18    9.95
   3   3  -1   11.88    3.24
  -2  -3   1  210.22   22.00
  -2   3   1  176.09   18.84
  -2   3   1  209.39   38.48
  -2   3   1  150.88   14.72
  -2  -3   1  194.62   23.16
  -2  -3   1  193.74   27.27
  -2  -3   1  169.10   21.93
  -2   3   1  189.25   25.73
  -2   3   1  196.12   19.72
  -2   3   1  195.61   22.89
   2  -3  -1  210.83   43.22
   2   3  -1  167.78   17.48
   2  -3  -1  186.63   21.19
   2   3  -1  183.84   18.34
   2   3  -1  206.46   36.78
   2  -3  -1  194.14   18.97
   2  -3  -1  209.51   24.62
   2  -3  -1  199.74   25.18
   2   3  -1  210.98   19.72
   2  -3  -1  191.31   20.44
   2  -3  -1  165.28   23.49
   2   3  -1  206.67   43.13
   2   3  -1  154.72   24.53
  -1   3   1  134.80   20.29
  -1   3   1  139.87   22.97
  -1   3   1  116.36   12.07
  -1   3   1  139.26   36.02
  -1  -3   1  141.74   20.20
  -1   3   1  140.92   16.24
  -1  -3   1  132.45   24.15
  -1   3   1  127.17   14.80
  -1  -3   1  120.80   31.32
  -1  -3   1  110.20   16.49
   1  -3  -1  132.04   11.21
   1   3  -1  132.78   20.92
   1  -3  -1  134.05   17.98
   1   3  -1  134.88   20.01
   1  -3  -1  130.55   30.81
   1  -3  -1  139.74   19.87
   1   3  -1   99.70    7.49
   1  -3  -1  139.37   16.89
   1   3  -1  119.94   20.78
   1  -3  -1  129.71   17.76
   1  -3  -1  135.11   19.52
   1   3  -1  133.55   15.10
   0   3   1  263.36   15.23
   0   3   1  291.85   29.90
   0  -3   1  245.56   23.32
   0  -3   1  326.86   53.40
   0   3   1  300.48   32.90
   0   3   1  304.63   33.18
   0  -3   1  284.39   24.28
   0   3   1  324.76   24.52
   0   3   1  266.05   34.60
   0  -3   1  300.87   31.11
   0   3   1  282.75   22.74
   0  -3   1  298.45   36.75
   0   3  -1  267.79   32.60
   0  -3  -1  289.12   19.87
   0  -3  -1  274.37   40.30
   0  -3  -1  286.15   29.21
   0  -3  -1  241.28   23.86
   0   3  -1  291.00   25.49
   0   3  -1  263.93   29.80
   0  -3  -1  292.31   27.61
   0   3  -1  182.09   17.55
   0   3  -1  270.75   13.23
   0  -3  -1  288.82   30.17
   0  -3  -1  308.91   26.43
   1   3   1  197.07   26.80
   1   3   1  187.02   16.47
   1   3   1  207.19   29.92
   1   3   1  211.28   29.84
   1  -3   1  187.40   32.98
   1   3   1  191.79   43.44
   1   3   1  188.73   14.27
   1   3   1  207.40   16.46
   1   3   1  196.69   14.88
   1   3   1  202.49   20.68
   1  -3   1  183.04   23.49
   1  -3   1  202.26   29.61
   1  -3   1  196.57   28.52
   1   3   1  171.59   18.55
  -1  -3  -1  208.23   28.13
  -1   3  -1  145.51    7.55
  -1   3  -1  178.69   23.28
  -1   3  -1  174.26   25.06
  -1   3  -1  131.28   11.92
  -1  -3  -1  218.04   28.74
  -1   3  -1  187.60   25.42
  -1   3  -1  141.91   17.06
  -1   3  -1  177.54   19.63
  -1  -3  -1  164.99   29.87
  -1  -3  -1  185.27   20.48
   2   3   1  114.73    9.28
   2   3   1  144.69   21.81
   2   3   1  119.35    9.94
   2  -3   1  141.38   18.73
   2  -3   1  142.46   37.72
   2   3   1  163.70   24.24
   2   3   1  150.56   23.31
   2   3   1  120.95   10.89
   2   3   1  137.64   17.16
   2  -3   1  103.74    9.22
   2  -3   1  134.98   30.44
   2  -3   1  136.53   21.98
   2   3   1  144.83   34.76
   2   3   1  137.45   25.45
   2   3   1  144.59    9.49
  -2  -3  -1  141.63   12.53
  -2  -3  -1  130.82   18.51
  -2  -3  -1  175.89   19.26
  -2   3  -1  113.50   20.21
  -2   3  -1  106.27   12.42
  -2   3  -1  126.02   39.59
  -2   3  -1  153.83   21.13
  -2   3  -1  108.06   18.78
  -2  -3  -1  106.94    8.40
  -2  -3  -1  146.38   18.62
  -2   3  -1  109.77   28.75
   3  -3   1  107.37   15.93
   3   3   1   74.10    7.34
   3   3   1  114.83   20.80
   3   3   1  134.58   39.54
   3  -3   1  102.09   16.11
   3   3   1  106.55    8.59
   3  -3   1  113.69   19.19
   3   3   1   97.62   15.37
   3   3   1   99.22   17.87
   3   3   1   84.20    6.10
   3  -3   1   83.78    9.02
   3  -3   1  103.21   18.18
   3   3   1  102.55   18.81
   3   3   1  113.85   16.56
  -3   3  -1  104.70   21.90
  -3   3  -1   88.58   20.04
  -3   3  -1   88.47   16.14
  -3  -3  -1  129.19   18.76
  -3  -3  -1   85.31   12.93
  -3  -3  -1   83.11    8.76
  -3   3  -1   85.23   29.07
  -3   3  -1  128.24   18.95
  -3  -3  -1   95.55   16.48
  -3  -3  -1  120.95   21.78
  -3  -3  -1  117.37   16.50
   4   3   1    8.46    3.02
   4   3   1    6.21    9.81
   4   3   1    6.63    6.67
   4  -3   1    4.84    5.18
   4  -3   1    9.62    5.96
   4   3   1    0.29    1.84
   4   3   1    6.05    6.10
   4  -3   1    8.47    5.70
   4  -3   1    9.97    6.59
   4   3   1   12.72    6.02
   4   3   1    7.58    8.56
   4  -3   1    8.31    5.93
   4   3   1    0.29    8.31
  -4  -3  -1    8.62    5.97
  -4   3  -1    9.48    5.97
  -4   3  -1    8.95    7.94
  -4  -3  -1    7.07    3.72
  -4   3  -1    8.19    5.10
  -4  -3  -1    7.57    7.59
  -4  -3  -1    6.08    5.56
  -4  -3  -1    9.63    6.87
  -4  -3  -1   -0.26    2.77
  -4   3  -1    3.06    6.07
   5   3   1  136.31   21.63
   5   3   1  163.94   28.00
   5  -3   1  157.80   35.30
   5   3   1  198.41   40.80
   5  -3   1  150.21   19.34
   5  -3   1  169.72   21.71
   5   3   1  133.85   20.62
   5   3   1  183.95   29.11
   5  -3   1  181.85   23.10
   5  -3   1  143.01   33.03
   5   3   1  142.59   23.37
  -5   3  -1  144.20   38.80
  -5   3  -1  149.22   19.31
  -5   3  -1  138.63   19.29
  -5  -3  -1  141.38   32.37
  -5  -3  -1  126.62   12.39
   6   3   1   -0.27    3.90
   6  -3   1    0.03    3.54
   6   3   1    5.06    4.72
   6  -3   1    3.92    6.61
   6   3   1   -1.53    7.91
   6   3   1    0.05    8.34
   6  -3   1   -0.08    4.24
  -6   3  -1    0.30    4.09
  -6  -3  -1   -0.05    2.38
  -6   3  -1   -2.32    3.71
  -6   3  -1    9.22    5.44
  -6  -3  -1   -2.62    6.33
  -6   3  -1    2.05    4.70
   7  -3   1    0.55    5.76
   7   3   1    2.52    6.52
   7   3   1    8.40   10.00
   7   3   1    4.66    4.84
  -7   3  -1    0.11    6.30
  -7   3  -1   -1.64    6.70
  -7   3  -1   -0.58    8.73
  -7   3  -1    8.59    6.37
  -7  -3  -1   12.60    5.82
  -7  -3  -1   -0.70    3.97
  -7  -3  -1    6.55    4.41
   8  -3   1   -0.07    3.63
   8   3   1   -0.02    2.99
   8   3   1   -2.64    6.78
   8   3   1   -0.66    4.65
  -8  -3  -1   -3.92    4.43
  -8   3  -1   -1.48    7.07
  -8   3  -1   -0.28    7.20
  -8  -3  -1   -0.04    3.21
  -8  -3  -1    3.38    2.85
  -8   3  -1   -0.31   11.20
  -8   3  -1    1.49    5.29
   9   3   1   67.81   16.67
   9  -3   1   54.65   18.90
   9   3   1   62.86   23.44
   9   3   1   38.43    9.58
  -9   3  -1   -0.35   29.27
  -9  -3  -1   59.16   11.15
  -9   3  -1   43.23   12.06
  -9   3  -1   -0.39   20.97
  -9   3  -1   51.81   13.37
  -9  -3  -1   49.09   14.34
  -9  -3  -1   45.50    8.27
  10   3   1    5.16    8.54
  10  -3   1    3.47    3.80
  10   3   1    0.56    6.11
  10   3   1   -0.20    2.82
 -10   3  -1   -0.80    8.96
 -10  -3  -1   -0.03    3.42
 -10   3  -1    0.09    3.63
 -10   3  -1    4.88    2.98
 -10  -3  -1   -4.02    4.42
 -10  -3  -1   -2.00    3.14
 -10   3  -1   -0.41    6.39
  11  -3   1    1.70    5.73
  11  -3   1   20.22    5.52
  11   3   1   -0.02   14.02
  11   3   1    0.87    9.92
 -11  -3  -1   -1.65    8.87
 -11   3  -1   29.45   16.35
 -11   3  -1   40.12   13.18
 -11  -3  -1   29.04   11.58
  12   3   1    9.07    9.42
  12  -3   1    0.15    2.75
  12   3   1   -0.22    7.73
 -12   3  -1    8.92   24.17
 -12   3  -1   31.31   11.01
 -12  -3  -1   -0.86    7.71
 -12  -3  -1   21.54   16.55
  13   3   1    1.35    6.78
  13   3   1   -0.24    3.13
 -13   3  -1    2.27    6.15
 -13   3  -1   -5.75    8.37
 -13  -3  -1    0.82    7.83
 -13  -3  -1   13.45   10.94
  14   3   1    5.60    6.39
  14   3   1    2.37    4.81
 -14   3  -1   -3.97   11.66
 -14   3  -1    1.99    8.98
 -14  -3  -1    2.58    9.79
 -14  -3  -1    8.25    6.75
  15   3   1    0.79    2.59
  15   3   1    3.22    4.14
 -15   3  -1   -2.74    8.15
 -15   3  -1    0.23    3.98
 -15  -3  -1   -4.52    3.51
 -15  -3  -1    2.15    4.24
 -13   4   1    2.94    5.24
 -13  -4   1    0.18    1.38
 -13   4   1    3.46    4.75
  13  -4  -1   -4.35    4.80
  13   4  -1   -0.34    4.66
 -12  -4   1   -1.63    2.46
 -12  -4   1    3.95    2.55
 -12   4   1   -9.10    9.23
 -12   4   1   -0.08    6.12
  12   4  -1    0.35    8.88
  12  -4  -1    2.32    6.01
 -11   4   1    0.48    7.31
 -11  -4   1    7.39    4.23
 -11  -4   1   -0.02    3.60
 -11   4   1   -0.12    8.34
  11  -4  -1    1.67   10.40
  11   4  -1   -3.86    9.67
 -10   4   1    0.08    6.85
 -10  -4   1    0.06    3.33
 -10  -4   1    3.14    4.61
 -10   4   1    0.81   13.90
 -10   4   1    3.27    3.18
  10  -4  -1   -2.40    8.91
  10   4  -1   10.22    7.89
  -9   4   1    0.70    5.18
  -9  -4   1    0.74    3.94
  -9  -4   1   -0.79    2.53
  -9   4   1   -0.23    6.86
  -9   4   1   -0.85    2.68
   9   4  -1    0.09    3.97
   9   4  -1   -0.11    5.52
   9  -4  -1    3.26    6.10
  -8  -4   1    0.98    6.94
  -8  -4   1   -0.32    2.22
  -8   4   1    1.39    2.77
  -8   4   1    1.10    8.27
  -8   4   1   -0.21    6.84
   8   4  -1   -0.15    5.94
   8   4  -1    0.67    4.55
   8  -4  -1    8.60   11.60
  -7  -4   1   -0.02    8.79
  -7   4   1    0.11    7.72
  -7   4   1    1.42    5.65
  -7   4   1    1.21    3.25
   7   4  -1    0.03    1.70
   7   4  -1   -2.35    2.03
   7   4  -1    0.30    4.29
   7   4  -1    0.71    1.84
   7  -4  -1    0.64    4.67
   7  -4  -1    1.82    2.79
  -6  -4   1    2.47    8.75
  -6   4   1   -0.76    5.08
  -6   4   1    0.05   10.46
  -6   4   1    1.98    3.94
   6   4  -1   -0.11    2.93
   6   4  -1    1.47    3.03
   6   4  -1    3.62    2.91
   6   4  -1   -0.69    9.72
   6  -4  -1   -1.80    3.92
   6  -4  -1    2.01    6.09
  -5  -4   1   -1.26    5.46
  -5   4   1    7.12    4.69
  -5   4   1   -0.28    5.06
  -5   4   1    0.00    6.08
   5   4  -1    0.02    3.37
   5   4  -1   -0.97    9.81
   5   4  -1    0.03    3.42
   5   4  -1    0.84    3.00
   5  -4  -1    7.06    6.12
   5  -4  -1    6.60    6.74
  -4  -4   1   -1.04    9.15
  -4   4   1    2.42    4.65
  -4   4   1    9.63    9.00
  -4   4   1    0.00    5.82
   4   4  -1   -0.77    4.41
   4   4  -1    0.15    2.91
   4   4  -1    0.14    3.02
   4   4  -1   -0.56    2.40
   4  -4  -1    0.05    3.11
   4  -4  -1   -2.09    7.85
  -3  -4   1    6.65    8.11
  -3   4   1    5.63    9.79
  -3   4   1   -6.04    3.79
  -3   4   1    0.20    4.72
   3   4  -1   -2.87    5.03
   3  -4  -1   -0.63    3.69
   3   4  -1    0.79    4.04
   3   4  -1   -0.77    3.02
   3   4  -1   -4.19    6.61
   3  -4  -1   -0.73    4.38
   3  -4  -1   -0.95    1.44
   3  -4  -1    1.35    7.93
  -2  -4   1    1.20    5.73
  -2   4   1    0.28    2.01
  -2   4   1    0.65    4.59
  -2   4   1    1.16    3.03
  -2   4   1    2.50    4.40
  -2   4   1   -1.38    4.49
  -2   4   1    0.26    4.27
   2   4  -1    0.09    2.98
   2   4  -1   -0.28    6.44
   2   4  -1   -3.31    4.15
   2   4  -1    0.20    5.11
   2   4  -1    1.61    4.47
   2  -4  -1    1.56    1.55
   2  -4  -1    3.09    4.06
   2  -4  -1    0.19    2.76
   2  -4  -1   -0.95    3.06
  -1  -4   1   -1.24    2.95
  -1   4   1    0.56    4.57
  -1   4   1   -0.42    1.90
  -1   4   1   -2.60    3.16
  -1   4   1   -0.09    2.19
  -1   4   1   -0.52    4.72
  -1   4   1   -0.18    2.43
   1   4  -1    0.52    3.94
   1   4  -1    0.04    3.00
   1   4  -1   -2.32    3.84
   1   4  -1   -3.02    4.26
   1   4  -1   -0.23    3.00
   1  -4  -1    0.36    1.64
   1  -4  -1    4.30    3.16
   1  -4  -1    1.52    3.01
   1  -4  -1    0.48    3.42
   0   4   1   22.91    4.47
   0  -4   1    0.20    5.42
   0   4   1   19.22    3.97
   0   4   1   -0.01    8.43
   0   4   1   24.79   16.97
   0   4   1   14.81   16.43
   0   4   1   17.19    3.45
   0   4  -1   22.89   10.85
   0   4  -1   15.60    7.98
   0   4  -1   19.28   11.16
   0   4  -1   19.91   10.31
   0  -4  -1   29.17    7.86
   0  -4  -1   25.55    9.31
   0  -4  -1    1.22   12.82
   0  -4  -1   30.33    7.79
   0  -4  -1   26.82    8.85
   1  -4   1   36.09    6.53
   1   4   1   48.75    8.86
   1   4   1   55.63   14.20
   1   4   1   59.12   14.46
   1   4   1   49.66   12.55
  -1   4  -1   48.27   14.74
  -1   4  -1   -1.47   24.35
  -1   4  -1   46.02   13.20
  -1   4  -1   43.07   11.09
  -1  -4  -1   52.96    9.22
  -1  -4  -1   44.89    8.89
  -1  -4  -1   51.78    8.50
  -1  -4  -1   57.31    9.05
   2  -4   1   -2.83    6.40
   2  -4   1    0.14    3.65
   2   4   1   11.28    5.94
   2   4   1    8.95    5.98
   2   4   1    0.07    4.14
  -2   4  -1    3.10    6.04
  -2   4  -1   11.66    8.37
  -2   4  -1    2.58    5.54
  -2  -4  -1    9.44    3.66
  -2  -4  -1    5.54    5.35
  -2  -4  -1   -0.19    4.48
   3  -4   1   16.48    9.37
   3   4   1    5.19    8.49
   3   4   1    0.06   11.69
   3   4   1   15.54    8.55
  -3   4  -1    6.09    5.70
  -3   4  -1   10.57    8.72
  -3   4  -1    2.38    3.16
  -3   4  -1    2.53    4.83
  -3   4  -1    4.16    5.99
  -3  -4  -1   14.17    6.14
  -3  -4  -1    5.12    2.67
  -3  -4  -1    4.69    2.89
  -3  -4  -1   -0.15    7.77
   4  -4   1   12.95    8.25
   4   4   1   -0.04    6.09
   4   4   1   11.75   12.75
   4   4   1    7.72    7.30
  -4   4  -1    0.06    6.37
  -4   4  -1    5.17    4.30
  -4   4  -1   10.16    6.64
  -4  -4  -1    0.29    9.77
  -4  -4  -1   10.36    6.85
  -4   4  -1   17.19    9.56
   5   4   1   95.94   30.09
   5   4   1   67.59   16.87
   5   4   1   70.35   16.34
   5  -4   1  100.73   19.61
  -5   4  -1   65.32   11.94
  -5   4  -1   -0.20   22.32
  -5   4  -1  102.59   33.18
  -5  -4  -1   68.39   13.72
  -5  -4  -1   84.82   15.10
   6  -4   1    8.49    9.88
   6   4   1    0.73    4.66
   6   4   1   -6.63    5.33
   6   4   1   -1.60    5.16
  -6   4  -1   -0.50    3.70
  -6   4  -1    1.91    3.62
  -6  -4  -1   -1.45    3.83
  -6   4  -1   -0.82    5.75
  -6   4  -1    5.98    5.34
  -6  -4  -1   -0.55    3.97
   7  -4   1   26.56   12.36
   7   4   1   22.31    8.88
   7   4   1   -0.65   11.38
   7   4   1   33.46   11.19
  -7   4  -1   -0.98    8.20
  -7   4  -1   21.77    9.71
  -7   4  -1    0.29   12.17
  -7  -4  -1   16.33    7.42
  -7  -4  -1   17.96    7.99
  -7   4  -1    0.85    8.25
   8   4   1    0.96    5.21
   8   4   1    0.84    5.70
   8   4   1    0.15    3.81
   8  -4   1    3.17    5.40
  -8   4  -1   -0.25    8.28
  -8   4  -1    5.40    9.53
  -8  -4  -1    1.42    5.42
  -8  -4  -1    5.32    7.75
  -8   4  -1    0.12    7.83
  -8   4  -1    0.11   10.18
   9   4   1   -0.39    3.24
   9   4   1    0.21    5.81
   9   4   1   -1.00    5.00
   9  -4   1   12.42    7.72
  -9   4  -1   17.00   23.03
  -9  -4  -1   19.38    9.35
  -9  -4  -1   28.50   12.38
  -9   4  -1    0.02    7.26
  -9   4  -1   25.90    8.99
  -9   4  -1   -0.91   17.89
  10   4   1   -0.04    5.28
  10   4   1   -0.18    2.68
  10   4   1    0.34    6.23
  10  -4   1    7.34    4.58
 -10   4  -1   -3.90    9.54
 -10   4  -1   -0.17    7.45
 -10   4  -1    0.01    4.03
 -10  -4  -1    6.31    4.21
 -10  -4  -1    3.60    6.37
 -10  -4  -1    1.84    3.38
 -10   4  -1    9.43    4.59
  11   4   1   -0.18    8.34
  11   4   1   -0.10    6.50
  11  -4   1   10.87    5.33
 -11   4  -1   21.45   13.40
 -11  -4  -1   24.45    9.14
 -11  -4  -1   12.40    4.53
 -11  -4  -1   10.00    5.01
 -11   4  -1    0.13   10.53
  12   4   1   -0.51    6.11
  12   4   1    5.26    7.61
 -12  -4  -1    5.14    4.87
 -12  -4  -1    1.24    2.68
 -12   4  -1   -0.20    5.75
 -12   4  -1  -13.38   13.00
  13   4   1    6.28    7.89
 -13   4  -1    3.86   11.21
 -13  -4  -1    3.62    5.95
 -13   4  -1   10.14    9.06
 -12   5   1   -2.07    4.23
  12   5  -1    1.19    3.71
 -11  -5   1    2.07    3.88
 -11   5   1    5.65    5.32
 -11   5   1   -3.47    6.90
  11   5  -1    0.59    4.96
  11  -5  -1    4.12    9.93
 -10  -5   1   -0.55    5.63
 -10   5   1    1.08    5.47
 -10   5   1    0.15    6.95
  10   5  -1   -3.42    6.68
  10  -5  -1   -2.43    7.25
  -9  -5   1    2.35    4.78
  -9   5   1   -0.05    5.16
  -9   5   1    0.94   13.27
   9   5  -1    2.51    7.10
   9  -5  -1   -9.02    7.62
  -8  -5   1    0.94    3.90
  -8   5   1   -0.53    3.66
  -8   5   1    0.12    6.18
   8   5  -1    0.04    9.53
   8  -5  -1   17.71   10.12
  -7  -5   1    8.05    7.03
  -7   5   1   -1.14   10.75
  -7   5   1    3.27    4.75
  -7   5   1    5.55    5.98
   7   5  -1    0.03    5.20
   7  -5  -1   -1.71    9.26
  -6  -5   1   13.44   10.67
  -6   5   1   24.04    8.24
  -6   5   1   -0.97   27.49
  -6   5   1   23.55   15.12
   6   5  -1    0.69    1.79
   6   5  -1   -0.39    2.40
   6   5  -1   -1.76    4.39
   6   5  -1    0.20    3.31
   6  -5  -1   -2.48    4.73
  -5  -5   1    0.73    5.55
  -5   5   1    5.28    5.58
  -5   5   1    0.71    6.19
  -5   5   1   -0.46    6.86
   5   5  -1   -0.84    3.09
   5   5  -1    0.59    5.86
   5   5  -1    3.54    3.07
   5   5  -1   -0.16    3.87
   5  -5  -1    4.31    6.40
  -4  -5   1   44.00   14.15
  -4   5   1   60.12   16.55
  -4   5   1   64.69   17.38
  -4   5   1   48.42   15.22
   4   5  -1   48.93   10.08
   4   5  -1   53.37   15.51
   4   5  -1   54.23   12.14
   4   5  -1   33.45    9.34
   4  -5  -1   48.34   17.23
  -3  -5   1    1.16    6.51
  -3   5   1   11.44   14.47
  -3   5   1   13.38    8.55
   3   5  -1    2.32    6.18
   3   5  -1    3.55    7.44
   3   5  -1    0.57   13.62
   3   5  -1   14.12    5.22
   3  -5  -1    6.69    8.98
  -2  -5   1   75.47   14.22
  -2   5   1  100.75   33.48
  -2   5   1  106.13   31.83
   2   5  -1  111.49   31.01
   2   5  -1   72.62   13.88
   2   5  -1   89.40   16.62
   2   5  -1  103.03   21.52
   2  -5  -1   83.44   12.93
   2  -5  -1   89.12   31.76
  -1  -5   1    0.63    4.19
  -1   5   1    9.94    7.32
  -1   5   1    5.25    7.31
   1   5  -1    5.49   12.14
   1   5  -1    0.54    7.16
   1   5  -1   10.73    4.84
   1   5  -1   -0.02    6.36
   1  -5  -1    0.06    7.80
   1  -5  -1   -1.91    9.53
   0  -5   1    0.42   15.08
   0   5   1   52.41    7.34
   0   5   1   80.10   17.09
   0   5   1   85.63   17.75
   0   5  -1   64.24   16.52
   0   5  -1   66.17   21.21
   0   5  -1   71.26   20.66
   0  -5  -1   70.17   13.70
   1  -5   1   60.80   18.08
   1   5   1   67.48   18.19
   1   5   1   64.90   17.19
   1   5   1   42.86    9.98
  -1   5  -1   60.16   18.84
  -1   5  -1   -0.46   21.71
  -1   5  -1   49.47   11.71
  -1  -5  -1   72.82   13.45
  -1  -5  -1   45.10    9.62
  -1  -5  -1   39.94    8.76
   2  -5   1    7.08    8.63
   2   5   1   12.75   13.16
   2   5   1    1.54    7.34
   2   5   1    3.36    8.51
  -2   5  -1   16.55    8.54
  -2   5  -1    2.83    5.26
  -2   5  -1   -0.32    5.70
  -2  -5  -1   10.72    6.25
  -2  -5  -1    2.39    6.22
  -2  -5  -1   -0.09    3.35
   3   5   1   62.40   12.66
   3   5   1   86.97   33.46
   3   5   1   94.40   30.49
  -3   5  -1   77.03   23.43
  -3   5  -1   59.47   14.39
  -3   5  -1   65.88   14.91
  -3  -5  -1   44.87   14.48
  -3  -5  -1   81.98   17.50
   4  -5   1    2.71    8.07
   4   5   1    7.19    6.77
   4   5   1    0.68    5.18
   4   5   1    5.71   12.19
  -4  -5  -1   -0.36    2.19
  -4   5  -1   -0.56    3.08
  -4   5  -1    3.60    9.28
  -4   5  -1   -4.14    5.98
  -4  -5  -1    3.92    4.04
   5  -5   1    0.14   19.99
   5   5   1   -0.85    8.48
   5   5   1   34.65    9.99
   5   5   1   18.16   16.33
  -5   5  -1   -0.27   10.85
  -5   5  -1   24.98   12.10
  -5   5  -1    0.00   10.50
  -5  -5  -1   12.33    5.42
   6   5   1   -0.19    5.86
   6  -5   1    8.16    7.56
   6   5   1    1.30    5.43
   6   5   1   -0.49    9.15
  -6   5  -1    2.36    3.61
  -6   5  -1   18.14    8.19
  -6   5  -1    0.98    8.09
  -6   5  -1    0.02    4.96
  -6  -5  -1    2.66    4.03
   7   5   1    0.34    6.37
   7  -5   1   12.11    7.76
   7   5   1    0.03    6.41
   7   5   1    2.48    8.98
  -7  -5  -1    0.11    6.86
  -7   5  -1   -1.97    9.01
  -7   5  -1   -0.02    8.15
  -7   5  -1   11.86    7.85
  -7   5  -1    3.21    4.53
  -7  -5  -1    6.30    4.43
   8   5   1   -0.74    5.53
   8  -5   1    5.09    5.79
   8   5   1    0.24    6.70
   8   5   1    0.68    4.94
  -8   5  -1    6.02   11.58
  -8   5  -1    3.20    4.92
  -8   5  -1    6.38   14.25
  -8  -5  -1    1.38    6.09
  -8  -5  -1    4.42    4.39
   9  -5   1    3.91    6.68
   9   5   1   -0.85    3.64
   9   5   1    0.26    3.43
   9   5   1    0.05    2.32
  -9  -5  -1    7.50    4.37
  -9   5  -1    2.50    5.28
  -9   5  -1    6.62    5.64
  -9   5  -1   -3.91    8.64
  -9  -5  -1    0.97    5.45
  10   5   1   -6.79    3.32
  10   5   1    0.89    1.51
  10   5   1   -4.17    3.84
  10  -5   1    3.67    3.62
 -10   5  -1   -1.44    6.98
 -10   5  -1    6.57    4.37
 -10   5  -1    1.86    3.10
 -10  -5  -1    4.01    3.43
 -10  -5  -1   -2.56    3.66
  11  -5   1    5.77    6.33
  11   5   1    9.94    5.29
  11   5   1   -1.08    3.75
 -11   5  -1   12.74   11.15
 -11   5  -1    6.50    6.79
 -11  -5  -1    0.52    2.85
 -11  -5  -1    1.98    3.80
  -9  -6   1   -0.12    3.15
  -9   6   1   -1.37    4.52
   9   6  -1    0.09    4.45
   9  -6  -1    5.16    7.88
  -8  -6   1    2.18    3.05
  -8   6   1  -10.34    7.30
  -8   6   1   -0.10    1.16
   8   6  -1    3.36    7.56
   8  -6  -1   10.50    7.68
  -7  -6   1    5.01    4.30
  -7   6   1   -0.31    1.61
  -7   6   1   -1.81    6.17
  -7   6   1    2.39    3.46
   7   6  -1    3.47    4.54
   7  -6  -1   -4.30    4.60
  -6  -6   1    6.68    6.14
  -6   6   1    4.92    4.64
  -6   6   1   -9.23    8.92
   6   6  -1   -6.03    3.30
   6   6  -1    7.25    6.82
   6  -6  -1   -0.19    6.48
  -5  -6   1   -1.11    2.36
  -5  -6   1   -0.87    5.44
  -5   6   1   -3.11    5.33
  -5   6   1  -13.64    8.14
   5   6  -1   -1.68    4.81
   5   6  -1    0.16    3.28
  -4  -6   1    3.31    4.41
  -4  -6   1   -0.15    2.86
  -4   6   1    0.67    9.24
  -4   6   1    0.04    8.96
   4   6  -1    0.03    3.85
   4   6  -1   -0.59    4.79
   4   6  -1    7.42    5.58
   4  -6  -1    0.58    5.39
  -3  -6   1    0.04    2.90
  -3  -6   1   -0.91    3.36
  -3   6   1    0.56    4.91
  -3   6   1   -0.34    4.39
   3   6  -1    1.64    5.50
   3   6  -1    9.47    5.49
   3   6  -1   -0.12    2.76
   3  -6  -1   -0.07    5.18
  -2  -6   1    2.05    3.54
  -2  -6   1    0.00    4.31
  -2   6   1    1.29    5.56
  -2   6   1   -0.22    6.30
   2   6  -1    0.96    4.27
   2   6  -1   -1.59    3.75
   2   6  -1   -0.03    2.29
   2  -6  -1    0.04    3.46
  -1  -6   1    0.32    5.99
  -1  -6   1   -5.64    3.57
  -1   6   1   -0.11    7.81
  -1   6   1   -0.19    6.66
   1   6  -1   13.93    7.59
   1   6  -1    0.21    3.14
   1   6  -1    4.71    6.19
   1  -6  -1   -0.52    3.14
   1  -6  -1    0.01    3.95
   0  -6   1   -0.11    4.71
   0   6   1   -0.04    9.99
   0   6   1   -1.93    8.17
   0   6  -1   -0.05    3.73
   0   6  -1   -0.02    4.87
   0   6  -1    4.81    7.26
   0  -6  -1    5.71    4.09
   0  -6  -1   -0.03    3.59
   1  -6   1   -0.54    4.64
   1   6   1    0.22    7.64
   1   6   1   -0.03    8.49
  -1   6  -1    0.08    3.18
  -1   6  -1    0.03    3.64
  -1   6  -1   -3.66    6.21
   2  -6   1   -1.91    7.96
   2   6   1    0.01    1.95
   2   6   1    0.57    4.69
   2   6   1    1.49    4.19
  -2   6  -1   -0.07    8.49
  -2   6  -1    0.06    2.62
  -2   6  -1   -0.10    4.37
   3  -6   1    0.03    9.78
   3   6   1    0.68    4.48
   3   6   1    1.86    5.04
   3   6   1    0.00    2.54
  -3   6  -1    3.22    5.37
  -3   6  -1   -0.02    6.28
  -3   6  -1    2.94   13.63
  -3  -6  -1   -8.54    5.29
   4   6   1   -0.35    4.37
   4   6   1    0.00    2.65
   4  -6   1   -0.60    5.22
   4   6   1   -0.42    3.98
  -4   6  -1    8.52    6.49
  -4   6  -1    4.97    9.06
  -4   6  -1    0.01    3.87
  -4  -6  -1    8.96    6.54
   5  -6   1  -15.45    7.15
   5   6   1   -0.46    5.23
   5   6   1    0.00    4.04
   5   6   1    0.48    5.61
  -5   6  -1    0.38    2.24
  -5   6  -1   -1.15    6.84
  -5   6  -1   -4.45    5.49
  -5  -6  -1   -8.80    5.31
   6  -6   1   -4.35    7.11
   6   6   1    2.00    4.54
   6   6   1   -2.06    5.19
   6   6   1   -9.01    5.27
  -6   6  -1   -1.11    4.88
  -6   6  -1    2.73    7.52
  -6  -6  -1    0.70    4.18
   7  -6   1   -9.96    8.23
   7   6   1   -0.86    3.46
   7   6   1    1.98    3.18
   7   6   1    2.53    3.48
  -7   6  -1   -1.25   12.86
  -7   6  -1    6.59    7.21
  -7  -6  -1   13.88   11.69
   8  -6   1    0.27    3.67
   8   6   1    0.79    2.81
   8   6   1   -2.63    2.45
   8   6   1    1.96    3.18
  -8   6  -1    8.75    4.60
  -8   6  -1    0.50    3.67
  -8  -6  -1  -12.50    7.06
  -2   7   1    2.18    4.27
  -2   7   1   -0.51    4.24
   2   7  -1   -3.20    4.91
  -1  -7   1   -0.38    1.76
  -1   7   1    1.10    6.64
   1   7  -1   -2.53    5.43
   0  -7   1    2.40    2.25
   0   7   1   -3.89    4.52
   0   7   1   -3.58    3.78
   0   7  -1   -3.83    6.56
   1  -7   1    1.44    3.49
   1   7   1   -1.02    4.98
   1   7   1    1.83    3.30
  -1   7  -1   -0.58    4.70
   2  -7   1    6.17    4.18
   2   7   1    2.90    5.22
   2   7   1   -0.82    3.38
  -2   7  -1   11.12    8.80
 -16   0   2    0.56    5.11
 -16   0   2    5.87    6.88
 -15   0   2    0.58    4.24
 -15   0   2    1.71    5.02
 -14   0   2   -7.39   10.43
 -14   0   2   -0.69    5.15
  14   0  -2    0.10    2.09
 -13   0   2    0.54    9.99
 -13   0   2    3.86    7.57
  13   0  -2   11.44   10.45
 -12   0   2  100.78   21.93
 -12   0   2  211.40   26.14
 -12   0   2  228.53   31.45
  12   0  -2  177.00   23.67
 -11   0   2    3.50    6.62
 -11   0   2   -1.22    7.47
 -11   0   2    6.52    5.96
  11   0  -2    2.39    5.43
 -10   0   2  331.62   47.92
 -10   0   2  251.28   25.45
  10   0  -2  364.54   39.59
  -9   0   2    0.13    3.31
  -9   0   2    4.79    5.98
  -9   0   2    3.72    1.87
  -9   0   2    1.98    4.68
  -9   0   2   -0.47    2.02
  -9   0   2    0.04    5.46
   9   0  -2    4.66    1.90
   9   0  -2   -0.27    2.55
   9   0  -2    0.03    2.87
   9   0  -2    3.44    3.36
   9   0  -2    2.25   10.07
  -8   0   2   60.95   10.03
  -8   0   2   80.44   17.54
  -8   0   2   68.75    7.95
  -8   0   2   57.00    8.00
  -8   0   2   84.63   15.37
  -8   0   2   83.70   16.14
  -8   0   2   68.06   18.93
   8   0  -2   60.51    7.37
   8   0  -2   55.63   16.39
   8   0  -2   62.55    9.05
   8   0  -2   82.28   16.41
   8   0  -2   53.59    9.58
  -7   0   2   16.60   16.54
  -7   0   2   -0.01    8.19
  -7   0   2   11.08    4.14
  -7   0   2    7.83    7.97
  -7   0   2   -0.03    8.28
  -7   0   2   14.62    8.55
  -7   0   2   14.88    9.59
   7   0  -2    8.91    2.93
   7   0  -2    0.02    6.91
   7   0  -2   21.39    8.39
   7   0  -2   11.45    4.61
   7   0  -2    0.09    3.37
  -6   0   2  600.14   57.12
  -6   0   2  536.30   39.05
  -6   0   2  722.72   68.49
  -6   0   2  628.62   64.78
  -6   0   2  630.84   72.90
  -6   0   2  620.35   52.05
   6   0  -2  613.77   57.86
   6   0  -2  665.22   64.53
   6   0  -2  557.68   34.00
   6   0  -2  639.32   61.96
   6   0  -2  493.93   37.78
   6   0  -2  533.50   35.37
  -5   0   2  395.32   51.10
  -5   0   2  425.70   29.40
  -5   0   2  397.21   49.21
  -5   0   2  369.95   65.11
   5   0  -2  336.97   23.33
   5   0  -2  365.66   46.19
   5   0  -2  393.13   46.23
   5   0  -2  316.77   18.61
   5   0  -2  366.17   32.03
   5   0  -2  394.43   45.09
   5   0  -2  358.89   72.17
  -4   0   2   16.65   20.90
  -4   0   2   17.80    6.46
  -4   0   2   17.68   12.13
  -4   0   2   18.75   12.78
   4   0  -2   22.62    4.73
   4   0  -2   18.68    3.52
   4   0  -2   15.49   13.40
   4   0  -2   17.31   12.54
   4   0  -2   20.79   21.83
   4   0  -2   19.36   13.43
   4   0  -2   16.65    4.38
  -3   0   2  493.12   88.96
  -3   0   2  462.56   83.57
  -3   0   2  455.20   86.06
  -3   0   2  409.65   22.20
  -3   0   2  475.40   35.18
   3   0  -2  400.19   30.41
   3   0  -2  477.08   87.65
   3   0  -2  453.71   58.11
   3   0  -2  454.07   62.13
   3   0  -2  488.56   58.59
   3   0  -2  448.75   23.26
  -2   0   2  178.65   31.18
  -2   0   2  150.86   49.58
  -2   0   2  177.38    7.36
  -2   0   2  166.80   28.45
  -2   0   2  151.22   12.50
   2   0  -2  154.55    8.41
   2   0  -2  142.24    7.18
   2   0  -2  172.14   22.98
   2   0  -2  180.54   49.79
   2   0  -2  165.80   30.55
   2   0  -2  154.29   26.57
   2   0  -2  187.84   65.77
   2   0  -2  140.23    7.86
  -1   0   2  515.17   23.50
  -1   0   2  460.73   51.70
  -1   0   2  456.91   24.48
  -1   0   2  489.32   47.59
   1   0  -2  446.93   46.49
   1   0  -2  450.16   35.22
   1   0  -2  511.26   80.34
   1   0  -2  468.12   43.52
   1   0  -2  458.24   94.95
   1   0  -2  462.14   37.50
   1   0  -2  450.94   51.99
   0   0   2  373.30   19.58
   0   0   2  449.67   42.95
   0   0   2  422.05   42.85
   0   0   2  420.23   38.81
   0   0   2  396.02   42.60
   0   0   2  371.43   40.53
   0   0  -2  418.04   49.65
   0   0  -2  375.70   27.99
   0   0  -2  396.66   43.53
   0   0  -2  433.41   51.00
   0   0  -2  416.33   38.44
   0   0  -2  371.39   63.95
   0   0  -2  386.02   44.77
   1   0   2 9999.00 1061.17
   1   0   2 9922.95 1088.16
   1   0   2 9298.68  972.37
   1   0   2 9338.67  977.04
   1   0   2 9246.40  944.57
  -1   0  -2 8868.90 1100.26
  -1   0  -2 8882.16  942.06
  -1   0  -2 8648.62  861.75
  -1   0  -2 9436.37 1129.38
  -1   0  -2 8544.22  917.97
  -1   0  -2 9845.37 1001.18
  -1   0  -2 9136.01  982.31
  -1   0  -2 9858.85 1046.71
   2   0   2    3.81    5.47
   2   0   2    1.59    4.48
   2   0   2    0.81   13.25
   2   0   2    3.88    1.88
   2   0   2    3.54    4.18
   2   0   2    0.05    8.42
  -2   0  -2    3.56    3.96
  -2   0  -2    0.43    6.61
  -2   0  -2    3.77    1.83
  -2   0  -2   26.44   17.22
  -2   0  -2    1.31    6.17
  -2   0  -2    4.64   12.19
  -2   0  -2    1.56    7.92
  -2   0  -2    1.11    7.26
   3   0   2   18.88   12.00
   3   0   2   26.91    6.22
   3   0   2   22.91    2.55
   3   0   2   22.31    3.10
   3   0   2   23.28   15.49
   3   0   2   -0.30   14.47
   3   0   2   18.07   13.21
  -3   0  -2   24.65   24.18
  -3   0  -2   18.30   12.99
  -3   0  -2   28.85    9.77
  -3   0  -2   21.87   12.89
  -3   0  -2    6.57   28.74
  -3   0  -2   20.41    7.83
  -3   0  -2   27.68   12.40
   4   0   2   10.94    6.89
   4   0   2   10.71    7.04
   4   0   2   11.80    9.11
   4   0   2   17.59   11.63
  -4   0  -2   12.23    5.63
  -4   0  -2   10.01    2.34
  -4   0  -2    1.12   20.42
  -4   0  -2   11.94    2.45
  -4   0  -2   15.78   11.41
  -4   0  -2   15.32   10.72
  -4   0  -2   13.68   15.74
  -4   0  -2   15.45    7.48
   5   0   2   26.00    8.31
   5   0   2   22.24   12.91
   5   0   2   28.36   15.04
   5   0   2   20.86   11.52
   5   0   2   -0.02   13.38
  -5   0  -2   30.01   13.85
  -5   0  -2   20.91   16.78
  -5   0  -2   17.42    2.94
  -5   0  -2   25.27    8.33
  -5   0  -2   30.12   12.85
  -5   0  -2   17.05    6.73
  -5   0  -2   18.49    2.11
  -5   0  -2   -0.53   13.29
   6   0   2   14.86    9.97
   6   0   2   -0.13   19.12
   6   0   2   18.10   11.78
   6   0   2   17.58    8.91
  -6   0  -2   18.20   11.92
  -6   0  -2    0.02   12.44
  -6   0  -2   12.74   13.96
  -6   0  -2   14.85    8.21
  -6   0  -2   18.45   12.63
  -6   0  -2   21.80   11.56
  -6   0  -2   10.64    5.93
   7   0   2   56.24   14.06
   7   0   2   52.91   14.59
   7   0   2   37.73   22.96
   7   0   2   51.43   11.82
   7   0   2    0.95   13.90
   7   0   2   47.13   16.36
  -7   0  -2   34.06   10.98
  -7   0  -2   30.82   17.20
  -7   0  -2   49.36   16.41
  -7   0  -2   -0.02   16.03
  -7   0  -2   33.26    7.78
  -7   0  -2   37.71   13.74
   8   0   2   -1.47    4.36
   8   0   2    0.45    3.51
   8   0   2   -2.85    3.75
   8   0   2    4.85    4.27
   8   0   2   -1.10    3.59
   8   0   2   -0.74    5.03
  -8   0  -2    1.62    6.72
  -8   0  -2    2.63    5.07
  -8   0  -2    0.91    3.30
  -8   0  -2    2.03    6.89
  -8   0  -2    0.02    6.51
  -8   0  -2    0.70    4.27
   9   0   2   25.24   12.05
  -9   0  -2    0.06   12.08
  -9   0  -2   17.43    6.10
  -9   0  -2   35.03   12.30
  -9   0  -2   -0.07    7.02
  -9   0  -2   17.44   12.57
  10   0   2    0.06    4.19
 -10   0  -2   19.77    6.83
 -10   0  -2    0.82    6.22
 -10   0  -2    0.58    6.99
 -10   0  -2   20.72    6.15
 -10   0  -2    0.03   19.85
  11   0   2   -0.07    7.31
 -11   0  -2    1.32    3.21
 -11   0  -2   -0.32   10.77
 -11   0  -2    5.07    4.14
 -11   0  -2   -2.09    3.71
 -11   0  -2    0.54    3.96
  12   0   2   -0.08    6.58
  12   0   2    0.08    1.75
 -12   0  -2    0.53   13.06
 -12   0  -2   29.07   12.55
 -12   0  -2   31.76    8.41
 -12   0  -2    4.15    7.60
  13   0   2    2.20    5.68
 -13   0  -2    0.13    3.09
 -13   0  -2    1.63    4.83
 -13   0  -2    0.01    2.50
 -13   0  -2   -1.22    2.96
  14   0   2   -0.06    3.32
 -14   0  -2    0.05    5.25
 -14   0  -2   -0.02    7.47
 -14   0  -2   -0.40    7.37
 -14   0  -2    7.31    4.32
  15   0   2    0.10    3.76
  15   0   2   -0.62    5.43
 -15   0  -2    1.71    4.05
 -15   0  -2    2.56    3.33
  16   0   2    3.60    3.50
  16   0   2   -1.51    4.31
 -16   0  -2    1.45    3.17
 -16   0  -2    2.06    2.54
 -16  -1   2   -0.33    4.96
 -16  -1   2    3.95    8.34
 -16   1   2   -0.72    4.75
 -16   1   2    3.74    2.15
 -15  -1   2    1.79    4.04
 -15  -1   2    0.82    4.08
 -15   1   2    0.35    2.43
 -15   1   2   -5.03    7.06
  15  -1  -2    7.25    5.91
 -14  -1   2   -2.11    4.78
 -14  -1   2   -0.28    4.75
 -14   1   2   -6.66    5.57
 -14   1   2    0.02    2.61
 -14   1   2    0.49    3.20
  14  -1  -2    5.71    5.27
 -13  -1   2    0.61    8.56
 -13  -1   2   -2.31    4.99
 -13   1   2    1.32    6.06
 -13   1   2   -1.13    3.59
 -13   1   2   10.54    5.90
  13  -1  -2   -1.14    4.50
 -12   1   2   -0.49    2.94
 -12   1   2   -4.02    3.06
 -12  -1   2    1.69    6.59
 -12  -1   2   -0.10    4.10
 -12   1   2    2.59    2.24
 -12   1   2    0.23    4.70
  12   1  -2    3.02    4.18
  12  -1  -2    1.70   10.15
 -11  -1   2    0.10    5.92
 -11  -1   2   -2.70   10.73
 -11   1   2   -1.45    4.83
 -11   1   2   -0.62    4.30
 -11   1   2    0.36   12.85
 -11   1   2   -5.54    3.75
  11  -1  -2    2.66    3.94
  11   1  -2   -0.92    2.81
  11   1  -2   -0.24    1.68
 -10  -1   2    6.88    4.77
 -10  -1   2   -0.23    4.48
 -10   1   2   -2.81    5.21
 -10   1   2    1.89    6.42
 -10   1   2   -0.50    5.95
 -10   1   2   -1.57    5.88
  10   1  -2    9.41    7.20
  10   1  -2    0.06    2.49
  10  -1  -2    6.35    5.83
  10   1  -2    0.68    2.51
  -9  -1   2   -3.14    6.06
  -9  -1   2    0.22    1.61
  -9  -1   2   -1.64    3.74
  -9  -1   2    0.17    2.46
  -9   1   2    1.64    4.68
  -9   1   2    0.04    3.06
  -9   1   2   -0.01    3.30
  -9   1   2    1.98    2.94
   9   1  -2    0.48    2.07
   9   1  -2   -0.03    3.63
   9   1  -2   -0.26    1.92
   9   1  -2    0.26    3.37
   9   1  -2   -0.17    1.40
   9  -1  -2    1.33    4.44
   9  -1  -2    0.71    1.99
  -8  -1   2   -1.47    3.73
  -8  -1   2    2.05    3.27
  -8  -1   2   -1.40    2.92
  -8  -1   2   -0.36    1.51
  -8   1   2    0.58    2.85
  -8   1   2    1.11    3.03
  -8   1   2   -0.69    4.37
  -8   1   2    0.01    3.16
  -8   1   2   -0.42    1.28
  -8   1   2    0.03    3.38
  -8  -1   2   -0.41    3.71
  -8   1   2    1.01    3.74
  -8   1   2   -0.47    8.29
   8   1  -2   -1.55    3.93
   8   1  -2    0.05    2.95
   8   1  -2   -1.63    3.60
   8   1  -2   -0.47    1.45
   8   1  -2    0.83    1.98
   8  -1  -2   -2.35    8.06
   8  -1  -2   -0.04    3.58
   8  -1  -2    0.00    2.12
  -7  -1   2    3.80    5.37
  -7  -1   2    8.18    4.50
  -7  -1   2    0.02    2.17
  -7   1   2    4.41    5.12
  -7   1   2    6.39    6.99
  -7  -1   2    5.06    5.81
  -7   1   2    7.31    5.86
  -7  -1   2    5.00    5.27
  -7   1   2    0.16    7.44
  -7   1   2    0.21    2.22
  -7   1   2   -0.70   12.24
  -7   1   2   -0.03    4.59
   7   1  -2    4.07    5.53
   7   1  -2    0.60    4.84
   7   1  -2    4.58    3.83
   7   1  -2    5.38    2.92
   7  -1  -2    8.31    8.24
   7  -1  -2   -0.37    3.14
   7  -1  -2   10.91   10.95
   7   1  -2   -0.05    2.02
   7  -1  -2   -0.02    6.37
  -6  -1   2   76.22   16.40
  -6  -1   2   80.72   30.75
  -6  -1   2   76.75   22.31
  -6  -1   2   86.63   18.69
  -6   1   2   87.24   19.27
  -6   1   2   80.85   30.61
  -6   1   2    0.64   36.79
  -6   1   2   86.52   14.49
  -6   1   2   61.65    9.13
  -6   1   2   88.66   14.35
   6   1  -2   61.60   11.04
   6  -1  -2   70.59   15.85
   6  -1  -2   68.44   10.40
   6   1  -2   71.40    9.78
   6   1  -2   72.53   18.06
   6   1  -2   75.53   17.49
   6   1  -2   88.27   13.44
   6  -1  -2   82.33   20.26
   6  -1  -2   73.36   13.42
   6  -1  -2   91.82   24.37
  -5   1   2   -1.68   16.98
  -5  -1   2   11.44    9.41
  -5  -1   2   14.06   13.72
  -5   1   2   27.67   11.46
  -5   1   2   19.74    9.03
  -5   1   2    0.20   18.51
  -5  -1   2   23.70   11.25
  -5  -1   2   16.31    6.98
  -5  -1   2   18.76    2.05
  -5   1   2   18.56    8.28
  -5   1   2   14.63    6.61
   5  -1  -2   23.24   11.36
   5   1  -2   20.67   18.62
   5   1  -2   19.52   10.68
   5   1  -2   16.41    9.63
   5  -1  -2   19.26    9.46
   5  -1  -2   13.47    5.79
   5  -1  -2   18.91   15.82
   5  -1  -2   14.22    2.78
   5  -1  -2   13.18    1.59
   5  -1  -2   22.01   23.19
  -4  -1   2    6.22   15.71
  -4  -1   2    9.52    4.42
  -4  -1   2   -0.24    1.97
  -4  -1   2    7.02    4.32
  -4  -1   2    7.04   11.80
  -4   1   2    6.46    3.98
  -4   1   2   -0.03    2.74
  -4   1   2   -0.73    7.00
  -4   1   2    7.47    6.73
  -4   1   2    5.55    4.60
  -4   1   2   -0.15    6.07
  -4   1   2    9.86    5.70
   4   1  -2    5.30    1.97
   4   1  -2    8.83   19.89
   4   1  -2    4.84    8.33
   4   1  -2    7.73    8.79
   4  -1  -2   12.82   10.57
   4  -1  -2   10.21    8.59
   4  -1  -2    4.10    4.48
   4  -1  -2    8.55    8.52
   4   1  -2    8.79    4.92
   4   1  -2    7.63    7.22
   4   1  -2    3.09    2.63
   4  -1  -2   10.05    7.31
  -3  -1   2   -1.53   53.46
  -3  -1   2  114.04    7.00
  -3  -1   2  100.22   12.86
  -3  -1   2  108.13   24.78
  -3  -1   2  119.58   14.67
  -3  -1   2  107.86    5.51
  -3   1   2  112.29   21.10
  -3   1   2   94.35   22.54
  -3   1   2  119.24    7.86
  -3   1   2  108.93   21.34
  -3   1   2  113.23   24.01
  -3   1   2  123.76   20.44
  -3   1   2  103.29   18.43
  -3   1   2  103.12   23.60
   3  -1  -2  108.76   23.78
   3  -1  -2  110.62   22.78
   3   1  -2  112.73    7.65
   3   1  -2  115.15   32.19
   3   1  -2  101.06    7.56
   3   1  -2  109.05   43.36
   3   1  -2   83.43    8.18
   3   1  -2  119.17   14.42
   3  -1  -2  117.65   50.95
   3  -1  -2   95.52   22.31
   3  -1  -2  109.18   22.81
   3   1  -2  102.05   19.10
  -2   1   2    7.36    7.30
  -2   1   2    0.01    3.86
  -2  -1   2   10.37   10.12
  -2  -1   2    9.65    2.47
  -2  -1   2   -0.11   21.65
  -2  -1   2    6.72    3.58
  -2  -1   2   11.63    4.83
  -2   1   2   11.82    5.43
  -2   1   2    9.58    7.88
  -2   1   2    8.57   14.20
  -2   1   2    0.04    9.73
  -2  -1   2    7.79    4.88
   2  -1  -2    8.86    8.58
   2  -1  -2    8.62   10.09
   2   1  -2    7.25   10.33
   2   1  -2    7.22    1.24
   2   1  -2   12.56   12.87
   2   1  -2    9.90    4.19
   2   1  -2    7.76    2.76
   2  -1  -2    7.82   14.55
   2  -1  -2    9.61    5.16
   2  -1  -2   10.14    8.02
   2  -1  -2   10.27   10.28
   2   1  -2    8.74    8.10
   2   1  -2   11.42   10.13
   2   1  -2    6.27    5.34
  -1   1   2 1121.24   91.63
  -1  -1   2 1080.35   90.73
  -1  -1   2  920.63   52.09
  -1  -1   2  972.47   59.10
  -1  -1   2 1090.37  142.50
  -1   1   2 1097.08   99.41
  -1   1   2 1090.61  129.33
  -1   1   2  964.24   64.75
  -1   1   2 1041.86   76.19
  -1   1   2 1041.65   82.40
  -1   1   2 1045.90   69.15
  -1  -1   2  936.00   75.22
   1   1  -2 1060.69  116.67
   1   1  -2  970.83   74.38
   1   1  -2  902.89   59.23
   1   1  -2 1074.06  103.12
   1  -1  -2  908.14   79.10
   1  -1  -2 1031.93   95.03
   1  -1  -2 1020.74   91.82
   1  -1  -2 1023.77   66.36
   1  -1  -2  885.95   78.83
   1   1  -2 1100.79   54.56
   1  -1  -2 1081.09  113.28
   1   1  -2 1009.08   44.86
   1   1  -2 1055.28  108.04
   1   1  -2  944.74   74.30
   0  -1   2  376.72   33.44
   0   1   2  356.79   36.75
   0  -1   2  356.64   27.21
   0  -1   2  335.52   20.81
   0  -1   2  363.06   41.68
   0  -1   2  363.47   26.19
   0   1   2  376.41   48.42
   0   1   2  358.97   37.19
   0   1   2  381.07   31.99
   0   1   2  310.06   24.54
   0   1   2  337.39   32.92
   0   1   2  293.10   15.73
   0  -1   2  343.16   43.11
   0   1   2  315.10   31.03
   0  -1   2  342.54   27.13
   0   1  -2  352.95   27.87
   0   1  -2  325.56   43.18
   0   1  -2  328.12   29.78
   0   1  -2  327.60   31.82
   0   1  -2  339.74   66.26
   0   1  -2  323.46   60.74
   0  -1  -2  326.77   43.56
   0  -1  -2  309.57   35.49
   0  -1  -2  338.31   40.77
   0  -1  -2  347.57   66.51
   0  -1  -2  328.93   62.44
   0   1  -2  357.84   38.46
   1  -1   2 6597.92  663.10
   1  -1   2 7108.43  704.27
   1  -1   2 6931.28  644.54
   1   1   2 7387.47  709.91
   1   1   2 7071.31  693.42
   1   1   2 7016.24  716.07
   1   1   2 6821.97  725.49
   1   1   2 6951.33  735.15
   1   1   2 6503.66  646.00
   1  -1   2 6439.32  652.22
   1  -1   2 6796.42  655.25
   1  -1   2 6594.44  600.06
  -1   1  -2 6193.83  628.85
  -1   1  -2 6190.62  686.00
  -1   1  -2 6089.19  591.24
  -1   1  -2 5902.03  551.78
  -1  -1  -2 6252.44  626.25
  -1  -1  -2 6795.00  656.72
  -1  -1  -2 6578.57  746.84
  -1  -1  -2 7208.43  699.02
  -1  -1  -2 6393.97  555.46
  -1  -1  -2 6102.83  547.94
  -1  -1  -2 6578.16  640.99
  -1   1  -2 6334.15  662.83
  -1   1  -2 7090.52  677.65
  -1   1  -2 6599.04  670.21
   2  -1   2    1.89    1.68
   2  -1   2    1.75   11.42
   2  -1   2    3.09    5.85
   2  -1   2    2.38    9.40
   2   1   2    1.76    9.59
   2  -1   2    0.27    3.81
   2   1   2   -0.07   14.40
   2   1   2    0.64    4.79
   2   1   2    3.32    4.41
   2   1   2    2.40    4.81
   2   1   2    1.80    4.88
   2   1   2    0.53    4.22
   2  -1   2    1.51    3.84
  -2   1  -2    2.06    5.81
  -2   1  -2    1.16    2.81
  -2   1  -2    0.96    1.03
  -2   1  -2    3.27    5.15
  -2   1  -2    1.64    4.74
  -2  -1  -2    2.61    3.85
  -2  -1  -2    0.22    6.08
  -2  -1  -2    0.69    6.18
  -2  -1  -2    2.96    9.71
  -2  -1  -2    1.34    9.27
  -2   1  -2    3.75    6.79
  -2   1  -2    2.94    3.77
  -2   1  -2    0.00    1.28
  -2   1  -2    4.07    3.91
   3  -1   2  383.66   78.81
   3  -1   2  415.91   44.23
   3   1   2  372.31   48.99
   3   1   2  428.71   30.42
   3   1   2  387.47   54.57
   3   1   2  409.81   38.72
   3   1   2  377.63   38.85
   3   1   2  346.59   35.67
   3  -1   2  365.46   51.77
   3  -1   2  312.18   13.75
   3  -1   2  365.87   45.74
   3  -1   2  373.74   20.62
  -3  -1  -2  370.93   27.68
  -3   1  -2  335.00   27.75
  -3   1  -2  366.82   40.48
  -3   1  -2  350.23   55.86
  -3   1  -2  283.40   14.13
  -3   1  -2  303.84   15.29
  -3   1  -2  358.06   47.94
  -3   1  -2  397.45   36.60
  -3  -1  -2  341.86   38.76
  -3  -1  -2  351.52   42.55
  -3  -1  -2  384.52   37.30
  -3  -1  -2  324.08   41.38
  -3  -1  -2  383.83   35.86
  -3   1  -2  400.65   25.52
  -3   1  -2  341.25   69.16
   4  -1   2    1.27    7.83
   4  -1   2   -0.17    3.84
   4  -1   2    1.21   11.01
   4  -1   2    2.62    5.58
   4   1   2    2.77    7.37
   4   1   2   -0.01    6.56
   4   1   2   -1.83    4.51
   4   1   2   -0.78    4.36
   4   1   2   -0.74    4.67
   4  -1   2    4.04    6.01
   4  -1   2    2.06    2.32
  -4   1  -2   -2.39    4.67
  -4   1  -2   -0.74   11.12
  -4   1  -2    1.25    2.19
  -4   1  -2   -0.43    2.62
  -4   1  -2    1.52    2.21
  -4  -1  -2   -0.96    5.14
  -4  -1  -2    1.82    2.38
  -4  -1  -2   -0.27    7.74
  -4  -1  -2    2.05    4.26
  -4  -1  -2   -0.97    2.81
  -4  -1  -2   -0.94    4.87
  -4  -1  -2    1.57    4.31
  -4   1  -2    1.76    5.14
  -4   1  -2   -2.32    5.76
   5  -1   2  193.70   31.84
   5  -1   2  214.13   14.59
   5  -1   2  235.11   32.65
   5   1   2  213.19   29.40
   5   1   2  202.59   32.45
   5   1   2  220.33   42.38
   5   1   2  190.75   22.27
   5   1   2  204.62   28.07
   5  -1   2  225.40   18.74
   5  -1   2  185.82   39.79
   5  -1   2  222.04   54.11
  -5   1  -2  170.45   16.09
  -5   1  -2  194.13   28.08
  -5   1  -2  150.15   17.58
  -5   1  -2  195.49   15.31
  -5  -1  -2  188.71   27.81
  -5  -1  -2  158.11   21.22
  -5  -1  -2  233.28   26.11
  -5  -1  -2  172.72   27.93
  -5  -1  -2  184.58   39.72
  -5  -1  -2  224.86   25.48
  -5  -1  -2  202.85   13.54
  -5   1  -2  201.12   32.79
  -5   1  -2  196.55   33.28
  -5   1  -2  202.15   29.37
   6  -1   2    8.83   12.32
   6  -1   2    4.66    8.96
   6  -1   2   13.65   13.49
   6  -1   2    9.47    4.21
   6  -1   2    6.05   14.14
   6   1   2    0.14   16.10
   6   1   2    0.00   14.96
   6   1   2    5.85   10.46
   6   1   2   11.77    8.13
   6   1   2    9.74    8.71
   6   1   2   10.80    8.07
   6  -1   2    6.88    2.86
  -6   1  -2    8.52    8.45
  -6   1  -2    8.56    9.32
  -6   1  -2   11.54   18.03
  -6   1  -2    8.10    3.78
  -6   1  -2   14.77    9.31
  -6  -1  -2    8.33    5.61
  -6  -1  -2    9.29    2.51
  -6  -1  -2    9.91    3.12
  -6  -1  -2    3.58   12.13
  -6  -1  -2    6.34    8.37
  -6  -1  -2   11.40    7.24
  -6  -1  -2    6.44    7.66
  -6   1  -2    5.07    5.27
  -6   1  -2    0.26    4.27
   7  -1   2   35.02    6.54
   7  -1   2   51.00   15.72
   7  -1   2   47.60   21.60
   7  -1   2   47.96   23.35
   7   1   2   62.35   14.55
   7   1   2   53.72   27.48
   7   1   2   58.22   10.30
   7   1   2    0.13   17.44
   7   1   2   59.94   14.55
   7   1   2   61.54   15.36
   7   1   2   60.93   14.79
   7  -1   2   45.19   14.37
  -7   1  -2   45.45    7.64
  -7   1  -2   52.92   15.25
  -7   1  -2   43.14    6.82
  -7   1  -2   70.42   18.16
  -7  -1  -2   35.80    3.75
  -7  -1  -2   49.56   14.43
  -7  -1  -2   49.65    5.70
  -7  -1  -2   50.65   12.67
  -7  -1  -2   48.38   19.45
  -7  -1  -2   64.93   12.69
  -7   1  -2   57.72   16.96
  -7   1  -2   41.71   14.19
  -7  -1  -2   40.88    9.18
  -7   1  -2   43.02    7.99
   8  -1   2  118.97   20.83
   8   1   2  114.65   38.98
   8  -1   2  112.98   35.65
   8  -1   2  101.95   16.70
   8   1   2  111.95   22.19
   8   1   2  125.71   26.05
   8   1   2  103.21   35.17
   8   1   2  140.88   25.11
   8   1   2  111.48   19.04
   8  -1   2  103.78   23.01
  -8   1  -2   84.93    9.62
  -8   1  -2   84.18   10.37
  -8   1  -2  106.58   23.50
  -8   1  -2  103.50   18.50
  -8   1  -2   69.94    8.64
  -8   1  -2  122.56   39.08
  -8   1  -2   98.51   31.85
  -8   1  -2   78.93   11.29
  -8  -1  -2   73.04   11.51
  -8  -1  -2   91.23   25.27
  -8  -1  -2   84.06   15.32
  -8  -1  -2  112.28   17.02
  -8  -1  -2   98.65   19.84
  -8  -1  -2  110.42   21.71
   9  -1   2   -4.29    6.68
   9   1   2   -1.54   10.68
  -9  -1  -2    0.03    4.53
  -9   1  -2    1.41    7.60
  -9   1  -2    1.46    3.64
  -9   1  -2   16.32    3.90
  -9   1  -2   12.83    7.95
  -9   1  -2   30.37   10.81
  -9  -1  -2   16.78   11.46
  -9  -1  -2    0.00    8.69
  -9  -1  -2   -0.25    5.95
  -9  -1  -2   26.32    7.36
  -9   1  -2   -0.06    7.87
  10  -1   2    0.20    4.46
  10   1   2   -0.08    2.64
  10   1   2    1.34    4.27
 -10   1  -2   -0.46    2.37
 -10   1  -2   -1.04    4.60
 -10   1  -2   -2.38    4.21
 -10   1  -2   -0.17    2.23
 -10   1  -2   -0.30    6.92
 -10  -1  -2   -0.68    4.12
 -10  -1  -2    0.11    7.39
 -10  -1  -2   -1.26    4.56
 -10  -1  -2   -0.15    5.36
  11  -1   2    0.07    4.38
  11   1   2   -0.23    2.24
  11   1   2    0.08    4.24
 -11  -1  -2    0.09    6.69
 -11   1  -2    7.69   11.08
 -11   1  -2   -0.02   10.33
 -11   1  -2    7.41    8.94
 -11   1  -2    1.54    3.56
 -11   1  -2    5.03    3.48
 -11  -1  -2   15.60    6.90
 -11  -1  -2   -0.51    8.15
  12  -1   2  160.27   22.77
  12   1   2   79.07   11.37
  12   1   2  146.64   22.80
 -12   1  -2   84.57   11.54
 -12   1  -2   69.25   12.07
 -12   1  -2   69.81   11.38
 -12   1  -2  132.95   20.70
 -12   1  -2  160.88   30.93
 -12  -1  -2  134.57   19.91
 -12  -1  -2  151.01   21.31
 -12  -1  -2  143.51   24.52
  13  -1   2    3.78    5.88
  13   1   2    0.30    4.24
  13   1   2   -1.94    4.23
 -13   1  -2    0.34    4.52
 -13   1  -2    6.33    4.77
 -13   1  -2   -3.69    5.54
 -13   1  -2   17.91   13.06
 -13  -1  -2    5.79    5.58
 -13  -1  -2   -0.81    5.87
  14  -1   2    5.14    5.17
  14   1   2   -1.62    6.71
  14   1   2    7.27   11.76
 -14   1  -2   -0.14    5.17
 -14   1  -2    2.75    2.60
 -14   1  -2   18.89    7.76
 -14   1  -2   -0.40    2.80
 -14  -1  -2   15.18    5.81
 -14  -1  -2   -0.15   10.08
  15  -1   2   -0.91    3.60
  15   1   2    2.25    5.10
  15   1   2   -6.91    5.10
 -15   1  -2   -2.49    7.91
 -15  -1  -2    1.23    9.25
 -15  -1  -2   -5.03   11.29
 -15   1  -2  -11.31    7.60
  16  -1   2   -4.19    2.75
  16  -1   2    0.64    1.57
  16   1   2    3.84    2.64
  16   1   2   -1.17    2.46
 -16  -1  -2   -0.92    2.71
 -16  -1  -2    0.02    3.27
 -16  -2   2   -0.28    3.58
 -16   2   2    4.10    2.97
 -16  -2   2    1.29    3.09
 -15  -2   2   -1.50    8.29
 -15  -2   2    4.65    4.36
 -15   2   2    2.55    7.59
 -15   2   2    1.63    2.35
 -14  -2   2   -0.45    4.07
 -14  -2   2   -0.43    4.31
 -14   2   2   -0.11    3.09
 -14   2   2    6.02    4.81
 -14   2   2    0.68    3.54
  14  -2  -2    1.96    4.66
 -13  -2   2   -1.58    7.10
 -13  -2   2   -1.67    4.70
 -13   2   2    0.28    6.88
 -13   2   2   -1.72    5.33
 -13   2   2   -0.43    4.48
  13   2  -2   -0.58    2.57
  13  -2  -2   -1.42    7.98
 -12  -2   2    3.80    2.87
 -12  -2   2   13.48    5.62
 -12  -2   2    0.96    6.01
 -12   2   2    0.02    4.89
 -12   2   2    2.32   10.51
 -12   2   2   -0.14    5.91
  12   2  -2    1.57    5.02
  12  -2  -2   24.71    8.95
 -11  -2   2    8.83    3.69
 -11  -2   2   -1.26    5.44
 -11  -2   2    0.66   10.30
 -11   2   2    5.52    6.36
 -11   2   2    0.96    3.22
 -11   2   2    0.48    8.30
 -11   2   2   14.00    6.56
  11   2  -2   -1.15    5.45
  11   2  -2   -1.00    3.38
  11  -2  -2   10.10    6.14
 -10  -2   2  181.26   21.52
 -10  -2   2  203.73   23.93
 -10   2   2  242.33   32.64
 -10   2   2  199.06   27.27
 -10   2   2  148.18   14.86
 -10   2   2  256.10   45.20
  10   2  -2  180.92   21.64
  10   2  -2  167.81   19.22
  10   2  -2  189.41   20.34
  10  -2  -2  273.02   56.19
  -9  -2   2   -0.47    2.67
  -9  -2   2   -0.19    3.04
  -9   2   2   -0.41    4.08
  -9   2   2    0.11    4.59
  -9   2   2    0.72    3.42
  -9   2   2    4.92    6.31
   9   2  -2    1.23    4.46
   9   2  -2    0.08    6.66
   9   2  -2    0.49    3.97
   9  -2  -2    9.85    6.93
  -8  -2   2   70.54   10.86
  -8   2   2   85.28   16.73
  -8   2   2   59.71    8.62
  -8   2   2   76.58    9.86
  -8  -2   2   72.67   12.05
  -8   2   2   87.05   17.66
   8   2  -2   67.72   13.43
   8   2  -2   83.23   15.03
   8   2  -2   74.60   20.99
   8  -2  -2   88.58   21.51
   8  -2  -2   96.55   25.69
  -7  -2   2   37.73    7.09
  -7  -2   2   45.95   15.61
  -7  -2   2   50.17   11.33
  -7  -2   2   41.81    8.09
  -7   2   2   49.62   20.10
  -7   2   2   56.97   12.77
  -7   2   2   26.40    3.57
  -7   2   2   31.61    6.25
  -7   2   2   39.32   12.84
  -7   2   2   40.50    6.92
   7   2  -2   37.53    9.50
   7   2  -2   40.87    5.13
   7   2  -2   42.13   10.62
   7   2  -2   37.38   11.54
   7  -2  -2   32.62   14.10
   7  -2  -2   45.03   17.85
   7  -2  -2   33.37    6.41
   7  -2  -2   52.32   12.78
   7  -2  -2   55.60   15.05
   7   2  -2   53.78   12.11
   7   2  -2   26.58    4.11
  -6  -2   2   65.32   18.55
  -6  -2   2   65.68   13.55
  -6  -2   2   54.40   16.01
  -6  -2   2   41.06    7.28
  -6  -2   2   68.97   11.89
  -6   2   2   -0.18   27.24
  -6   2   2   41.93    5.21
  -6   2   2   66.06   14.08
  -6   2   2   63.85   14.79
  -6   2   2   43.94    7.40
   6   2  -2   47.61    5.89
   6   2  -2   38.05    7.33
   6   2  -2   -0.41   21.75
   6   2  -2   56.27   13.76
   6   2  -2   50.22   10.89
   6  -2  -2   47.80    7.96
   6  -2  -2   50.24   16.93
   6  -2  -2   72.19   32.44
   6  -2  -2   58.41   14.02
   6  -2  -2   65.91   16.01
  -5  -2   2   17.88   12.89
  -5  -2   2   16.97    6.14
  -5  -2   2   -0.17    4.39
  -5  -2   2   17.22    9.61
  -5  -2   2    0.12    3.10
  -5   2   2   10.67    4.41
  -5   2   2   -0.07    8.24
  -5   2   2   18.64    7.26
  -5   2   2    0.11    6.08
  -5   2   2   18.33    7.15
  -5   2   2   12.13    5.44
  -5   2   2    0.07    3.08
   5   2  -2   13.43    5.53
   5   2  -2   -1.28   17.35
   5   2  -2   14.10    2.48
   5   2  -2    8.86    4.63
   5   2  -2   12.32    4.34
   5   2  -2   15.86    9.27
   5   2  -2   16.13    7.09
   5  -2  -2   11.08    2.51
   5  -2  -2   16.71   12.60
   5  -2  -2   14.98    8.65
   5  -2  -2   13.45    5.14
   5  -2  -2    0.19    6.34
   5  -2  -2   15.04    6.52
   5  -2  -2   11.76   16.94
  -4  -2   2  157.91   25.06
  -4  -2   2  154.32   29.78
  -4  -2   2  138.71   13.68
  -4  -2   2  111.37    9.57
  -4  -2   2  186.85   30.87
  -4   2   2  136.91   29.20
  -4   2   2  133.36   13.67
  -4   2   2  182.91   26.81
  -4   2   2  163.38   43.94
  -4   2   2  150.66   11.24
  -4   2   2  120.38   20.11
  -4   2   2  171.43   38.23
   4   2  -2  161.15   45.50
   4   2  -2  143.30   10.80
   4   2  -2  123.93   41.27
   4   2  -2  171.72   20.55
   4   2  -2  151.50   10.37
   4   2  -2  122.67    8.97
   4  -2  -2  147.87   18.78
   4  -2  -2  173.48   32.24
   4  -2  -2  148.31   24.61
   4  -2  -2  152.47   22.37
   4  -2  -2  153.05   10.84
   4  -2  -2  163.85   32.34
   4  -2  -2  150.66   29.46
  -3  -2   2   82.22   34.27
  -3  -2   2   81.20    9.07
  -3  -2   2   86.37   14.87
  -3  -2   2   72.20   21.98
  -3  -2   2   60.91    8.42
  -3   2   2   66.73   14.14
  -3   2   2   64.36   11.43
  -3   2   2   83.63   20.18
  -3   2   2   80.57   16.88
  -3   2   2   83.60   19.82
  -3   2   2   86.68    9.45
  -3   2   2   61.67    9.62
   3   2  -2   56.58    9.03
   3   2  -2   77.83   14.47
   3   2  -2   71.98   19.41
   3   2  -2   70.13    7.64
   3   2  -2   77.09   29.56
   3   2  -2   67.52    8.52
   3  -2  -2   65.88   19.54
   3  -2  -2   70.58   16.13
   3  -2  -2   60.43   13.56
   3  -2  -2   74.53   13.52
   3  -2  -2   64.01   12.36
   3  -2  -2   76.02   15.15
  -2  -2   2   42.22   15.53
  -2  -2   2   32.53    5.17
  -2  -2   2   55.89   21.89
  -2  -2   2   38.33    7.93
  -2   2   2   39.34    9.67
  -2   2   2   45.94   14.30
  -2   2   2   44.40   15.42
  -2   2   2   47.00   12.83
  -2   2   2   40.12    8.58
  -2   2   2   26.27   12.37
  -2   2   2   41.01   19.81
   2   2  -2   41.41   11.42
   2   2  -2   31.92   14.41
   2   2  -2   29.85    7.92
   2   2  -2   34.99    4.55
   2   2  -2   41.33    8.83
   2   2  -2   30.62   13.85
   2  -2  -2   40.03    4.80
   2  -2  -2   39.11   11.06
   2  -2  -2   34.96    8.51
   2  -2  -2   43.77   17.39
   2  -2  -2   33.19   11.99
   2  -2  -2   37.51   15.73
   2  -2  -2   35.21   11.49
  -1  -2   2  297.49   30.20
  -1  -2   2  276.16   26.77
  -1  -2   2  226.54   12.67
  -1  -2   2  276.03   36.78
  -1   2   2  267.10   48.34
  -1   2   2  281.48   27.51
  -1   2   2  275.71   25.49
  -1   2   2  319.73   37.72
  -1   2   2  256.92   45.38
  -1   2   2  253.33   18.93
  -1   2   2  262.59   13.80
  -1  -2   2  212.63   18.31
   1   2  -2  230.69   43.76
   1   2  -2  245.05   33.99
   1   2  -2  259.84   29.39
   1   2  -2  282.21   16.07
   1   2  -2  191.50   13.78
   1   2  -2  244.38   51.10
   1  -2  -2  258.68   48.64
   1  -2  -2  233.41   29.17
   1  -2  -2  299.93   43.17
   1  -2  -2  269.48   26.12
   1  -2  -2  229.02   32.48
   1  -2  -2  302.75   14.84
   1  -2  -2  241.30   24.96
   0  -2   2   -1.96    3.46
   0  -2   2   -0.72    3.86
   0  -2   2    0.87    0.76
   0  -2   2    0.57    1.10
   0  -2   2    1.36    8.19
   0  -2   2   -3.32    9.20
   0   2   2    0.68    4.36
   0   2   2    0.69    1.76
   0   2   2    1.69    4.61
   0   2   2   -0.28    4.11
   0   2   2    5.23    7.33
   0   2   2    0.06    4.11
   0   2   2   -3.25    5.34
   0   2  -2    1.29    4.36
   0   2  -2    0.63    7.97
   0   2  -2    0.15    9.00
   0   2  -2   -0.53    0.91
   0   2  -2    1.91    2.92
   0   2  -2    0.86    3.45
   0   2  -2   -1.95    5.73
   0  -2  -2    0.64    3.68
   0  -2  -2   -0.35    1.84
   0  -2  -2   -1.05    2.99
   0  -2  -2   -4.52    4.22
   0  -2  -2    1.56    4.73
   0  -2  -2   -2.67    2.83
   0  -2  -2   -1.80    4.58
   0  -2  -2   -0.60    4.42
   1  -2   2    0.04    0.88
   1  -2   2    2.78    2.84
   1  -2   2    2.81    5.32
   1  -2   2    2.83    5.02
   1  -2   2    5.23    2.19
   1   2   2    4.18    5.11
   1   2   2    7.40    8.30
   1   2   2    1.31    4.78
   1   2   2    1.88    3.23
   1   2   2    2.20    8.46
   1   2   2    4.75    2.64
   1   2   2    0.24    8.84
  -1   2  -2    2.21    3.47
  -1   2  -2    6.80    3.33
  -1   2  -2    4.32    6.59
  -1   2  -2    1.72    1.63
  -1   2  -2    1.56    6.82
  -1   2  -2    5.86    3.15
  -1   2  -2    5.04    5.98
  -1  -2  -2    4.69    5.63
  -1  -2  -2    4.29   11.36
  -1  -2  -2   -0.07    3.31
  -1  -2  -2    3.59   10.23
  -1  -2  -2    5.14    4.18
  -1  -2  -2    0.01    4.17
  -1  -2  -2    2.62    2.67
   2  -2   2    9.39    6.94
   2  -2   2    8.00    7.25
   2  -2   2   -1.23    1.98
   2  -2   2   10.02    4.22
   2   2   2   10.80    4.07
   2   2   2   -0.16    6.65
   2   2   2   10.66    6.61
   2   2   2    0.55    8.88
   2   2   2    8.84    5.99
   2   2   2    6.15    5.52
   2   2   2    9.89    5.91
   2   2   2    2.83    7.57
   2  -2   2   11.20    6.79
  -2   2  -2   10.82   13.18
  -2   2  -2    8.22    9.14
  -2   2  -2   10.23    8.88
  -2   2  -2    6.67   10.97
  -2   2  -2    4.95    7.61
  -2  -2  -2    7.28    5.95
  -2  -2  -2    6.57    5.22
  -2  -2  -2    7.74    7.17
  -2  -2  -2    7.13    6.20
  -2  -2  -2    0.00    3.30
  -2  -2  -2    6.39    2.23
   3  -2   2  162.44    9.39
   3  -2   2  214.12   20.32
   3  -2   2  213.79   45.72
   3  -2   2  183.87    9.57
   3  -2   2  195.49   27.20
   3  -2   2  209.35   21.98
   3   2   2  208.94   26.69
   3   2   2  244.32   44.98
   3   2   2  231.44   20.21
   3   2   2  235.88   35.40
   3   2   2  204.22   19.83
   3   2   2  187.32   29.45
   3   2   2  203.42   26.76
  -3   2  -2  234.29   39.87
  -3   2  -2  203.13   38.87
  -3   2  -2  232.24   60.46
  -3   2  -2  223.83   21.94
  -3  -2  -2  205.50   11.49
  -3  -2  -2  241.44   36.97
  -3  -2  -2  174.57   22.65
  -3  -2  -2  218.64   29.37
  -3  -2  -2  226.66    9.27
  -3  -2  -2  237.20   27.06
  -3  -2  -2  239.16   39.33
  -3   2  -2  196.14   32.21
   4  -2   2    6.11    6.20
   4  -2   2    6.37   12.41
   4  -2   2    6.67    6.63
   4   2   2    4.24    7.17
   4   2   2    6.09    4.88
   4   2   2    4.30    6.37
   4   2   2   -0.55    8.57
   4   2   2   -0.14   15.63
   4   2   2    3.28    3.78
   4   2   2    3.87    5.03
   4   2   2    8.33    6.62
   4  -2   2    4.23    5.39
  -4   2  -2   10.15    6.78
  -4   2  -2    1.94    1.70
  -4   2  -2    4.77    8.01
  -4   2  -2    1.94    9.59
  -4   2  -2    3.88    1.12
  -4   2  -2    3.25    1.48
  -4   2  -2    0.89    1.41
  -4  -2  -2    7.45    5.07
  -4  -2  -2    0.22    4.19
  -4  -2  -2    5.16   10.54
  -4  -2  -2    9.56    4.70
  -4  -2  -2    4.59    6.80
  -4   2  -2    3.11    5.89
   5  -2   2   30.58   20.91
   5  -2   2   27.67   16.14
   5  -2   2   27.87   11.00
   5   2   2   24.50    5.58
   5   2   2   34.08   10.51
   5   2   2   -0.01   14.77
   5   2   2   26.63    8.93
   5   2   2   28.80   10.56
   5   2   2   -0.65   14.00
   5   2   2   31.24   11.77
   5  -2   2   22.97   11.35
   5  -2   2   36.08    7.34
  -5   2  -2   29.02   18.98
  -5   2  -2   34.47   11.70
  -5   2  -2   35.70   14.19
  -5  -2  -2   32.70    9.29
  -5  -2  -2   30.30   10.75
  -5  -2  -2    0.14   11.61
  -5   2  -2   31.00   13.19
   6  -2   2   51.02   22.68
   6  -2   2   55.45    8.28
   6  -2   2   58.90   15.31
   6   2   2   50.51   12.21
   6   2   2   45.08   13.90
   6   2   2   67.57   14.88
   6   2   2   60.34   17.73
   6   2   2   51.99   12.73
   6   2   2   62.67   17.00
   6   2   2   44.16   10.30
   6   2   2   63.05   17.36
   6  -2   2   43.73   13.53
   6  -2   2   54.74   25.51
  -6   2  -2   52.01   26.58
  -6   2  -2   50.92   27.62
  -6  -2  -2   58.14    9.31
  -6  -2  -2   60.46   11.99
  -6  -2  -2    1.75   13.06
  -6  -2  -2   45.62   11.28
  -6   2  -2   49.19   24.78
  -6  -2  -2   53.30   13.95
  -6   2  -2   61.29   16.75
   7  -2   2   37.62   13.42
   7  -2   2   50.95    7.92
   7  -2   2   50.48   23.39
   7   2   2   68.62   15.68
   7   2   2   55.00   15.59
   7   2   2   66.41   18.91
   7   2   2   49.37   13.06
   7   2   2   44.89    6.61
   7   2   2   47.27   13.76
   7   2   2   51.48   11.92
   7  -2   2   58.57   26.34
  -7   2  -2   60.03   17.27
  -7   2  -2   58.75   17.30
  -7  -2  -2   56.92   13.43
  -7  -2  -2   58.61   11.61
  -7  -2  -2   54.68   15.32
  -7  -2  -2   58.06   12.75
  -7   2  -2   59.26   16.49
  -7   2  -2   65.36   19.05
   8  -2   2   -2.80    2.49
   8   2   2    0.03    5.56
   8   2   2   -1.54    5.41
   8   2   2   -1.75    4.35
  -8   2  -2    0.13    4.82
  -8   2  -2   -2.15    4.52
  -8   2  -2   -0.15    5.27
  -8  -2  -2   -1.54    2.17
  -8  -2  -2   -0.25    4.24
  -8  -2  -2    1.60    1.57
  -8  -2  -2    1.03    3.79
  -8   2  -2    0.94    5.41
   9   2   2   24.94    7.62
   9   2   2    0.39    7.74
   9   2   2   -0.13    5.29
  -9   2  -2   -0.42    7.87
  -9   2  -2   -2.23    7.31
  -9   2  -2   16.72    6.66
  -9  -2  -2   -0.53    5.56
  -9   2  -2   -2.28    6.19
  -9  -2  -2    1.04    5.91
  10   2   2   -0.65   23.79
  10   2   2   53.84   14.01
  10   2   2   34.28    8.64
 -10   2  -2   -0.29    7.11
 -10   2  -2    6.69    5.74
 -10  -2  -2   -0.52    6.06
 -10  -2  -2   -0.91    5.61
 -10   2  -2   -0.52   13.52
  11   2   2    0.99   11.35
  11   2   2    0.01    5.25
  11   2   2   -7.37    6.13
  11  -2   2    0.05    5.74
 -11   2  -2   -4.34    3.75
 -11  -2  -2   -0.35    4.85
 -11  -2  -2   -0.41    4.69
 -11   2  -2    7.15    5.11
 -11   2  -2   -0.66    6.67
  12  -2   2    4.06    4.67
  12   2   2   -0.63    5.31
  12   2   2    2.13    5.82
  12   2   2    0.07    2.27
 -12   2  -2   -4.88    8.08
 -12   2  -2   -2.96    6.59
 -12   2  -2   -3.91    4.82
 -12  -2  -2    5.18    4.83
 -12  -2  -2    0.62    4.55
  13  -2   2   -1.68    4.38
  13   2   2   -1.84    5.70
  13   2   2    0.63    5.22
 -13   2  -2    6.93    7.03
 -13   2  -2   -2.17    9.29
 -13  -2  -2    4.81   11.08
 -13  -2  -2    1.48    6.66
  14  -2   2    7.18    4.50
  14   2   2    0.63    6.75
  14   2   2    3.19    7.43
 -14  -2  -2   23.20   15.74
 -14  -2  -2    0.03   16.11
 -14   2  -2   11.13    8.70
 -14   2  -2    0.59   17.17
  15  -2   2    3.24    2.26
  15   2   2  -11.00    8.28
  15   2   2   -8.77    7.81
 -15   2  -2   -0.53    4.71
 -15  -2  -2    3.08    4.48
 -15  -2  -2   -2.54    4.59
 -15   2  -2   -2.24    3.70
 -15   3   2   -0.22    1.32
 -14   3   2    0.51    3.43
 -14   3   2    3.29    2.90
 -14   3   2    0.51    3.04
 -14  -3   2   -3.92    2.49
 -14  -3   2   -0.38    3.56
  14   3  -2    5.38    2.92
  14  -3  -2   -0.88    9.47
 -13  -3   2    4.06    1.84
 -13  -3   2    0.01    3.02
 -13  -3   2   -5.05    5.58
 -13   3   2  -10.80    8.62
 -13   3   2   -4.58    4.19
 -13   3   2   -0.33    4.81
  13   3  -2   -1.18    5.39
  13  -3  -2   -1.10    5.52
 -12   3   2   -2.63    5.79
 -12   3   2    0.99    5.46
 -12   3   2    3.54    8.12
 -12  -3   2   -4.17    4.99
 -12  -3   2   -0.01    3.28
 -12  -3   2   -2.66    3.48
  12   3  -2   -0.56    3.53
  12  -3  -2   -0.52    5.82
 -11  -3   2    2.57    2.99
 -11   3   2   -1.56    5.20
 -11   3   2    3.66    5.29
 -11   3   2    4.08    5.01
 -11  -3   2    0.04    2.87
 -11  -3   2   -2.58    3.22
  11   3  -2    0.24    4.33
  11  -3  -2    3.25    7.00
 -10  -3   2    0.10    3.20
 -10  -3   2    4.47    4.12
 -10  -3   2    1.19    3.13
 -10   3   2    2.45   11.61
 -10   3   2    1.51   10.25
 -10   3   2    0.26    5.83
  10   3  -2    0.01    4.14
  10  -3  -2   -1.98    6.30
  10   3  -2    1.23    2.60
  -9  -3   2   -2.10    2.27
  -9   3   2    0.24    5.21
  -9   3   2    9.19    5.36
  -9   3   2    1.01    4.59
  -9  -3   2    2.83    3.59
  -9  -3   2   -0.01    2.29
   9   3  -2   -1.67    3.04
   9  -3  -2    2.73    6.32
   9   3  -2    0.04    4.18
  -8  -3   2    3.97    4.81
  -8  -3   2    0.61    2.59
  -8  -3   2   -0.04    4.26
  -8   3   2    1.29    6.75
  -8   3   2    9.20    6.64
   8   3  -2   -1.84    2.76
   8  -3  -2    2.74    4.99
   8  -3  -2    4.44    5.19
   8   3  -2    0.04    3.52
  -7  -3   2   -0.31    4.18
  -7  -3   2    1.47    1.91
  -7  -3   2   -0.32    3.26
  -7   3   2   -0.15    5.56
  -7   3   2    0.53    9.57
   7   3  -2    0.09    5.29
   7   3  -2   -0.15    4.42
   7  -3  -2    7.57    7.35
   7  -3  -2    6.06    6.78
  -6  -3   2    3.32    3.64
  -6  -3   2    0.06    2.31
  -6   3   2    0.15    1.17
  -6   3   2   -0.22    3.96
  -6   3   2   -1.01    6.88
   6   3  -2    1.87    3.74
   6   3  -2   -0.18    3.93
   6   3  -2   -0.04    3.22
   6  -3  -2   -2.54    9.04
   6  -3  -2    0.28    1.65
   6  -3  -2   -2.81    7.69
  -5  -3   2    1.90    3.83
  -5  -3   2   -1.22    3.82
  -5   3   2   -0.04    3.41
  -5   3   2   -0.99    3.43
  -5   3   2   -1.06    4.41
  -5   3   2   -0.07    3.24
  -5   3   2    0.27    3.69
  -5   3   2   -0.11    1.38
   5   3  -2   -0.05    1.72
   5   3  -2   -0.45    7.28
   5   3  -2   -0.09    1.67
   5   3  -2    0.27    1.63
   5   3  -2    0.58    2.36
   5   3  -2    4.81    3.87
   5   3  -2    1.43    4.50
   5  -3  -2   -0.01    2.73
   5  -3  -2   -2.63    4.76
   5  -3  -2    0.65    5.71
   5  -3  -2    1.69    1.58
   5  -3  -2    2.04    3.92
   5  -3  -2    0.52    4.95
  -4  -3   2    5.91    6.46
  -4  -3   2    7.69    9.49
  -4  -3   2    0.23    8.11
  -4   3   2   -0.19    2.88
  -4   3   2    3.75    5.59
  -4   3   2    7.06    9.02
  -4   3   2    6.47    3.33
  -4   3   2    6.07    6.98
  -4   3   2    2.21    5.85
   4   3  -2    2.33    2.75
   4   3  -2    0.28    1.92
   4   3  -2    6.68    5.27
   4   3  -2    6.68    5.74
   4   3  -2    7.05    8.87
   4   3  -2    0.02    2.79
   4   3  -2   -0.18    3.72
   4  -3  -2    8.17    6.12
   4  -3  -2    0.36    8.76
   4  -3  -2    0.50    7.04
   4  -3  -2    5.12    5.79
   4  -3  -2   -0.38    3.51
   4  -3  -2    9.59    2.65
  -3  -3   2    2.26    4.48
  -3  -3   2    0.14    2.95
  -3  -3   2   -0.67    9.42
  -3   3   2    1.60    7.81
  -3   3   2    0.43    7.10
  -3   3   2    2.98    5.75
  -3   3   2    1.66    4.49
  -3   3   2   -1.40    5.44
  -3   3   2    2.80    3.04
   3   3  -2    0.06    1.82
   3   3  -2    0.34    1.52
   3   3  -2    2.86    6.96
   3   3  -2    0.88    4.26
   3   3  -2    0.09    2.52
   3   3  -2    2.78    4.14
   3  -3  -2    1.80    3.69
   3  -3  -2    0.18    3.91
   3  -3  -2    3.56    4.56
   3  -3  -2   -0.54    3.27
   3  -3  -2   -0.25    4.31
  -2  -3   2    0.31    3.33
  -2  -3   2   -0.62    5.42
  -2  -3   2    1.96    4.04
  -2  -3   2    0.07    3.12
  -2   3   2    4.21    3.32
  -2   3   2    2.39    3.73
  -2   3   2    2.65    3.76
  -2   3   2    2.52    4.21
  -2   3   2    4.63    8.29
  -2   3   2   -0.08    1.00
  -2   3   2    3.01    3.34
   2   3  -2    3.64    4.61
   2   3  -2   -0.32    4.69
   2   3  -2   -0.42    3.23
   2   3  -2    0.24    3.03
   2   3  -2    2.97    4.03
   2   3  -2    0.09    3.11
   2  -3  -2   -1.54    4.95
   2  -3  -2    3.27    4.01
   2  -3  -2   -1.35    4.06
   2  -3  -2    1.37    6.82
   2  -3  -2    2.61    3.81
  -1  -3   2    9.02   10.71
  -1  -3   2   11.91    7.64
  -1  -3   2    2.66    5.05
  -1  -3   2   10.47    9.15
  -1   3   2    7.33    3.72
  -1   3   2   13.43    7.24
  -1   3   2   11.86    6.36
  -1   3   2   12.07    6.39
  -1   3   2    9.90    7.55
  -1   3   2   13.08    5.87
  -1   3   2    6.95    1.99
  -1   3   2   16.76    6.47
   1   3  -2    0.16    3.44
   1   3  -2    9.33    7.29
   1   3  -2    1.96   10.35
   1   3  -2    8.08    7.43
   1   3  -2    8.75    3.30
   1  -3  -2    9.88    6.54
   1  -3  -2   10.03    6.36
   1  -3  -2   10.59    9.35
   1  -3  -2    9.00    8.69
   1  -3  -2   10.33    2.30
   1  -3  -2    0.91   14.12
   0  -3   2    8.63    6.81
   0  -3   2   10.68   14.98
   0  -3   2   10.58    7.35
   0  -3   2   -0.19    3.99
   0  -3   2    8.53    3.29
   0   3   2    7.55    2.89
   0   3   2   11.57    7.32
   0   3   2   15.64   10.36
   0   3   2   13.85    5.20
   0   3   2    8.76    3.73
   0   3   2    7.84   11.75
   0   3   2   12.75    6.20
   0   3   2   -1.56    6.46
   0   3  -2   13.62    8.67
   0   3  -2   11.78    7.63
   0   3  -2    4.97    6.14
   0   3  -2    7.70    7.85
   0  -3  -2    5.61    4.42
   0  -3  -2    8.27    2.96
   0  -3  -2    9.91    6.99
   0  -3  -2   10.12    7.01
   0  -3  -2   13.07    6.94
   0  -3  -2    9.52    4.28
   1  -3   2   97.34   10.44
   1  -3   2  120.02   21.85
   1  -3   2   85.29    8.91
   1  -3   2  119.24   18.55
   1  -3   2   93.34    7.86
   1  -3   2  119.44   19.26
   1   3   2   98.96   10.64
   1   3   2  124.21   19.55
   1   3   2  113.20   20.34
   1   3   2  132.59   21.26
   1   3   2  113.00   12.83
   1   3   2  127.28    8.35
   1   3   2  120.13   15.91
   1   3   2  112.71   18.65
  -1   3  -2  116.23   31.55
  -1   3  -2  111.97   20.48
  -1   3  -2  111.61   20.79
  -1   3  -2   80.66    7.77
  -1   3  -2   87.36   10.52
  -1  -3  -2   97.11    8.42
  -1  -3  -2  127.54   18.05
  -1  -3  -2  104.46   17.06
  -1  -3  -2  125.23   19.71
  -1  -3  -2  105.77    8.98
  -1  -3  -2  109.55   13.80
  -1  -3  -2  104.59   10.21
   2  -3   2   -1.18    2.24
   2  -3   2   -2.88    2.16
   2  -3   2   -1.28    4.61
   2  -3   2   -0.85    2.67
   2  -3   2   -4.37    7.88
   2   3   2   -0.05    2.57
   2   3   2    0.41   10.71
   2   3   2   -2.39    3.97
   2   3   2   -2.13    2.38
   2   3   2   -0.43    2.34
   2   3   2   -0.04    1.81
   2   3   2   -0.39    8.92
   2   3   2    2.77    4.69
   2   3   2    2.43    4.66
  -2   3  -2    2.13    4.74
  -2   3  -2    1.46    3.90
  -2   3  -2    0.83    3.01
  -2   3  -2   -0.22    3.50
  -2   3  -2    0.80    2.25
  -2  -3  -2   -0.68    1.20
  -2  -3  -2    1.00    2.17
  -2  -3  -2    0.01    1.22
  -2  -3  -2    4.12    3.57
  -2  -3  -2    0.51    4.06
  -2  -3  -2   -0.52    6.68
  -2  -3  -2   -0.20    2.88
   3  -3   2    5.74    6.00
   3  -3   2    6.38    3.91
   3  -3   2    3.95    3.65
   3  -3   2    5.06   10.46
   3   3   2    1.18    2.31
   3   3   2   -0.10    8.00
   3   3   2    0.04    8.38
   3   3   2    0.03    6.59
   3   3   2    7.26    5.13
   3   3   2    3.85    6.32
   3   3   2    6.16    6.30
   3   3   2    7.53    6.09
  -3   3  -2    6.64    7.05
  -3   3  -2    3.73    4.82
  -3   3  -2   -0.50    6.02
  -3   3  -2    5.19    5.32
  -3  -3  -2   -0.39    2.72
  -3  -3  -2    2.10    8.37
  -3  -3  -2    0.29    2.70
  -3  -3  -2    5.34    5.53
  -3  -3  -2    4.53    5.27
  -3   3  -2    4.25    5.76
   4  -3   2    1.30    4.43
   4  -3   2    3.38    7.65
   4  -3   2    6.13    4.01
   4   3   2    0.08    3.13
   4   3   2    1.69    4.57
   4   3   2   -0.34    5.98
   4   3   2    4.91    4.69
   4   3   2   -0.13    1.45
   4   3   2    0.01    6.06
   4   3   2    0.45    4.78
   4   3   2   -0.39    2.50
  -4   3  -2    6.34    7.05
  -4   3  -2   -0.05    4.98
  -4   3  -2    0.98    5.59
  -4   3  -2    0.09   10.84
  -4  -3  -2    0.62    1.94
  -4  -3  -2    3.74    4.63
  -4  -3  -2   -0.13    2.63
   5  -3   2   13.62    7.19
   5   3   2    9.79    8.91
   5   3   2   13.02    5.30
   5   3   2    8.50    6.70
   5   3   2   12.47    9.13
  -5   3  -2   18.59   11.58
  -5   3  -2   12.41   12.18
  -5   3  -2   13.45   15.84
  -5   3  -2   11.10    8.71
  -5  -3  -2   11.70    8.90
  -5  -3  -2   11.09    8.94
   6  -3   2    0.72    3.71
   6   3   2   -1.17    8.87
   6   3   2   -2.92    4.08
   6   3   2   -0.75    4.72
  -6   3  -2   -0.25    5.02
  -6   3  -2   -2.29    6.96
  -6   3  -2   -2.91    4.73
  -6   3  -2    2.95    5.53
  -6  -3  -2    2.75    5.52
  -6  -3  -2    0.49    4.53
  -6  -3  -2   -3.40    4.62
   7  -3   2    9.70    5.02
   7   3   2   -0.57    3.63
   7   3   2   -2.53    7.30
   7   3   2   -3.80    3.81
  -7   3  -2   -1.94    6.10
  -7   3  -2   -0.59    5.04
  -7   3  -2   -0.41    9.84
  -7   3  -2   -0.51    9.72
  -7  -3  -2   -0.06    5.48
  -7  -3  -2   -1.74    8.94
  -7  -3  -2   -1.30    5.44
   8  -3   2    2.86    4.30
   8   3   2    7.35    5.85
   8   3   2   -0.37    6.38
   8   3   2    1.02   11.52
  -8   3  -2    0.78    5.63
  -8   3  -2    0.24    5.27
  -8   3  -2    0.03    5.87
  -8   3  -2   -0.63    9.95
  -8  -3  -2   11.53    8.90
  -8  -3  -2    0.23    6.01
  -8  -3  -2    0.02    2.71
   9  -3   2    0.45    4.27
   9   3   2    0.06    4.00
   9   3   2   -0.86    4.92
   9   3   2    7.67    8.52
  -9   3  -2    5.61    6.08
  -9   3  -2    0.01    6.52
  -9   3  -2   -0.80    7.44
  -9   3  -2   -0.63    6.81
  -9  -3  -2    0.48    7.47
  -9  -3  -2    6.22   10.64
  10   3   2    0.03    2.81
  10   3   2   -2.13    6.87
  10   3   2    0.54    3.99
 -10   3  -2    0.15    4.51
 -10   3  -2   -3.47    6.65
 -10   3  -2    0.58    4.34
 -10   3  -2    0.62    5.39
 -10  -3  -2    3.05    8.09
 -10  -3  -2   -0.42    5.37
  11  -3   2   -2.56    4.22
  11   3   2    0.19    2.99
  11   3   2   -0.48    5.35
  11   3   2    0.37    8.86
 -11   3  -2    0.03    7.96
 -11   3  -2    3.86   16.47
 -11   3  -2    4.75    6.11
 -11  -3  -2   -0.70   11.15
 -11  -3  -2    8.29    8.43
  12  -3   2   -1.11    3.53
  12   3   2   -0.65    4.77
  12   3   2    0.37    8.45
  12   3   2    0.06    3.28
 -12   3  -2   16.27   10.29
 -12   3  -2    5.02    4.60
 -12   3  -2   -0.01   13.37
 -12  -3  -2   -0.43    7.12
 -12  -3  -2    6.20    8.68
  13  -3   2   -0.61    2.56
  13   3   2    1.05    3.97
  13   3   2   -0.82    7.54
 -13   3  -2    3.70    5.07
 -13   3  -2   -4.09    5.94
 -13  -3  -2    3.30    5.21
 -13  -3  -2   -1.31    3.91
  14  -3   2    2.07    2.18
  14   3   2    6.69    5.16
 -14   3  -2   -1.72    5.30
 -14   3  -2   -9.47   10.69
 -14  -3  -2   -5.57    5.16
 -14  -3  -2    2.88    4.29
 -13   4   2   -0.45    1.67
 -13   4   2   -6.62    4.46
 -13   4   2    4.02    3.66
 -13  -4   2   -1.72    2.84
  13  -4  -2    4.63    6.66
  13   4  -2    4.90    3.79
 -12   4   2   -1.78    5.74
 -12   4   2   -2.30    2.96
 -12   4   2   -1.59    6.25
 -12  -4   2   -1.23    3.38
  12   4  -2    0.95    3.68
 -11   4   2    6.22    5.93
 -11   4   2   -1.04    5.82
 -11   4   2    2.88    6.24
 -11  -4   2   -0.85    3.77
  11  -4  -2    4.82   13.49
  11   4  -2    1.65    5.02
 -10   4   2   -0.43   10.30
 -10   4   2    1.19   17.72
 -10   4   2   20.04    7.12
 -10  -4   2   -2.15   12.37
  10  -4  -2   19.65   11.11
  10   4  -2    2.89    7.81
  -9   4   2    5.49    5.43
  -9   4   2    1.25    8.42
  -9   4   2   -0.17   13.15
  -9  -4   2    0.75    5.94
   9   4  -2   -4.72    5.93
   9   4  -2   -0.53    3.36
   9  -4  -2  -10.10    8.35
  -8  -4   2   12.66    7.44
  -8   4   2   -0.15   10.35
  -8   4   2   -0.51    9.20
   8   4  -2   -0.02    7.07
   8   4  -2    1.02    4.71
   8  -4  -2   10.82    7.95
   8  -4  -2   18.34    9.54
  -7  -4   2    8.67    6.96
  -7   4   2   -0.82   15.90
  -7   4   2   -0.76    7.98
   7   4  -2    0.03    6.58
   7   4  -2    3.17    4.86
   7  -4  -2    1.98    7.27
   7  -4  -2   10.85    8.29
  -6  -4   2   -1.72    4.52
  -6   4   2    0.02    4.95
  -6   4   2    0.68    4.91
   6   4  -2   -0.62    4.00
   6   4  -2   -0.02    5.35
   6  -4  -2    6.95    8.93
   6  -4  -2    4.34    9.58
  -5  -4   2    3.74    6.93
  -5   4   2   10.17    4.88
  -5   4   2   -1.09   12.76
  -5   4   2    0.00    7.66
   5   4  -2   -0.12    4.45
   5   4  -2   -0.05    6.02
   5   4  -2   -0.09    4.76
   5  -4  -2    4.00    6.14
   5  -4  -2    7.75    6.36
  -4  -4   2   13.52    7.88
  -4   4   2   -0.01    8.93
  -4   4   2   17.41    5.94
  -4   4   2   -1.34   12.00
   4   4  -2   -0.11    7.53
   4   4  -2   -0.01    6.99
   4   4  -2   -0.09    6.62
   4  -4  -2   13.96    7.01
   4  -4  -2    0.65    3.94
   4  -4  -2   31.09    7.82
  -3  -4   2    2.63    2.90
  -3   4   2   -2.95    2.70
  -3   4   2    0.50    2.65
  -3   4   2    0.00    3.57
   3   4  -2    0.06    5.30
   3   4  -2    0.04    4.87
   3   4  -2    0.12    4.54
   3  -4  -2   -0.02    8.28
   3  -4  -2   -0.58    3.20
   3  -4  -2   -2.65    4.26
  -2  -4   2   12.41    6.73
  -2   4   2   18.89    6.19
  -2   4   2   17.26    8.07
  -2   4   2   -0.02    9.35
   2   4  -2    1.90   11.78
   2   4  -2   -1.04    3.01
   2   4  -2    0.09    5.34
   2   4  -2   14.75   10.52
   2   4  -2    0.02    7.22
   2  -4  -2   16.91    6.69
   2  -4  -2    8.87    5.74
   2  -4  -2   21.98    5.79
  -1  -4   2   57.45   10.61
  -1   4   2   88.19   17.60
  -1   4   2   94.19   25.87
  -1   4   2   77.76   10.40
   1   4  -2   81.82   18.70
   1   4  -2   73.64   16.49
   1   4  -2   78.35    8.23
   1   4  -2    0.06   26.99
   1   4  -2   58.95    8.23
   1  -4  -2   72.62   22.35
   1  -4  -2   69.21   19.28
   1  -4  -2   78.95   16.17
   0  -4   2   -0.14    3.55
   0   4   2    2.74    2.24
   0   4   2   -0.01    8.25
   0   4   2   -0.84    3.51
   0   4   2   -3.93    4.51
   0   4  -2   -0.84    4.35
   0   4  -2   -0.09    4.39
   0   4  -2    0.47    3.36
   0   4  -2   -0.03    1.95
   0   4  -2    0.11    4.62
   0  -4  -2   -2.00    6.90
   0  -4  -2   -0.24    3.94
   0  -4  -2    2.29    3.72
   0  -4  -2    0.80    2.07
   1  -4   2    0.53    1.93
   1   4   2   -0.02    5.70
   1   4   2    0.00    1.79
   1   4   2    3.29    2.11
   1   4   2   14.91    5.67
   1   4   2    3.07    3.66
  -1   4  -2    1.09    3.50
  -1   4  -2    9.78    7.03
  -1   4  -2    0.28    6.77
  -1   4  -2    9.29    7.56
  -1  -4  -2    9.36    6.14
  -1  -4  -2    5.54    5.17
  -1  -4  -2    0.87    4.45
  -1  -4  -2    4.75    2.53
  -1  -4  -2    2.93    2.63
   2   4   2    0.03    2.73
   2   4   2    0.02    5.73
   2   4   2    9.70    5.66
  -2   4  -2    6.89    8.77
  -2   4  -2    0.31    4.00
  -2   4  -2    9.51    7.21
  -2   4  -2    0.95   11.56
  -2  -4  -2    8.43    6.71
  -2  -4  -2    6.98    5.70
   3  -4   2   -4.67    6.02
   3   4   2   -0.08    5.61
   3   4   2    0.00    6.26
  -3   4  -2   51.89   16.43
  -3   4  -2   65.43   20.75
  -3   4  -2   39.38   16.79
  -3  -4  -2   60.87   15.21
  -3  -4  -2   56.40   13.31
   4  -4   2   16.82    8.59
   4   4   2    1.46    5.12
   4   4   2   21.41   14.88
   4   4   2   15.13   13.79
  -4   4  -2   -0.88    7.11
  -4   4  -2   19.97   16.17
  -4   4  -2   -1.44    3.45
  -4   4  -2   -0.26   10.03
  -4  -4  -2   16.90   10.30
  -4  -4  -2   23.62    6.73
   5  -4   2   -2.67    3.91
   5   4   2    0.31    2.76
   5   4   2    3.32    6.60
   5   4   2    2.19    7.32
  -5   4  -2   -0.01    2.86
  -5   4  -2    0.48    4.39
  -5   4  -2    0.65    8.01
  -5   4  -2    4.83    6.41
  -5  -4  -2   -2.32    4.34
  -5  -4  -2    7.26    7.78
   6  -4   2    4.09    5.51
   6   4   2    1.12    4.68
   6   4   2    0.57    6.44
   6   4   2    0.48    9.71
  -6   4  -2   -0.28    3.36
  -6   4  -2    6.64    6.18
  -6   4  -2   -0.59    5.13
  -6   4  -2   -0.78    4.77
  -6  -4  -2   -2.56    4.66
  -6  -4  -2   -1.76    4.06
   7  -4   2    3.15    4.75
   7   4   2   -0.37    4.36
   7   4   2    0.35    5.48
   7   4   2   -1.82    7.83
  -7   4  -2   -1.85    3.65
  -7   4  -2   -5.04    5.53
  -7   4  -2    0.45    8.37
  -7   4  -2    1.58    5.07
  -7  -4  -2   -1.39    3.60
  -7  -4  -2    5.54    4.58
   8  -4   2   -1.75    3.01
   8   4   2    0.74    3.36
   8   4   2    2.49    4.01
   8   4   2   -0.62    5.22
  -8   4  -2   -0.06    5.65
  -8   4  -2    0.35    9.24
  -8   4  -2    0.43    4.49
  -8   4  -2   -4.18    5.95
  -8  -4  -2   -1.32    5.23
  -8  -4  -2    4.97    3.58
  -8  -4  -2    0.09    2.47
   9  -4   2    5.52    6.31
   9   4   2    1.07    5.36
   9   4   2    0.23    6.04
   9   4   2   -0.15    4.17
  -9   4  -2   -0.10    6.19
  -9   4  -2   10.48    6.92
  -9   4  -2    0.00    6.50
  -9   4  -2   -4.08    7.73
  -9  -4  -2    1.42    6.70
  -9  -4  -2    3.71    3.48
  10  -4   2    1.16    2.76
  10   4   2   -0.39    4.85
  10   4   2    1.51    5.14
  10   4   2   -0.04    3.23
 -10   4  -2    4.44    4.41
 -10   4  -2    0.02    4.26
 -10   4  -2    0.22    4.60
 -10   4  -2   -1.53    5.75
 -10  -4  -2   -0.90    4.87
 -10  -4  -2    2.12    2.14
 -10  -4  -2   -2.62    2.62
  11  -4   2   -0.07    3.90
  11   4   2   -1.09    5.97
  11   4   2    0.09    5.90
  11   4   2    4.21    2.88
 -11   4  -2   -3.66    4.20
 -11   4  -2    0.22    8.80
 -11   4  -2    4.54   11.38
 -11  -4  -2   -2.28    5.62
 -11  -4  -2   -0.05    3.05
  12  -4   2   14.33    4.79
  12   4   2   25.99   10.04
  12   4   2   18.99   15.85
 -12   4  -2   -2.29    2.62
 -12   4  -2   13.18    6.91
 -12   4  -2   14.18    8.07
 -12  -4  -2   23.98   11.31
 -12  -4  -2    7.81    3.51
  13   4   2    0.64    4.36
  13   4   2   -2.87    3.94
 -13   4  -2    5.03    6.16
 -13   4  -2    6.67    6.71
 -13  -4  -2    0.37    9.19
 -11   5   2   -1.13    5.69
 -11   5   2    5.76    9.60
 -11  -5   2    7.08    6.99
  11  -5  -2    1.20    6.57
  11   5  -2   -4.34    7.66
  11   5  -2   -6.09    8.37
 -10   5   2    2.58    5.64
 -10   5   2    4.70    6.69
 -10  -5   2    0.71    4.87
  10  -5  -2    9.04   14.27
  10   5  -2    2.61    5.94
  -9   5   2    0.18    1.81
  -9   5   2   -0.06    4.24
  -9   5   2    0.60    9.69
  -9  -5   2    1.22    3.99
   9  -5  -2   -0.58    7.04
   9   5  -2   -2.55    5.61
  -8   5   2   -0.05    6.62
  -8   5   2   -1.59    2.61
  -8   5   2    0.00    4.53
  -8  -5   2    1.26    4.63
   8  -5  -2    1.74    5.77
   8   5  -2   -1.33    5.02
   8   5  -2   -0.76    2.00
  -7   5   2    1.21    7.17
  -7   5   2    0.07    7.39
  -7   5   2   -4.90    3.05
  -7  -5   2    8.36    4.85
   7  -5  -2    2.14    6.72
   7  -5  -2    2.36    4.16
   7   5  -2    0.34    6.12
   7   5  -2    1.46    3.22
  -6   5   2   -0.81    5.12
  -6  -5   2    4.64    5.44
   6  -5  -2    6.87    5.17
   6  -5  -2    0.61   12.90
   6   5  -2    4.72    7.37
   6   5  -2    0.59    4.48
  -5   5   2   -1.06    4.09
  -5   5   2    6.85    4.41
  -5   5   2    1.65    6.37
  -5  -5   2   -1.86    5.00
   5  -5  -2   -5.35    4.00
   5  -5  -2    0.56    8.53
   5   5  -2   -0.18    3.05
   5   5  -2   -0.51    9.24
   5   5  -2    2.27    3.90
  -4   5   2   -3.49    3.74
  -4   5   2    0.32    3.00
  -4   5   2    0.00    4.74
  -4  -5   2    1.76    3.59
   4  -5  -2   -0.54    4.79
   4  -5  -2   -2.77    4.32
   4   5  -2    0.06    3.66
   4   5  -2   -0.19   10.75
   4   5  -2    0.02    4.20
  -3   5   2    1.03    4.51
  -3   5   2    0.00    7.88
  -3   5   2    5.58   10.28
  -3  -5   2   12.35    5.51
   3  -5  -2   20.67    5.78
   3   5  -2   -0.67    8.00
   3  -5  -2   -3.30    5.85
   3  -5  -2    0.89    4.10
   3   5  -2   -0.28    5.66
   3   5  -2    0.17    6.17
  -2   5   2    0.00    9.39
  -2   5   2    2.19    4.66
  -2  -5   2    0.20    3.22
   2  -5  -2    1.78    4.61
   2  -5  -2    1.33    3.97
   2  -5  -2    0.19    3.90
   2   5  -2    0.82    6.18
   2   5  -2    0.05    5.24
   2   5  -2    1.60    4.97
  -1   5   2   32.50    8.00
  -1   5   2    0.00    8.85
  -1  -5   2    0.18    4.22
   1  -5  -2   -0.45    6.06
   1  -5  -2   20.44    8.96
   1  -5  -2   -0.09    4.65
   1   5  -2    0.81    7.69
   1   5  -2   13.80    7.38
   1   5  -2    0.09    7.31
   0   5   2    0.13    4.48
   0   5   2    0.15    4.54
   0  -5  -2    5.32    4.46
   0  -5  -2    4.78    8.97
   0  -5  -2    1.62    2.95
   0   5  -2   -0.43    5.88
   0   5  -2   -0.07    2.67
   0   5  -2    1.66    6.50
   0   5  -2    0.00    6.03
   1   5   2    0.01    6.63
   1   5   2    6.30   11.19
  -1  -5  -2    9.44    6.05
  -1  -5  -2    6.42   11.48
  -1   5  -2    2.94    3.89
  -1   5  -2   -0.85   13.47
  -1   5  -2    4.07    9.56
   2   5   2   -6.40   11.71
   2   5   2   -6.45   11.50
   2  -5   2    1.52    7.49
  -2  -5  -2   -5.28    3.46
  -2  -5  -2    2.62    3.92
  -2   5  -2    0.99    4.19
  -2   5  -2    3.55    3.81
  -2   5  -2   -4.85    9.39
   3   5   2    8.90    9.96
   3   5   2    8.48   16.75
   3  -5   2   10.09   10.80
  -3  -5  -2   10.74    7.52
  -3  -5  -2    1.71    8.76
  -3   5  -2    1.58    7.46
  -3   5  -2    0.08    9.25
  -3   5  -2   14.66   18.02
   4   5   2   -0.74    3.66
   4   5   2   13.43    7.46
   4   5   2    4.94    7.51
   4  -5   2    8.78    7.92
  -4  -5  -2   14.29    5.97
  -4   5  -2   -0.30    6.65
  -4   5  -2    1.14   13.20
  -4   5  -2   -0.73   11.51
   5   5   2   34.65    7.97
   5   5   2   27.61   13.19
   5   5   2   -2.09   13.91
  -5  -5  -2   33.25   10.32
  -5   5  -2   30.78   11.93
  -5   5  -2   41.93   19.20
  -5   5  -2   27.46   13.58
   6   5   2    1.18    8.22
   6   5   2    5.96    7.44
   6   5   2    6.93    5.11
   6  -5   2   -5.02   14.43
  -6  -5  -2   -0.82    6.02
  -6  -5  -2    5.27    5.02
  -6   5  -2    0.05    6.45
  -6   5  -2    2.72    5.94
  -6   5  -2    3.52    8.50
   7   5   2   -0.06    5.32
   7   5   2   -0.02    3.71
   7   5   2   -0.14    4.71
   7  -5   2    3.93    5.15
  -7  -5  -2    1.31    3.60
  -7  -5  -2    0.98    4.00
  -7   5  -2    0.05    4.40
  -7   5  -2   -4.17    3.60
  -7   5  -2    8.60    7.20
  -7   5  -2    7.99    9.42
   8   5   2    1.05    5.00
   8   5   2   -1.43    6.51
   8   5   2    2.76    5.18
   8  -5   2    7.36    5.64
  -8  -5  -2   -1.40    4.94
  -8  -5  -2    5.34    4.93
  -8   5  -2   -0.01    5.37
  -8   5  -2    0.20    7.32
  -8   5  -2    6.41    5.63
  -8   5  -2    4.16    6.24
   9   5   2    0.33    7.52
   9   5   2   10.15    5.54
   9   5   2   10.13    8.97
   9  -5   2   -1.20    9.66
  -9  -5  -2   -1.46    4.69
  -9   5  -2    2.24    6.01
  -9  -5  -2   10.08    6.61
  -9   5  -2    7.99    6.18
  -9   5  -2    0.18    5.98
  -9   5  -2    0.29    4.15
  10   5   2    1.88    3.62
  10   5   2   -0.94    2.57
  10   5   2    0.96    4.69
  10  -5   2    2.47    2.24
 -10  -5  -2   -0.78    3.56
 -10  -5  -2    2.83    2.39
 -10   5  -2   -3.35    3.01
 -10   5  -2    3.20    5.97
 -10   5  -2    9.66    7.61
  11   5   2    4.58    3.52
  11   5   2   -0.68    4.22
 -11  -5  -2    1.04    2.75
 -11   5  -2   -4.11    2.47
 -11   5  -2    3.98    3.53
  -8   6   2    2.32   12.86
  -8   6   2    5.01    4.19
  -8  -6   2    7.02    5.76
   8  -6  -2    3.28    6.75
   8   6  -2   -0.50    4.09
  -7   6   2    4.89    7.15
  -7   6   2    2.31    4.04
  -7  -6   2   -2.71    8.79
   7  -6  -2    3.39    5.18
   7   6  -2    0.07    5.76
  -6   6   2   -2.98    1.62
  -6   6   2    0.89    1.68
  -6   6   2   18.74    5.79
  -6  -6   2   15.75    6.46
  -6  -6   2    0.91    1.94
   6  -6  -2    8.74    7.67
   6   6  -2   11.25    9.18
  -5   6   2   -2.86   11.51
  -5   6   2   -3.22    3.02
  -5  -6   2    6.03    7.02
  -5  -6   2    4.30    3.08
   5  -6  -2    9.16    5.49
   5   6  -2    1.54    4.56
   5   6  -2   -1.53    7.12
  -4   6   2    1.00    4.29
  -4   6   2   -0.39    9.76
  -4  -6   2    4.18    6.60
  -4  -6   2   -0.02    3.98
   4  -6  -2    0.00    6.05
   4   6  -2   14.41    8.40
   4   6  -2   13.01    8.46
  -3   6   2    8.28    9.37
  -3   6   2    1.66    8.21
  -3  -6   2   17.10    5.85
  -3  -6   2    1.21    7.72
   3  -6  -2   -0.01   10.64
   3   6  -2   27.04    9.70
   3   6  -2   -0.24   12.53
  -2   6   2   -0.19    7.95
  -2   6   2    4.13    7.95
  -2  -6   2    9.63    4.16
  -2  -6   2   -1.69    7.48
   2  -6  -2   10.69    9.17
   2  -6  -2   -0.06    8.41
   2   6  -2   14.46   13.76
   2   6  -2   22.99   14.75
  -1   6   2   -0.11    5.03
  -1   6   2   -0.21    8.44
  -1  -6   2   -0.58    4.81
   1  -6  -2   21.19    7.79
   1   6  -2   28.11   19.62
   1   6  -2   -2.06   19.31
   0   6   2   -0.03    6.31
   0   6   2   -0.69    6.49
   0  -6   2    0.24    3.94
   0  -6  -2    4.86    6.30
   0   6  -2    8.50    7.78
   0   6  -2   -0.25   15.81
   1   6   2    0.02    8.96
   1   6   2   -0.07    5.25
   1  -6   2   -1.34    5.55
  -1  -6  -2    6.47    7.94
  -1   6  -2    8.12    8.48
  -1   6  -2   15.51   11.32
   2   6   2   -0.13    4.94
   2   6   2    0.02    5.05
   2  -6   2   -1.07    5.20
  -2  -6  -2   -3.04    6.60
  -2  -6  -2   -1.16    4.83
  -2   6  -2   15.37    9.10
  -2   6  -2   10.84    6.21
   3   6   2    0.03    7.28
   3   6   2   -0.05    7.09
   3  -6   2   23.70   13.13
  -3  -6  -2   21.74   10.45
  -3  -6  -2   14.23    5.03
  -3   6  -2    2.87   14.90
  -3   6  -2   11.76    5.58
  -3   6  -2   29.19   13.78
   4   6   2   -0.98    5.91
   4   6   2    3.25    6.10
   4  -6   2    5.77   11.90
  -4  -6  -2   -3.25    2.07
  -4  -6  -2    4.69    4.14
  -4   6  -2    2.25    2.28
  -4   6  -2    0.06    3.31
  -4   6  -2   -0.44    5.43
   5   6   2    0.02    4.92
   5   6   2    1.10    5.00
   5  -6   2    1.38    5.72
  -5  -6  -2    4.81    6.74
  -5  -6  -2    2.55    3.38
  -5   6  -2    2.46    5.18
  -5   6  -2    1.41    6.19
  -5   6  -2   11.01    8.31
   6   6   2    3.82    2.20
   6   6   2    9.48    6.03
   6   6   2   -2.11    5.98
   6  -6   2   -4.46    6.64
  -6  -6  -2    0.06    5.18
  -6  -6  -2    1.43    2.66
  -6   6  -2    1.84   11.66
  -6   6  -2    0.87    3.09
  -6   6  -2    5.73    6.06
   7   6   2    1.58    4.79
   7   6   2    1.99    4.27
   7   6   2    1.66    1.88
   7  -6   2    1.34    8.04
  -7  -6  -2   -1.87    2.07
  -7  -6  -2   -2.51    4.02
  -7   6  -2    2.15    2.17
  -7   6  -2   -5.96    5.08
  -7   6  -2   -0.58    2.51
   8   6   2    0.01    2.92
   8   6   2    3.17    3.86
   8  -6   2    2.63    3.43
  -8  -6  -2   -5.25    4.07
  -8   6  -2    0.65    4.78
 -16   0   3   -2.72    3.09
 -16   0   3    2.65    2.71
 -15   0   3   -3.09    5.31
 -15   0   3   -5.64    5.97
  15   0  -3   -0.81    2.58
 -14   0   3    0.37    6.59
  14   0  -3   -1.06    4.09
 -13   0   3   -0.51    4.44
  13   0  -3    0.90    7.96
 -12   0   3    1.43    4.35
 -12   0   3   -1.28    3.77
  12   0  -3   -2.48    6.46
 -11   0   3    1.39    5.42
 -11   0   3    0.15    8.48
  11   0  -3    0.70    5.53
 -10   0   3    0.29    4.98
 -10   0   3   -2.94    8.55
  10   0  -3    1.31    3.11
  10   0  -3    3.50    6.56
  -9   0   3    0.66    6.49
  -9   0   3    4.78    6.15
   9   0  -3   -0.07    3.03
   9   0  -3   -0.82    4.96
  -8   0   3   -0.65    2.40
  -8   0   3   -0.41    3.76
  -8   0   3    0.02    3.98
  -8   0   3    0.06    1.49
   8   0  -3    3.14   10.54
   8   0  -3    0.02    9.37
  -7   0   3    0.42    7.44
  -7   0   3   -0.93    3.11
  -7   0   3   -4.44    3.75
  -7   0   3    0.00    4.24
  -7   0   3   -3.10    5.33
  -7   0   3    2.72    2.65
   7   0  -3   -0.09    5.50
   7   0  -3   -0.85    5.11
   7   0  -3   -1.06    9.50
  -6   0   3    0.32    8.52
  -6   0   3    1.11    3.69
  -6   0   3    4.57    5.48
  -6   0   3   -1.66    1.94
  -6   0   3    5.04    3.64
   6   0  -3    0.23    5.22
   6   0  -3    0.03    5.50
   6   0  -3   -3.13    9.35
   6   0  -3   -0.48    0.86
  -5   0   3    0.74    6.63
  -5   0   3    2.99    5.49
  -5   0   3    3.12    7.36
  -5   0   3    2.14    2.97
   5   0  -3   -0.02    0.73
   5   0  -3   -0.43    1.15
   5   0  -3   -0.37    8.48
   5   0  -3   -0.65    7.89
   5   0  -3    0.23    8.46
   5   0  -3   -0.18    0.93
   5   0  -3   -0.55    4.11
  -4   0   3    0.69    5.02
  -4   0   3   -0.43    4.44
  -4   0   3   -0.29    5.10
  -4   0   3   -0.66    2.51
   4   0  -3   -0.09    0.95
   4   0  -3    4.44    5.92
   4   0  -3   -0.59    0.57
   4   0  -3    1.77    5.78
   4   0  -3   -1.56    4.16
   4   0  -3   -1.56    9.15
   4   0  -3   -0.19    1.34
  -3   0   3    1.14    5.38
  -3   0   3   -2.73    5.05
  -3   0   3   -4.17    8.60
  -3   0   3   -0.65    0.68
   3   0  -3    1.63    3.55
   3   0  -3    0.53    5.93
   3   0  -3   -1.19    4.13
   3   0  -3    2.00    6.60
   3   0  -3   -0.80    1.15
   3   0  -3   -1.67    8.76
  -2   0   3   -2.37    5.13
  -2   0   3   -3.52    5.58
  -2   0   3   -0.53    1.47
  -2   0   3    4.04    9.21
  -2   0   3   -0.72    1.31
  -2   0   3   -1.32    7.95
   2   0  -3    1.93    1.09
   2   0  -3   -1.15    5.70
   2   0  -3   -2.38    7.31
   2   0  -3    0.33    1.51
   2   0  -3    1.33    7.74
   2   0  -3   -3.04    4.11
   2   0  -3   -0.91    4.89
  -1   0   3   -2.92    3.97
  -1   0   3    2.26    2.18
  -1   0   3   -1.44    2.56
  -1   0   3    0.32    3.99
  -1   0   3   -0.42    1.98
  -1   0   3   -1.08    3.69
   1   0  -3    0.95    2.06
   1   0  -3    4.40    3.94
   1   0  -3   -1.21    2.03
   1   0  -3   -1.07    3.27
   1   0  -3    0.06    2.13
   1   0  -3   -1.09    2.84
   0   0   3    1.61    1.59
   0   0   3   -0.25    0.74
   0   0   3   -0.07    5.53
   0   0   3   -0.60    5.59
   0   0   3    0.19    1.40
   0   0   3   -2.24    5.58
   0   0   3    0.03    1.66
   0   0  -3   -0.13    5.57
   0   0  -3    1.81    4.10
   0   0  -3    0.44    9.44
   0   0  -3    1.80    5.64
   0   0  -3   -2.61    2.55
   0   0  -3   -3.02    5.04
   0   0  -3    0.34    5.16
   1   0   3   -0.45    1.51
   1   0   3    0.18    2.46
   1   0   3   -0.47    1.15
   1   0   3    0.27    1.17
   1   0   3    1.56    3.07
   1   0   3   -0.18    3.68
  -1   0  -3   -1.76    4.10
  -1   0  -3    3.21    3.51
  -1   0  -3   -0.09    4.80
  -1   0  -3    0.78    1.89
  -1   0  -3    0.01    3.16
  -1   0  -3   -0.33    4.05
  -1   0  -3   -1.48    2.73
   2   0   3   -0.48    4.95
   2   0   3    0.16    3.97
   2   0   3   -1.51    3.95
   2   0   3   -0.94    1.11
   2   0   3   -0.12    3.71
  -2   0  -3   -0.26   10.02
  -2   0  -3    1.05    2.43
  -2   0  -3    1.71    5.49
  -2   0  -3    0.68    3.12
  -2   0  -3    1.44    2.31
  -2   0  -3    0.80    1.98
  -2   0  -3   -2.81    4.16
  -2   0  -3   -3.40    6.98
   3   0   3    0.45    5.04
   3   0   3    0.48    1.46
   3   0   3    0.95    2.32
   3   0   3    3.42    3.58
  -3   0  -3   -3.87    5.16
  -3   0  -3    0.04    5.25
  -3   0  -3    3.76    5.93
  -3   0  -3   -2.75    2.29
  -3   0  -3    3.95    4.56
  -3   0  -3    0.42    3.88
  -3   0  -3    0.91    3.98
   4   0   3   -2.96    5.26
   4   0   3    0.39   11.61
   4   0   3   -1.65    1.27
   4   0   3    1.12    2.77
   4   0   3   -0.66    3.85
  -4   0  -3    2.08    4.42
  -4   0  -3    0.60    4.44
  -4   0  -3    2.11    6.06
  -4   0  -3    2.49    5.32
  -4   0  -3   -0.76    1.37
  -4   0  -3   -0.03    3.50
  -4   0  -3    1.16    1.84
   5   0   3    0.17    9.26
   5   0   3    2.34    7.18
   5   0   3   -0.04    2.19
   5   0   3    0.46    3.06
  -5   0  -3   -1.23    4.81
  -5   0  -3   -2.39    4.19
  -5   0  -3   -5.63    6.57
  -5   0  -3   -4.87    5.31
  -5   0  -3    1.17    1.87
  -5   0  -3   -0.06    0.66
  -5   0  -3    0.01    5.18
  -5   0  -3   -0.64    1.37
   6   0   3    0.78    6.79
   6   0   3    0.51    6.69
   6   0   3   -5.63    5.81
   6   0   3   -1.06    4.81
   6   0   3    0.00    2.44
  -6   0  -3   -1.09    5.69
  -6   0  -3   -1.09    5.84
  -6   0  -3    1.11    2.09
  -6   0  -3   -2.49    8.05
  -6   0  -3   -0.01    3.31
  -6   0  -3    2.21    4.58
   7   0   3   -1.33    3.48
   7   0   3   -0.42    5.16
   7   0   3    2.11    4.21
   7   0   3    1.65    4.57
  -7   0  -3   -1.60    4.52
  -7   0  -3   -3.05    5.56
  -7   0  -3   -0.13    2.22
  -7   0  -3   -0.17    2.61
  -7   0  -3    0.00    3.30
  -7   0  -3   -4.83    8.70
   8   0   3    5.79    7.72
  -8   0  -3    4.49    7.79
  -8   0  -3   -1.35    8.33
  -8   0  -3    0.67    2.11
  -8   0  -3   -0.51    2.43
  -8   0  -3    0.05    3.05
  -8   0  -3    0.21    4.01
   9   0   3   -2.04    6.34
  -9   0  -3   -0.30    9.26
  -9   0  -3   -3.18    9.23
  -9   0  -3    3.89    2.94
  -9   0  -3   -2.92    4.08
  -9   0  -3    3.63    5.15
  10   0   3   -2.75    7.55
 -10   0  -3   -3.53    3.83
 -10   0  -3    0.05    3.83
 -10   0  -3   -0.15    4.36
 -10   0  -3    1.42    2.24
 -10   0  -3   -1.21    3.07
  11   0   3   -0.93    6.44
 -11   0  -3   -0.22    6.49
 -11   0  -3   -0.86    5.29
 -11   0  -3    4.35    3.33
 -11   0  -3    0.21    7.51
 -11   0  -3    1.43    5.02
  12   0   3    2.91   11.60
 -12   0  -3    0.77    1.88
 -12   0  -3   -2.02    3.85
 -12   0  -3   -0.36    2.56
 -12   0  -3   -0.69    4.86
  13   0   3    0.05    2.05
  13   0   3   -0.64    3.98
 -13   0  -3   -4.55    6.11
 -13   0  -3    0.05    4.64
 -13   0  -3   -1.23    2.77
 -13   0  -3   -1.82    4.43
  14   0   3    2.47    3.46
  14   0   3   -2.44    3.52
 -14   0  -3    8.40    4.22
 -14   0  -3   -1.37    4.55
 -14   0  -3    1.75    4.64
  15   0   3   -4.87    4.61
  15   0   3    7.96    7.86
 -15   0  -3    0.57    3.46
 -15   0  -3    3.84    3.06
 -16  -1   3    2.36    2.90
 -16  -1   3    4.99    5.95
 -16   1   3   -2.52    3.61
 -15  -1   3   -2.47    3.75
 -15  -1   3    0.89    4.43
 -15   1   3    3.91    8.06
 -15   1   3   -1.71    2.83
  15   1  -3    0.06    1.19
  15  -1  -3    0.62    2.62
 -14  -1   3   -1.65    4.20
 -14  -1   3   -0.87    4.78
 -14   1   3   -1.11    5.81
 -14   1   3   -0.08    5.94
  14   1  -3    0.24    6.38
  14  -1  -3    4.41    5.63
 -13  -1   3   -1.23    4.56
 -13  -1   3   -0.55    9.07
 -13   1   3   -3.89    6.35
 -13   1   3   -0.51    4.08
  13   1  -3   -0.03    4.70
  13  -1  -3    5.24    6.17
 -12  -1   3   -5.85   14.27
 -12  -1   3   -1.02   10.00
 -12   1   3   47.05   20.23
 -12   1   3   27.41    8.08
  12   1  -3    4.73    9.44
  12  -1  -3   31.93   11.94
 -11  -1   3   13.17    8.11
 -11  -1   3   -0.25    8.69
 -11   1   3   13.24    4.82
 -11   1   3   13.87   11.30
 -11   1   3   11.77   12.33
  11   1  -3    3.17    3.37
  11   1  -3   -0.03    6.32
  11  -1  -3   13.48   13.55
 -10  -1   3    0.20    5.16
 -10  -1   3    0.32    9.76
 -10   1   3   -1.56    5.80
 -10   1   3    4.98    3.89
 -10   1   3    6.77    7.64
  10   1  -3   -0.06   11.43
  10   1  -3   -1.22    6.75
  10  -1  -3   11.58    8.28
  -9  -1   3   -0.01    7.91
  -9   1   3   10.60    7.20
  -9   1   3   15.02    5.28
  -9  -1   3   -1.31    5.98
   9   1  -3   14.11   12.47
   9   1  -3    3.34    5.79
   9  -1  -3    0.00    4.74
   9  -1  -3   17.85    8.76
  -8  -1   3   20.15    6.77
  -8   1   3   -0.50    3.29
  -8   1   3   -0.19    3.12
  -8   1   3   -0.34    7.55
  -8   1   3   -0.02    6.30
  -8   1   3   21.39    8.53
  -8  -1   3   18.06    4.82
   8   1  -3   -0.41    5.93
   8   1  -3   19.16    7.37
   8  -1  -3    0.03    5.20
   8  -1  -3   26.85    8.33
   8  -1  -3   -0.26    3.35
  -7  -1   3   21.58    9.83
  -7  -1   3   22.39    8.78
  -7  -1   3   26.76   11.50
  -7   1   3   22.74    9.30
  -7   1   3   -0.26    5.56
  -7   1   3   -0.07    6.93
  -7   1   3   28.93   10.70
  -7   1   3   24.92    6.69
  -7  -1   3   22.74   10.28
   7   1  -3   25.04    4.21
   7   1  -3   -1.09   10.07
   7   1  -3   26.78   11.21
   7   1  -3   17.88    3.47
   7  -1  -3    0.18    4.99
   7  -1  -3   -0.10   14.00
   7  -1  -3   29.88   14.45
   7  -1  -3   34.23   12.20
   7  -1  -3   24.21    9.70
  -6  -1   3    2.43    5.32
  -6  -1   3    3.50   12.56
  -6  -1   3    5.23    6.10
  -6   1   3    4.53    5.79
  -6   1   3    3.42    4.24
  -6   1   3    0.12    2.72
  -6   1   3    5.41    6.75
  -6   1   3    4.26    4.39
  -6  -1   3    0.87    6.70
   6   1  -3    5.03    2.52
   6   1  -3   -0.22    6.56
   6   1  -3    1.50    2.01
   6  -1  -3   -0.28    2.85
   6  -1  -3   11.24    7.69
   6  -1  -3    2.72    6.81
   6  -1  -3   -1.24    5.63
   6  -1  -3   -0.61    5.57
   6   1  -3    1.30   10.71
  -5  -1   3  124.32   13.82
  -5  -1   3  155.14   27.91
  -5  -1   3  163.76   27.68
  -5  -1   3  161.43   12.79
  -5   1   3  155.04   24.28
  -5   1   3  149.80   19.71
  -5   1   3  139.37   12.67
  -5   1   3  166.43   25.88
  -5   1   3  179.96   20.06
   5   1  -3  132.10   22.63
   5   1  -3  177.11   33.32
   5   1  -3  144.11   25.67
   5   1  -3  120.09   15.51
   5  -1  -3  155.14   45.91
   5  -1  -3  116.76    8.83
   5  -1  -3  156.64   25.06
   5  -1  -3  169.23   49.51
   5  -1  -3  178.82   44.24
  -4  -1   3    0.20    2.13
  -4  -1   3    1.51    1.05
  -4  -1   3   -0.25    5.30
  -4  -1   3   -1.16    3.52
  -4   1   3   -3.36    8.18
  -4   1   3   -4.78    4.38
  -4   1   3    2.29    4.92
  -4   1   3    0.78    4.01
  -4   1   3    0.00    2.95
  -4  -1   3   -2.22    6.06
   4   1  -3    0.17    1.99
   4   1  -3   -2.18    4.65
   4   1  -3   -1.61    7.54
   4   1  -3    2.21   10.29
   4  -1  -3   -0.50    6.04
   4  -1  -3    1.76    1.59
   4  -1  -3    4.59    9.79
   4  -1  -3    5.44    9.66
   4  -1  -3    0.93    6.43
  -3  -1   3    7.59    2.07
  -3  -1   3    8.73    2.20
  -3  -1   3    0.16    2.92
  -3  -1   3   13.86    9.92
  -3  -1   3    8.45   14.21
  -3  -1   3   12.03    3.21
  -3   1   3    7.84    2.93
  -3   1   3    6.94   14.18
  -3   1   3   14.16    7.27
  -3   1   3    0.54    7.23
  -3   1   3    8.25    2.84
  -3   1   3    8.72   13.36
  -3   1   3   11.85    7.74
   3   1  -3   10.00    3.38
   3   1  -3    5.99    2.75
   3   1  -3   10.37    8.26
   3   1  -3    6.18    1.96
   3   1  -3   14.99   11.86
   3   1  -3    8.02   15.91
   3  -1  -3    6.84    2.56
   3  -1  -3   11.90   16.87
   3  -1  -3   10.44   13.67
   3  -1  -3    7.96    9.56
   3  -1  -3    5.86   14.16
  -2   1   3    0.44    2.34
  -2  -1   3    1.89    1.41
  -2  -1   3    2.34    4.61
  -2  -1   3    0.04    1.04
  -2  -1   3   -0.21    1.29
  -2  -1   3    1.49    3.93
  -2  -1   3    0.52    1.16
  -2   1   3   -2.03    1.47
  -2   1   3   -1.62    3.74
  -2   1   3   -2.30    3.64
  -2   1   3    0.47    2.89
  -2   1   3   -0.09    3.67
   2   1  -3    0.61    5.11
   2   1  -3    3.80    5.00
   2   1  -3   -0.85    3.89
   2   1  -3    1.79    2.33
   2   1  -3    0.24    7.56
   2   1  -3   -2.83    5.65
   2  -1  -3    1.26    1.72
   2  -1  -3   -0.61    6.42
   2  -1  -3    3.49    5.32
   2  -1  -3   -0.44    7.69
   2  -1  -3    2.19    5.87
   2  -1  -3    0.92    5.67
  -1  -1   3   55.71   10.28
  -1  -1   3   46.01    2.86
  -1  -1   3   66.58   15.82
  -1  -1   3   49.30   10.95
  -1  -1   3   39.30    2.84
  -1  -1   3   53.67   13.62
  -1  -1   3   59.19    7.11
  -1   1   3   65.98    6.89
  -1   1   3   47.79    7.46
  -1   1   3    0.15   30.89
  -1   1   3   52.22   22.18
  -1   1   3   52.94    8.69
  -1   1   3   61.94   24.31
  -1   1   3   62.80   14.41
  -1  -1   3   50.30   12.17
   1   1  -3   49.00   20.18
   1   1  -3   49.95    9.86
   1   1  -3   60.46   19.01
   1   1  -3   56.63   15.80
   1   1  -3   54.29   15.19
   1   1  -3   10.27   16.05
   1  -1  -3   58.44   30.31
   1  -1  -3   67.11   29.49
   1  -1  -3   51.45   25.71
   1  -1  -3   55.89   25.60
   1  -1  -3   57.01   10.15
   0   1   3   37.71    6.77
   0  -1   3   34.65    6.11
   0  -1   3   46.61   13.88
   0  -1   3   34.34    5.98
   0  -1   3   36.36    8.29
   0  -1   3   38.54    8.02
   0   1   3   41.73   11.02
   0   1   3   45.48    9.79
   0   1   3   33.91    8.18
   0   1   3   39.54    5.40
   0   1   3   44.70   11.19
   0   1   3   28.78    2.62
   0   1   3    0.41   14.09
   0  -1   3   34.98    5.61
   0   1  -3   33.55    9.53
   0   1  -3   31.62   16.49
   0   1  -3   32.87   10.07
   0   1  -3   37.80   14.15
   0   1  -3   36.19   18.00
   0   1  -3    8.03   18.65
   0  -1  -3   34.39   10.22
   0  -1  -3   38.88   12.41
   0  -1  -3   37.13   15.40
   0  -1  -3   39.64    6.18
   0  -1  -3   41.68   13.28
   1  -1   3 1074.43   69.27
   1  -1   3 1065.42   68.54
   1  -1   3 1009.30   53.40
   1  -1   3 1004.07   61.55
   1  -1   3 1059.06   73.46
   1  -1   3 1112.09   80.01
   1  -1   3 1124.65   62.23
   1   1   3 1079.94   89.73
   1   1   3 1056.88   78.33
   1   1   3 1151.70   98.60
   1   1   3 1081.40   94.72
   1   1   3 1138.81   82.21
   1   1   3 1044.56   71.42
  -1   1  -3  981.20   76.63
  -1   1  -3  937.64   74.98
  -1   1  -3  915.67   59.72
  -1   1  -3 1000.24   78.20
  -1   1  -3  924.42   67.05
  -1   1  -3  999.71   67.72
  -1  -1  -3  983.08   91.01
  -1  -1  -3 1107.91  102.24
  -1  -1  -3  980.59   79.61
  -1  -1  -3  893.04   51.99
  -1  -1  -3  957.90   48.36
  -1  -1  -3 1161.29  121.58
  -1  -1  -3 1012.83   80.57
  -1   1  -3 1053.69  121.48
   2   1   3  229.35   34.53
   2  -1   3  240.44   24.71
   2  -1   3  231.39   20.05
   2  -1   3  224.68   45.18
   2  -1   3  215.21   14.07
   2  -1   3  209.19   17.20
   2  -1   3  242.81   13.26
   2   1   3  210.37   19.76
   2   1   3  217.31   28.74
   2   1   3  231.72   21.35
   2   1   3  231.15   18.31
   2   1   3  246.82   25.22
   2  -1   3  221.19   23.05
  -2   1  -3  216.41   28.29
  -2   1  -3  228.49   34.46
  -2   1  -3  213.05   27.72
  -2   1  -3  222.95   24.82
  -2   1  -3  223.53   18.23
  -2   1  -3  231.76   19.16
  -2  -1  -3  215.93   24.23
  -2  -1  -3  271.95   26.89
  -2  -1  -3  222.90   35.95
  -2  -1  -3  207.42   30.09
  -2  -1  -3  262.71   29.79
  -2   1  -3  221.12   19.21
   3  -1   3   -0.28    4.10
   3  -1   3    0.94    2.38
   3  -1   3    0.09    1.91
   3  -1   3    4.59    9.72
   3  -1   3    0.32    3.04
   3  -1   3    1.16    1.47
   3  -1   3   -0.28    8.13
   3   1   3   -2.49    3.12
   3   1   3   -0.43    4.52
   3   1   3    1.33    6.03
   3   1   3    2.45    3.88
   3   1   3    1.42    3.04
   3   1   3    2.11    2.76
  -3   1  -3    0.06    3.28
  -3   1  -3   -1.11    3.65
  -3   1  -3    4.73    4.31
  -3   1  -3   -0.02    0.80
  -3   1  -3   -1.35    3.40
  -3   1  -3    0.18    1.06
  -3   1  -3   -0.27    1.89
  -3   1  -3   -0.04    2.14
  -3   1  -3    0.27    2.93
  -3  -1  -3    0.52    2.76
  -3  -1  -3   -0.14    2.05
  -3  -1  -3    0.13    3.81
  -3  -1  -3   -2.39    3.67
  -3  -1  -3   -0.43    3.19
   4  -1   3   66.22   17.14
   4  -1   3   72.34    7.75
   4  -1   3   52.50    8.66
   4  -1   3   85.07   34.25
   4  -1   3   87.93   17.19
   4   1   3   67.25   25.77
   4   1   3   62.81    8.30
   4   1   3    0.32   34.70
   4   1   3   64.21   12.62
   4   1   3   80.22   14.29
   4   1   3   67.00   12.45
  -4   1  -3   66.42   19.61
  -4  -1  -3   58.17    7.78
  -4   1  -3   67.28   26.31
  -4   1  -3   64.79   18.51
  -4   1  -3   38.39    4.80
  -4   1  -3   44.70    6.73
  -4   1  -3   78.48    8.42
  -4   1  -3   68.32   17.31
  -4  -1  -3   59.69   16.15
  -4  -1  -3    4.91   20.80
  -4  -1  -3   62.46   16.69
  -4  -1  -3   76.30   13.82
   5  -1   3    3.33    4.24
   5  -1   3    2.05   11.73
   5  -1   3    1.94    5.94
   5   1   3    0.17    6.74
   5   1   3    0.25    4.86
   5   1   3    5.20    8.12
   5   1   3    4.69    4.87
   5   1   3   -0.50    4.60
   5  -1   3    0.25    6.62
  -5  -1  -3    5.56    5.82
  -5   1  -3    0.15    1.61
  -5   1  -3   -0.18    6.68
  -5   1  -3   -1.25    8.09
  -5   1  -3    3.23    7.59
  -5   1  -3    1.08    1.22
  -5   1  -3    3.25   10.15
  -5   1  -3    8.04    2.91
  -5  -1  -3    5.24    5.07
  -5  -1  -3    2.48    2.10
  -5  -1  -3    1.94    4.21
  -5  -1  -3    4.97    6.29
  -5  -1  -3   -0.02    8.78
  -5  -1  -3    3.76    2.13
   6  -1   3   95.45   24.94
   6  -1   3   87.23   10.36
   6  -1   3  101.87   36.98
   6  -1   3  110.23   21.41
   6   1   3   87.73   22.40
   6   1   3   86.69   15.86
   6   1   3   94.52   16.31
   6   1   3  112.19   28.85
   6   1   3   88.62   16.71
   6  -1   3   92.43   21.61
  -6   1  -3   86.58   27.69
  -6   1  -3   75.45   28.24
  -6   1  -3   86.52    9.69
  -6  -1  -3   73.82   12.95
  -6  -1  -3   86.45   17.19
  -6  -1  -3   74.05   18.85
  -6  -1  -3   67.62    6.52
  -6  -1  -3   85.39   16.60
  -6  -1  -3  102.04   15.96
  -6   1  -3  102.03   37.27
  -6   1  -3   88.82   23.52
   7  -1   3    4.53   11.88
   7   1   3    0.01    8.15
   7   1   3    3.90    6.61
   7   1   3    6.97    5.50
  -7  -1  -3    6.22    7.35
  -7   1  -3   14.95    9.98
  -7   1  -3    3.65   13.43
  -7   1  -3    8.51    7.50
  -7   1  -3    7.95   15.67
  -7   1  -3    6.81    6.25
  -7  -1  -3    3.21    6.73
  -7  -1  -3    7.57    5.30
  -7  -1  -3    3.34    7.74
  -7  -1  -3    0.01    6.61
   8   1   3    3.87   11.46
  -8   1  -3    2.52    7.14
  -8   1  -3   10.08    9.15
  -8   1  -3    7.75   11.88
  -8   1  -3    3.02    5.47
  -8  -1  -3    0.48    5.64
  -8  -1  -3    2.15    4.78
  -8  -1  -3    4.27    6.54
  -8  -1  -3    2.91    5.79
  -8  -1  -3    3.70    6.65
  -8   1  -3    5.57    8.13
   9  -1   3   -0.37    5.80
   9   1   3   -2.57    8.46
  -9  -1  -3    0.27    4.16
  -9  -1  -3   -0.43    5.84
  -9   1  -3   -5.34    6.41
  -9   1  -3   -5.27    6.04
  -9   1  -3   -0.05    6.36
  -9   1  -3    0.64    4.60
  -9  -1  -3    0.40    4.48
  -9  -1  -3   -6.10    5.12
  -9  -1  -3    0.68    4.96
  10  -1   3   69.91   18.44
  10   1   3   47.81   13.22
  10   1   3   60.21   16.14
 -10   1  -3   47.34   16.39
 -10   1  -3   63.60   16.03
 -10   1  -3   63.57   18.17
 -10   1  -3    1.42   12.61
 -10  -1  -3   48.77   11.45
 -10  -1  -3   59.03   14.00
 -10  -1  -3   53.70   11.64
 -10  -1  -3    0.19   16.21
  11  -1   3   -0.14    5.09
  11   1   3    0.00    4.37
  11   1   3    0.11    3.13
  11   1   3   -1.51    4.54
 -11   1  -3    5.84    6.28
 -11  -1  -3    1.64    4.03
 -11   1  -3    2.03    8.30
 -11   1  -3   -0.80   12.21
 -11   1  -3    0.02    2.91
 -11  -1  -3    1.69    4.46
 -11  -1  -3    5.66    9.12
  12  -1   3    3.24    5.68
  12   1   3   -0.59    5.03
  12   1   3    0.03    3.23
  12   1   3    1.24    5.05
 -12   1  -3    9.13    7.92
 -12   1  -3    8.36    5.61
 -12   1  -3   -0.58    3.58
 -12  -1  -3    0.04    3.78
 -12  -1  -3   21.36    5.77
 -12  -1  -3   -0.01   13.56
 -12   1  -3   32.11   13.84
  13  -1   3    3.03    8.01
  13   1   3    1.70    4.91
  13   1   3    0.39    5.06
  13   1   3    0.23    2.51
 -13   1  -3    3.64    6.47
 -13   1  -3    7.65    7.03
 -13   1  -3    2.97    3.88
 -13  -1  -3    1.27    7.99
 -13  -1  -3    0.31    6.68
  14  -1   3    2.30    4.73
  14   1   3   -2.88    9.82
  14   1   3    1.56    5.25
 -14   1  -3    6.30    8.95
 -14   1  -3   -1.29    5.54
 -14  -1  -3    2.97    3.90
 -14  -1  -3   -0.29    5.32
  15  -1   3   -4.70    3.30
  15   1   3    4.48    3.85
  15   1   3    8.08    4.26
  15  -1   3   -1.74    3.48
 -15   1  -3   -0.24    3.17
 -15  -1  -3   -0.30    2.45
 -15  -1  -3   -2.90    3.95
 -15  -2   3    4.46    7.40
 -15   2   3    0.13    9.31
  15  -2  -3    0.24    2.75
 -14  -2   3    0.14    3.86
 -14  -2   3    1.17    2.92
 -14   2   3    5.47    4.99
 -14   2   3   -1.81    1.42
  14  -2  -3   -0.15    3.88
 -13  -2   3    5.02    2.25
 -13  -2   3   -0.03    6.40
 -13  -2   3   -1.27    5.14
 -13   2   3   -0.66    4.02
 -13   2   3    5.47    6.79
 -13   2   3    0.17    4.28
  13   2  -3   -0.02    2.42
  13  -2  -3    1.39    4.78
 -12  -2   3    0.02    3.53
 -12  -2   3    1.08    8.24
 -12   2   3    0.14    4.30
 -12   2   3    7.15   12.26
 -12   2   3    0.87    2.82
 -12  -2   3    4.53    3.02
  12   2  -3    0.47    7.87
  12  -2  -3   12.55   14.06
 -11  -2   3   -3.74    2.89
 -11  -2   3   -1.78    2.76
 -11  -2   3    0.34    3.82
 -11   2   3    8.20    6.42
 -11   2   3    1.37    2.41
 -11   2   3   -0.91    6.00
  11   2  -3    0.21    9.04
  11  -2  -3    9.02    8.16
  11   2  -3    1.01    4.11
 -10  -2   3    1.13    4.05
 -10  -2   3    0.00    5.57
 -10   2   3    0.67    9.24
 -10   2   3   -0.03    7.58
 -10   2   3   12.34    4.53
 -10   2   3   11.05    6.95
  10   2  -3   -0.09    4.26
  10   2  -3   -0.10    5.55
  10   2  -3    0.79    2.76
  10  -2  -3   16.89    7.79
  -9  -2   3    4.65    3.93
  -9  -2   3   -0.01    5.63
  -9   2   3   14.08    5.15
  -9   2   3    0.25    9.65
  -9   2   3    0.61    5.17
  -9   2   3   25.70    7.64
   9   2  -3    1.02    5.50
   9   2  -3    0.05    6.75
   9   2  -3   -0.01    3.39
   9  -2  -3   38.26    9.00
  -8  -2   3    1.91    2.63
  -8  -2   3    0.08    6.71
  -8   2   3    5.61    3.81
  -8   2   3    0.54    4.07
  -8   2   3    2.89   10.34
   8   2  -3    0.95    7.27
   8   2  -3    0.03    5.10
   8   2  -3   -1.42    2.51
   8  -2  -3    0.03    4.57
   8  -2  -3   -2.69   11.32
   8  -2  -3   -0.06    7.71
  -7  -2   3   17.53    6.43
  -7  -2   3   -0.32    7.37
  -7   2   3   25.56    3.98
  -7   2   3    0.04    7.31
  -7   2   3   34.09    9.56
   7   2  -3   31.43   11.58
   7   2  -3   31.89    5.92
   7  -2  -3    0.11    7.54
   7  -2  -3    0.13    7.04
   7  -2  -3   22.09    4.50
   7  -2  -3   34.35   16.04
   7  -2  -3   33.04   12.28
   7   2  -3   -0.29   19.44
  -6  -2   3    7.53    6.59
  -6  -2   3    0.60    2.77
  -6  -2   3    0.37    3.38
  -6  -2   3    1.01    5.89
  -6   2   3   -0.28    5.98
  -6   2   3   -0.15    2.41
  -6   2   3    4.33   10.49
  -6   2   3    6.81    4.98
  -6   2   3    4.80    4.92
   6   2  -3    0.47    5.57
   6   2  -3    3.71    5.46
   6   2  -3    3.36    4.84
   6  -2  -3    2.34   12.99
   6  -2  -3   -0.21    3.39
   6  -2  -3   -0.49    2.13
   6  -2  -3    1.58    5.60
   6  -2  -3   -0.12    7.38
   6  -2  -3    6.16    4.55
  -5  -2   3    0.11    6.49
  -5  -2   3   27.72   20.66
  -5  -2   3   41.60    7.09
  -5   2   3   26.87    6.32
  -5   2   3   26.16    6.17
  -5   2   3   28.53   12.64
  -5   2   3   -0.24   12.31
  -5   2   3   37.84   18.29
  -5   2   3   27.09    6.40
  -5  -2   3   27.60   23.36
   5   2  -3   30.14   13.19
   5   2  -3   26.30   10.99
   5   2  -3   25.14   12.71
   5  -2  -3    0.70   17.12
   5  -2  -3   24.07    5.04
   5  -2  -3   25.13   10.14
   5  -2  -3   28.32   11.75
   5  -2  -3   28.10    9.85
   5  -2  -3   36.01   16.49
  -4  -2   3   -0.22    2.25
  -4  -2   3   -1.67    4.90
  -4  -2   3   -0.07    2.61
  -4   2   3    1.07    2.89
  -4   2   3   -0.78    2.33
  -4   2   3   -0.52    1.04
  -4   2   3    0.49    4.70
  -4   2   3    0.26    8.55
  -4   2   3   -0.16    4.14
  -4   2   3   -1.19    2.56
   4   2  -3    1.01    2.88
   4   2  -3    0.93    9.52
   4  -2  -3   -0.09    4.25
   4  -2  -3   -0.36    3.61
   4  -2  -3    3.83    4.86
   4  -2  -3   -2.30    6.88
   4  -2  -3    4.70    4.45
   4  -2  -3   -0.79    3.85
   4   2  -3    0.45    5.60
  -3  -2   3  151.53   13.91
  -3  -2   3  180.77   28.23
  -3  -2   3  217.00   18.87
  -3   2   3  162.30   16.70
  -3   2   3  162.79   19.28
  -3   2   3  189.48   27.20
  -3   2   3  217.55   25.62
  -3   2   3  227.25   31.41
  -3   2   3  178.20   18.30
  -3   2   3  157.90   12.16
   3   2  -3  146.35   17.52
   3   2  -3  191.87   17.96
   3   2  -3  146.25   14.37
   3   2  -3  169.85   27.19
   3   2  -3  155.11   41.76
   3  -2  -3  187.97   37.38
   3  -2  -3  161.24   13.58
   3  -2  -3  185.65   44.38
   3  -2  -3  171.71   30.20
   3  -2  -3  182.32   21.50
   3  -2  -3  172.07   18.70
  -2  -2   3    0.83    2.19
  -2  -2   3    3.18    6.36
  -2  -2   3    4.46    3.43
  -2  -2   3    2.90    4.35
  -2   2   3    7.23    4.75
  -2   2   3    4.34    4.48
  -2   2   3    0.90    3.66
  -2   2   3    2.71   10.31
  -2   2   3    3.80    7.20
  -2   2   3   -2.21    5.57
  -2   2   3    0.94    3.37
   2   2  -3    0.36    3.73
   2   2  -3    3.05    4.71
   2   2  -3    1.97    5.36
   2   2  -3   -0.42    2.30
   2  -2  -3    4.01    4.09
   2  -2  -3    0.73    2.70
   2  -2  -3    7.72    5.01
   2  -2  -3    3.00    6.21
   2  -2  -3    0.74    3.64
   2  -2  -3    2.44    3.16
   2   2  -3   -0.14    5.41
  -1  -2   3   32.92   13.47
  -1  -2   3   40.33   22.01
  -1  -2   3   29.47    4.06
  -1  -2   3    0.04    9.91
  -1  -2   3   25.15    4.84
  -1  -2   3   41.64    9.53
  -1   2   3   30.85    7.51
  -1   2   3   38.67    8.30
  -1   2   3   36.05    9.88
  -1   2   3   37.48   10.76
  -1   2   3   42.76   14.62
  -1   2   3   30.84    7.72
   1   2  -3   23.66    2.97
   1   2  -3   26.77    6.92
   1   2  -3   36.03   10.17
   1   2  -3   21.36    3.38
   1   2  -3   38.22   10.02
   1   2  -3   31.46   10.75
   1   2  -3   30.39   13.33
   1  -2  -3   32.22   15.88
   1  -2  -3   29.05   12.32
   1  -2  -3   34.65   11.44
   1  -2  -3   30.39   17.98
   1  -2  -3   32.44    6.22
   1  -2  -3   40.01    9.06
   1   2  -3   21.21    2.77
   0  -2   3  118.40   29.84
   0  -2   3  118.32   12.51
   0  -2   3  119.65   20.66
   0  -2   3  108.23   13.79
   0  -2   3   94.66   12.04
   0   2   3  130.15   18.48
   0   2   3  107.46   25.55
   0   2   3  118.17   30.80
   0   2   3  126.97   14.86
   0   2   3  123.82   37.46
   0   2   3  123.15   24.09
   0   2  -3   94.54    7.98
   0   2  -3   81.24   12.94
   0   2  -3   87.27    6.10
   0   2  -3  101.44   14.30
   0   2  -3   92.27   28.06
   0   2  -3  110.09   28.65
   0  -2  -3  108.92   19.48
   0  -2  -3  109.19   18.53
   0  -2  -3  112.55   20.61
   0  -2  -3   94.21    8.48
   0  -2  -3  110.76    8.97
   0  -2  -3  107.77   15.23
   0   2  -3  102.15   17.84
   1  -2   3  999.00   78.17
   1  -2   3 1030.27   68.27
   1  -2   3 1017.88   76.00
   1  -2   3  752.60   45.24
   1  -2   3  995.68   75.67
   1  -2   3  981.91   70.30
   1   2   3 1027.67   74.80
   1   2   3 1002.16   76.06
   1   2   3  922.85   71.44
   1   2   3 1086.12   85.76
   1   2   3 1082.66   77.52
   1   2   3 1059.15   68.69
   1   2   3  736.19   44.88
  -1   2  -3  896.78   73.13
  -1   2  -3  814.06   55.16
  -1   2  -3  789.08   50.18
  -1   2  -3  927.47   69.19
  -1   2  -3  985.06   80.06
  -1  -2  -3 1056.92  107.67
  -1  -2  -3  885.36  103.71
  -1  -2  -3  977.96   73.57
  -1  -2  -3  705.45   42.54
  -1  -2  -3  740.68   47.99
  -1  -2  -3 1001.49   69.69
  -1   2  -3  900.90   99.90
  -1   2  -3  748.75   52.46
   2  -2   3  327.14   26.87
   2  -2   3  362.33   37.75
   2  -2   3  341.47   29.95
   2  -2   3  391.69   33.02
   2  -2   3  362.14   55.86
   2  -2   3  415.26   40.02
   2   2   3  406.15   35.05
   2   2   3  378.39   35.45
   2   2   3  346.79   35.34
   2   2   3  399.68   57.69
   2   2   3  402.19   33.88
   2   2   3  406.83   30.58
   2   2   3  326.40   28.27
  -2   2  -3  324.49   40.24
  -2   2  -3  319.00   30.68
  -2   2  -3  363.67   41.09
  -2   2  -3  330.57   29.75
  -2   2  -3  377.94   43.71
  -2  -2  -3  364.63   50.77
  -2  -2  -3  329.84   36.55
  -2  -2  -3  409.82   58.33
  -2  -2  -3  396.87   49.49
   3  -2   3   76.91    8.62
   3  -2   3   86.80   30.16
   3  -2   3   88.31   20.12
   3   2   3   95.38   13.59
   3   2   3   91.91   25.30
   3   2   3   82.44   13.85
   3   2   3   82.81   16.71
   3   2   3   91.23   24.47
   3   2   3   70.49   13.65
   3  -2   3   77.33   27.64
  -3   2  -3   74.59   15.59
  -3   2  -3   91.03   19.38
  -3   2  -3   73.07   20.60
  -3   2  -3   90.75   21.66
  -3   2  -3   80.60   10.62
  -3  -2  -3   91.61   16.94
  -3  -2  -3   78.44   13.08
  -3  -2  -3   65.55   15.12
  -3  -2  -3   97.35   15.06
   4  -2   3    2.28    4.69
   4  -2   3    2.95    2.55
   4  -2   3    4.26    8.88
   4  -2   3   -3.14    3.99
   4   2   3   -0.08    3.42
   4   2   3    0.04    4.07
   4   2   3   -0.19    6.35
   4   2   3    2.12    4.61
   4   2   3    1.64    4.53
   4   2   3    2.53    3.82
   4   2   3    0.00    2.60
  -4   2  -3    1.23    9.35
  -4   2  -3   -1.42    3.91
  -4   2  -3    3.16    6.12
  -4   2  -3    0.79    2.31
  -4  -2  -3    1.59    2.97
  -4  -2  -3   -0.10    3.46
  -4  -2  -3   -0.43    3.87
  -4  -2  -3    4.75    5.01
  -4  -2  -3    3.46    4.17
  -4   2  -3    0.26    3.01
   5  -2   3   19.12    9.81
   5  -2   3   24.46   10.82
   5  -2   3   26.41    4.65
   5  -2   3   19.53    9.19
   5   2   3   20.92    9.43
   5   2   3    9.34    6.16
   5   2   3   19.12    8.39
   5   2   3   -0.19   12.80
   5   2   3   24.36    9.42
   5   2   3   20.40    8.18
   5   2   3    0.01    6.10
  -5   2  -3   23.96   22.21
  -5   2  -3   27.38   11.95
  -5   2  -3    0.07    7.23
  -5   2  -3   17.37    8.76
  -5  -2  -3   21.63    5.20
  -5  -2  -3   23.87    9.86
  -5  -2  -3   -0.07    7.27
  -5  -2  -3   22.37    5.67
  -5  -2  -3   22.27    8.76
   6  -2   3   29.39    4.41
   6   2   3   19.50   10.09
   6   2   3   20.07    6.18
   6   2   3   26.83   10.73
   6   2   3   18.53    7.91
  -6   2  -3   20.53   11.20
  -6   2  -3   32.62   14.81
  -6   2  -3   27.84   15.09
  -6   2  -3    0.14    9.79
  -6  -2  -3   30.93    5.24
  -6  -2  -3    1.07   13.09
  -6  -2  -3   34.17    6.28
  -6  -2  -3   33.24   17.87
  -6  -2  -3   31.27   19.72
   7   2   3   -0.01    5.02
   7   2   3    1.78    4.17
   7   2   3    2.98    5.04
  -7   2  -3    0.35    5.83
  -7   2  -3    9.74    7.66
  -7   2  -3    0.94   13.45
  -7   2  -3    0.18    5.44
  -7  -2  -3   -0.78    9.89
  -7  -2  -3   -0.62    3.31
  -7  -2  -3    3.58    2.32
  -7  -2  -3   -0.51    6.10
   8   2   3    0.00    9.60
   8   2   3   45.85    9.17
   8   2   3   -1.34    8.60
  -8   2  -3   -0.53    8.21
  -8   2  -3   41.35   10.59
  -8   2  -3    2.39   10.97
  -8   2  -3   -1.48   13.65
  -8  -2  -3    1.34    7.38
  -8  -2  -3    0.32   12.19
  -8  -2  -3    0.30   12.32
   9   2   3   -0.01    4.29
   9   2   3    0.06    3.78
   9   2   3   -0.80    3.84
  -9   2  -3    1.02    8.48
  -9   2  -3    0.31    6.86
  -9   2  -3   -0.18    5.40
  -9   2  -3    2.86   10.09
  -9  -2  -3    0.36    7.50
  -9  -2  -3    0.07    7.65
  10   2   3   -0.16    8.29
  10   2   3   -1.44    4.14
  10   2   3    0.00    5.16
 -10   2  -3   -2.66   12.71
 -10   2  -3    0.23    9.17
 -10   2  -3    9.76    7.34
 -10   2  -3    0.18    7.47
 -10  -2  -3   -0.44   10.15
 -10  -2  -3   -0.36   12.01
  11  -2   3    3.51    5.45
  11   2   3   -1.60    5.14
  11   2   3    0.02    6.01
  11   2   3    0.96    8.91
 -11   2  -3  -11.10    9.58
 -11   2  -3    4.70    9.81
 -11   2  -3  -12.12    8.20
 -11  -2  -3   -0.55   15.29
 -11  -2  -3   -5.64   13.84
  12  -2   3    9.06    6.53
  12   2   3   -0.06    6.46
  12   2   3   -0.73    6.51
  12   2   3    0.28    6.73
 -12   2  -3   25.78   15.48
 -12   2  -3   39.65   14.72
 -12   2  -3   17.89   18.04
 -12  -2  -3   -0.59   13.79
 -12  -2  -3   44.06   13.01
  13  -2   3    8.18    6.68
  13   2   3    3.88    3.13
  13   2   3    2.26    6.86
  13   2   3   -0.23    7.32
 -13   2  -3    5.45   12.14
 -13   2  -3    9.24    7.80
 -13   2  -3    4.14    3.96
 -13  -2  -3    5.06    6.95
 -13  -2  -3    0.55    7.23
  14  -2   3    4.66    5.94
  14   2   3   23.90   13.42
  14   2   3    9.11    7.90
 -14   2  -3   -0.33   12.60
 -14   2  -3    3.89    6.99
 -14  -2  -3    5.74    6.78
 -14  -2  -3   12.44    7.20
  15  -2   3   -1.02    2.31
  15   2   3   -1.77    3.62
  15   2   3    4.76    6.13
 -15   2  -3   -1.66    3.11
 -15  -2  -3   -6.56    3.00
 -15  -2  -3    3.56    2.53
 -15   2  -3    1.73    2.71
 -14   3   3   12.65    6.23
 -14   3   3    5.62    4.96
  14  -3  -3    7.52    7.08
 -13  -3   3    4.97    3.48
 -13  -3   3   -8.16    4.36
 -13   3   3    4.52    4.25
 -13   3   3    0.38    1.73
 -13   3   3    2.98    4.62
 -12  -3   3    2.48    2.85
 -12   3   3   -5.01    5.05
 -12   3   3    0.15    5.24
 -12   3   3    6.83    5.82
 -12  -3   3    0.18    3.18
  12   3  -3   -0.98    2.13
  12   3  -3   -0.02    3.87
  12  -3  -3    1.00    6.15
 -11  -3   3    0.71    6.04
 -11  -3   3   10.11    4.41
 -11   3   3   17.80   14.10
 -11   3   3    1.10    5.94
 -11   3   3   18.06    9.52
  11   3  -3    1.20    3.28
  11   3  -3   -0.99    3.91
  11  -3  -3   17.26    8.02
 -10  -3   3   79.10   11.22
 -10   3   3   88.59   16.34
 -10   3   3  133.23   24.43
 -10   3   3  140.78   23.93
 -10  -3   3   81.33   17.11
  10   3  -3   81.56   12.92
  10   3  -3   89.58   15.67
  10  -3  -3  136.41   28.51
  -9  -3   3   -0.06    7.81
  -9   3   3    0.90   11.89
  -9   3   3   46.89   14.41
  -9   3   3   66.70   12.28
  -9  -3   3   -1.21    8.62
   9   3  -3   43.65    8.84
   9   3  -3    2.72   11.09
   9  -3  -3   50.87   20.95
   9  -3  -3   57.32   29.10
  -8  -3   3    0.05    2.68
  -8   3   3    7.66    5.75
  -8   3   3   14.67    7.58
   8   3  -3    1.02    6.46
   8   3  -3   -0.04    5.72
   8  -3  -3   13.65   10.12
   8  -3  -3   10.04    8.56
   8   3  -3    1.49    4.43
  -7   3   3  136.52   22.68
  -7   3   3  162.59   41.03
   7   3  -3   97.95   15.12
   7   3  -3   98.07   20.73
   7   3  -3  107.29   19.42
   7  -3  -3   94.55   13.38
   7  -3  -3  130.36   30.39
   7  -3  -3  137.03   25.02
  -6   3   3    8.14    7.90
  -6   3   3   -0.78    6.61
   6   3  -3   -0.02    4.51
   6   3  -3    7.46    6.28
   6   3  -3   -0.12    6.02
   6  -3  -3   17.03   16.21
   6  -3  -3    0.28    6.94
   6  -3  -3    7.59    6.95
  -5   3   3   -2.53    3.66
  -5   3   3    1.57    5.35
   5   3  -3   -2.01    3.40
   5   3  -3   -0.42    4.34
   5   3  -3   -1.63    4.26
   5  -3  -3    0.99    3.51
   5  -3  -3    3.54    4.24
   5  -3  -3   -4.67    6.28
  -4   3   3    4.32    2.08
  -4   3   3    5.19    7.47
  -4   3   3    4.57    3.62
  -4   3   3    4.87   10.35
  -4   3   3    1.67    1.63
   4   3  -3    2.55    5.29
   4   3  -3    3.10    6.43
   4   3  -3    6.38    6.46
   4  -3  -3    0.02    5.35
   4  -3  -3    4.62    3.69
   4  -3  -3    8.25    6.15
   4  -3  -3    4.03    9.29
   4  -3  -3    4.20    5.66
  -3   3   3   71.15   12.05
  -3   3   3  102.70   19.89
  -3   3   3   99.31   15.97
  -3   3   3   76.76   12.55
  -3   3   3   67.02   14.87
  -3   3   3   57.04    5.52
  -3   3   3   80.91   13.41
   3   3  -3   80.38   13.68
   3   3  -3   54.48    8.58
   3   3  -3   64.47   14.76
   3   3  -3   63.08   16.24
   3  -3  -3   60.57    8.90
   3  -3  -3   71.56   10.07
   3  -3  -3   68.54   13.63
   3  -3  -3   70.46   20.97
   3  -3  -3   71.74   19.42
   3  -3  -3   76.79   11.82
  -2  -3   3   -3.16    8.33
  -2  -3   3    1.27    6.09
  -2   3   3   -0.99    3.30
  -2   3   3    6.44    3.76
  -2   3   3   -2.02    4.74
  -2   3   3   -3.71    3.26
  -2   3   3   -2.57    3.69
  -2   3   3    0.10    2.13
  -2   3   3    0.01    2.43
   2   3  -3    0.08    3.02
   2   3  -3    2.77    3.93
   2   3  -3    7.34    8.73
   2  -3  -3   -0.05    3.86
   2  -3  -3    1.99    3.00
   2  -3  -3    2.96    4.56
   2  -3  -3    3.61    5.93
   2  -3  -3   -1.96    5.01
   2  -3  -3   -0.36    2.86
   2   3  -3    1.96    7.76
  -1  -3   3  127.92   23.29
  -1  -3   3  139.31   19.53
  -1   3   3  142.85   23.24
  -1   3   3  118.36   18.02
  -1   3   3  134.26   26.05
  -1   3   3  130.21   18.60
  -1   3   3  129.11   17.93
  -1   3   3  101.86    8.36
  -1   3   3  108.91   15.07
   1   3  -3  107.57   15.32
   1   3  -3  101.68   13.91
   1   3  -3  103.62   19.23
   1  -3  -3   86.47   10.65
   1  -3  -3  122.48   19.45
   1  -3  -3  132.05   22.66
   1  -3  -3   85.10   15.50
   1  -3  -3   97.54   15.39
   1   3  -3  122.56   19.95
   0  -3   3   -0.35    3.23
   0  -3   3   13.52    8.12
   0  -3   3    8.70    6.86
   0   3   3    7.96    5.76
   0   3   3    9.77    6.17
   0   3   3    9.22    5.88
   0   3   3    5.67    6.26
   0   3   3   11.61   10.61
   0   3   3    6.66    5.81
   0   3   3    8.13    2.67
   0   3  -3    9.33    6.56
   0   3  -3    7.05    6.00
   0   3  -3   -0.14    3.50
   0   3  -3    7.43    6.08
   0  -3  -3   -0.09    5.79
   0  -3  -3    8.91   11.25
   0  -3  -3    7.66    6.20
   0  -3  -3    4.28    3.78
   0  -3  -3    3.72    2.20
   1  -3   3    0.06    1.12
   1  -3   3   -3.48    2.99
   1  -3   3   -1.07    3.70
   1  -3   3   -1.16    3.28
   1   3   3    0.02    2.98
   1   3   3    1.93    2.92
   1   3   3    1.25    2.96
   1   3   3    0.74    2.65
   1   3   3   -1.31    3.00
   1   3   3    0.52    2.43
  -1   3  -3    1.53    4.58
  -1   3  -3    0.67    4.01
  -1   3  -3    1.99    8.14
  -1  -3  -3   -0.87    7.02
  -1  -3  -3    1.28    4.24
  -1  -3  -3    1.32    3.76
  -1  -3  -3   -0.23    2.32
   2  -3   3    2.88    9.53
   2  -3   3   -2.15    8.88
   2   3   3    2.74    5.44
   2   3   3   -1.85    8.75
   2   3   3    3.78    6.08
   2   3   3    2.63    2.56
   2   3   3    2.22    5.11
  -2   3  -3    0.84    3.21
  -2   3  -3    7.71    5.32
  -2   3  -3   -0.61    2.07
  -2   3  -3    2.15    5.78
  -2   3  -3    4.40    3.82
  -2  -3  -3    2.80    4.82
  -2  -3  -3    4.36    4.21
  -2  -3  -3   -0.53    4.68
  -2  -3  -3   -0.94    3.59
  -2  -3  -3   -1.01    2.74
   3   3   3   19.29    9.77
   3   3   3   12.81    5.07
   3   3   3   25.25    9.03
   3   3   3    0.04    6.74
   3   3   3   25.24    4.94
  -3   3  -3    7.64    6.76
  -3   3  -3    1.70    4.37
  -3   3  -3   19.72    9.46
  -3   3  -3   21.11   10.52
  -3   3  -3   19.41    6.21
  -3  -3  -3    4.99   13.53
  -3  -3  -3   20.19    6.89
  -3  -3  -3    0.95    5.51
   4   3   3   47.24    7.32
   4   3   3   67.41   14.48
   4   3   3   59.01   15.71
   4   3   3   48.21    7.83
  -4   3  -3   38.81    9.45
  -4   3  -3   42.26    9.59
  -4   3  -3   57.08   19.80
  -4  -3  -3   45.60    8.91
  -4  -3  -3   59.96   15.59
  -4  -3  -3   61.85   11.59
  -4  -3  -3   65.02   10.16
  -4   3  -3   52.68   17.17
   5  -3   3    0.46    3.04
   5   3   3    3.23    5.07
   5   3   3    0.00    4.57
   5   3   3    0.03    2.71
  -5   3  -3    1.21   11.85
  -5   3  -3    1.90    6.44
  -5   3  -3    4.80    7.65
  -5  -3  -3    4.87    4.08
  -5  -3  -3   -0.58    2.90
  -5  -3  -3   -0.45    5.95
  -5  -3  -3    0.42    4.08
  -5   3  -3    6.30    4.19
   6  -3   3    0.28    2.46
   6   3   3   -0.92    7.64
   6   3   3    0.01    4.44
   6   3   3   -0.95    2.88
  -6   3  -3    0.00    5.76
  -6   3  -3    0.43    3.55
  -6   3  -3    2.66   10.42
  -6   3  -3   -0.77    3.37
  -6  -3  -3    0.53    4.46
  -6  -3  -3   -0.97    2.65
  -6  -3  -3   -0.28    3.31
   7  -3   3    4.32    4.52
   7   3   3   -8.70    5.35
   7   3   3    0.02    5.36
   7   3   3   -0.61    3.69
  -7   3  -3    0.54    3.53
  -7   3  -3   -0.38    5.26
  -7   3  -3    3.80    5.31
  -7   3  -3   -2.40    3.46
  -7  -3  -3    0.85    2.10
  -7  -3  -3   -0.31    4.13
  -7  -3  -3   -0.97    3.16
   8   3   3    5.83    6.06
   8   3   3   -0.17    4.78
   8   3   3    0.01    6.29
  -8   3  -3   -0.46    4.61
  -8   3  -3    9.24    6.42
  -8   3  -3    0.65   11.06
  -8   3  -3   -2.38    4.69
  -8  -3  -3   -1.07    5.08
  -8  -3  -3    0.73    4.08
   9   3   3   -1.85    5.24
   9   3   3    0.06    6.11
   9   3   3   -1.22    4.76
  -9   3  -3   -0.38    8.70
  -9   3  -3    3.72    6.86
  -9   3  -3    1.00    7.01
  -9   3  -3   -2.16    8.95
  -9  -3  -3    0.41    5.42
  -9  -3  -3    0.60    4.58
  10   3   3    0.21    4.92
  10   3   3   -1.04    3.97
  10   3   3    0.24    4.12
 -10   3  -3   -2.67   10.70
 -10   3  -3    0.93    6.32
 -10   3  -3   -4.80   11.60
 -10  -3  -3   -2.57    5.96
 -10  -3  -3   -2.30    5.09
 -10   3  -3    2.41    7.54
  11  -3   3   -3.51    4.74
  11   3   3    0.10    3.68
  11   3   3    1.61    5.20
  11   3   3   -0.12    4.47
 -11   3  -3    2.54    5.36
 -11   3  -3    3.45    5.78
 -11  -3  -3   -5.82    6.09
 -11  -3  -3   -1.23    4.80
 -11   3  -3    5.26    5.94
  12  -3   3   -3.53    4.60
  12   3   3    0.30    8.10
  12   3   3   -0.03    3.13
  12   3   3   -0.21    5.40
 -12   3  -3   -1.92    5.53
 -12   3  -3   -2.20    4.19
 -12  -3  -3    2.04    5.72
 -12  -3  -3   -0.12    4.63
 -12   3  -3    9.68    5.72
  13  -3   3    3.52    3.92
  13   3   3    2.45    8.22
  13   3   3    0.78    5.13
  13   3   3    0.68    1.82
 -13   3  -3    2.93    4.95
 -13   3  -3    2.68    6.66
 -13   3  -3   -2.33    1.95
 -13  -3  -3    2.82    4.46
 -13  -3  -3    0.59    4.04
  14  -3   3    2.18    2.54
  14   3   3    9.56    4.84
  14   3   3    1.01    5.06
 -14   3  -3    2.36    3.80
 -14  -3  -3   11.19    8.09
 -14  -3  -3   -1.36    7.40
 -13  -4   3    0.62    1.39
 -13   4   3    0.00    5.84
 -13   4   3    0.00    1.98
  13  -4  -3   -4.68   10.83
 -12   4   3    1.63    4.86
 -12   4   3   -1.93    4.64
 -12   4   3   -5.34    5.66
 -12  -4   3    0.03    2.95
  12   4  -3    1.72    4.43
  12  -4  -3    4.46    7.15
 -11  -4   3   -0.70    6.36
 -11   4   3   -4.67    5.37
 -11   4   3   -2.03    4.47
 -11   4   3    1.99    3.73
  11   4  -3    1.13    1.29
  11  -4  -3    1.82    4.45
  11   4  -3   -3.59    2.15
 -10  -4   3    2.33    6.46
 -10   4   3    9.16   13.49
 -10   4   3   -1.16    6.44
 -10   4   3   14.01    7.15
  10   4  -3    0.15    3.07
  10   4  -3    0.21    2.60
  -9  -4   3   -0.47    4.19
  -9   4   3    2.81    4.59
  -9   4   3   -0.97    4.70
  -9   4   3   -0.05    5.37
   9   4  -3    0.22    3.18
   9   4  -3   -0.03    2.97
   9  -4  -3    0.29    8.74
  -8  -4   3    0.57    4.42
  -8   4   3   -1.71    4.89
  -8   4   3   -0.01    5.50
   8   4  -3    3.41    4.99
   8   4  -3    0.14    4.82
   8  -4  -3    2.09    7.91
   8  -4  -3    0.85    7.35
  -7  -4   3   17.48   10.24
  -7   4   3   31.73   11.87
  -7   4   3   -0.28   12.45
   7   4  -3   -0.06    7.82
   7  -4  -3   27.92   12.03
   7  -4  -3   22.90   10.23
   7   4  -3    0.02    7.91
  -6  -4   3    1.62    4.99
  -6   4   3    0.00    8.14
  -6   4   3   -0.01   10.47
   6   4  -3    0.09    5.03
   6   4  -3    0.07    5.27
   6  -4  -3    4.53    5.97
   6  -4  -3   -0.12   12.31
  -5  -4   3    3.64    4.70
  -5   4   3    0.01    4.68
  -5   4   3   -0.89    5.32
   5   4  -3    0.01    5.11
   5   4  -3   -0.08    5.56
   5  -4  -3    0.96    7.68
   5  -4  -3    6.12    5.28
   5  -4  -3    0.20    3.99
  -4  -4   3    3.94    4.37
  -4   4   3    0.00    4.74
  -4   4   3    0.70    2.70
  -4   4   3    0.65    5.09
   4   4  -3    0.00    5.05
   4  -4  -3   -0.16    4.17
   4  -4  -3    5.50    6.65
   4  -4  -3   -0.52    7.10
   4   4  -3    0.01    7.75
  -3  -4   3   52.48   12.08
  -3   4   3   64.55   10.34
  -3   4   3    0.00   24.19
  -3   4   3   77.34   14.24
   3   4  -3   41.76    9.32
   3   4  -3   97.48   28.42
   3   4  -3   62.83   15.64
   3  -4  -3   82.77   33.03
   3  -4  -3   50.29   12.11
   3  -4  -3   -2.80   18.16
  -2  -4   3    0.19    3.61
  -2   4   3    0.00    5.19
  -2   4   3   14.25    6.90
  -2   4   3   -0.04    4.51
   2   4  -3   13.04    7.60
   2   4  -3    0.09    7.30
   2  -4  -3   10.63    6.27
   2  -4  -3    4.56    7.86
   2  -4  -3   -0.26    6.39
   2   4  -3    0.05    4.86
  -1  -4   3   -0.09    1.88
  -1   4   3    0.00    3.44
  -1   4   3    0.31    4.41
  -1   4   3    0.32    2.90
   1   4  -3    0.16    4.04
   1   4  -3    1.85    8.52
   1  -4  -3    2.32    4.47
   1  -4  -3   -5.08    5.34
   1  -4  -3   -1.82    3.43
   1   4  -3    1.20    4.94
   0  -4   3   -0.33    1.37
   0   4   3    0.00    5.61
   0   4   3   -1.12    2.19
   0   4   3    4.00    3.07
   0   4  -3    5.06    9.67
   0   4  -3   -1.51    9.46
   0  -4  -3    0.48    5.78
   0  -4  -3    1.62    6.37
   0   4  -3    2.30    6.08
   1   4   3  138.49   21.40
   1   4   3  102.22   13.18
   1   4   3  120.29   20.82
  -1   4  -3   91.83   38.63
  -1   4  -3  137.46   41.85
  -1   4  -3  114.90   22.84
  -1  -4  -3  142.89   38.49
  -1  -4  -3  122.34   34.13
   2   4   3   74.64   16.93
   2   4   3   53.97    8.53
   2   4   3   75.90   16.75
  -2   4  -3   66.37   20.63
  -2   4  -3   77.72   22.50
  -2   4  -3   72.78   17.52
  -2  -4  -3   80.66   29.19
  -2  -4  -3   75.79   17.34
   3   4   3    0.00    6.76
   3   4   3   11.58   11.49
  -3   4  -3    2.01    9.86
  -3   4  -3    0.79    8.63
  -3   4  -3    5.40    6.48
  -3  -4  -3    5.63    6.77
  -3  -4  -3    6.32    7.05
   4  -4   3   21.69    9.89
   4   4   3   34.66   18.61
   4   4   3    0.01   10.99
  -4   4  -3    0.24   11.60
  -4   4  -3    0.20    5.89
  -4   4  -3   26.91   13.84
  -4  -4  -3   33.75    9.14
  -4  -4  -3   29.43    9.88
   5  -4   3   30.40    7.96
   5   4   3    1.34    4.71
   5   4   3   31.67   16.13
   5   4   3   -0.02   16.60
  -5   4  -3    0.55    7.55
  -5   4  -3   -0.35   10.56
  -5   4  -3   19.65   13.58
  -5   4  -3    2.01   20.02
  -5  -4  -3   25.80    8.19
  -5  -4  -3   17.57    9.67
   6  -4   3   79.20   14.89
   6   4   3   53.22   10.63
   6   4   3   74.33   17.98
   6   4   3    0.08   32.11
  -6   4  -3    3.76   14.91
  -6   4  -3   42.87   11.55
  -6   4  -3   68.21   35.85
  -6  -4  -3   82.01   12.40
  -6  -4  -3   60.36   26.84
  -6  -4  -3   28.48   11.99
  -6   4  -3   71.67   20.32
   7  -4   3    4.70    4.54
   7   4   3    0.14    4.14
   7   4   3    2.82   10.83
   7   4   3    0.02   12.02
  -7   4  -3    0.03    6.37
  -7   4  -3   -0.04    5.22
  -7   4  -3   -0.01    6.77
  -7   4  -3    2.36    5.77
  -7   4  -3   -0.17    3.83
  -7  -4  -3   -3.47    5.63
  -7  -4  -3   -3.86    8.44
   8  -4   3   18.18    6.30
   8   4   3   18.55    7.67
   8   4   3    2.04   11.90
   8   4   3    2.85   16.87
  -8   4  -3   41.75   24.20
  -8   4  -3   13.36   15.14
  -8   4  -3   20.10    9.75
  -8  -4  -3   11.52   10.41
  -8   4  -3   26.43   15.00
   9   4   3   -0.46    8.10
   9   4   3    7.53    5.50
   9   4   3   -1.48   10.83
  -9   4  -3   -4.52    7.95
  -9   4  -3   -8.20    7.83
  -9   4  -3   -1.21    5.58
  -9   4  -3   -1.76    9.56
  -9  -4  -3   -1.28    3.20
  -9  -4  -3   -2.74   11.94
  -9  -4  -3   -3.11    6.27
  10   4   3   17.99    7.54
  10   4   3    0.57   17.75
  10   4   3    8.05    7.43
 -10   4  -3    5.61   19.41
 -10   4  -3   17.32    9.43
 -10   4  -3   13.73   11.59
 -10  -4  -3    7.84   17.12
 -10   4  -3   16.58    9.32
  11  -4   3   -0.28    4.95
  11   4   3   -2.48    4.84
  11   4   3   -1.66   10.56
  11   4   3   -3.44    3.74
 -11   4  -3   -8.22    5.76
 -11   4  -3    0.87    5.19
 -11   4  -3    2.37    5.94
 -11  -4  -3    4.98   10.33
 -11  -4  -3   -9.87    6.21
  12  -4   3   -0.56    3.02
  12   4   3    6.81    3.55
  12   4   3   -7.94    8.08
  12   4   3    0.49    1.81
 -12   4  -3   -1.36    4.07
 -12   4  -3    0.52    4.72
 -12  -4  -3    3.77    4.22
 -12  -4  -3    0.27    2.39
 -12   4  -3    1.56    3.36
 -11  -5   3   -0.31    2.57
  11   5  -3    2.11    2.72
  11  -5  -3    3.95    5.46
 -10  -5   3    0.99    3.17
 -10   5   3   -2.40    3.71
 -10   5   3    0.11    2.93
 -10   5   3    0.59    1.93
  10   5  -3   -2.22    5.06
  10  -5  -3   -6.82    7.35
  -9  -5   3   -0.01    5.90
  -9   5   3    2.64    6.48
  -9   5   3    5.52    4.32
  -9   5   3   11.62   10.76
   9   5  -3    5.10    4.35
   9   5  -3   -0.13    2.03
   9  -5  -3  -13.27    5.54
  -8  -5   3   -7.42    5.83
  -8   5   3    0.33   10.55
  -8   5   3   -1.30    7.18
  -8   5   3   -1.90    4.98
   8   5  -3   -8.11    5.61
   8   5  -3    1.06    3.39
  -7  -5   3    2.49    4.68
  -7   5   3   -0.01    6.07
  -7   5   3   -0.13    5.10
   7   5  -3    0.21    3.71
   7   5  -3    6.88    5.52
   7  -5  -3   -2.06    5.22
   7  -5  -3   -0.61    5.40
  -6  -5   3    0.30    5.56
  -6   5   3   -0.12    7.90
  -6   5   3   -0.18    3.58
   6   5  -3    4.33    5.21
   6   5  -3   -2.76    6.48
   6  -5  -3   -4.53    4.90
   6  -5  -3    0.62    4.49
  -5  -5   3   10.58   13.63
  -5   5   3    4.94    9.98
  -5   5   3   22.53    8.81
   5   5  -3   22.16   10.83
   5   5  -3   15.58    8.54
   5  -5  -3   14.94   16.85
   5  -5  -3   -0.02    8.15
  -4  -5   3    6.34    4.80
  -4   5   3    2.13    3.91
  -4   5   3   -0.96    2.36
  -4   5   3   -2.07    3.10
   4   5  -3   -7.23    6.10
   4   5  -3   -0.24    5.17
   4  -5  -3    0.70    3.75
   4  -5  -3   -0.01    3.96
   4  -5  -3   -2.27    6.13
  -3  -5   3   12.11    5.47
  -3   5   3    1.35    8.40
  -3   5   3    0.45    9.25
  -3   5   3   10.07   10.22
   3   5  -3    0.13    9.26
   3   5  -3   18.05    9.10
   3  -5  -3   21.60   12.25
   3  -5  -3   -0.04    5.48
   3  -5  -3   23.39   10.11
   3   5  -3    8.71    9.84
  -2  -5   3    0.07    2.93
  -2   5   3    4.82    4.27
  -2   5   3    0.27    5.16
  -2   5   3    0.00    9.52
   2   5  -3    0.15    4.94
   2   5  -3   -0.07    4.26
   2  -5  -3   -0.03    3.22
   2  -5  -3   -3.66    4.49
   2  -5  -3   -0.04    1.99
   2   5  -3    3.27    4.41
  -1   5   3  105.95   20.10
  -1   5   3   88.67   17.51
  -1   5   3   62.94   15.06
   1   5  -3    1.58   32.16
   1   5  -3   -0.32   27.24
   1   5  -3   76.69   19.74
   1  -5  -3  104.50   29.11
   1  -5  -3   74.05   16.48
   0   5   3   -0.01    9.30
   0   5   3   17.64    8.79
   0   5  -3   -0.41   19.01
   0   5  -3    7.12   17.17
   0   5  -3    0.12   10.39
   0  -5  -3   15.81    9.39
   0  -5  -3   17.72    9.65
   1   5   3    0.03    6.21
   1   5   3   -5.74   10.03
  -1   5  -3   -0.87    8.25
  -1   5  -3    0.69    8.27
  -1  -5  -3    7.90    7.31
  -1  -5  -3    3.92    7.23
   2  -5   3   10.71    9.68
   2   5   3   -0.08   15.26
   2   5   3    6.91    8.79
  -2   5  -3   -0.54    6.58
  -2   5  -3   -2.01    7.34
  -2  -5  -3   -2.51    6.05
  -2  -5  -3    0.14    6.31
   3   5   3    3.26    9.75
   3   5   3    0.01    5.82
  -3   5  -3   17.90   13.11
  -3   5  -3   20.69   15.53
  -3  -5  -3   26.40   20.47
  -3  -5  -3   17.56   12.37
   4  -5   3   27.70   10.20
   4   5   3    5.49   10.63
   4   5   3   -0.05   10.71
  -4   5  -3   29.73   16.25
  -4  -5  -3   23.01   17.30
  -4  -5  -3    1.19   20.89
  -4   5  -3   21.04   23.17
   5  -5   3   10.09    6.92
   5   5   3   -0.29    7.64
   5   5   3    0.33    7.62
  -5   5  -3   10.29    9.91
  -5   5  -3   -4.24    5.03
  -5  -5  -3    1.42    7.09
  -5  -5  -3    0.71    3.73
   6  -5   3   -5.68    6.47
   6   5   3   -0.12    4.43
   6   5   3    2.78    4.26
  -6   5  -3   -7.79    7.39
  -6   5  -3   -1.73   14.81
  -6  -5  -3   -1.32    5.74
  -6  -5  -3    0.68    5.53
   7  -5   3    1.62    3.94
   7   5   3   -0.01    2.13
   7   5   3   -1.06    5.32
   7   5   3    3.74    4.82
  -7   5  -3   -1.71    7.55
  -7   5  -3    1.83    3.09
  -7  -5  -3    0.54    4.73
  -7  -5  -3    2.76    4.97
  -7   5  -3   -1.53   11.21
   8  -5   3    3.84    3.54
   8   5   3   -1.05    5.27
   8   5   3   -0.48    6.17
  -8   5  -3   -7.76    7.60
  -8   5  -3   -4.71    5.71
  -8   5  -3    6.62    6.47
  -8  -5  -3   -7.00    4.40
  -8  -5  -3    3.32    5.44
   9   5   3    4.27    6.40
   9   5   3    2.53    5.01
  -9   5  -3    1.09    5.14
  -9   5  -3    1.64    2.23
  -9  -5  -3    2.41    2.94
  -9  -5  -3    2.42    4.89
  -9   5  -3    0.83   11.17
  10  -5   3    3.63    3.02
  10   5   3    0.11    4.77
  10   5   3   -3.55    5.15
 -10   5  -3   -0.33    4.11
 -10  -5  -3   -0.97    3.52
  -7  -6   3   -2.94    4.69
  -7   6   3    0.11    1.39
  -7   6   3    1.79    3.50
   7   6  -3    2.99    8.79
   7  -6  -3   -4.18    3.99
  -6  -6   3    5.85    3.02
  -6  -6   3    3.19    5.72
  -6   6   3    2.10    2.06
  -6   6   3   -0.69    1.41
  -6   6   3    4.76    5.57
   6   6  -3    5.45   11.08
   6  -6  -3    4.00    7.47
  -5  -6   3   -1.07    4.03
  -5  -6   3   -2.26    5.36
  -5   6   3   -1.34    1.89
  -5   6   3    0.85    6.14
   5   6  -3   -1.75    8.14
   5  -6  -3    0.81    4.28
   5  -6  -3   -1.10    2.33
  -4  -6   3    3.12    4.43
  -4  -6   3   -3.97    3.97
  -4   6   3    7.60    7.20
   4   6  -3    5.71    6.41
   4  -6  -3    0.05    2.11
   4  -6  -3   -1.21    2.69
  -3  -6   3    0.55    7.36
  -3  -6   3   -1.18    5.88
  -3   6   3   -0.03    7.46
  -3   6   3   14.89    4.97
   3   6  -3   15.06   14.13
   3   6  -3    5.97    4.05
   3  -6  -3    4.00    4.92
  -2  -6   3    0.44    5.24
  -2   6   3    0.03    4.84
  -2   6   3    1.36    3.93
   2   6  -3   15.43    7.72
   2   6  -3   -5.24    5.08
   2  -6  -3   -1.51    8.68
   2  -6  -3   10.56    5.14
  -1  -6   3    0.23    5.47
  -1   6   3    1.53    4.93
  -1   6   3   -0.13    7.72
   1   6  -3   -0.48    8.32
   1   6  -3    1.68    6.68
   1  -6  -3    5.35   11.58
   1  -6  -3   11.57    5.94
   0  -6   3   -0.26    5.09
   0   6   3   -1.00    7.63
   0   6   3    0.00    6.83
   0   6  -3    9.36    7.76
   0   6  -3   -1.03    7.23
   0  -6  -3   -5.47   10.29
   0  -6  -3    7.65    5.76
   1  -6   3    3.95    6.56
   1   6   3    0.03    5.68
   1   6   3    2.04   10.28
  -1   6  -3   10.13    8.87
  -1   6  -3    6.66    9.38
  -1  -6  -3    6.42    7.78
  -1  -6  -3    8.16    7.09
   2  -6   3    2.59    5.45
   2   6   3   -0.51    4.99
   2   6   3    0.04    4.88
  -2   6  -3    2.46    7.39
  -2   6  -3   -6.82    5.01
  -2  -6  -3    6.70    5.82
  -2  -6  -3    0.09    4.12
   3  -6   3    5.71    6.39
   3   6   3    0.12    6.35
   3   6   3    0.96    6.20
  -3   6  -3    1.72    6.23
  -3   6  -3    2.88    7.30
  -3  -6  -3    6.65    7.36
  -3  -6  -3   -1.77    5.99
   4  -6   3  -12.69    9.00
   4   6   3    0.59    4.87
   4   6   3    4.52    4.89
  -4   6  -3    7.92    6.46
  -4   6  -3    0.44   14.15
  -4  -6  -3    2.38    4.58
  -4  -6  -3   -1.07    6.29
   5  -6   3    2.81    6.20
   5   6   3   10.57    6.33
   5   6   3   -4.10    6.42
  -5   6  -3    1.45    5.73
  -5   6  -3   -4.49    7.64
  -5  -6  -3    9.34    5.60
  -5  -6  -3    0.51    4.11
   6  -6   3    4.03    5.47
   6   6   3    0.70    6.49
   6   6   3   10.69    6.57
  -6   6  -3    7.71    8.62
  -6   6  -3    8.84    9.97
  -6  -6  -3    3.25    4.61
  -6  -6  -3    7.07    6.20
   7   6   3   -0.62    4.20
   7   6   3    3.06    3.92
  -7   6  -3    0.90    5.16
  -7   6  -3   -0.82    2.87
  -7  -6  -3    2.68    3.48
  -7  -6  -3   -4.54    2.64
 -15   0   4   -3.01    3.71
 -15   0   4    0.39    3.46
  15   0  -4    0.57    3.07
 -14   0   4   -1.96    6.98
 -14   0   4   -0.03    7.55
  14   0  -4    1.45    5.20
 -13   0   4    7.86    6.56
 -13   0   4    0.70    6.32
  13   0  -4    8.31    9.25
 -12   0   4    0.21    7.03
 -12   0   4    9.62    6.85
  12   0  -4   21.92   23.00
 -11   0   4  101.42   34.66
 -11   0   4   73.20   17.18
  11   0  -4   48.26   10.53
  11   0  -4   87.15   20.86
 -10   0   4    6.12    5.88
 -10   0   4   -3.29    4.27
  10   0  -4    2.46    4.29
  10   0  -4   -1.18    7.48
  -9   0   4   51.63   16.47
  -9   0   4   41.95   13.22
   9   0  -4    1.78   19.64
   9   0  -4   54.06   16.93
  -8   0   4   -1.54    3.88
  -8   0   4    0.94    5.20
   8   0  -4   -1.26    6.42
   8   0  -4    2.81    6.34
  -7   0   4   39.07    5.02
  -7   0   4   34.52    9.91
   7   0  -4   40.00   14.97
   7   0  -4   -1.16   16.19
   7   0  -4   40.77   14.67
  -6   0   4   -6.45    3.72
  -6   0   4   -4.43    5.57
  -6   0   4    2.87    7.13
  -6   0   4    2.11    3.76
  -6   0   4    0.05    6.12
   6   0  -4    3.20    7.02
   6   0  -4   -0.86    8.11
   6   0  -4    3.29    6.75
  -5   0   4    0.03   11.93
  -5   0   4   25.68   11.01
  -5   0   4   28.53   12.82
  -5   0   4   25.79    5.32
   5   0  -4   34.43   20.56
   5   0  -4   -0.02    6.92
   5   0  -4   28.30    9.58
   5   0  -4   -1.04   19.33
  -4   0   4   26.98   11.99
  -4   0   4   29.17   12.77
  -4   0   4   29.43    6.49
  -4   0   4   22.33   21.06
   4   0  -4   -0.17   12.10
   4   0  -4   34.09   11.98
   4   0  -4    0.00    6.57
   4   0  -4   28.66    9.17
  -3   0   4   29.90   11.93
  -3   0   4   25.39    6.04
  -3   0   4   26.35   10.74
  -3   0   4   21.74   11.25
   3   0  -4   25.78   13.59
   3   0  -4   28.93   14.10
   3   0  -4   25.30    8.07
   3   0  -4   23.77   10.38
   3   0  -4   31.85   15.77
  -2   0   4   11.58   11.91
  -2   0   4   -1.90    2.63
  -2   0   4    8.94    3.07
  -2   0   4   12.22    5.31
  -2   0   4    7.30    6.28
   2   0  -4   16.57    8.03
   2   0  -4    9.05   10.39
   2   0  -4    5.56    2.09
   2   0  -4   11.33   10.66
   2   0  -4    9.12    5.96
   2   0  -4    8.81    4.78
  -1   0   4   38.91    4.88
  -1   0   4   59.81   20.10
  -1   0   4   51.55   12.30
  -1   0   4   45.21    6.08
  -1   0   4   58.64   21.06
  -1   0   4   32.37    4.31
  -1   0   4   46.26   11.61
   1   0  -4   42.41   11.51
   1   0  -4   48.96   13.71
   1   0  -4   36.31    5.81
   1   0  -4   56.15   16.38
   1   0  -4   38.18    9.81
   1   0  -4   46.94   12.30
   1   0  -4    0.04   14.00
   0   0   4   73.95    6.17
   0   0   4   84.87   14.37
   0   0   4   78.63    9.94
   0   0   4   79.39   11.75
   0   0   4   98.52   11.14
   0   0   4   93.22   14.28
   0   0   4  101.34   14.30
   0   0  -4   77.94   11.57
   0   0  -4   98.16   33.62
   0   0  -4   71.02   16.82
   0   0  -4   80.80    8.49
   0   0  -4   86.33    9.21
   0   0  -4   93.50   27.80
   0   0  -4   83.11   21.35
   1   0   4   -0.08    0.96
   1   0   4    0.40    2.26
   1   0   4   -0.42    0.69
   1   0   4    0.38    1.06
   1   0   4   -0.33    1.52
   1   0   4   -0.11    1.98
   1   0   4   -0.78    2.70
   1   0   4    0.69    1.37
   1   0   4    1.57    3.25
  -1   0  -4   -0.01    3.48
  -1   0  -4   -1.86    3.25
  -1   0  -4    1.56    4.31
  -1   0  -4   -0.50    6.22
  -1   0  -4    1.01    2.68
  -1   0  -4    0.05    1.98
  -1   0  -4    1.11    3.61
   2   0   4   -0.09    4.43
   2   0   4    6.26   11.48
   2   0   4    7.54    4.90
   2   0   4    5.34    2.24
   2   0   4    7.52    2.40
   2   0   4    7.18    7.61
   2   0   4    6.77    5.04
   2   0   4    4.74    1.74
  -2   0  -4    6.14    4.36
  -2   0  -4    5.68    7.12
  -2   0  -4    3.43    7.63
  -2   0  -4    3.82    2.19
  -2   0  -4   10.37    6.14
   3   0   4    1.99    1.69
   3   0   4   -1.86    5.30
   3   0   4    1.34    1.64
   3   0   4    2.04    2.78
   3   0   4    2.46    3.06
   3   0   4    4.13    8.79
   3   0   4    2.19    3.76
  -3   0  -4    1.10    5.12
  -3   0  -4    3.75    4.46
  -3   0  -4    3.23    6.60
  -3   0  -4    8.09    6.72
  -3   0  -4    0.72    3.26
  -3   0  -4    6.89    8.83
   4   0   4  141.96   19.47
   4   0   4  153.97   11.12
   4   0   4  181.90   28.51
   4   0   4  194.52   29.15
   4   0   4  169.25   24.57
  -4   0  -4  171.82   27.08
  -4   0  -4  166.45   21.15
  -4   0  -4  114.15   11.80
  -4   0  -4  156.31   26.11
  -4   0  -4  110.97   14.48
  -4   0  -4  127.95    9.86
  -4   0  -4  175.93   18.40
   5   0   4    2.57    9.88
   5   0   4    1.40    3.96
   5   0   4    3.07    7.01
  -5   0  -4    6.65    4.03
  -5   0  -4   -3.04    5.05
  -5   0  -4   -0.79    2.16
  -5   0  -4    1.04    8.11
  -5   0  -4    0.07    1.40
  -5   0  -4    0.02    3.02
   6   0   4   -1.63    4.60
  -6   0  -4   70.87   18.62
  -6   0  -4   51.96   25.22
  -6   0  -4   45.94    9.13
  -6   0  -4   37.03    6.00
  -6   0  -4   37.06    5.60
  -6   0  -4   70.10   10.96
   7   0   4    9.81    7.97
  -7   0  -4   10.13    9.67
  -7   0  -4    0.86    3.06
  -7   0  -4   -0.65    1.65
  -7   0  -4    0.01    3.19
  -7   0  -4   11.20    7.79
   8   0   4   -1.38    5.54
  -8   0  -4   -3.21    7.61
  -8   0  -4   -1.14    3.41
  -8   0  -4    1.68    8.55
  -8   0  -4    0.79    3.10
   9   0   4   -2.27    6.79
  -9   0  -4   34.59   20.44
  -9   0  -4   -0.10    8.69
  -9   0  -4   24.99   11.78
  -9   0  -4   19.18    8.40
  10   0   4   -2.29    7.42
 -10   0  -4   -0.02   11.75
 -10   0  -4   36.91   13.95
 -10   0  -4   44.78   10.71
  11   0   4   -0.54    9.66
 -11   0  -4    9.99    8.48
 -11   0  -4    8.06    7.81
 -11   0  -4    9.58    7.31
 -11   0  -4   -1.62    6.17
  12   0   4   -1.79    4.93
  12   0   4    8.71    5.03
  12   0   4   -0.41    6.42
 -12   0  -4    8.95    7.00
 -12   0  -4    0.71    4.72
  13   0   4   64.28   12.40
  13   0   4  100.86   18.17
  13   0   4   66.59   14.71
 -13   0  -4   67.86   11.44
 -13   0  -4   60.81   15.82
  14   0   4    1.38    4.48
  14   0   4    1.43    2.59
  14   0   4   11.23    5.56
 -14   0  -4    6.94    5.78
 -14   0  -4   -1.72    4.43
 -15  -1   4   -3.10    3.66
 -15   1   4   -0.52    6.40
 -15   1   4    0.06    2.40
  15   1  -4    2.26    2.34
  15  -1  -4   -0.50    4.10
 -14  -1   4    3.29    4.11
 -14  -1   4    0.87   10.18
 -14   1   4    9.99    6.97
 -14   1   4    4.07    7.93
  14   1  -4    4.99   10.23
  14  -1  -4   15.94   14.45
 -13  -1   4   -0.02    2.47
 -13  -1   4    0.76    3.67
 -13   1   4   -0.13    3.00
  13   1  -4    2.75    4.66
  13  -1  -4   -5.31    5.60
 -12  -1   4    0.01    4.50
 -12  -1   4    0.24    3.98
 -12   1   4   -0.70    3.48
  12   1  -4   -2.12    2.84
  12   1  -4    4.24    6.02
  12  -1  -4   -4.16    7.07
 -11   1   4   67.03   19.89
 -11  -1   4   59.85   15.55
 -11   1   4   56.49   27.34
  11   1  -4    0.21   11.64
  11  -1  -4   61.64   13.06
  11   1  -4    3.14    6.41
 -10   1   4   10.26    9.63
 -10  -1   4    0.96    5.54
 -10  -1   4    0.16   14.96
 -10   1   4   15.55    8.55
 -10   1   4   10.89    4.47
  10   1  -4   -0.39    3.67
  10   1  -4   -0.42    5.13
  10  -1  -4   -0.40    4.22
  10  -1  -4    8.59    9.54
  -9  -1   4  147.92   17.87
  -9  -1   4  200.98   29.08
  -9   1   4  204.84   28.71
  -9   1   4  199.26   30.35
  -9   1   4  200.09   19.87
   9   1  -4  203.99   34.12
   9  -1  -4  181.77   27.68
   9  -1  -4  213.97   60.30
   9   1  -4  186.58   27.97
  -8  -1   4    1.63    2.69
  -8  -1   4    0.64    5.28
  -8   1   4    2.49    5.50
  -8   1   4    1.48    5.27
  -8   1   4    0.19    3.21
   8   1  -4    0.17    8.50
   8  -1  -4   -0.85    4.34
   8  -1  -4   -1.74    4.71
   8  -1  -4    3.37    5.27
   8   1  -4    0.81    4.38
  -7  -1   4    3.15    5.92
  -7  -1   4    3.77    7.52
  -7   1   4   12.59    5.15
   7   1  -4    8.12   15.20
   7  -1  -4    5.44    8.30
   7  -1  -4    1.23   13.24
   7  -1  -4    8.82    9.61
   7  -1  -4   12.69    8.97
   7   1  -4   -0.75    8.41
  -6   1   4   15.70    7.14
  -6  -1   4   10.30    6.15
  -6   1   4    4.10   10.40
   6   1  -4   15.35    9.67
   6   1  -4   -0.90   23.91
   6   1  -4   11.55   18.09
   6  -1  -4   15.93   10.09
   6  -1  -4   -0.43   10.34
   6  -1  -4   14.08   11.08
   6  -1  -4   17.23   10.17
  -5   1   4  184.00   36.47
  -5  -1   4  173.93   45.16
  -5  -1   4  225.15   31.75
  -5   1   4  184.61   24.02
  -5   1   4  206.64   27.83
  -5   1   4  221.57   22.21
  -5   1   4  191.94   27.62
   5   1  -4  227.00   39.80
   5   1  -4  170.83   48.66
   5  -1  -4  209.65   35.71
   5  -1  -4  198.42   32.88
   5  -1  -4  193.13   28.21
   5  -1  -4  195.15   50.86
   5   1  -4  172.30   26.80
  -4   1   4    9.75    5.69
  -4  -1   4    2.94   10.89
  -4  -1   4    0.04    1.82
  -4  -1   4    3.80    6.64
  -4   1   4    6.98    5.22
  -4   1   4    5.49    5.48
  -4   1   4    8.35    4.94
  -4   1   4    9.35    5.85
   4   1  -4    3.35    1.82
   4   1  -4    9.44   10.24
   4   1  -4    2.95   10.01
   4   1  -4   14.10    7.30
   4  -1  -4    2.77    8.46
   4  -1  -4   -0.49   15.57
   4  -1  -4    6.23    7.42
   4  -1  -4    4.24    6.00
  -3  -1   4   34.11    4.74
  -3  -1   4   53.87   23.43
  -3  -1   4   63.23   13.72
  -3  -1   4   59.73    9.44
  -3  -1   4   39.91    3.76
  -3   1   4   55.74   10.98
  -3   1   4   59.48   10.58
  -3   1   4   48.09   13.46
  -3   1   4   54.47   13.15
   3   1  -4   51.57   13.90
   3   1  -4   38.27    4.76
   3   1  -4   68.94   19.81
   3   1  -4   36.97    5.27
   3   1  -4   50.69   13.93
   3  -1  -4   -7.11   24.74
   3  -1  -4   58.54   14.38
   3  -1  -4   57.17   13.52
   3  -1  -4   53.83   11.04
   3  -1  -4   59.97   28.79
  -2   1   4  101.62   22.45
  -2  -1   4   68.27    5.54
  -2  -1   4   86.50    8.21
  -2  -1   4   98.10   17.10
  -2  -1   4  101.92   15.91
  -2  -1   4  102.08   10.69
  -2  -1   4   89.47    9.52
  -2   1   4   72.45    8.81
  -2   1   4  103.27   17.56
  -2   1   4   99.70   11.94
  -2   1   4  117.31   29.28
   2   1  -4   79.68   12.74
   2   1  -4   58.71   10.32
   2   1  -4   72.69   13.88
   2   1  -4  113.27   24.06
   2   1  -4  100.14   16.75
   2  -1  -4   97.50   19.35
   2  -1  -4   96.63   22.64
   2  -1  -4   85.50   15.46
   2  -1  -4   97.55   19.03
   2  -1  -4   90.39   12.09
   2   1  -4   93.72   17.22
  -1   1   4   -0.19    5.55
  -1  -1   4    2.16    2.42
  -1  -1   4    1.99    2.07
  -1  -1   4   -0.45    3.86
  -1  -1   4    1.58    2.80
  -1  -1   4    1.03    2.74
  -1  -1   4    0.00    0.95
  -1   1   4    0.43    2.13
  -1   1   4    0.60    1.20
  -1   1   4   -1.72    1.53
  -1   1   4   -1.44    1.31
  -1   1   4    0.11    2.88
   1   1  -4   -0.88    5.69
   1   1  -4    1.35    2.15
   1   1  -4   -0.22    2.31
   1   1  -4   -0.32    2.48
   1   1  -4    6.89    5.26
   1   1  -4    2.80    6.14
   1  -1  -4   -3.09    4.96
   1  -1  -4    4.29    5.36
   1  -1  -4   -0.59    3.49
   1  -1  -4    1.54    8.46
   1  -1  -4   -0.10    3.60
   0  -1   4  349.66   20.75
   0  -1   4  356.65   23.06
   0  -1   4  404.72   27.73
   0  -1   4  362.09   22.94
   0  -1   4  405.58   36.37
   0  -1   4  397.49   23.20
   0   1   4  333.48   18.63
   0   1   4  395.59   40.78
   0   1   4  316.79   19.84
   0   1   4  347.77   25.41
   0   1   4  420.07   35.10
   0   1   4  410.74   28.06
   0   1   4  381.72   32.64
   0   1  -4  350.16   31.20
   0   1  -4  345.57   30.05
   0   1  -4  320.74   28.67
   0   1  -4  358.69   38.27
   0   1  -4  326.37   25.39
   0  -1  -4  402.94   41.01
   0  -1  -4  391.34   43.00
   0  -1  -4  416.35   47.37
   0  -1  -4  275.08   18.21
   0  -1  -4  390.19   38.11
   0   1  -4  345.21   26.36
   1  -1   4  185.24   13.10
   1  -1   4  186.50   15.67
   1  -1   4  199.11   19.74
   1  -1   4  190.23   15.27
   1  -1   4  192.93   13.79
   1  -1   4  209.58   19.66
   1   1   4  189.73   42.38
   1   1   4  194.70   19.92
   1   1   4  214.93   16.41
   1   1   4  223.33   36.32
   1   1   4  178.06   12.48
  -1   1  -4  188.80   29.68
  -1  -1  -4  175.90   29.36
  -1   1  -4  191.93   29.83
  -1   1  -4  167.90   23.29
  -1   1  -4  168.01   21.28
  -1   1  -4  185.90   21.43
  -1   1  -4  164.92   14.18
  -1  -1  -4  206.82   25.20
  -1  -1  -4  195.21   17.71
  -1  -1  -4  183.73   21.11
  -1  -1  -4  214.76   26.70
   2  -1   4 1349.30   89.92
   2  -1   4 1507.65  110.39
   2  -1   4 1307.24   84.01
   2  -1   4 1499.13  127.51
   2  -1   4 1334.11   89.08
   2  -1   4 1575.68   95.92
   2   1   4 1331.76  102.14
   2   1   4 1461.23  116.23
   2   1   4 1440.64  116.54
   2   1   4 1536.38   98.07
   2   1   4 1613.81  113.27
   2   1   4 1211.09   84.40
  -2   1  -4 1406.21  110.28
  -2   1  -4 1396.86  120.90
  -2   1  -4 1339.98  141.71
  -2   1  -4 1203.77   96.44
  -2   1  -4 1220.32   82.12
  -2   1  -4 1406.44  100.00
  -2  -1  -4 1494.56  140.61
  -2  -1  -4 1289.14  117.33
  -2  -1  -4 1491.62  100.72
  -2  -1  -4 1381.49  112.01
  -2  -1  -4 1624.28  124.55
   3   1   4   -0.01    2.30
   3  -1   4   -0.60    1.85
   3  -1   4    1.14    5.65
   3  -1   4    0.87    2.53
   3   1   4    0.54    3.64
   3   1   4    3.08    3.02
   3   1   4    0.08    1.69
   3   1   4    0.45    1.72
   3   1   4   -0.90    1.93
   3  -1   4   -2.71    5.60
  -3   1  -4   -2.29    4.32
  -3   1  -4   -1.36    3.31
  -3   1  -4    1.74    5.69
  -3   1  -4   -0.03    1.51
  -3   1  -4    1.70    2.00
  -3  -1  -4   -1.34    4.30
  -3  -1  -4    1.01    7.38
  -3  -1  -4   -1.03    3.74
  -3  -1  -4    0.13    4.12
  -3  -1  -4   -0.01    6.14
   4  -1   4   37.91    8.25
   4  -1   4   29.99   21.38
   4  -1   4   42.81   12.76
   4   1   4   28.97    6.62
   4   1   4   31.83    7.82
   4   1   4   41.20   18.51
   4   1   4   37.19    7.02
   4   1   4   36.00   12.23
  -4   1  -4   39.08   27.10
  -4   1  -4   34.26   12.11
  -4   1  -4   29.33   12.08
  -4   1  -4   21.80    5.71
  -4   1  -4   40.43    6.57
  -4  -1  -4   23.88   11.32
  -4  -1  -4   32.44   13.28
  -4  -1  -4   37.28    8.07
  -4  -1  -4   47.92   11.67
  -4  -1  -4   32.87   13.75
   5  -1   4   -1.88    9.59
   5  -1   4   -0.27    5.62
   5   1   4    0.36    6.62
   5   1   4   -5.63    5.09
   5   1   4   -2.69    3.05
   5   1   4    0.10    4.65
   5   1   4   -0.02    3.48
  -5   1  -4   -0.68    4.86
  -5   1  -4   -4.14   10.36
  -5   1  -4    1.74    2.55
  -5  -1  -4   -1.42    5.21
  -5  -1  -4   -3.71    5.34
  -5  -1  -4    1.96    1.45
  -5  -1  -4   -0.63    3.02
  -5  -1  -4   -0.04    4.36
  -5  -1  -4   -2.39    3.27
  -5   1  -4    3.24    8.92
   6   1   4   61.99   11.56
   6   1   4   45.86    9.76
  -6   1  -4   53.50   15.99
  -6  -1  -4   58.96   16.43
  -6   1  -4   70.29   18.91
  -6   1  -4   52.62   20.03
  -6   1  -4   54.46   12.17
  -6   1  -4   40.27   10.17
  -6  -1  -4   41.56   17.40
  -6  -1  -4   54.30   10.12
  -6  -1  -4   63.52   14.46
   7   1   4    0.68    9.28
   7   1   4    4.37    4.55
  -7   1  -4   -1.07    8.68
  -7   1  -4   -0.07    7.16
  -7   1  -4   11.67    8.70
  -7   1  -4   -0.58    4.84
  -7   1  -4    3.61    2.94
  -7  -1  -4    7.44    7.31
  -7  -1  -4    0.27    4.17
  -7  -1  -4    2.91    5.98
  -7  -1  -4    8.81    6.71
   8   1   4   -1.55    4.09
   8   1   4   -0.86    7.44
  -8   1  -4    0.63    8.72
  -8   1  -4   -0.19    6.94
  -8   1  -4    7.62    8.29
  -8   1  -4   -1.32    8.57
  -8   1  -4    0.16    3.02
  -8  -1  -4    1.27    6.07
  -8  -1  -4   10.64    7.02
  -8  -1  -4    3.09    3.94
   9  -1   4    1.68    4.47
   9   1   4   -0.12    3.93
   9   1   4   -0.64    3.33
   9   1   4   -0.01    3.02
  -9   1  -4   11.60    8.78
  -9   1  -4   14.62   10.39
  -9   1  -4   -1.70   10.48
  -9   1  -4    0.07    3.94
  -9  -1  -4    0.21    7.61
  -9  -1  -4   11.50    5.16
  -9  -1  -4   12.13    7.55
  10   1   4    0.00    4.32
  10  -1   4    0.88    5.99
  10   1   4    3.91    5.01
  10   1   4   -0.78    4.73
 -10   1  -4   -2.03    5.62
 -10   1  -4   12.11   10.47
 -10   1  -4   -0.41    4.19
 -10   1  -4    0.54    2.22
 -10  -1  -4    0.82    4.43
 -10  -1  -4   -0.14    3.22
 -10  -1  -4    1.57    4.53
  11  -1   4   -0.74    4.25
  11   1   4    1.18    3.08
  11   1   4   -0.44    3.28
  11   1   4   -0.57    3.39
 -11   1  -4   -6.06    7.97
 -11   1  -4   -5.50    3.72
 -11   1  -4    0.44    4.23
 -11  -1  -4    0.00    3.40
 -11  -1  -4    0.64    3.88
 -11  -1  -4    2.68    2.67
  12   1   4    0.65    4.33
  12  -1   4    1.57    5.75
  12   1   4    0.74    3.80
  12   1   4   -0.18    4.65
 -12   1  -4    4.39   10.83
 -12   1  -4   -6.93    4.68
 -12  -1  -4   -0.26    5.99
 -12  -1  -4   -3.09    3.15
 -12  -1  -4   -0.36    4.85
 -12   1  -4    8.02    4.71
  13  -1   4    2.36   11.87
  13   1   4    8.17    4.55
  13   1   4    0.02   11.31
  13   1   4    0.14    6.10
 -13   1  -4    5.92    4.71
 -13   1  -4    7.02    6.14
 -13   1  -4    7.86    4.04
 -13  -1  -4   -1.55    1.96
 -13  -1  -4    2.21    2.69
 -13  -1  -4   -0.30    4.70
  14  -1   4   -0.96    2.94
  14  -1   4    1.28    1.99
  14  -1   4    4.46    4.26
  14   1   4    0.63    3.84
  14   1   4    1.20    1.91
  14   1   4   -1.02    4.55
 -14   1  -4    0.74    5.41
 -14  -1  -4    3.08    3.17
 -14  -1  -4    1.34    7.59
 -14  -2   4   -3.93    3.10
 -14   2   4    2.79    4.50
 -14   2   4    1.10    1.27
  14   2  -4   -0.04    2.29
  14  -2  -4   -4.09    4.88
 -13  -2   4    0.58    1.89
 -13  -2   4   -1.29    3.22
 -13   2   4   -2.56    2.00
 -13   2   4    6.01    4.79
 -13   2   4    2.51    1.92
  13   2  -4    0.03    4.96
  13  -2  -4   13.84    8.15
 -12  -2   4    2.26    3.04
 -12  -2   4   -0.53    3.85
 -12   2   4    0.07    3.10
 -12   2   4    6.23   10.57
 -12   2   4    0.39    2.58
  12   2  -4   -6.14    5.87
  12  -2  -4    2.68    8.46
 -11  -2   4    0.51    2.67
 -11   2   4   -0.61    4.57
 -11   2   4   -0.36    3.55
 -11   2   4   -0.37    4.58
  11   2  -4   -0.13    3.62
  11   2  -4    2.48    7.83
  11  -2  -4    2.29   11.03
 -10  -2   4   -0.38    2.83
 -10   2   4   -4.20    4.99
 -10   2   4    0.66    2.84
 -10   2   4    1.80    3.35
  10   2  -4   -0.84    4.27
  10   2  -4    0.10    9.70
  10  -2  -4    4.94    6.90
  -9  -2   4   -0.02   16.59
  -9   2   4    2.25   17.11
  -9   2   4   48.16   10.86
  -9   2   4   72.87   13.31
   9   2  -4    0.03   14.76
   9  -2  -4    3.81    8.88
   9  -2  -4   66.81   16.32
   9   2  -4   56.34   11.75
  -8  -2   4    0.03    3.85
  -8   2   4   -0.95    3.92
  -8   2   4   -2.01    4.43
   8   2  -4   -1.74   10.58
   8   2  -4   -0.16    6.83
   8  -2  -4    2.03    7.26
   8  -2  -4    0.80    8.81
   8  -2  -4    3.17    6.84
  -7  -2   4   66.99   12.58
  -7   2   4   83.28   16.76
   7   2  -4   59.22   19.95
   7   2  -4   72.86   20.31
   7  -2  -4   58.31   14.19
   7  -2  -4   70.35   16.52
   7  -2  -4   92.36   26.39
   7  -2  -4   79.12   20.55
  -6  -2   4   -0.06    4.57
  -6   2   4   16.97    6.89
   6   2  -4    5.77    2.54
   6   2  -4    1.83    8.28
   6   2  -4   -0.40    8.27
   6  -2  -4    0.82    5.71
   6  -2  -4    0.74    7.50
   6  -2  -4    9.13   18.18
   6  -2  -4    5.79    7.41
  -5  -2   4   -0.12    2.19
  -5   2   4   -0.03    3.50
   5   2  -4   -0.01    6.44
   5   2  -4    2.27    3.62
   5   2  -4    0.90   11.10
   5  -2  -4    3.43    5.91
   5  -2  -4   -6.68    8.14
   5  -2  -4    4.05    5.36
  -4  -2   4   27.72   12.90
  -4  -2   4   31.54   11.69
  -4   2   4   24.59    7.90
  -4   2   4   17.62    3.58
  -4   2   4   -0.12   12.41
  -4   2   4   27.32   10.36
  -4   2   4   29.97   10.28
  -4   2   4   15.66   11.93
   4   2  -4   19.79    8.98
   4   2  -4   17.55    6.34
   4   2  -4   24.21   11.61
   4   2  -4   20.02   18.21
   4  -2  -4   27.51   10.93
   4  -2  -4   27.45   14.27
   4  -2  -4   17.15    2.80
   4  -2  -4   33.86   12.17
   4  -2  -4   31.21   15.22
   4  -2  -4   19.00    6.33
  -3  -2   4   54.57   14.87
  -3  -2   4   44.82   23.95
  -3   2   4   38.69   10.09
  -3   2   4   37.13   18.85
  -3   2   4   -0.14   15.65
  -3   2   4   35.97    7.38
  -3   2   4   49.47   13.09
  -3   2   4   31.75   13.84
   3   2  -4   27.50    6.84
   3   2  -4   40.42   13.69
   3   2  -4   30.68   12.58
   3  -2  -4   42.30   25.14
   3  -2  -4   35.53   22.06
   3  -2  -4   46.81   15.82
   3  -2  -4   39.18   15.07
   3  -2  -4   39.76    6.68
   3   2  -4   43.28    7.52
  -2  -2   4    1.04    4.59
  -2  -2   4    1.93    5.15
  -2   2   4    3.97    4.19
  -2   2   4   -0.78    3.04
  -2   2   4   -0.78    9.73
  -2   2   4    1.90    4.26
  -2   2   4    2.21    2.08
  -2   2   4   -0.15    3.59
   2   2  -4    1.68    2.96
   2   2  -4    0.47    2.13
   2   2  -4   -0.06    4.49
   2   2  -4    2.92    4.30
   2   2  -4    0.67    3.20
   2  -2  -4    3.25    4.27
   2  -2  -4    5.87    5.66
   2  -2  -4    5.95    5.29
   2  -2  -4    0.77    5.52
   2  -2  -4   -1.85    4.37
   2  -2  -4   -0.54    1.91
  -1  -2   4   31.21    6.35
  -1  -2   4   27.24    8.96
  -1  -2   4   18.57    2.87
  -1  -2   4   -0.17    6.13
  -1   2   4   22.61    7.63
  -1   2   4   25.83    8.27
  -1   2   4   21.48    4.95
  -1   2   4   27.13   11.09
  -1   2   4   25.51    8.22
  -1   2   4   23.01    7.14
  -1  -2   4    0.09    5.93
   1   2  -4   24.07    6.46
   1   2  -4    0.09    7.48
   1   2  -4   18.91    7.73
   1   2  -4   -0.41    8.60
   1  -2  -4   25.16    8.65
   1  -2  -4   20.94   18.29
   1  -2  -4   23.39   10.37
   1  -2  -4   28.97   10.95
   1  -2  -4   14.12    3.89
   1  -2  -4   12.64    4.87
   1   2  -4   12.99    7.35
   0  -2   4   -0.05    3.24
   0  -2   4    1.08    5.94
   0  -2   4   12.21    5.69
   0  -2   4    6.34    1.83
   0  -2   4    9.99    7.39
   0  -2   4    5.42    2.31
   0   2   4   12.57    3.75
   0   2   4    9.07    7.88
   0   2   4   -1.19   10.00
   0   2   4   12.80    7.42
   0   2   4   10.47    8.78
   0   2   4   12.08   10.06
   0   2  -4    8.54    9.55
   0   2  -4    5.57    2.93
   0   2  -4   -0.09    4.64
   0   2  -4    9.67    8.90
   0   2  -4    0.12    8.59
   0  -2  -4   15.18    6.80
   0  -2  -4   12.73   10.23
   0  -2  -4    6.93    8.00
   0  -2  -4   13.24   10.48
   0   2  -4    5.57    2.93
   1  -2   4   85.81   12.35
   1  -2   4   76.54   11.74
   1  -2   4   85.59   15.93
   1   2   4   83.57   14.26
   1   2   4   94.97   18.96
   1   2   4   73.00   15.43
   1   2   4   90.10   13.73
   1   2   4   76.83   12.81
   1   2   4   90.21   13.06
  -1   2  -4   77.50   25.21
  -1   2  -4   58.99    9.55
  -1   2  -4   63.25    8.66
  -1   2  -4   81.37   11.27
  -1  -2  -4   83.80   15.70
  -1  -2  -4   89.07   14.11
  -1  -2  -4   77.35   30.23
  -1  -2  -4   80.36   14.92
  -1   2  -4   73.85   14.90
   2  -2   4  611.96   49.64
   2  -2   4  605.20   67.22
   2   2   4  623.34   47.48
   2   2   4  569.64   42.04
   2   2   4  599.38   53.16
   2   2   4  681.63   48.48
   2   2   4  585.26   49.26
   2   2   4  704.22   50.33
  -2   2  -4  594.16   54.15
  -2   2  -4  607.97   83.41
  -2   2  -4  466.56   50.95
  -2   2  -4  549.01   39.83
  -2  -2  -4  599.67   50.37
  -2  -2  -4  536.43   53.58
  -2  -2  -4  607.22   47.87
  -2  -2  -4  673.41   53.89
   3   2   4    3.83    3.78
   3   2   4    2.69    5.48
   3   2   4    2.02    5.19
   3   2   4   -0.93    8.24
  -3   2  -4    2.70    4.71
  -3   2  -4    3.39    7.28
  -3   2  -4    2.22    2.82
  -3   2  -4   -2.74    1.71
  -3  -2  -4    0.52    2.96
  -3  -2  -4    3.09    3.87
  -3  -2  -4    0.56    5.46
  -3  -2  -4    0.85    6.41
   4   2   4   11.86    5.15
   4   2   4    9.55    6.85
   4   2   4   -0.05    4.43
  -4   2  -4    8.61   10.59
  -4   2  -4   14.22    9.47
  -4   2  -4    6.97    6.75
  -4   2  -4    8.20    2.89
  -4  -2  -4   13.80   12.65
  -4  -2  -4   10.02    5.45
  -4  -2  -4    9.60    7.74
  -4  -2  -4   11.41    5.04
  -4  -2  -4   15.85   13.04
   5   2   4    0.00    5.32
   5   2   4   -2.61    4.29
   5   2   4    0.04    1.94
  -5   2  -4   -1.35    5.40
  -5   2  -4   -0.83    4.06
  -5  -2  -4    0.44    2.42
  -5  -2  -4    0.14    4.17
  -5  -2  -4   -2.58    4.00
  -5   2  -4   -0.80    6.07
   6   2   4    0.00    4.07
   6   2   4    7.80    5.31
   6   2   4   -0.10    2.87
  -6   2  -4   -1.99    6.75
  -6   2  -4    0.37    5.18
  -6   2  -4    0.34    3.08
  -6  -2  -4   -0.26    4.76
  -6  -2  -4   -2.86    2.31
  -6  -2  -4    1.30    4.22
  -6  -2  -4   -0.14    5.17
  -6   2  -4   -5.31    7.52
   7   2   4    0.00    4.55
   7   2   4    4.02    5.95
   7   2   4    1.49    3.46
  -7   2  -4    4.21    6.93
  -7   2  -4   -0.98    5.01
  -7   2  -4   -1.22    3.24
  -7  -2  -4   -0.77    4.44
  -7  -2  -4    0.08    3.61
  -7  -2  -4    0.32    4.87
  -7   2  -4  -13.75   12.45
   8   2   4   -0.01    7.26
   8   2   4   33.00    8.52
   8   2   4   -0.28    5.98
  -8   2  -4   33.26   10.85
  -8   2  -4    1.07    8.07
  -8   2  -4   46.39   17.26
  -8   2  -4   -1.25    5.58
  -8  -2  -4    0.27    6.66
  -8  -2  -4    2.59    5.07
  -8  -2  -4   -0.03    7.39
   9   2   4    0.00    3.58
   9   2   4    1.38    3.94
   9   2   4   -2.69    5.08
  -9   2  -4    1.07    6.62
  -9   2  -4    3.15    7.87
  -9   2  -4    2.31    4.82
  -9  -2  -4    0.04    5.28
  -9  -2  -4    0.39    3.53
  -9  -2  -4    0.00    6.06
  -9   2  -4    8.39    8.53
  10  -2   4   -0.19    5.56
  10   2   4   -1.85    4.35
  10   2   4    3.79    4.43
  10   2   4   -1.09    6.88
 -10   2  -4   -9.76    6.41
 -10   2  -4   -7.30    7.36
 -10  -2  -4   -0.14    2.51
 -10  -2  -4    3.95    4.40
 -10  -2  -4    0.72    5.16
 -10   2  -4   10.79    5.73
  11  -2   4    4.33    6.77
  11   2   4   -1.39    9.28
  11   2   4    4.79    8.58
  11   2   4    0.04    5.43
 -11   2  -4    1.83    8.39
 -11   2  -4   11.23   14.19
 -11   2  -4    4.87    9.57
 -11  -2  -4    6.52    6.30
 -11  -2  -4   -0.79    7.54
  12  -2   4    3.77    5.81
  12   2   4   -0.39    8.77
  12   2   4    1.87    6.75
  12   2   4   -0.55    4.93
 -12   2  -4   -4.73   11.16
 -12   2  -4    8.70    4.50
 -12   2  -4    2.00    5.13
 -12  -2  -4   -4.57    4.90
 -12  -2  -4    0.32    5.96
  13  -2   4    6.46   10.69
  13   2   4    8.20    5.67
  13   2   4    2.02    3.50
  13   2   4   -0.64    5.56
 -13   2  -4   -1.19    3.24
 -13   2  -4    0.22    3.33
 -13   2  -4    5.42    9.82
 -13  -2  -4   -1.16    6.02
 -13  -2  -4   15.57    8.02
  14  -2   4   -1.04    3.99
  14   2   4    3.11    4.28
  14   2   4    4.29    4.09
 -14   2  -4    0.68    5.04
 -14  -2  -4    1.90    2.22
 -14  -2  -4   -1.25    7.69
 -13   3   4   -1.15    2.49
 -13   3   4   -0.22    3.76
 -13  -3   4    1.32    3.02
  13   3  -4    2.64    2.54
  13  -3  -4   -1.90    6.26
 -12  -3   4   -1.04    3.53
 -12  -3   4    2.71    2.21
 -12   3   4   -2.11    4.43
 -12   3   4    4.10    6.06
  12  -3  -4   -2.65   11.31
  12   3  -4    2.37    5.97
 -11  -3   4    0.97    5.62
 -11  -3   4    5.67    3.20
 -11   3   4    1.86    8.89
 -11   3   4   12.08   12.05
  11   3  -4    0.51    3.90
 -10  -3   4    0.45    5.95
 -10  -3   4    2.36    4.78
 -10   3   4   20.82    8.64
 -10   3   4   -0.90    7.45
  10   3  -4    4.22    5.71
  10  -3  -4   -1.30    8.59
  -9  -3   4   -0.05    4.84
  -9   3   4    7.15    6.75
  -9   3   4   -2.46    5.83
   9   3  -4    0.22    6.15
   9   3  -4   11.33    6.04
   9  -3  -4  -14.97   10.51
   9  -3  -4   -0.95    7.94
  -8   3   4   -2.05   12.24
   8   3  -4   -0.49    2.55
   8   3  -4    0.42    5.54
   8   3  -4   -0.06    5.39
   8  -3  -4    1.73    2.44
   8  -3  -4    4.79    8.97
   8  -3  -4    4.13    6.44
  -7   3   4    3.90    7.62
   7   3  -4    0.68    2.32
   7   3  -4    0.50    4.71
   7   3  -4   -0.12    4.66
   7  -3  -4   -1.28    3.60
   7  -3  -4   -0.10    7.14
   7  -3  -4    4.69    8.89
  -6   3   4    2.53    4.47
  -6   3   4   -1.98    5.58
   6   3  -4   -0.16    5.66
   6   3  -4    4.48    6.50
   6   3  -4   -0.22    6.47
   6  -3  -4    3.12    2.92
   6  -3  -4    0.32   17.88
   6  -3  -4    1.11   10.46
   6  -3  -4    4.53   10.24
  -5   3   4   -0.24    2.30
  -5   3   4   -1.32    5.00
   5   3  -4    0.33    4.41
   5   3  -4   -2.25    3.72
   5   3  -4    0.16    3.89
   5  -3  -4    3.50    5.92
   5  -3  -4   -1.13    3.10
   5  -3  -4    2.47    3.67
   5  -3  -4   -0.39    5.30
  -4   3   4   -1.12    2.65
  -4   3   4   -0.12    9.23
   4   3  -4   -1.38    4.30
   4   3  -4   10.66    5.45
   4   3  -4    1.30    5.98
   4  -3  -4   -0.62    4.04
   4  -3  -4    6.36    6.41
   4  -3  -4   -0.40    4.19
   4  -3  -4    7.75    8.73
  -3   3   4    4.22    5.26
  -3   3   4   -0.78    5.97
   3   3  -4    8.85    6.28
   3   3  -4    4.32   12.43
   3  -3  -4   -0.17    5.12
   3  -3  -4   10.55    8.61
   3  -3  -4    2.76   16.12
   3  -3  -4    6.85    4.37
   3   3  -4    5.94    5.72
  -2   3   4   -2.40    1.81
  -2   3   4    3.57    2.31
  -2   3   4   -0.35    3.78
   2   3  -4    2.60    5.00
   2   3  -4   -0.04    4.48
   2   3  -4    0.12    3.00
   2   3  -4    8.37   10.14
   2  -3  -4   -0.08    6.20
   2  -3  -4   -0.53   12.50
   2  -3  -4    7.56    7.55
   2  -3  -4    4.24    2.81
   2  -3  -4    3.13    2.42
  -1   3   4   -0.06    5.52
  -1   3   4    2.88    3.83
  -1   3   4    4.14    5.67
   1   3  -4   -4.84    4.67
   1   3  -4    0.18    3.30
   1   3  -4    0.04    3.46
   1   3  -4   -2.95    4.89
   1  -3  -4   -0.97    3.49
   1  -3  -4   -5.49    5.42
   1  -3  -4    0.64    6.48
   0   3   4   -3.66    3.38
   0   3   4    3.02    4.41
   0   3   4   -0.47    3.22
   0   3  -4    3.61    7.95
   0   3  -4    0.16    2.23
   0   3  -4   -0.34    3.83
   0   3  -4    0.83    4.09
   0  -3  -4    0.38    3.18
   0  -3  -4    4.17    4.80
   0  -3  -4    1.40    9.91
   1   3   4    3.32    4.62
   1   3   4    1.95    3.98
  -1   3  -4    0.27    5.74
  -1   3  -4   -1.98    4.38
  -1  -3  -4   -0.58    5.45
  -1  -3  -4    5.04    5.24
  -1  -3  -4    5.48    5.26
  -1  -3  -4   -0.73    5.84
  -1   3  -4    3.62    5.10
   2   3   4    3.66    5.64
   2   3   4    3.18    4.77
  -2   3  -4   10.83    7.81
  -2   3  -4    8.72    7.76
  -2   3  -4    4.29    4.90
  -2  -3  -4    8.65    6.95
  -2  -3  -4    5.65    6.88
  -2  -3  -4    6.27    6.54
  -2  -3  -4    0.13    4.95
   3   3   4    0.00    6.44
   3   3   4   -1.15    4.65
  -3   3  -4    3.06    5.55
  -3   3  -4   -2.11    2.27
  -3   3  -4   -0.77    9.81
  -3   3  -4    0.19    2.99
  -3  -3  -4   -1.79    4.67
  -3  -3  -4   -0.79    4.59
  -3  -3  -4   -0.42    4.11
  -3  -3  -4   -0.17    3.61
   4  -3   4    2.69    3.87
   4   3   4    0.00    5.47
   4   3   4    9.21    6.72
  -4   3  -4    2.99   15.35
  -4   3  -4   -1.06   14.06
  -4   3  -4    3.06    3.89
  -4  -3  -4   11.03    5.37
  -4  -3  -4    7.17    6.45
  -4  -3  -4   -0.21    5.01
  -4  -3  -4    0.27    5.24
   5  -3   4    0.80    2.64
   5   3   4    0.00    4.61
   5   3   4    7.25    9.66
  -5   3  -4    6.03    9.58
  -5   3  -4    7.63    9.17
  -5   3  -4    7.33    4.79
  -5  -3  -4    4.72    5.02
  -5  -3  -4    1.24   11.23
  -5  -3  -4   -0.87    4.67
  -5  -3  -4    1.98    9.74
   6   3   4   -0.01    5.85
   6   3   4   22.56   11.93
   6   3   4    1.55    2.98
  -6   3  -4   21.84   12.29
  -6   3  -4   26.99   11.96
  -6   3  -4   10.42    6.99
  -6  -3  -4   -0.34   15.29
  -6  -3  -4   12.50    5.42
  -6  -3  -4   -0.76    5.04
  -6  -3  -4    0.60   12.24
   7   3   4    0.00    3.79
   7   3   4    0.32    4.34
   7   3   4    0.01    2.12
  -7   3  -4   -6.18    8.72
  -7   3  -4   -2.53   14.75
  -7   3  -4   -0.71    5.22
  -7  -3  -4    3.73    2.98
  -7  -3  -4   -0.70   10.14
  -7  -3  -4    0.12    8.76
   8   3   4    0.01    5.70
   8   3   4    2.72    6.36
   8   3   4    1.48    3.53
  -8   3  -4   -5.67    9.75
  -8   3  -4    0.14    5.65
  -8   3  -4    0.91    3.55
  -8  -3  -4    0.13    6.44
  -8  -3  -4   -0.28    3.39
   9   3   4    0.81    7.72
   9   3   4    3.29    7.83
   9   3   4    7.18    5.02
  -9   3  -4   -0.52   10.00
  -9   3  -4   -1.21    6.86
  -9   3  -4    1.10    9.49
  -9   3  -4    4.77    4.75
  -9  -3  -4   17.01   11.33
  -9  -3  -4    0.92    6.29
  10   3   4    1.04    6.87
  10   3   4    3.43    6.66
  10   3   4    4.56    4.83
 -10   3  -4   -1.64    5.33
 -10   3  -4    7.27    7.35
 -10   3  -4   -2.22    6.55
 -10   3  -4    0.03    3.74
 -10  -3  -4    7.50    8.39
 -10  -3  -4   -0.78    8.14
  11  -3   4    5.60    8.04
  11   3   4    2.35    7.73
  11   3   4    4.54    6.72
  11   3   4   13.18    9.50
 -11   3  -4   11.04    8.37
 -11   3  -4    6.77    8.84
 -11   3  -4    4.16    7.81
 -11  -3  -4    6.73   12.57
 -11  -3  -4   -1.38   12.55
  12  -3   4    2.52    3.95
  12   3   4   -5.71    5.17
  12   3   4    0.59    4.00
  12   3   4   -0.42    2.84
 -12   3  -4    4.70   10.16
 -12   3  -4    4.03    7.92
 -12  -3  -4   -6.58    7.96
 -12  -3  -4   -4.72    9.22
 -12   3  -4   -2.62    3.08
  13  -3   4   10.18    8.16
  13   3   4    4.78    3.89
  13   3   4   -0.81    5.13
 -13   3  -4    1.00    5.52
 -13   3  -4    1.04    2.58
 -13  -3  -4    2.94    3.53
 -13  -3  -4    4.68    4.44
 -12  -4   4   -0.18    2.19
 -12   4   4    0.27    3.25
 -12   4   4    1.91    4.92
  12  -4  -4   -1.83    5.51
 -11  -4   4   -3.39    5.27
 -11   4   4   -0.82    3.83
 -11   4   4    2.40    3.93
  11   4  -4    0.94    1.80
  11   4  -4    5.34    3.19
  11  -4  -4   -2.07    6.54
 -10  -4   4   -0.23    4.34
 -10   4   4   -5.19    5.45
 -10   4   4    9.65    9.43
  10   4  -4    0.15    6.23
  10  -4  -4    0.75    9.78
  10   4  -4   12.58    4.13
  -9  -4   4    0.85    5.91
  -9   4   4   -0.72    2.99
  -9   4   4    2.35    7.29
  -9   4   4   25.56    7.45
   9   4  -4    0.94    4.43
   9   4  -4    9.65    6.01
   9  -4  -4    2.03    8.21
  -8   4   4    0.61    2.90
  -8   4   4   -0.45    5.09
  -8  -4   4   -0.27    4.06
   8   4  -4   -0.12    2.84
   8   4  -4    0.50    3.66
   8  -4  -4   -2.86    5.98
   8  -4  -4    1.42    4.44
  -7  -4   4   -0.75    4.30
  -7   4   4   -0.20    3.54
  -7   4   4   -0.05    5.53
   7   4  -4    0.37    4.89
   7   4  -4   -1.05    6.17
   7  -4  -4   18.31    9.48
   7  -4  -4   -2.10   11.11
  -6  -4   4    1.52    5.35
  -6   4   4    3.23    8.09
  -6   4   4    1.03   10.77
   6   4  -4   -0.01    7.22
   6  -4  -4    1.66   17.38
   6  -4  -4  -11.08    9.34
   6  -4  -4   -0.53   10.23
   6   4  -4   -3.66    5.82
  -5  -4   4   -0.51    4.56
  -5   4   4    3.37    3.78
  -5   4   4   -0.44    5.98
   5   4  -4    7.54    5.72
   5   4  -4   -0.10    6.80
   5  -4  -4   -0.20    5.66
   5  -4  -4    3.98   10.04
   5  -4  -4   -0.15    8.19
  -4  -4   4    0.97    4.59
  -4   4   4    3.60    4.21
  -4   4   4    0.86    6.31
   4   4  -4    5.59    4.82
   4   4  -4    0.06    5.57
   4  -4  -4    0.49    5.33
   4  -4  -4   -0.94    3.43
   4  -4  -4   -1.02    8.03
  -3  -4   4    0.03    3.80
  -3   4   4    7.26    6.67
  -3   4   4    0.64    5.40
   3   4  -4    0.98    6.76
   3  -4  -4    7.42    6.94
   3  -4  -4    6.10    9.48
   3  -4  -4    0.60    3.29
   3   4  -4    3.41    6.03
  -2  -4   4    0.68    5.12
  -2   4   4   32.36    7.20
  -2   4   4   15.46    8.73
  -2   4   4   -0.37   14.06
   2   4  -4   23.62    8.85
   2   4  -4   -0.03    5.29
   2   4  -4   20.48    9.56
   2  -4  -4    7.39   17.88
   2  -4  -4   18.33   19.66
  -1   4   4   49.67   10.39
  -1   4   4   -0.69   10.48
  -1   4   4   33.30    8.36
   1   4  -4   38.17   19.92
   1   4  -4    0.13    8.64
   1   4  -4   35.60   20.61
   1  -4  -4   34.58   12.04
   1  -4  -4   45.54   15.01
   0   4   4  108.18   17.63
   0   4   4   84.37   15.94
   0   4   4   89.68   15.76
   0   4  -4   78.02   22.15
   0   4  -4   72.60   17.55
   0   4  -4   87.37   30.98
   0  -4  -4   88.96   21.15
   0  -4  -4  111.07   25.22
   1   4   4    0.38    4.57
   1   4   4    0.00    7.39
   1   4   4    1.89    3.67
  -1   4  -4   -0.95    4.82
  -1   4  -4    0.11    4.16
  -1   4  -4    5.22    3.79
  -1  -4  -4   -2.66    4.46
  -1  -4  -4   -6.26    5.28
   2   4   4   -0.11    7.74
   2   4   4    1.13    3.01
   2   4   4   -0.01    4.26
  -2   4  -4    2.55    5.84
  -2   4  -4    0.63    4.12
  -2  -4  -4   -0.68    8.53
  -2  -4  -4   -3.05    5.16
  -2   4  -4    2.95    5.51
   3   4   4    9.78    9.01
   3   4   4    0.00    4.80
   3   4   4    0.65    2.80
  -3   4  -4   -1.80    7.87
  -3   4  -4    5.80    7.97
  -3  -4  -4    1.57    6.75
  -3  -4  -4    4.37    6.67
   4  -4   4   58.73   15.20
   4   4   4   82.34   30.92
   4   4   4   81.50   17.34
  -4   4  -4   94.68   41.50
  -4   4  -4   73.70   39.99
  -4  -4  -4   67.91   18.14
  -4  -4  -4   73.28   19.19
   5   4   4    5.96    8.08
   5   4   4    0.00    7.35
   5  -4   4    6.16    5.04
  -5   4  -4    8.22   11.35
  -5   4  -4   -3.15   10.83
  -5  -4  -4    7.56    6.84
  -5  -4  -4   12.58    8.30
  -5  -4  -4    4.10    4.24
   6  -4   4    5.53    5.96
   6   4   4   -0.21    6.95
   6   4   4    1.33    6.58
  -6   4  -4    6.97   10.25
  -6   4  -4   16.78    9.81
  -6  -4  -4   12.77    7.34
  -6  -4  -4   -0.40    5.54
  -6  -4  -4   -0.01    4.05
   7   4   4    3.03   11.14
   7   4   4    0.96   10.68
  -7   4  -4   -2.68    6.16
  -7   4  -4   -8.12   10.32
  -7   4  -4    5.33    2.52
  -7  -4  -4   -1.90    2.77
  -7  -4  -4   -3.62    4.34
  -7  -4  -4   -1.21    2.58
   8   4   4   -0.89    6.60
   8   4   4    0.96    6.63
  -8   4  -4   14.65    6.44
  -8   4  -4    1.09    6.08
  -8   4  -4    3.70    2.96
  -8  -4  -4   -1.64    2.26
  -8  -4  -4   -7.86    4.43
   9   4   4    2.41    8.08
   9   4   4    0.57    2.34
   9   4   4    0.81    8.80
  -9   4  -4   -6.79    5.63
  -9   4  -4    1.91    3.02
  -9   4  -4    9.62    9.49
  -9  -4  -4   -2.24    4.02
  -9  -4  -4   -0.10    2.67
  10   4   4    2.15    3.72
  10   4   4   -2.17    4.30
 -10   4  -4    2.98    5.68
 -10   4  -4    2.04    5.57
 -10  -4  -4   -0.38    4.29
 -10  -4  -4   -0.20    2.76
  11  -4   4    2.95    4.25
  11   4   4   -0.95    3.26
  11   4   4    2.54    4.56
 -11   4  -4    3.61    5.52
 -11   4  -4    1.94    7.77
 -11  -4  -4   -0.34    5.03
 -11  -4  -4    3.41    3.07
 -10  -5   4    1.62    2.87
 -10   5   4   -1.48    2.14
  10  -5  -4    2.47    7.62
  -9  -5   4    7.79    3.52
  -9   5   4    2.41    3.96
  -9   5   4   -1.93    3.42
  -9   5   4   -1.28    1.88
   9   5  -4    0.36    2.62
   9   5  -4   -1.14    2.59
   9  -5  -4   -2.52    4.11
  -8  -5   4    1.80    4.10
  -8   5   4   -3.51    5.37
  -8   5   4   -2.87    4.65
  -8   5   4   -0.75    8.72
   8   5  -4    2.72    3.70
   8   5  -4    0.52    3.74
   8  -5  -4   -0.59    4.54
  -7  -5   4   11.24    4.81
  -7   5   4   -3.96    2.81
  -7   5   4    0.22    3.54
   7   5  -4   11.93    7.67
   7   5  -4   10.68   13.23
   7  -5  -4   15.70   11.45
   7  -5  -4   10.15    7.79
  -6  -5   4    5.85    6.63
  -6   5   4   -0.41    4.64
  -6   5   4   -0.30    5.04
   6   5  -4    0.86    4.35
   6   5  -4    5.86    7.54
   6  -5  -4   -1.79    6.15
   6  -5  -4   -0.04    3.64
  -5  -5   4   -1.65    6.05
  -5   5   4   -0.44    4.86
   5   5  -4    1.19    4.34
   5   5  -4    0.60    7.66
   5  -5  -4   -3.33    9.99
   5  -5  -4   -0.03    4.91
  -4  -5   4    0.21    4.90
  -4   5   4   -1.13    3.79
  -4   5   4    0.08    7.15
   4   5  -4   -3.62    5.55
   4   5  -4   -1.71    5.86
   4  -5  -4    0.08    7.78
   4  -5  -4    0.30    4.78
  -3  -5   4   11.05    7.07
  -3   5   4    2.94    6.71
  -3   5   4    8.27   10.18
   3   5  -4   14.70    9.26
   3   5  -4    8.47   15.04
   3  -5  -4    4.67    8.53
   3  -5  -4    3.50   12.10
  -2  -5   4    5.41    3.23
  -2   5   4    1.08    6.74
  -2   5   4    0.74    4.61
  -2   5   4   18.77    5.42
   2   5  -4    8.72   16.83
   2   5  -4    4.57    5.26
   2   5  -4    0.01    9.67
   2  -5  -4   16.75    9.66
   2  -5  -4   28.60   12.22
  -1   5   4   -1.04    7.43
  -1   5   4   -1.42    3.55
  -1   5   4   -0.06    2.94
   1   5  -4    2.98    7.14
   1   5  -4   -0.24    4.59
   1   5  -4    2.38    6.73
   1  -5  -4   11.89   12.28
   1  -5  -4    3.13   14.12
   0   5   4   -0.60    6.31
   0   5   4    1.12    5.67
   0   5   4    5.68    3.48
   0   5  -4    0.51    7.54
   0   5  -4   -2.13    5.60
   0   5  -4    0.87    6.59
   0  -5  -4    3.11   11.17
   0  -5  -4   12.71    7.50
   1   5   4   -1.62    5.03
   1   5   4    0.03    8.05
  -1   5  -4    2.43    6.56
  -1   5  -4   -2.14    5.42
  -1  -5  -4    0.29    5.94
  -1  -5  -4    4.97    6.56
   2  -5   4    0.49    5.14
   2   5   4   -1.80    4.60
   2   5   4   -0.02    4.61
  -2   5  -4    7.83    9.90
  -2   5  -4   19.23   15.61
  -2  -5  -4    2.43    9.07
  -2  -5  -4    5.12    9.91
   3  -5   4    5.60    5.37
   3   5   4   -2.22    5.44
   3   5   4    0.00    5.49
  -3   5  -4   -3.60   14.45
  -3   5  -4    8.29   14.50
  -3  -5  -4   -2.38    7.19
  -3  -5  -4   -6.71    8.11
   4  -5   4    0.06    3.88
   4   5   4    1.63    7.30
   4   5   4   -0.06    4.57
  -4   5  -4    0.73    9.89
  -4   5  -4    7.20    9.71
  -4  -5  -4   -2.18    7.63
  -4  -5  -4   15.36    9.02
   5  -5   4    2.55    6.66
   5   5   4    0.35    8.77
   5   5   4   -0.02    5.56
  -5   5  -4    2.05    7.50
  -5   5  -4    6.01    7.46
  -5  -5  -4   -4.65   11.36
  -5  -5  -4   -0.21    5.28
   6  -5   4    4.72    4.14
   6   5   4   -0.99    6.12
   6   5   4   -0.14    6.39
  -6   5  -4    4.16    6.33
  -6   5  -4   -7.60    5.91
  -6  -5  -4    0.51    3.83
  -6  -5  -4   10.96    9.29
   7   5   4    3.54    5.40
   7   5   4   -0.74    5.46
  -7   5  -4    9.92    7.12
  -7   5  -4    0.11    6.67
  -7  -5  -4    1.63    3.60
  -7  -5  -4  -12.87    8.35
   8   5   4    3.18    6.46
   8   5   4    6.17    6.26
  -8   5  -4   -2.98    5.67
  -8   5  -4    4.26   10.58
  -8  -5  -4   -1.18    5.15
  -8  -5  -4    1.46    9.48
   9   5   4    6.06    8.40
   9   5   4   -0.51    7.46
  -9   5  -4    5.77    4.65
  -9   5  -4   -5.88    5.17
  -9  -5  -4    3.56    8.30
  -5   6   4    0.20    4.28
  -5  -6   4   -5.53    4.58
   5  -6  -4    0.93    3.43
   5   6  -4    2.35    4.48
  -4   6   4    2.43    2.59
  -4   6   4    2.36    4.97
  -4  -6   4    3.12    5.54
   4  -6  -4    2.51    4.20
   4   6  -4    0.69    5.33
  -3   6   4    3.04    5.67
  -3  -6   4   -1.24    4.36
   3   6  -4   -2.97    6.02
   3  -6  -4   -1.86    4.95
  -2   6   4   -3.49    5.69
  -2  -6   4   -7.60    7.36
   2  -6  -4   -2.74    4.60
   2  -6  -4   -8.19    9.38
   2   6  -4    1.37    6.31
  -1   6   4    8.63    5.79
  -1   6   4    3.63    4.25
  -1  -6   4    2.08    7.59
   1  -6  -4    1.22    6.38
   1  -6  -4    8.63    6.08
   1   6  -4    4.50    3.52
   1   6  -4   -5.88    6.94
   0   6   4    0.96    5.10
   0   6   4   -4.26    6.85
   0  -6   4   -7.31    6.69
   0  -6  -4   -6.50    6.82
   0  -6  -4   -5.53    6.79
   0   6  -4   -1.87    4.80
   0   6  -4   -4.89   12.78
   1   6   4    5.09    5.21
   1   6   4    0.14    4.60
   1  -6   4    2.95    6.25
  -1  -6  -4    1.32    5.78
  -1  -6  -4   -4.49    6.33
  -1   6  -4   -4.28    4.86
  -1   6  -4    7.96   11.27
   2   6   4    2.17   10.77
   2   6   4    8.13    6.25
   2  -6   4    3.73    7.18
  -2  -6  -4   -1.60    8.18
  -2  -6  -4    9.45    7.13
  -2   6  -4    2.93    6.86
  -2   6  -4    7.09    7.97
   3   6   4   -3.31    3.92
   3   6   4   -3.52    6.54
   3  -6   4   10.87    6.61
  -3  -6  -4   18.78   13.82
  -3  -6  -4   -3.06   11.64
  -3   6  -4    2.53    7.29
  -3   6  -4    6.55    7.83
   4   6   4    6.22    3.11
   4   6   4   -7.10    3.43
   4  -6   4   -0.09    3.05
  -4  -6  -4  -11.21   11.01
  -4  -6  -4   -6.10    8.26
  -4   6  -4    0.80    6.34
  -4   6  -4   -0.85    6.45
   5   6   4   -1.76    4.85
   5   6   4   -5.39    5.26
  -5  -6  -4   -1.42    5.24
  -5  -6  -4    3.24    7.19
  -5   6  -4   -6.98    5.86
  -5   6  -4   -1.66    9.55
 -14   0   5   -2.29    2.92
 -14   0   5   -3.57    7.89
  14   0  -5   -5.78    7.18
 -13   0   5    2.98    5.97
 -13   0   5    0.11    4.61
  13   0  -5   -2.73    7.38
 -12   0   5   -0.67    3.88
 -12   0   5    0.08    3.00
  12   0  -5   -2.25    3.72
  12   0  -5    3.98    6.15
 -11   0   5    0.69    4.61
 -11   0   5   -0.10    2.85
  11   0  -5   -0.70    3.15
  11   0  -5    7.76    9.32
 -10   0   5   -0.74    5.92
  10   0  -5    0.95    4.22
  10   0  -5   -2.79   10.60
  -9   0   5   -0.04    4.60
  -9   0   5   -0.08    2.69
   9   0  -5   -1.05   11.58
   9   0  -5   -3.48    8.38
  -8   0   5   -0.32    2.76
  -8   0   5    0.09    4.99
   8   0  -5    1.44    9.58
   8   0  -5   -5.15    7.97
  -7   0   5    1.02    2.92
   7   0  -5   -0.16    6.49
   7   0  -5   -1.84    5.85
   7   0  -5    0.54    7.66
  -6   0   5    0.28    2.25
   6   0  -5   -0.99    6.06
   6   0  -5   -1.23    7.82
   6   0  -5   -0.36    5.30
  -5   0   5    0.92    2.21
   5   0  -5    2.12    7.55
   5   0  -5    0.01    2.90
   5   0  -5    2.73    4.73
   5   0  -5   -4.14   11.53
  -4   0   5   -0.52    2.31
   4   0  -5    2.43    6.65
   4   0  -5    0.17   11.66
   4   0  -5    0.05    2.72
   4   0  -5    2.26    4.24
  -3   0   5   -2.16    5.20
  -3   0   5   -1.08    5.02
   3   0  -5   -0.09    6.01
   3   0  -5   -1.60    2.96
   3   0  -5   -0.02    2.16
   3   0  -5   -2.02    5.53
   3   0  -5    1.64    5.74
  -2   0   5   -0.67    4.51
  -2   0   5    4.62    6.65
   2   0  -5    6.03    9.44
   2   0  -5    6.33    6.55
   2   0  -5    0.02    3.85
   2   0  -5    1.88    3.95
   2   0  -5    0.05    3.16
  -1   0   5   -1.63    3.65
  -1   0   5    0.31    3.51
   1   0  -5    3.22    5.64
   1   0  -5    1.38    4.92
   1   0  -5    1.22    4.03
   1   0  -5    0.31    2.29
   0   0   5    0.33    2.77
   0   0   5   -1.50    3.25
   0   0  -5    6.61    4.35
   0   0  -5   -1.95    4.48
   0   0  -5   -1.46    3.94
   0   0  -5    0.12    2.05
   1   0   5   -1.39    6.62
   1   0   5   -0.44    5.77
  -1   0  -5   -1.99    7.62
  -1   0  -5    0.00    3.77
  -1   0  -5   -0.31    4.34
  -1   0  -5   -1.22    4.70
   2   0   5    4.44    6.23
  -2   0  -5   -1.13    1.86
  -2   0  -5   -1.19    8.19
  -2   0  -5    0.05    2.89
  -2   0  -5    0.52    5.71
  -2   0  -5    1.27    3.84
  -3   0  -5    0.62    7.09
  -3   0  -5   -0.16    4.56
  -3   0  -5    0.20    1.96
  -3   0  -5   -2.41    3.45
  -3   0  -5    1.31    2.23
   4   0   5    0.03    1.84
  -4   0  -5   -2.75    4.12
  -4   0  -5    2.89    5.85
  -4   0  -5    0.63    2.92
   5   0   5    0.03    2.20
  -5   0  -5    5.78    8.43
  -5   0  -5   -2.16    3.81
  -5   0  -5    3.73    5.54
   6   0   5    0.99    3.71
  -6   0  -5    2.77    6.17
  -6   0  -5    2.62    9.99
  -6   0  -5   -2.64    6.90
   7   0   5    0.28    3.55
  -7   0  -5    3.24    4.74
  -7   0  -5   -0.09    5.32
  -7   0  -5   -3.20    4.88
   8   0   5    2.18    2.65
   8   0   5    1.61    5.45
  -8   0  -5    6.21    7.31
  -8   0  -5   -8.82    7.09
   9   0   5   -0.61    4.21
   9   0   5    0.43    2.08
  -9   0  -5   -4.76    8.56
  -9   0  -5   -2.12    8.85
  10   0   5    1.09    2.89
  10   0   5    2.41    9.28
 -10   0  -5    6.98    6.67
 -10   0  -5   -4.42    6.54
  11   0   5   -3.44    5.41
  11   0   5    1.39    4.91
  11   0   5    2.68    2.97
 -11   0  -5    7.08    7.74
 -11   0  -5   -0.40    8.01
  12   0   5   -2.42    4.86
  12   0   5    2.80    2.91
  12   0   5    1.60    4.83
 -12   0  -5    2.41    3.48
 -12   0  -5   -5.06    9.81
  13   0   5    0.87    4.03
  13   0   5    3.10    4.57
 -13   0  -5   -1.15    2.43
 -13   0  -5   -8.24    7.33
 -14  -1   5   -1.78    9.49
 -14   1   5  -12.59    9.61
 -14   1   5   -6.06    7.52
  14   1  -5    0.50    3.67
  14  -1  -5   -3.38    4.97
 -13  -1   5   -0.60    5.04
 -13   1   5    6.06    5.23
 -13   1   5    0.96    4.40
 -13  -1   5    2.64    2.22
  13   1  -5    7.74   13.78
  13  -1  -5    4.30   15.47
 -12  -1   5   -0.02    1.50
 -12  -1   5    0.38    3.59
 -12   1   5   -0.51    3.34
 -12   1   5   -1.27    3.79
  12   1  -5    5.45    4.41
  12   1  -5    4.48    8.75
  12  -1  -5    4.81    9.46
 -11  -1   5   -1.26   11.14
 -11   1   5   21.30   12.26
 -11   1   5    0.76    7.47
  11   1  -5   26.11   10.43
  11  -1  -5    4.12    4.85
  11  -1  -5   -1.16   11.13
  11   1  -5   10.98   10.41
 -10  -1   5   -0.46    6.53
 -10   1   5    6.83    6.09
 -10   1   5   -0.52    6.57
  10   1  -5   -2.38    8.99
  10  -1  -5   17.87    9.10
  10  -1  -5    1.42    9.29
  10   1  -5    0.26    6.86
  -9   1   5   -2.56    2.12
  -9  -1   5    0.54    4.26
  -9   1   5    4.34    3.89
  -9   1   5    5.89    4.46
   9   1  -5   -0.66    5.03
   9   1  -5   -0.23    5.63
   9  -1  -5   -0.31    5.28
   9  -1  -5    2.73    5.80
  -8  -1   5   -0.05    6.42
  -8   1   5    3.32    3.52
  -8   1   5    2.25    5.81
   8   1  -5    0.08    7.03
   8   1  -5   -1.78    7.73
   8  -1  -5    1.39    7.63
   8  -1  -5   -2.73    7.24
   8  -1  -5   -6.21    7.36
  -7  -1   5    0.47    9.76
  -7   1   5   21.87    6.38
   7   1  -5    0.84   12.24
   7   1  -5   17.83   11.93
   7  -1  -5   23.64   12.03
   7  -1  -5   -0.55   22.74
   7  -1  -5   13.78   11.18
   7  -1  -5   13.42   11.00
  -6   1   5   54.96   17.70
   6  -1  -5    0.07   17.49
   6   1  -5   42.40   14.49
   6   1  -5    1.57   36.53
   6   1  -5   40.46   15.57
   6  -1  -5   44.34   27.19
   6  -1  -5   59.71   14.50
   6  -1  -5   28.70   13.49
  -5   1   5   -1.53    3.99
   5   1  -5   -8.83    9.00
   5   1  -5   -3.59    6.18
   5  -1  -5    0.54    7.89
   5  -1  -5    0.02    9.18
   5  -1  -5    0.39    5.03
   5  -1  -5   -4.91    8.05
   5   1  -5   -0.40    5.64
  -4   1   5   26.19    9.26
   4  -1  -5   -0.07   10.56
   4   1  -5   27.27   17.41
   4   1  -5   38.13   17.02
   4   1  -5   26.87   11.19
   4  -1  -5   42.83   15.40
   4  -1  -5   -1.62   16.07
   4  -1  -5   32.62    8.52
   3  -1  -5   -0.55   13.80
   3   1  -5    5.44    8.87
   3   1  -5    5.60    5.55
   3  -1  -5   -0.31    8.97
   3  -1  -5    0.00    5.33
   3  -1  -5    4.83    5.94
   3  -1  -5    2.13    3.78
   3   1  -5    5.82    6.42
   2   1  -5   31.06    9.90
   2   1  -5   23.22   13.15
   2   1  -5   17.46    7.73
   2   1  -5   26.63   13.07
   2  -1  -5   30.43   11.34
   2  -1  -5   31.20   24.99
   2  -1  -5   27.65   10.70
   2  -1  -5   18.37    5.12
   2  -1  -5    0.00    8.49
  -1   1   5   -0.77    4.80
  -1   1   5    6.66    4.98
   1  -1  -5    0.34    8.27
   1   1  -5    1.55    2.29
   1   1  -5    0.75    4.62
   1   1  -5   -0.83    2.37
   1  -1  -5    0.47    4.61
   1  -1  -5    0.04    2.70
   1  -1  -5   -2.21    4.49
   1   1  -5    4.57    6.19
   0   1   5   35.10   11.36
   0   1   5   44.90   10.00
   0   1   5   26.04    5.08
   0  -1  -5   36.63   12.87
   0   1  -5   25.05    5.16
   0   1  -5   26.91    6.64
   0   1  -5   26.43    7.35
   0   1  -5   -0.13   10.64
   0   1  -5   25.74    5.34
   0  -1  -5   38.82   12.16
   0  -1  -5   36.46   20.90
   0  -1  -5   31.98    7.00
   0   1  -5   27.47    8.22
   1   1   5    3.82    3.46
  -1   1  -5    2.47    3.24
  -1   1  -5    2.19    2.52
  -1   1  -5    6.26    6.17
  -1   1  -5    0.19    3.35
  -1   1  -5    0.97    2.76
  -1  -1  -5   -2.74    4.40
  -1  -1  -5    0.84    5.32
  -1  -1  -5   -0.01    2.74
  -1  -1  -5    0.50    8.37
  -1   1  -5   -1.08    3.37
   2   1   5   -1.22    3.33
  -2   1  -5   29.80    6.75
  -2   1  -5   -0.54    9.44
  -2   1  -5   27.92    9.30
  -2  -1  -5   28.64    8.38
  -2  -1  -5   27.44   12.06
  -2  -1  -5    0.00    8.06
  -2  -1  -5   33.60   10.90
  -2   1  -5   20.87    7.02
  -3   1  -5   -2.12    5.15
  -3   1  -5   -0.55    4.17
  -3   1  -5    0.68    3.89
  -3   1  -5   -1.09    3.74
  -3  -1  -5    2.05    2.50
  -3  -1  -5   -3.38    4.64
  -3  -1  -5    1.67    3.51
  -3  -1  -5   -0.01    1.83
  -3  -1  -5    0.41    4.14
  -4   1  -5   14.93    7.72
  -4   1  -5   19.42    9.66
  -4   1  -5   -0.10    9.04
  -4   1  -5   13.41    4.70
  -4  -1  -5    0.02    3.98
  -4  -1  -5   19.73    9.88
  -4  -1  -5   17.94    8.42
  -4  -1  -5   33.55    9.17
  -4  -1  -5    7.04    4.25
   5   1   5   -0.03    2.80
  -5   1  -5   16.14    7.98
  -5   1  -5    3.44    9.80
  -5   1  -5   -0.26    8.84
  -5   1  -5   11.81    4.06
  -5  -1  -5    8.91   14.86
  -5  -1  -5    0.02    3.56
  -5  -1  -5   22.26   13.55
  -5  -1  -5    8.47    8.33
   6   1   5   -0.30    1.85
   6   1   5    0.38    3.33
  -6   1  -5    8.40    7.44
  -6   1  -5    1.28    6.57
  -6   1  -5   -0.02    2.76
  -6  -1  -5    6.62    6.35
  -6  -1  -5    0.00    4.18
  -6  -1  -5   -0.19   11.17
  -6   1  -5    0.73    6.31
   7   1   5    6.14    3.99
   7   1   5    1.90    7.38
  -7  -1  -5   15.74    9.94
  -7   1  -5   29.15   16.91
  -7   1  -5   -1.79   15.19
  -7   1  -5   27.32    6.05
  -7  -1  -5   31.17   23.31
  -7  -1  -5   35.77   14.53
  -7  -1  -5   29.98   20.26
  -7   1  -5   25.81   15.33
   8  -1   5   -1.28    4.52
   8   1   5    2.32    4.93
   8   1   5    0.52    3.04
   8   1   5    0.24    2.58
  -8   1  -5    0.34    2.38
  -8  -1  -5    0.48    4.07
  -8  -1  -5    7.54    8.45
  -8   1  -5   -1.35    7.25
   9  -1   5    0.13    7.05
   9   1   5    2.11    7.26
   9   1   5    3.46    4.11
   9   1   5    4.30    4.67
  -9  -1  -5   -3.37    9.64
  -9   1  -5    4.12    7.02
  -9   1  -5    2.18   11.44
  -9  -1  -5   -1.23    8.86
  10  -1   5   -0.47    6.68
  10   1   5    0.23    6.64
  10   1   5   -2.22    4.01
  10   1   5   -4.90    4.78
 -10   1  -5    2.16    2.68
 -10   1  -5   -7.76    6.71
 -10   1  -5    1.61    6.18
 -10  -1  -5   -0.20    8.00
 -10  -1  -5    0.11    8.27
  11   1   5    7.43    6.61
  11  -1   5    0.22    7.30
  11   1   5   10.61    4.44
  11   1   5    0.66    5.21
  11  -1   5    0.37    2.87
 -11   1  -5   18.57   10.26
 -11   1  -5    5.96    9.19
 -11  -1  -5   -0.51    6.79
 -11  -1  -5   18.52   13.42
  12  -1   5    0.62    8.25
  12   1   5    0.79    4.45
  12   1   5   -4.05    5.60
  12   1   5   -2.54    6.85
 -12   1  -5    1.07    4.93
 -12   1  -5    4.62    4.12
 -12  -1  -5   -0.88    2.79
 -12  -1  -5   -1.95    3.80
  13  -1   5    8.33    5.22
  13  -1   5   12.00    6.53
  13   1   5   11.88    8.39
  13   1   5   -2.31    4.29
  13   1   5   14.24    5.63
 -13   1  -5    5.33    5.43
 -13  -1  -5   -1.87    2.23
 -13  -1  -5   10.24    4.14
 -13  -2   5   -0.02    2.51
 -13  -2   5    3.97    3.37
 -13   2   5    8.80    5.49
 -13   2   5    2.13    2.23
  13   2  -5    4.28    6.05
  13  -2  -5   13.13    8.68
 -12  -2   5   -0.73    3.09
 -12  -2   5   -1.00    3.21
 -12   2   5   13.43    8.99
 -12   2   5    1.50    2.52
  12   2  -5   -4.09    6.15
  12  -2  -5   -1.32    7.94
 -11  -2   5    8.19    5.42
 -11   2   5   -0.01    8.40
 -11   2   5   19.96    9.31
 -11   2   5   -0.34    9.65
  11   2  -5    0.07    6.04
  11   2  -5   13.53    7.58
  11  -2  -5    1.47    9.17
 -10  -2   5    7.90    4.92
 -10   2   5    0.35    5.50
 -10   2   5   18.64    8.65
 -10   2   5   -2.41    5.88
  10   2  -5   22.86   10.10
  10  -2  -5   12.75    5.36
  10  -2  -5    0.90   11.46
  10   2  -5   -0.28    8.42
  -9  -2   5   55.39   16.75
  -9   2   5    0.55   22.18
  -9   2   5   61.22   18.13
  -9   2   5   52.92   13.29
   9   2  -5   49.91   24.08
   9  -2  -5   45.44   11.72
   9  -2  -5   -0.69   25.36
   9   2  -5    0.45   12.81
  -8  -2   5    0.08    6.57
  -8   2   5   -1.82    7.80
  -8   2   5   35.68    7.85
   8   2  -5    0.35   23.02
   8   2  -5   -0.02   21.68
   8  -2  -5   25.87   10.49
   8  -2  -5    2.01   20.47
   8  -2  -5   29.40   16.93
   8  -2  -5   22.99   21.60
  -7  -2   5    0.06    2.93
  -7   2   5   -0.84    3.96
   7   2  -5   -1.08    6.01
   7   2  -5    2.84    9.11
   7  -2  -5   -2.93    4.56
   7  -2  -5    0.03    5.45
   7  -2  -5    4.68    7.02
   7  -2  -5    8.22    8.38
  -6  -2   5   34.44    8.87
  -6   2   5   43.72   21.27
   6   2  -5   21.90   13.43
   6   2  -5   34.53   19.96
   6  -2  -5   31.28   10.59
   6  -2  -5    1.71   13.83
   6  -2  -5   42.01   15.27
   6  -2  -5   -2.50   10.11
  -5  -2   5   -0.13    4.11
  -5   2   5   18.46    6.99
   5   2  -5   13.40   10.09
   5   2  -5   12.15   15.09
   5  -2  -5   19.11   10.11
   5  -2  -5    0.75   11.71
   5  -2  -5   18.95   11.33
   5  -2  -5   -0.33    6.88
  -4   2   5   27.96   12.11
   4   2  -5   15.82    6.09
   4   2  -5   23.70   11.06
   4   2  -5   24.92    9.66
   4  -2  -5   31.95   12.24
   4  -2  -5   26.04   12.81
   4  -2  -5   -2.21    6.67
  -3   2   5    0.99    5.17
   3   2  -5    1.06    2.16
   3   2  -5    3.27    4.19
   3   2  -5   -6.33    3.64
   3  -2  -5   -0.57    4.91
   3  -2  -5    3.24    9.14
   3  -2  -5   -2.26    5.00
   3  -2  -5    0.34    3.52
  -2   2   5    1.38    5.52
   2   2  -5   27.69    5.99
   2   2  -5   12.39    9.04
   2   2  -5    0.17   10.57
   2   2  -5   28.31    9.53
   2  -2  -5   42.75   11.93
   2  -2  -5   61.29   15.04
   2  -2  -5   37.09   19.43
   1   2  -5    0.32    3.19
   1   2  -5    0.09    3.01
   1  -2  -5   -0.85    4.41
   1  -2  -5    7.08    5.41
   1  -2  -5    1.81    4.21
   1  -2  -5    0.97    5.32
   1   2  -5   -1.03    2.42
   0   2   5   47.50   11.90
   0   2  -5   44.31    9.49
   0   2  -5   36.41    8.89
   0   2  -5   43.95    9.27
   0  -2  -5   54.93   15.19
   0  -2  -5   56.48   17.11
   0  -2  -5   67.79   13.67
   0  -2  -5   64.35   17.56
   1   2   5   14.15    9.17
  -1   2  -5   14.81   10.46
  -1   2  -5    7.63    7.01
  -1   2  -5    9.17    4.45
  -1  -2  -5   18.92    8.87
  -1  -2  -5   15.18   12.91
  -1  -2  -5   17.71   10.24
  -1  -2  -5   17.14   13.91
  -1   2  -5   -0.03    6.62
   2   2   5  296.32   27.84
  -2   2  -5  262.78   33.62
  -2   2  -5  308.91   32.47
  -2   2  -5  225.55   25.24
  -2   2  -5  224.59   26.34
  -2  -2  -5  339.52   35.97
  -2  -2  -5  329.26   28.10
  -2  -2  -5  309.52   61.92
  -2  -2  -5  373.80   36.57
   3   2   5   44.59   11.30
   3   2   5   52.11   12.04
  -3   2  -5   61.71   17.42
  -3   2  -5   59.30   15.16
  -3   2  -5   43.42   11.98
  -3  -2  -5   63.83   14.02
  -3  -2  -5   61.60   17.32
  -3  -2  -5   59.17   11.46
  -3  -2  -5   72.50   16.58
   4   2   5    7.82    4.56
   4   2   5   19.12    8.05
  -4   2  -5   20.56    9.76
  -4   2  -5   12.01    8.00
  -4  -2  -5   11.66    6.92
  -4  -2  -5   14.65    9.79
  -4  -2  -5    0.27    6.61
  -4  -2  -5   27.88   10.00
  -4   2  -5   16.93   19.42
   5   2   5    2.94    3.84
   5   2   5    5.36    6.50
  -5   2  -5    5.91   11.13
  -5   2  -5    3.13   12.19
  -5   2  -5   -0.24    9.01
  -5  -2  -5    2.17    3.42
  -5  -2  -5   -3.10    5.69
  -5  -2  -5    0.65    4.01
  -5  -2  -5    5.11    6.15
   6   2   5    2.94    3.69
   6   2   5   -1.24    6.14
  -6   2  -5    0.27    6.54
  -6   2  -5   -0.68    6.91
  -6   2  -5   -1.20    8.90
  -6  -2  -5    0.53    3.59
  -6  -2  -5    2.56    4.78
  -6  -2  -5   -0.50    9.47
   7   2   5   -3.65    4.23
   7   2   5    0.92    6.66
  -7   2  -5   -5.10    7.45
  -7   2  -5   -1.24    9.16
  -7   2  -5   -4.37    7.59
  -7  -2  -5   -0.80    6.46
  -7  -2  -5    0.56    4.80
  -7  -2  -5    5.84   10.06
   8   2   5    2.82    3.69
   8   2   5   -4.15    5.67
   8   2   5   -4.41    4.58
  -8   2  -5   -3.79    7.49
  -8   2  -5    4.87    7.44
  -8   2  -5   -1.66   10.52
  -8  -2  -5    0.03    4.20
  -8  -2  -5   -3.70    5.93
  -8  -2  -5   -0.49    9.76
   9  -2   5    0.18    7.00
   9   2   5   -6.17    4.79
   9   2   5    1.46    6.66
   9   2   5   -1.95    6.40
  -9   2  -5  -15.27    8.94
  -9   2  -5  -10.29   13.18
  -9  -2  -5    0.14    4.67
  -9  -2  -5    2.13    7.06
  -9  -2  -5   -0.19   12.01
  10  -2   5    0.78    7.63
  10   2   5    4.89    5.29
  10   2   5    1.68    6.87
  10   2   5    4.84    4.42
 -10   2  -5   -0.94    5.52
 -10  -2  -5    0.00    2.73
 -10  -2  -5    0.78    4.74
 -10   2  -5   -6.10   10.25
  11  -2   5   -0.95    7.02
  11   2   5    5.34    5.06
  11   2   5    2.87   10.62
  11   2   5    3.81    4.34
 -11   2  -5   -1.07    7.08
 -11   2  -5   -3.72    6.37
 -11  -2  -5    2.90    3.21
 -11  -2  -5    1.92    3.60
 -11  -2  -5    4.45    6.24
  12  -2   5   -6.41    4.24
  12   2   5   -0.11    2.88
  12   2   5    5.01    3.34
  12   2   5    0.17    2.53
 -12   2  -5   -4.48    5.73
 -12   2  -5   -0.02    4.69
 -12  -2  -5    2.33    2.12
 -12  -2  -5   -1.58    5.00
  13  -2   5    0.09    2.68
  13  -2   5    1.25    3.56
  13   2   5    1.87    2.62
 -13  -2  -5    1.20    4.09
 -12  -3   5   -3.16    3.53
 -12   3   5   -1.13    3.24
 -12   3   5    2.88   10.14
  12   3  -5   -5.29    3.87
  12  -3  -5    7.39    5.62
 -11   3   5    1.10    5.79
 -11   3   5    1.71    4.74
 -11  -3   5   -1.42    3.19
  11   3  -5   -0.13    6.95
  11  -3  -5   -0.73    5.21
 -10  -3   5    0.28    4.88
 -10   3   5    1.30    5.40
 -10   3   5    4.57    6.92
  10   3  -5   -2.66    5.91
  10  -3  -5    0.42   11.67
  -9   3   5   28.74   11.22
  -9   3   5    0.94   13.09
   9   3  -5    6.09    6.74
   9  -3  -5   -0.25   12.24
   9   3  -5   -0.02    6.72
  -8   3   5    0.51    1.99
  -8   3   5   -5.00    6.75
   8   3  -5    3.27    5.19
   8   3  -5   -4.57    5.42
   8  -3  -5    1.63    6.44
   8  -3  -5   -9.33    8.29
   8  -3  -5    1.29    5.27
  -7   3   5    0.77    3.14
  -7   3   5    3.64    6.09
   7   3  -5    0.26    5.98
   7  -3  -5    2.84    3.03
   7  -3  -5   -2.99    5.53
   7  -3  -5   -3.69    8.84
   7  -3  -5   -1.20    5.29
   7   3  -5    4.83    5.73
  -6   3   5    5.72    8.70
   6   3  -5    7.04    6.68
   6   3  -5   13.70    6.98
   6  -3  -5    0.56    3.95
   6  -3  -5    0.27    7.62
   6  -3  -5   -0.91   17.31
   6  -3  -5   -1.46    5.30
  -5   3   5   -0.58    5.41
   5   3  -5    3.61    3.13
   5   3  -5    5.51    6.25
   5   3  -5    2.32    6.71
   5  -3  -5   -1.03   10.31
   5  -3  -5    1.61    6.74
   5  -3  -5   -0.41   14.05
   5  -3  -5   -0.12    4.38
  -4   3   5   20.80   20.81
   4   3  -5   14.09    7.76
   4   3  -5   10.07   14.30
   4  -3  -5   15.27    7.40
   4  -3  -5   21.28   17.92
   4  -3  -5   20.78   13.18
   4  -3  -5   -1.44    4.90
   4   3  -5    9.62    7.89
  -3   3   5   -0.01    3.82
   3   3  -5    1.12    5.78
   3   3  -5    2.10    4.51
   3   3  -5    3.62    9.56
   3  -3  -5    1.54    5.14
   3  -3  -5    1.51    8.55
   3  -3  -5   -0.37    7.40
  -2   3   5    0.11    4.31
   2   3  -5   11.32    6.40
   2   3  -5    3.55    6.00
   2   3  -5   11.50    7.96
   2  -3  -5    8.36   12.82
   2  -3  -5   19.74   11.95
   2  -3  -5   18.32   18.65
  -1   3   5    0.85    5.29
   1   3  -5   -1.07    2.69
   1   3  -5    0.83    4.03
   1   3  -5   -1.67    4.17
   1  -3  -5    2.70    4.00
   1  -3  -5    4.41    6.65
   1  -3  -5    7.38    6.03
   0   3   5   15.03    4.64
   0   3   5   19.86    8.92
   0   3   5    0.69    9.90
   0   3  -5   -0.03    6.53
   0   3  -5   24.06    8.45
   0   3  -5    0.70    7.38
   0  -3  -5   23.22    7.97
   0  -3  -5   29.71   12.01
   0  -3  -5   25.49   11.47
   1   3   5   -1.07    4.46
   1   3   5   -0.79    3.38
  -1   3  -5    0.00    2.99
  -1   3  -5   -1.01    3.32
  -1   3  -5   -0.31    4.07
  -1  -3  -5    3.48    3.14
  -1  -3  -5   -5.14    7.52
  -1  -3  -5    1.93    4.18
  -1  -3  -5   -4.23    4.08
   2   3   5  170.23   18.31
   2   3   5  177.33   22.51
  -2   3  -5  182.43   43.86
  -2   3  -5  144.79   16.56
  -2  -3  -5  193.40   40.12
  -2  -3  -5  232.86   50.10
  -2  -3  -5  195.32   29.00
  -2  -3  -5  199.66   35.48
  -2   3  -5  158.24   27.09
   3   3   5   42.66    9.03
   3   3   5   48.06   13.38
  -3   3  -5   52.33   16.96
  -3   3  -5   49.32   17.12
  -3   3  -5   31.24    7.28
  -3  -3  -5   48.33   21.92
  -3  -3  -5   65.51   13.69
  -3  -3  -5   63.99   15.20
  -3  -3  -5   55.82   13.03
   4   3   5    0.66    3.21
   4   3   5    0.84    4.79
  -4   3  -5   -2.60    7.54
  -4   3  -5    4.86    3.61
  -4  -3  -5    3.00    8.23
  -4  -3  -5    4.06    5.70
  -4  -3  -5    0.07    5.89
  -4  -3  -5    1.26    5.57
  -4   3  -5   -1.47    7.88
   5   3   5    5.86   14.35
   5   3   5   41.40   13.00
  -5   3  -5   28.97   17.46
  -5   3  -5   38.79   16.47
  -5   3  -5   23.84   14.29
  -5  -3  -5   30.84   14.45
  -5  -3  -5   25.43   11.48
  -5  -3  -5    3.21   10.88
  -5  -3  -5   54.24   11.83
   6   3   5   21.37   13.22
   6   3   5   15.50   11.72
  -6   3  -5   18.02   21.27
  -6   3  -5   18.46   20.11
  -6   3  -5   12.42   11.45
  -6  -3  -5   11.81    9.62
  -6  -3  -5    0.84    6.46
  -6  -3  -5    6.09    7.41
  -6  -3  -5   13.05    8.23
   7   3   5   10.69    6.52
   7   3   5   -0.41    9.35
  -7   3  -5   19.96   11.19
  -7   3  -5   11.37   11.58
  -7  -3  -5    7.76    6.66
  -7  -3  -5    0.03    4.97
  -7  -3  -5    0.26    7.61
  -7   3  -5   35.26   18.57
   8   3   5    5.10    5.51
   8   3   5    0.17    7.68
  -8   3  -5    8.26    9.65
  -8   3  -5  -14.35    9.48
  -8   3  -5   12.15   10.50
  -8  -3  -5    5.68    5.37
  -8  -3  -5    0.07    6.47
   9   3   5   20.03    9.07
   9   3   5   15.25   11.73
  -9   3  -5   37.67   13.21
  -9   3  -5   13.52   15.99
  -9  -3  -5    8.11    7.54
  -9  -3  -5   -0.05    9.57
  -9   3  -5   20.16   14.18
  10  -3   5   -0.80    6.53
  10   3   5    3.45    4.78
  10   3   5    2.38    5.98
 -10   3  -5   -2.90    7.74
 -10   3  -5    8.98    6.02
 -10  -3  -5    0.02    4.28
  11  -3   5   -2.43    6.10
  11   3   5    5.11    7.80
  11   3   5    5.81    5.43
 -11   3  -5   -3.96    5.25
 -11   3  -5   -2.52    9.12
 -11  -3  -5    4.66    3.34
 -11  -3  -5    0.11    4.88
  12  -3   5    5.84    4.16
  12   3   5    6.58    5.58
  12   3   5   -2.38    3.03
 -12   3  -5   -2.75    2.97
 -12  -3  -5   -0.51    1.55
 -12   3  -5    3.55    3.46
 -11  -4   5    4.47    7.99
 -11   4   5    0.61    5.16
 -11   4   5   11.96    6.22
  11   4  -5   -0.74    2.80
  11  -4  -5   -1.24    3.80
 -10  -4   5    8.08    5.55
 -10   4   5   -1.28    7.53
 -10   4   5    1.82   11.40
  10   4  -5    0.25    4.88
  10  -4  -5    5.75    5.38
  -9  -4   5    7.11    8.93
  -9   4   5   26.37   12.19
  -9   4   5   26.52   11.32
   9   4  -5   14.02    8.21
   9  -4  -5   -0.58   13.44
  -8   4   5    3.44    9.25
  -8  -4   5    9.06    7.05
   8   4  -5    5.00    6.98
   8  -4  -5   -0.01    6.04
   8  -4  -5   15.32   11.27
  -7  -4   5    4.57    6.28
  -7   4   5    5.79   15.25
   7   4  -5    0.51    5.96
   7   4  -5    9.36    7.61
   7  -4  -5    6.11    5.28
   7  -4  -5   15.61   11.68
   7  -4  -5   -0.02    5.70
  -6  -4   5   13.12    7.23
  -6   4   5   -0.14    9.63
   6   4  -5    0.90    9.62
   6   4  -5   27.45   10.40
   6  -4  -5   27.27    9.55
   6  -4  -5   29.78   15.67
   6  -4  -5   -0.09    6.77
  -5   4   5   -0.03    7.86
  -5  -4   5    5.98    5.35
   5   4  -5    0.54    5.32
   5   4  -5   -0.78    5.14
   5  -4  -5   -8.47    9.58
   5  -4  -5   -0.06    2.74
   5  -4  -5    0.25   13.74
  -4  -4   5    7.41    5.12
  -4   4   5   -0.07    8.27
   4   4  -5   -0.54    6.37
   4  -4  -5    3.25   10.14
   4  -4  -5   11.20   11.81
   4   4  -5    0.70    8.05
  -3  -4   5    1.21    2.97
  -3   4   5    0.17    5.46
   3   4  -5    0.15   10.99
   3   4  -5    1.39    8.07
   3  -4  -5   10.59   12.60
   3  -4  -5   12.87    9.83
  -2  -4   5   15.93    5.64
  -2   4   5   55.26   10.25
  -2   4   5   -0.08   20.27
   2   4  -5   53.31   15.92
   2   4  -5   56.96   17.62
   2  -4  -5   75.56   22.52
   2  -4  -5   75.49   27.22
  -1   4   5    5.01    3.84
  -1   4   5   -0.68    6.40
   1   4  -5    4.33    7.96
   1   4  -5    8.55   12.70
   1  -4  -5    9.02   10.84
   1  -4  -5    9.78   18.52
   0   4   5    7.36    4.88
   0   4   5    8.30    4.91
   0   4   5    0.24    7.12
   0   4  -5   -0.04    5.63
   0   4  -5    5.60    8.23
   0   4  -5   11.14    6.88
   0  -4  -5    9.75   10.15
   0  -4  -5   12.02   10.54
   1   4   5   -3.55    3.99
   1   4   5    0.29    3.79
   1   4   5   -0.67    4.52
  -1   4  -5   -0.04    6.03
  -1   4  -5   -2.07    4.39
  -1  -4  -5    0.06   12.22
  -1  -4  -5   -3.63    7.28
  -1   4  -5   -0.10    4.80
   2   4   5    1.43    8.44
   2   4   5   26.47   12.51
   2   4   5   21.89    7.44
  -2   4  -5   15.33    9.60
  -2   4  -5   23.98   19.04
  -2   4  -5   12.09    6.79
  -2  -4  -5    8.03    4.89
  -2  -4  -5   -2.19   20.43
  -2  -4  -5   23.45   12.41
   3  -4   5   10.69    5.81
   3   4   5    0.14   12.50
   3   4   5   14.14    9.53
   3   4   5    4.70    5.34
  -3   4  -5    5.76   11.26
  -3  -4  -5   12.26    5.46
  -3  -4  -5   -0.84   15.26
  -3  -4  -5    4.99   11.62
  -3   4  -5   12.23   10.23
   4  -4   5   -3.31    2.11
   4   4   5   -0.11    6.23
   4   4   5   -0.18    2.73
   4   4   5    3.28    2.03
  -4   4  -5   -7.42    6.13
  -4   4  -5    1.41    6.31
  -4  -4  -5    5.53   10.33
  -4  -4  -5    2.00    3.07
  -4  -4  -5   -0.29    7.55
   5   4   5   17.83    7.88
   5   4   5    0.02   17.45
  -5   4  -5    8.35   11.29
  -5   4  -5    1.94   11.57
  -5  -4  -5   15.35    9.46
  -5  -4  -5   -1.18   13.91
  -5  -4  -5    7.07   14.30
   6   4   5   12.66    7.23
   6   4   5    0.05   15.93
  -6   4  -5   -7.99   20.41
  -6   4  -5   10.50   20.46
  -6  -4  -5    5.02   11.76
  -6  -4  -5   11.90    8.37
   7   4   5    6.91    6.19
   7   4   5   -0.02   13.75
  -7   4  -5    6.86   11.47
  -7   4  -5    7.12   18.57
  -7  -4  -5    6.52    5.06
  -7  -4  -5    4.96    7.57
  -7  -4  -5    8.70    8.47
   8   4   5   -0.08    9.53
   8   4   5    1.74    4.45
  -8   4  -5    9.31    7.70
  -8   4  -5    2.08    2.67
  -8  -4  -5   -0.91    5.12
  -8  -4  -5   -2.04    5.89
  -8   4  -5    1.43    7.87
   9   4   5   -3.76    5.48
   9   4   5   -1.10    4.50
  -9   4  -5    9.02    7.95
  -9   4  -5   12.95    7.60
  -9   4  -5    0.44    2.98
  -9  -4  -5    2.81    5.08
  -9  -4  -5   -0.35    5.82
  10  -4   5   -2.10    3.68
  10   4   5    0.24    3.16
  10   4   5    0.33    2.71
 -10   4  -5    4.65    6.87
 -10  -4  -5    3.37    8.04
  -8  -5   5    1.73    3.70
  -8   5   5    0.97    5.21
  -8   5   5   11.22    8.83
   8   5  -5    0.44    3.07
  -7  -5   5    0.23    2.81
  -7   5   5    0.68    4.11
   7   5  -5    2.60    2.79
   7   5  -5    0.32    5.08
   7  -5  -5    4.34    7.64
   7  -5  -5    2.06    3.54
  -6  -5   5   -3.52    5.17
  -6   5   5    1.31    4.74
   6   5  -5    6.94    4.40
   6   5  -5    5.34    6.54
   6  -5  -5    3.06    3.53
   6  -5  -5   -0.67    9.47
  -5  -5   5    0.76    4.79
  -5   5   5    1.36    2.25
  -5   5   5    0.12    4.92
   5   5  -5   -2.46    4.81
   5   5  -5   -6.13    3.59
   5  -5  -5    7.72    3.85
   5  -5  -5   -2.93    6.71
  -4  -5   5   -1.89    4.02
  -4   5   5   -0.24    4.77
  -4   5   5   -0.01    8.39
   4   5  -5    8.72    6.59
   4   5  -5   -0.18    8.13
   4  -5  -5   20.35   13.82
   4  -5  -5   -8.81   19.94
  -3   5   5   -2.38    3.00
  -3   5   5    0.13    7.73
   3   5  -5   -2.28    6.49
   3   5  -5   -0.71    7.29
   3  -5  -5  -10.86   12.44
   3  -5  -5  -10.73   10.52
  -2   5   5   -3.16    3.55
  -2   5   5   -1.41    4.55
   2   5  -5    3.21    3.65
   2   5  -5    0.15    3.73
   2  -5  -5   -2.16    4.38
   2  -5  -5   -4.05    5.53
  -1   5   5   -0.89    3.34
  -1   5   5   -0.97    2.37
  -1   5   5   -2.78    3.62
   1   5  -5    0.39    4.30
   1   5  -5   -2.44    4.05
   1  -5  -5    3.13    5.14
   1  -5  -5    1.16    6.13
   0   5   5   23.39   11.21
   0   5   5    1.16    6.25
   0   5   5   26.15    5.95
   0   5  -5   10.85    9.66
   0   5  -5    1.41    8.25
   0   5  -5    5.19    5.44
   0  -5  -5   24.94   11.29
   0  -5  -5   55.20   22.47
   1  -5   5    4.62    5.93
   1   5   5    2.84    4.39
   1   5   5    0.09    7.47
   1   5   5    1.91    2.88
  -1   5  -5  -13.91    9.64
  -1   5  -5    0.98    3.74
  -1  -5  -5   -0.74    6.06
  -1  -5  -5   17.81   10.49
   2  -5   5    0.46    5.01
   2   5   5   -0.11    7.65
   2   5   5    3.32    4.33
  -2   5  -5   -2.74    6.63
  -2   5  -5   -7.57    8.81
  -2  -5  -5   -0.87    9.04
  -2  -5  -5   -8.21    9.05
   3  -5   5   -0.45    4.51
   3   5   5    0.02    5.17
   3   5   5    6.41    4.34
  -3   5  -5   -1.94    7.17
  -3   5  -5   10.93    8.64
  -3  -5  -5   -0.29    8.39
  -3  -5  -5    9.90    8.58
   4  -5   5    4.68    3.70
   4   5   5   -0.12    5.82
   4   5   5    2.31    4.77
  -4   5  -5    4.92    8.76
  -4   5  -5    1.59    9.54
  -4  -5  -5    2.74    8.47
  -4  -5  -5   15.64    9.38
   5   5   5    2.40    5.37
   5   5   5    1.67    4.31
  -5   5  -5  -15.27   14.03
  -5   5  -5    9.60   14.84
  -5  -5  -5   -2.54    6.60
  -5  -5  -5   -5.72    7.96
   6   5   5    3.02    5.83
   6   5   5    3.12    4.50
  -6   5  -5   -8.77    5.79
  -6   5  -5   -0.22    8.87
  -6  -5  -5    1.52    3.47
  -6  -5  -5    5.48    5.08
   7   5   5    5.55    5.46
   7   5   5    2.26    4.23
  -7   5  -5    5.32    6.77
  -7   5  -5   -1.43    6.52
  -7  -5  -5    1.33    2.77
  -7  -5  -5    6.70    6.05
  -2  -6   5    5.99    6.26
   2   6  -5   15.87   12.33
   2  -6  -5    9.66   11.27
   2  -6  -5   12.27    7.87
  -1  -6   5    2.82    5.19
   1   6  -5   -2.15    5.26
   1  -6  -5   -5.30   10.05
   0  -6   5   -0.50    3.57
   0   6  -5    8.39    5.82
   0  -6  -5    1.43    9.90
   0  -6  -5   -1.13    6.22
   1  -6   5    2.79    4.29
  -1   6  -5   -0.80    4.72
  -1  -6  -5   -6.40    4.72
  -1  -6  -5   11.60    4.92
 -13   0   6   -3.42    4.85
  13   0  -6    7.31   14.20
 -12   0   6    4.54    6.00
  12   0  -6    0.01    2.00
  12   0  -6    1.11    4.91
 -11   0   6   -0.88   12.06
 -11   0   6    3.28    2.60
  11   0  -6   -1.35    4.77
  11   0  -6   -2.14    7.16
 -10   0   6   -0.75    5.78
  10   0  -6   -0.14    4.69
  10   0  -6    1.27    5.82
  -9   0   6    0.97    6.18
   9   0  -6    2.38    6.55
   9   0  -6   -0.41    6.05
  -8   0   6    0.16    5.06
   8   0  -6    0.34   44.37
   8   0  -6   64.94   19.11
   7   0  -6    3.35    8.58
   7   0  -6   -1.45   11.02
   7   0  -6   -6.92    7.02
   6   0  -6   -1.42   25.86
   6   0  -6   45.68   15.04
   6   0  -6   70.98   19.83
   5   0  -6    3.60   13.68
   5   0  -6   12.69   10.82
   5   0  -6    0.09    5.59
  -4   0   6    0.09    1.92
   4   0  -6    6.90    9.84
   4   0  -6   13.20   11.16
   4   0  -6    1.05    5.01
  -3   0   6    2.38    3.56
   3   0  -6    8.55    7.81
   3   0  -6    2.06   14.82
   3   0  -6    0.40    3.45
   2   0  -6   79.95   21.18
   2   0  -6   69.21   34.23
   2   0  -6   54.94   12.40
   1   0  -6   12.06   15.79
   1   0  -6    8.79    7.11
   1   0  -6   15.23   16.52
   0   0  -6   29.12   11.17
   0   0  -6   20.58   17.23
   0   0  -6    0.76   15.91
  -1   0  -6  102.15   17.61
  -1   0  -6   75.20   22.02
  -1   0  -6   86.58   16.86
  -1   0  -6   48.60    9.02
  -2   0  -6   19.47    6.93
  -2   0  -6    5.46    7.34
  -2   0  -6   -0.41    7.62
  -2   0  -6   -0.01    4.73
  -3   0  -6  146.13   34.00
  -3   0  -6  123.89   23.34
  -3   0  -6   88.81   17.20
  -4   0  -6   -0.31   11.35
  -4   0  -6   -2.35    5.35
  -4   0  -6   -1.15    8.28
  -5   0  -6    0.83   26.92
  -5   0  -6   31.30   13.98
  -5   0  -6   43.61   11.48
   6   0   6    0.78    2.62
  -6   0  -6    4.78    5.53
  -6   0  -6   -0.02    7.36
   7   0   6   40.98    9.07
  -7   0  -6   44.73   19.01
  -7   0  -6   55.16   13.20
  -7   0  -6   47.19   34.51
   8   0   6   -3.15    7.43
  -8   0  -6    4.07   10.02
  -8   0  -6   16.44   18.17
   9   0   6    0.84    5.48
  -9   0  -6    9.93   12.90
  -9   0  -6    3.10    7.78
  -9   0  -6    1.38    4.51
  10   0   6    0.02    8.93
  10   0   6   11.16    5.37
 -10   0  -6    7.95    5.34
 -10   0  -6    6.01   15.94
  11   0   6   13.13    9.92
  11   0   6   17.77    6.58
 -11   0  -6   12.31    8.85
 -11   0  -6    8.32    4.44
  12   0   6   -0.89    4.47
  12   0   6   -1.99    3.00
 -12   0  -6   -0.65    3.81
 -13  -1   6    0.35    1.16
 -13  -1   6    2.11    2.74
 -13   1   6   -5.53    2.53
  13   1  -6   -1.80    6.14
  13  -1  -6   -9.87    7.24
 -12  -1   6    1.37    3.33
 -12   1   6   -0.39    2.69
 -12   1   6    0.58    3.37
  12   1  -6    2.76    2.58
  12   1  -6   -0.62    7.68
  12  -1  -6   -1.66    2.02
  12  -1  -6   -2.90    4.86
 -11  -1   6   -0.84    3.58
 -11   1   6    0.10    2.94
 -11   1   6   -0.29    4.35
  11   1  -6    0.49    4.67
  11   1  -6   -1.68   12.55
  11  -1  -6    0.73    7.17
  11  -1  -6    3.87    3.86
 -10  -1   6    0.05   13.47
 -10   1   6   39.24   10.34
 -10   1   6   60.00   14.63
  10   1  -6    0.02   19.05
  10   1  -6    3.48   13.06
  10  -1  -6   27.32    9.33
  10  -1  -6    1.78   20.57
  -9  -1   6   -0.91    3.99
  -9   1   6    0.01    3.01
  -9   1   6    0.74    4.52
   9  -1  -6   -0.52    6.02
   9   1  -6   -0.37    5.10
   9   1  -6    0.13    5.48
   9  -1  -6    0.25    8.29
  -8  -1   6   84.23   17.30
  -8   1   6   70.21   12.72
  -8   1   6    0.72   18.44
   8   1  -6   99.19   24.46
   8  -1  -6  100.12   29.78
   8  -1  -6   70.17   21.57
   8  -1  -6   95.62   26.44
   8   1  -6   83.44   24.91
  -7  -1   6   -0.11    5.31
  -7   1   6   -1.36    3.82
  -7   1   6    3.22    3.09
   7  -1  -6   -1.17   10.02
   7   1  -6   -0.69    8.35
   7   1  -6   -7.14    7.45
   7  -1  -6    1.31    8.44
   7  -1  -6   -2.76    6.32
  -6   1   6    8.68    9.17
   6   1  -6   10.21    8.22
   6   1  -6   13.97   16.57
   6   1  -6    2.33    8.17
   6  -1  -6   21.90    9.80
   6  -1  -6   -0.30   20.85
   6  -1  -6   -0.19    6.57
   6  -1  -6    0.13    6.55
  -5   1   6    3.15    4.62
   5   1  -6    4.07   11.67
   5   1  -6    2.59    4.30
   5   1  -6    0.19    4.06
   5  -1  -6   -0.07    3.33
   5  -1  -6   -1.89    3.01
   5  -1  -6   -2.93   10.75
   5  -1  -6    0.94   10.55
  -4   1   6   32.86   10.26
   4   1  -6   25.34   13.14
   4   1  -6    0.45   12.15
   4  -1  -6   20.71   12.94
   4  -1  -6    0.71    6.19
   4  -1  -6   -1.23    8.44
   4  -1  -6   31.00   12.94
   4   1  -6   25.06   13.63
  -3   1   6    1.00    4.45
   3   1  -6    0.23    5.96
   3   1  -6   10.92    7.84
   3   1  -6   -0.63    6.10
   3  -1  -6   -0.94    8.03
   3  -1  -6    2.37    8.15
   3  -1  -6   -0.45    6.59
   2   1  -6   12.09    7.85
   2   1  -6   -0.12    3.48
   2  -1  -6   22.44    8.84
   2  -1  -6    0.15    6.42
   2  -1  -6    0.24    4.12
   2  -1  -6   20.66   14.62
   2   1  -6    0.17    6.22
   1  -1  -6   14.82    8.64
   1   1  -6   -0.28    6.51
   1   1  -6   13.38    7.60
   1   1  -6    8.04    6.31
   1  -1  -6   13.02    9.40
   1  -1  -6   -1.08    7.95
   1  -1  -6    0.30    4.37
   0   1  -6   -3.21    3.22
   0   1  -6   -4.34    4.36
   0  -1  -6    6.45    5.99
   0  -1  -6    0.06    5.85
   0  -1  -6    3.59    6.01
   0   1  -6    0.11    7.23
   1   1   6    1.03    2.24
  -1   1  -6   -0.78    4.87
  -1   1  -6    0.09    6.84
  -1   1  -6    7.95    4.97
  -1  -1  -6    9.29    8.06
  -1  -1  -6    8.60    7.13
  -1  -1  -6   -0.51   13.45
   2   1   6    7.45    4.48
  -2   1  -6    0.16    4.13
  -2   1  -6   -0.01    7.90
  -2   1  -6    3.01    5.02
  -2  -1  -6    6.98    5.22
  -2  -1  -6   -1.17    7.17
  -2  -1  -6   13.36   12.54
   3   1   6   12.08    6.43
  -3   1  -6    0.26    4.10
  -3   1  -6   -0.11    6.00
  -3   1  -6    0.81    9.71
  -3  -1  -6    0.81    7.71
  -3  -1  -6   17.66   11.48
  -3  -1  -6    6.15    4.44
   4   1   6   -1.06    4.19
  -4   1  -6    0.09    2.93
  -4   1  -6    0.76    3.47
  -4   1  -6    0.05    5.28
  -4   1  -6    0.37    8.56
  -4  -1  -6    1.76    5.93
  -4  -1  -6    1.73    5.17
   5   1   6   -0.40    4.07
  -5   1  -6    0.05    2.71
  -5   1  -6    2.91    9.73
  -5   1  -6   -1.41    5.38
  -5  -1  -6    3.27    5.75
  -5  -1  -6    1.57    5.08
  -5   1  -6    0.11    4.00
   6  -1   6    0.10    2.92
   6   1   6    0.41    4.12
  -6   1  -6    0.10    4.57
  -6   1  -6    6.20   11.26
  -6   1  -6   -1.32    6.09
  -6  -1  -6   -0.69    6.34
  -6  -1  -6   -3.40    5.47
   7  -1   6    1.15    3.84
   7   1   6    0.13    5.26
  -7   1  -6   -1.56    7.56
  -7   1  -6    8.35   12.54
  -7  -1  -6   -5.00    6.42
  -7  -1  -6   -2.40    7.28
   8  -1   6   -6.22    5.63
   8   1   6    0.19    7.49
  -8   1  -6   -3.99    8.65
  -8   1  -6    9.17    8.56
  -8  -1  -6    5.01    7.82
  -8  -1  -6    3.30    6.89
   9   1   6   -0.11    6.82
   9  -1   6   -4.26    5.41
   9   1   6   -2.54    2.93
  -9   1  -6   13.99    6.79
  -9   1  -6   -1.21    6.61
  -9  -1  -6   -2.55    5.73
  -9  -1  -6   -8.85    5.25
  10  -1   6    0.06    5.04
  10   1   6    5.64    4.61
  10   1   6   -2.09    6.07
 -10   1  -6   -7.91    4.86
 -10   1  -6    1.48    4.54
 -10  -1  -6   -5.81    3.72
 -10  -1  -6    8.70    3.62
  11  -1   6    2.62    6.48
  11   1   6    0.25    4.87
 -11   1  -6   -6.92    4.88
 -11  -1  -6   -1.96    3.63
 -11  -1  -6    7.01    3.75
 -11   1  -6    2.00    8.81
  12  -1   6   -3.61    4.50
  12  -1   6   -2.68    3.62
  12   1   6    2.64    7.65
 -12   1  -6    3.60    5.04
 -12  -1  -6   -4.54    5.01
 -12  -1  -6   -3.17    3.46
 -12  -2   6    0.15    3.13
 -12  -2   6    2.75    4.14
 -12   2   6    3.85    3.93
 -12   2   6    0.76    2.24
  12   2  -6    2.76    5.05
  12  -2  -6   -0.44   10.16
 -11  -2   6   -0.75    2.81
 -11   2   6    8.19    8.25
 -11   2   6    4.94    5.31
  11   2  -6    6.04    5.94
  11   2  -6    1.33    7.41
  11  -2  -6    5.22    2.18
  11  -2  -6    4.44   13.07
 -10  -2   6    5.28    3.74
 -10   2   6    0.30    3.77
 -10   2   6   10.52    6.42
 -10   2   6   -0.69    5.29
  10   2  -6   -0.33    6.26
  10   2  -6    8.36    7.19
  10  -2  -6    6.85    7.51
  10  -2  -6   -0.73    7.11
  -9  -2   6    0.89    4.32
  -9   2   6    0.14    3.24
  -9   2   6   -1.40    4.38
  -9   2   6   -1.14    3.90
   9   2  -6    0.05    6.59
   9   2  -6    0.61    7.00
   9  -2  -6   11.57    7.07
   9  -2  -6   -0.66    6.68
  -8  -2   6    3.67    3.66
  -8   2   6    0.18    5.44
  -8   2   6   -0.69    5.36
  -8   2   6    0.31    4.27
   8   2  -6   -0.26    8.98
   8   2  -6   -1.69    5.44
   8  -2  -6   -0.25    6.31
   8  -2  -6   -0.05    4.72
  -7  -2   6   -5.53    4.34
  -7   2   6   -0.02    5.67
   7   2  -6   14.73   12.97
   7   2  -6    1.47    6.40
   7  -2  -6    0.35    6.28
   7  -2  -6    0.66   14.52
   7  -2  -6    4.22    7.73
   7  -2  -6    0.03    5.15
  -6  -2   6    0.05    4.44
  -6   2   6   16.38    6.92
   6   2  -6   29.83   10.62
   6   2  -6    6.73    8.59
   6  -2  -6    9.00    9.25
   6  -2  -6    2.00   11.89
   6  -2  -6   12.73   10.50
   6  -2  -6    0.21    6.30
  -5  -2   6   -0.09    2.19
  -5   2   6    1.42    6.35
   5   2  -6    5.39    6.16
   5   2  -6   -3.21    4.99
   5  -2  -6    4.16   11.74
   5  -2  -6   -0.75    7.82
   5  -2  -6    1.96   10.12
   5  -2  -6    1.19    3.18
  -4   2   6   35.51   13.57
   4   2  -6   22.82    9.60
   4   2  -6   17.52    7.59
   4  -2  -6   25.30   12.16
   4  -2  -6    0.54   13.73
   4  -2  -6   -0.33   10.29
   4   2  -6    0.95    5.38
  -3   2   6    0.14    4.36
   3   2  -6   -0.24    3.28
   3   2  -6    7.95    5.94
   3   2  -6    0.37    4.75
   3  -2  -6   10.85    8.32
   3  -2  -6    9.85    9.61
   3  -2  -6   -0.38    6.69
  -2   2   6   -0.74    5.40
   2   2  -6    4.20    4.57
   2   2  -6   -0.60    6.12
   2  -2  -6   -0.43   12.18
   2  -2  -6   -4.80   14.52
   2  -2  -6   -0.07    5.59
   1   2  -6    0.33    2.77
   1   2  -6    0.31    2.33
   1  -2  -6   -0.71    4.73
   1  -2  -6   -0.01    5.27
   1  -2  -6   -0.35    6.53
   0   2  -6    0.21    2.53
   0  -2  -6    9.18    6.36
   0  -2  -6   10.60   10.95
   0  -2  -6   -0.47    7.14
   0  -2  -6   -0.03    4.42
   1   2   6    6.20    3.80
  -1   2  -6    6.74    4.44
  -1   2  -6   -0.19    4.70
  -1  -2  -6   25.01    9.03
  -1  -2  -6    8.13    8.25
  -1  -2  -6   14.52    9.66
  -1  -2  -6   -0.05    6.02
   2   2   6   51.81   15.53
  -2   2  -6   47.58   10.79
  -2   2  -6   -0.19   12.11
  -2   2  -6   29.08    8.25
  -2  -2  -6   88.97   18.68
  -2  -2  -6   65.81   14.75
  -2  -2  -6   78.75   11.72
  -2  -2  -6   77.04   19.38
   3   2   6  209.51   23.57
  -3   2  -6  164.02   28.43
  -3   2  -6  124.27   33.28
  -3  -2  -6  235.47   23.56
  -3  -2  -6  210.91   26.16
  -3  -2  -6  229.48   35.88
  -3  -2  -6  277.32   51.44
  -3   2  -6  195.94   39.16
   4   2   6   -4.16    5.73
  -4   2  -6    1.16    4.35
  -4   2  -6    0.14    5.06
  -4   2  -6   -5.00    3.60
  -4  -2  -6    2.69    4.75
  -4  -2  -6    0.00    5.16
  -4  -2  -6   -4.35    9.48
  -4  -2  -6    3.37    5.20
   5   2   6    0.57    4.37
  -5   2  -6    6.86    9.37
  -5   2  -6    5.32    6.86
  -5  -2  -6    6.06   14.79
  -5  -2  -6   -0.07    6.79
  -5  -2  -6   11.26    8.71
  -5   2  -6    8.25    7.97
   6   2   6    0.03    3.64
  -6   2  -6    0.58    4.45
  -6   2  -6   -6.38    5.28
  -6   2  -6    1.27    3.89
  -6  -2  -6   19.62    7.22
  -6  -2  -6   -1.35    2.10
  -6  -2  -6    0.08    4.44
   7   2   6   -0.15    4.26
  -7   2  -6    8.04    8.00
  -7   2  -6    3.30    9.07
  -7   2  -6    6.83    6.89
  -7  -2  -6   11.08   11.02
  -7  -2  -6    0.92    3.27
  -7  -2  -6    0.68    7.37
   8   2   6    0.03    4.68
   8  -2   6   -0.63    4.17
  -8   2  -6   -0.23   13.09
  -8   2  -6    1.51    6.02
  -8  -2  -6    0.33    8.42
  -8  -2  -6    1.37    2.40
   9  -2   6   -0.06    3.59
   9   2   6   -0.11    6.74
  -9   2  -6   -0.41    7.63
  -9  -2  -6    2.88    2.33
  -9  -2  -6   -0.13    8.68
  -9  -2  -6    6.33    6.94
  -9   2  -6    2.17    7.18
  10  -2   6    0.48    4.43
  10   2   6    1.90    8.26
 -10   2  -6   -1.95    5.66
 -10  -2  -6    0.88    3.05
 -10  -2  -6   10.52    5.09
 -10   2  -6   -7.23    5.41
  11  -2   6    0.16    8.89
  11   2   6    4.37    5.41
 -11   2  -6    3.11    8.79
 -11   2  -6   -0.83    5.06
 -11  -2  -6   -0.78    1.71
 -11  -2  -6   -4.25    4.53
 -11  -3   6    1.83    4.11
 -11   3   6    7.32    9.50
  11   3  -6   -0.15    4.70
  11  -3  -6    7.40    7.56
 -10  -3   6   -8.62    4.86
 -10   3   6   -5.46    4.53
 -10   3   6    5.66    6.17
 -10   3   6   -1.96    1.48
  10   3  -6    8.62    8.39
  10  -3  -6   -3.24    4.18
  -9  -3   6    4.26    4.90
  -9   3   6   -3.92    4.96
  -9   3   6    7.11    5.97
  -9   3   6    1.10    2.25
   9   3  -6    5.16    4.60
   9   3  -6    2.60    8.39
   9  -3  -6   -7.33    3.40
   9  -3  -6    3.66    3.87
  -8   3   6   -3.06    7.91
  -8   3   6    1.55    5.09
  -8   3   6    0.37    2.36
   8   3  -6    3.61    5.36
   8   3  -6    1.62    9.41
   8  -3  -6    0.30    5.41
   8  -3  -6    0.00    4.10
  -7   3   6   -0.49    3.16
  -7   3   6   -1.94    5.24
   7   3  -6    0.87    5.19
   7   3  -6   -1.80    9.12
   7  -3  -6   -0.04    9.64
   7  -3  -6    8.07    8.04
   7  -3  -6    0.02    3.55
  -6   3   6   11.48    9.97
   6   3  -6   -1.57   11.43
   6  -3  -6    8.25    4.75
   6  -3  -6   -0.27    8.58
   6  -3  -6   22.43   10.10
   6  -3  -6   -0.11    3.85
   6   3  -6   -1.02    6.74
  -5   3   6   -4.65    8.05
   5   3  -6    7.59    5.10
   5   3  -6    0.70    9.27
   5  -3  -6   -0.72    4.21
   5  -3  -6   -0.19    7.87
   5  -3  -6  -18.01   13.63
  -4   3   6    4.00   13.38
   4   3  -6    0.61    4.55
   4   3  -6   -0.20    5.14
   4  -3  -6   11.75    9.03
   4  -3  -6   -1.65    8.00
   4  -3  -6    0.45    8.38
  -3   3   6   -2.83    7.27
   3   3  -6    4.52    3.89
   3   3  -6   -1.57    4.82
   3  -3  -6    0.56    5.78
   3  -3  -6   -2.87   15.02
   3  -3  -6   -2.90    7.69
  -2   3   6   -0.81    5.84
   2   3  -6    3.70    3.93
   2   3  -6    0.17    5.37
   2  -3  -6    3.80    7.25
   2  -3  -6    8.60   15.87
   2  -3  -6    8.19    9.20
  -1   3   6   -1.05    6.01
   1   3  -6    3.82    8.14
   1   3  -6    0.25    5.61
   1  -3  -6   12.62   14.03
   1  -3  -6   20.21   10.76
   1  -3  -6   21.12   17.04
   0   3   6    0.06    4.23
   0   3  -6   -1.60    4.98
   0   3  -6    0.48    7.16
   0  -3  -6    6.60    6.59
   0  -3  -6    8.92    9.15
   0  -3  -6   12.55    7.75
   1   3   6   13.71    7.48
   1   3   6    0.44    8.95
  -1   3  -6   29.96   11.36
  -1  -3  -6   39.20   13.83
  -1  -3  -6   42.49   17.06
  -1  -3  -6   48.68   15.17
   2   3   6    5.68    5.00
  -2   3  -6   -0.17   11.27
  -2  -3  -6    7.48    9.07
  -2  -3  -6   12.72   10.05
  -2  -3  -6   11.61    9.30
  -2  -3  -6   15.77   10.68
  -2   3  -6    9.57    7.68
   3   3   6    1.26    4.22
  -3   3  -6    0.93    9.47
  -3   3  -6    6.49   14.92
  -3  -3  -6    0.30   10.07
  -3  -3  -6   21.62    9.53
  -3  -3  -6   26.98    9.87
  -3  -3  -6   16.92   10.90
   4   3   6    2.20    5.15
  -4   3  -6    0.35   11.87
  -4   3  -6    1.51    6.96
  -4  -3  -6   -0.08   11.82
  -4  -3  -6    0.52    5.40
  -4  -3  -6    4.53    6.50
  -4  -3  -6    9.18    7.01
   5   3   6    0.04    3.57
  -5   3  -6   18.67   11.11
  -5   3  -6   10.07   11.25
  -5  -3  -6   13.58    6.18
  -5  -3  -6   24.03   14.56
  -5  -3  -6   -0.23    9.03
  -5  -3  -6   -0.26   15.21
   6   3   6   -0.06    3.78
  -6   3  -6    4.29    7.21
  -6   3  -6    2.08    3.69
  -6  -3  -6    2.31    8.56
  -6  -3  -6    0.09    4.85
  -6  -3  -6    0.08    9.50
  -6   3  -6    0.27    7.23
   7   3   6    8.09    3.55
   7   3   6   -0.01    8.13
  -7   3  -6   13.83    9.93
  -7   3  -6   14.23   10.10
  -7   3  -6    7.48    5.41
  -7  -3  -6   10.41    8.77
  -7  -3  -6    0.13    5.60
  -7  -3  -6   -0.15    7.64
   8  -3   6   -0.43    4.31
   8   3   6   -0.14    4.44
  -8   3  -6   -7.22    8.28
  -8   3  -6    3.21    4.76
  -8  -3  -6    5.14    3.39
  -8  -3  -6    0.69    6.60
   9  -3   6   -1.14    4.89
   9   3   6   -0.18    5.11
   9   3   6   -1.26    1.51
  -9   3  -6   -0.61    4.27
  -9   3  -6    5.44   11.10
  -9  -3  -6    5.53    6.10
  -9  -3  -6    5.32    9.25
  10  -3   6   -4.43    5.39
  10   3   6   -3.38    5.62
 -10   3  -6   -0.77    5.18
 -10   3  -6   -1.31    4.48
 -10  -3  -6    0.49    1.70
 -10  -3  -6    7.55    6.30
  -9  -4   6   -0.07    4.34
  -9   4   6    4.61    5.35
  -9   4   6    7.42    6.19
   9   4  -6    4.18    5.52
  -8  -4   6    4.63    5.51
  -8   4   6   13.89    7.50
  -8   4   6   -1.83    8.07
   8   4  -6    8.59    6.10
   8  -4  -6    2.08    3.40
   8  -4  -6    3.28    2.65
  -7  -4   6    1.19    4.24
  -7   4   6    3.35    6.31
   7   4  -6    7.90    7.39
   7  -4  -6    6.77   10.74
   7  -4  -6    0.32   11.55
  -6  -4   6    1.58    3.95
  -6   4   6    1.26    9.98
   6   4  -6   -0.62    6.63
   6  -4  -6    9.05    6.74
   6  -4  -6   -0.75   10.10
  -5  -4   6   -1.99    3.49
  -5   4   6   -0.12    5.93
   5   4  -6   -1.06    5.45
   5  -4  -6    0.23    6.51
   5  -4  -6    8.66    8.49
  -4  -4   6    1.09    2.83
  -4   4   6    0.10    5.49
   4   4  -6    0.15    5.42
   4  -4  -6    0.16    7.63
   4  -4  -6   14.60   15.05
  -3  -4   6    0.90    2.09
  -3   4   6   -0.79    5.20
   3   4  -6   -0.51    3.02
   3   4  -6   -0.80    8.32
   3  -4  -6   -0.27   13.07
   3  -4  -6   -3.86    8.14
  -2   4   6   -0.27    7.60
   2   4  -6   -0.23    5.23
   2   4  -6   -0.47    6.54
   2  -4  -6    9.27   10.79
   2  -4  -6   -5.16    7.26
  -1   4   6   -0.22    7.34
   1   4  -6   13.92    7.55
   1  -4  -6   17.55   13.36
   1  -4  -6   18.85   14.48
   1   4  -6    0.05   12.90
   0   4   6   -0.24    4.15
   0   4  -6    0.80    8.13
   0   4  -6   10.68    6.55
   0  -4  -6   20.13    5.93
   0  -4  -6   -2.62   12.59
   0  -4  -6    6.40   23.13
   1   4   6    1.36    2.75
   1   4   6   -0.26    4.66
  -1   4  -6    9.90    5.25
  -1  -4  -6   20.75    9.65
  -1  -4  -6    2.20   11.32
  -1  -4  -6   18.99   18.43
  -1   4  -6    0.62    8.34
   2  -4   6   -0.71    2.34
   2   4   6    0.11    2.70
   2   4   6    0.09    3.43
  -2   4  -6    1.00    6.63
  -2   4  -6    0.15    7.96
  -2  -4  -6    5.30    6.91
  -2  -4  -6    0.14    7.95
  -2  -4  -6   10.24    8.03
   3   4   6   -1.75    5.07
   3   4   6    9.25    4.81
  -3   4  -6    2.36    9.62
  -3  -4  -6    2.83    4.38
  -3  -4  -6   -1.42    7.28
  -3  -4  -6    3.80    7.96
  -3   4  -6   10.06    7.08
   4   4   6   -0.26    4.30
   4   4   6   -1.87    3.20
  -4   4  -6   -1.69   10.58
  -4   4  -6    6.24    5.26
  -4  -4  -6    1.99    3.63
  -4  -4  -6    1.02    4.88
  -4  -4  -6   -6.33    6.07
   5   4   6   -0.15    7.17
   5   4   6   10.31    3.83
  -5   4  -6   13.90   12.60
  -5   4  -6   11.69   11.10
  -5  -4  -6   15.30    7.12
  -5  -4  -6   20.79    7.76
  -5  -4  -6   16.13   11.24
   6   4   6   -5.31    5.31
   6   4   6   -1.83    1.83
  -6   4  -6   -3.87    7.07
  -6   4  -6    5.35    6.52
  -6  -4  -6   -2.01    3.80
  -6  -4  -6    1.92    2.79
  -6  -4  -6   11.36    5.73
   7   4   6    0.99    4.35
  -7   4  -6   -5.22    5.52
  -7   4  -6    3.80    5.14
  -7  -4  -6   -1.43    2.74
  -7  -4  -6    1.59    4.11
   8  -4   6    6.54    4.85
   8   4   6   -2.09    4.48
  -8   4  -6   -3.72    6.55
  -8  -4  -6   -3.05    4.77
  -6   5   6    0.68    3.50
   6   5  -6    0.70    4.22
   6  -5  -6    4.20    6.37
  -5   5   6   -4.46    5.54
   5   5  -6    3.80    4.16
   5  -5  -6   -0.18    3.40
   5  -5  -6   -1.54    6.51
  -4   5   6    1.31    4.44
   4   5  -6    0.04    3.83
   4   5  -6    2.39    4.66
   4  -5  -6    3.40    4.99
   4  -5  -6    0.36    7.18
  -3   5   6   -3.51    9.18
   3   5  -6   -1.50    2.24
   3   5  -6    1.71    3.43
   3  -5  -6    3.48    4.57
   3  -5  -6    3.53    9.37
  -2   5   6    2.81    7.15
   2   5  -6   -0.37    3.42
   2   5  -6    1.62    4.15
   2  -5  -6    5.21   11.03
   2  -5  -6    3.10    7.36
  -1  -5   6   -4.37    5.14
  -1   5   6   -1.80    3.80
   1   5  -6   -2.70    5.10
   1  -5  -6   -7.70    9.68
   0  -5   6    2.93    4.47
   0   5   6    2.11    3.16
   0   5  -6    2.82    5.26
   0  -5  -6   -3.96   12.88
   0  -5  -6    6.32    8.92
   1  -5   6    0.42    2.85
   1   5   6   -1.72    2.15
  -1   5  -6    5.97    6.59
  -1  -5  -6    5.40    8.56
  -1  -5  -6    3.94    9.98
   2   5   6    1.50    1.68
  -2   5  -6   -4.54    5.83
  -2   5  -6   -2.80    2.59
  -2  -5  -6   -2.97    6.69
  -2  -5  -6    3.91    8.10
  -3   5  -6   26.68   11.70
  -3   5  -6    0.96    3.76
  -3  -5  -6    5.24    6.54
  -3  -5  -6   14.71   14.72
   4   5   6   -3.20    6.33
  -4   5  -6    0.82    4.22
  -4   5  -6   -1.23    2.59
  -4  -5  -6    2.94    5.63
  -4  -5  -6   -1.89    8.43
 -11   0   7    9.40   11.61
  11   0  -7    4.34    9.00
  11   0  -7   -5.11    6.36
 -10   0   7   -0.89    5.19
  10   0  -7    1.48    4.93
  10   0  -7   -1.01    8.94
  -9   0   7   -0.33    4.90
   9   0  -7   -0.15    5.30
   9   0  -7   -0.72    4.69
  -8   0   7   -0.04    4.28
   8   0  -7   -0.43    6.53
   8   0  -7   -1.25    4.95
   7   0  -7    6.07    7.96
   7   0  -7   -0.03   17.40
   7   0  -7    0.06    5.28
   6   0  -7    8.85    9.24
   6   0  -7    8.01   12.00
   6   0  -7    1.13    5.32
   5   0  -7    1.07    9.46
   5   0  -7   -8.18    8.01
   5   0  -7   -7.82   12.87
   4   0  -7   -0.54   15.83
   4   0  -7   -3.23   10.15
  -3   0   7    3.62    3.56
   3   0  -7    0.42   11.70
   3   0  -7   16.37   12.45
   2   0  -7   -0.56    6.46
   2   0  -7   -1.79    3.22
   2   0  -7    4.47    6.41
   1   0  -7    4.01    7.34
   1   0  -7   -6.38    4.97
   1   0  -7    0.29    7.97
   0   0  -7   -0.91   10.03
   0   0  -7   -0.65    4.78
   0   0  -7    1.80    4.21
  -1   0  -7    1.17    4.25
  -1   0  -7   -0.33    8.88
  -1   0  -7    3.45    9.38
  -2   0  -7    0.64    3.66
  -2   0  -7   -2.16    6.47
   3   0   7   -1.35    2.95
  -3   0  -7   -1.08    6.87
  -3   0  -7    5.75    6.12
   4   0   7   -1.57    3.68
  -4   0  -7   -2.65    4.14
  -4   0  -7    3.27    5.16
   5   0   7   -3.77    5.24
  -5   0  -7    3.39    5.99
  -5   0  -7    4.34    7.97
   6   0   7    0.15    3.44
  -6   0  -7   -4.99    6.66
  -6   0  -7   -8.98    9.37
   7   0   7    0.01    3.23
  -7   0  -7    2.71    5.08
  -7   0  -7    3.24    7.67
   8   0   7   -0.23    3.97
  -8   0  -7    4.60    5.05
  -8   0  -7    4.84    8.38
   9   0   7   -0.29    4.07
  -9   0  -7    3.87    3.42
  -9   0  -7   -2.50    6.87
  10   0   7    4.28    5.96
 -10   0  -7   -0.16    1.66
 -10   0  -7    6.85    4.62
 -11  -1   7   -0.56    2.58
 -11   1   7    1.15    5.29
  11   1  -7    4.41    4.07
  11  -1  -7    0.11    2.55
  11  -1  -7   -3.22    3.89
  11   1  -7    1.32    3.22
 -10  -1   7    5.62    7.54
 -10   1   7    0.47    6.01
  10  -1  -7    1.42    3.81
  10   1  -7    3.20    6.78
  10   1  -7    1.96    4.24
  10  -1  -7   -3.34    4.08
  -9  -1   7   -0.34    3.21
  -9   1   7    0.43    3.97
   9   1  -7   -0.49   10.67
   9   1  -7    0.01    5.21
   9  -1  -7   -0.14    9.78
   9  -1  -7   -2.47    4.76
  -8  -1   7    1.85    4.54
  -8   1   7   -1.11    5.72
   8   1  -7    0.58    7.60
   8  -1  -7    0.32   12.88
   8  -1  -7   16.34    6.79
   8   1  -7    0.24    9.98
  -7  -1   7    0.70    4.59
   7   1  -7   -0.20    4.71
   7  -1  -7   -0.15    8.87
   7  -1  -7    1.11    4.03
   7  -1  -7    0.61    7.09
   7   1  -7    4.36    6.79
  -6  -1   7    2.85    4.80
  -6   1   7    0.36    2.98
   6   1  -7   12.85    8.06
   6   1  -7    9.31    9.68
   6   1  -7    7.93    6.03
   6  -1  -7   -0.33   13.13
   6  -1  -7    1.65    4.86
   6  -1  -7   -0.34   10.35
  -5   1   7    0.14    4.49
   5   1  -7   26.37   11.68
   5   1  -7   17.38   13.98
   5   1  -7   19.09    8.23
   5  -1  -7   32.40   19.36
   5  -1  -7    0.01   25.61
  -4   1   7    0.00    2.50
   4   1  -7   -1.63    3.74
   4   1  -7   17.68    7.42
   4   1  -7   -1.41    2.32
   4  -1  -7    0.10    6.22
   4  -1  -7    4.73   11.20
  -3   1   7    5.96    6.37
   3   1  -7   13.81   10.01
   3  -1  -7   -6.46    9.16
   3  -1  -7    3.17   14.62
   3   1  -7   -0.23    8.90
  -2   1   7    0.24    3.94
   2   1  -7   -1.29    7.46
   2   1  -7    0.22    6.46
   2  -1  -7   -7.81    5.94
   2  -1  -7    9.59    6.66
   1   1  -7   -0.61    6.44
   1   1  -7    9.40    8.40
   1  -1  -7   10.41   16.33
   1  -1  -7    6.09    8.46
   1  -1  -7    0.94    7.23
   0   1  -7    0.54    5.60
   0   1  -7    5.46    6.09
   0   1  -7    5.40    3.66
   0  -1  -7    1.64   13.30
   0  -1  -7   -3.28    6.81
   0  -1  -7   -1.49    7.26
  -1   1  -7   13.75    9.97
  -1  -1  -7   28.88   11.19
  -1  -1  -7   16.92    8.62
  -1  -1  -7   -0.64   10.83
  -1   1  -7    1.22    7.51
  -2   1  -7   -0.73    5.61
  -2   1  -7   -0.47    3.54
  -2  -1  -7    0.58    5.58
  -2  -1  -7    1.08    3.47
  -2  -1  -7    2.02    5.78
   3   1   7   -3.29    3.55
  -3  -1  -7   -1.42    6.97
  -3   1  -7    0.61    5.94
  -3   1  -7    9.84    4.97
  -3   1  -7   -2.32    3.65
  -3  -1  -7   15.55   12.51
   4   1   7   -1.06    3.50
  -4   1  -7    0.55    5.17
  -4   1  -7    0.66    4.08
  -4  -1  -7   -0.52    6.48
  -4  -1  -7   12.81   11.62
  -4   1  -7    1.88    4.99
   5   1   7    0.44    3.57
  -5   1  -7   13.29    8.52
  -5   1  -7    3.68    7.20
  -5  -1  -7   11.20    9.65
  -5  -1  -7    0.69   17.53
   6   1   7   -0.11    3.36
  -6   1  -7    4.46    5.43
  -6  -1  -7   -0.50    6.88
  -6  -1  -7    2.45   10.78
  -6   1  -7   -0.94    5.91
   7   1   7    0.03    3.34
  -7   1  -7    0.63    5.81
  -7   1  -7   -3.83    5.49
  -7  -1  -7   12.91    9.74
  -7  -1  -7    3.47    6.35
   8   1   7   -0.05    3.45
  -8   1  -7   15.66    7.35
  -8   1  -7   -5.21    7.08
  -8  -1  -7    8.22   11.60
  -8  -1  -7   -8.82   12.75
   9  -1   7   -2.08    4.72
   9   1   7    4.55    4.78
  -9   1  -7   -3.37    4.01
  -9  -1  -7    1.20    3.48
  -9  -1  -7    4.04    6.47
  10  -1   7   -3.41    4.74
  10   1   7    2.01    8.05
 -10   1  -7   -3.80    3.82
 -10  -1  -7    0.04    2.99
 -10  -1  -7    6.59    5.70
 -10   2   7    9.55    5.76
  10   2  -7   14.35    6.54
  10   2  -7   13.53    6.85
  10  -2  -7    1.73    4.54
  10  -2  -7    5.17    5.26
  -9   2   7    2.76    3.93
  -9   2   7    2.45    5.19
   9   2  -7   -4.38    6.37
   9  -2  -7    2.79   13.41
   9  -2  -7    8.88    4.67
   9   2  -7    4.33    6.67
  -8  -2   7    3.88    5.82
  -8   2   7   10.67    9.27
  -8   2   7   16.68    5.80
  -8   2   7   -0.75    7.78
   8   2  -7   -0.31    8.11
   8  -2  -7    0.01   11.90
   8  -2  -7   13.05    5.48
   8   2  -7   15.25    8.84
  -7  -2   7    0.39    2.12
  -7   2   7    0.13    3.04
  -7   2   7   -0.10    3.06
   7   2  -7    0.21    7.16
   7   2  -7    1.00    3.86
   7  -2  -7   -0.18    4.71
   7  -2  -7   -0.19    6.37
   7  -2  -7    0.04    2.31
  -6  -2   7   -1.48    2.56
  -6   2   7    0.09    4.27
   6   2  -7   -9.98   10.27
   6   2  -7    1.00    4.43
   6  -2  -7    0.07    6.00
   6  -2  -7   -0.50    8.32
   6  -2  -7   -2.04    4.85
  -5   2   7    0.66    7.33
   5   2  -7   -4.69   13.48
   5   2  -7   10.28    9.23
   5  -2  -7   -0.04    8.47
   5  -2  -7    0.13   18.49
   5  -2  -7    6.81    6.50
  -4   2   7   -3.15    6.22
   4   2  -7    6.36    7.48
   4   2  -7    4.41    8.51
   4  -2  -7   -0.15   18.79
   4  -2  -7   14.38   11.73
   4  -2  -7    2.89    6.43
  -3   2   7    5.30    7.67
   3   2  -7    0.20    6.01
   3   2  -7   -5.98    4.13
   3  -2  -7    0.01    9.89
   3  -2  -7   -8.99   10.62
   3  -2  -7   -0.29    9.18
  -2   2   7    7.70    8.79
   2   2  -7    0.37    4.77
   2   2  -7    3.00    3.31
   2  -2  -7    0.52    9.78
   2  -2  -7   18.75   10.04
   2  -2  -7    4.23    5.42
  -1   2   7    8.24    9.27
   1  -2  -7    0.05    7.87
   1  -2  -7    1.42    7.51
   1  -2  -7    1.50    4.13
   0   2   7   -2.70    7.29
   0  -2  -7   -0.17   14.73
   0  -2  -7   -1.68    9.13
   0  -2  -7    6.35    4.91
  -1  -2  -7   -0.04    9.83
  -1  -2  -7    0.75    9.12
  -1  -2  -7   17.71   10.37
  -1  -2  -7    7.34    5.23
  -2  -2  -7    0.00    7.25
  -2  -2  -7    0.53    5.65
  -2  -2  -7   -7.98    7.56
   3   2   7    0.83    2.83
  -3   2  -7    3.92    6.42
  -3  -2  -7    0.09    7.81
  -3  -2  -7    0.31    4.94
  -3  -2  -7    9.72    8.23
   4   2   7   -0.36    3.02
  -4   2  -7   -0.38    6.49
  -4  -2  -7    0.05    6.44
  -4  -2  -7    5.46    6.70
  -4   2  -7    0.58    3.27
   5  -2   7    1.33    2.70
   5   2   7    4.39    7.22
  -5   2  -7   -2.57   10.12
  -5  -2  -7    0.21    8.52
  -5  -2  -7    4.19    8.56
  -5   2  -7    7.29    4.95
   6  -2   7    6.79    4.08
   6   2   7   -0.02   10.71
  -6   2  -7   10.14    5.49
  -6   2  -7    1.17    6.74
  -6  -2  -7   -0.12    8.55
  -6  -2  -7    2.45    8.25
   7  -2   7    0.19    2.25
   7   2   7    0.02    3.52
  -7   2  -7    3.20    4.97
  -7   2  -7    3.69    5.96
  -7  -2  -7    9.99    7.19
  -7  -2  -7   -6.26    6.37
   8  -2   7    2.13    3.43
   8   2   7    6.28    5.73
  -8   2  -7    0.14    6.71
  -8  -2  -7    2.18    7.36
  -8  -2  -7   -4.91    5.96
  -8   2  -7   14.43    5.44
   9   2   7   -2.00    4.65
  -9   2  -7   -1.69    4.11
  -9   2  -7   -3.98    5.13
  -9  -2  -7    5.71    5.49
  -9  -2  -7   -4.19    3.78
  -9   3   7    4.24    3.98
  -9  -3   7   -0.16    3.93
   9   3  -7    3.02    4.89
   9  -3  -7    2.34    4.63
  -8  -3   7    1.18    3.74
  -8   3   7    0.50    3.88
  -8   3   7   -2.29    3.95
  -8   3   7    1.68    2.04
   8   3  -7    6.06    5.41
   8  -3  -7   -0.89    5.93
  -7   3   7   -3.57    4.87
  -7   3   7   -0.75    3.12
  -7   3   7   -2.82    8.12
  -7  -3   7   -1.68    4.27
   7   3  -7    2.70    5.61
   7   3  -7    4.21    5.92
   7  -3  -7    3.61    8.00
  -6   3   7   -1.15    4.94
   6   3  -7   -5.86    4.71
   6   3  -7   -0.17    4.91
   6  -3  -7   -0.59    4.01
   6  -3  -7    0.41   13.80
   6  -3  -7    0.40    6.88
  -5   3   7    5.52    7.67
   5   3  -7    0.41    5.24
   5   3  -7    0.50    5.55
   5  -3  -7    6.71    5.44
   5  -3  -7    0.24    9.58
   5  -3  -7   15.49    8.12
  -4   3   7   13.32   10.21
   4   3  -7    0.25    4.58
   4   3  -7    5.10    5.22
   4  -3  -7    9.32    5.90
   4  -3  -7   -0.24   10.16
   4  -3  -7    4.21    8.01
  -3   3   7   26.28   22.04
   3   3  -7    0.40    4.25
   3   3  -7   11.22    5.28
   3  -3  -7   20.23   14.23
   3  -3  -7    0.26   11.68
   3  -3  -7   17.29   15.20
  -2   3   7    0.45    5.15
   2   3  -7   13.01    6.61
   2  -3  -7   -4.75    7.85
   2  -3  -7   -1.21   10.60
   2  -3  -7    1.76    7.74
  -1   3   7   -0.31    5.16
   1   3  -7   17.17    8.00
   1  -3  -7   -0.13   12.53
   1  -3  -7   34.84   16.00
   1  -3  -7   26.56   11.79
   0   3   7   -0.01    3.93
   0  -3  -7    0.38    6.90
   0  -3  -7    3.62    8.14
   0  -3  -7    1.94    6.02
   1   3   7    0.18    4.53
  -1  -3  -7    0.27   13.93
  -1  -3  -7  -11.88   15.11
  -1  -3  -7    8.15    6.86
   2   3   7    0.12    4.14
  -2  -3  -7   -0.15    4.03
  -2  -3  -7    0.70    7.45
  -2  -3  -7   -0.47    6.03
   3   3   7   54.29   16.37
   3   3   7  119.75   19.56
  -3   3  -7   55.24   12.59
  -3   3  -7   30.54   18.26
  -3  -3  -7  125.49   19.82
  -3  -3  -7   73.78   17.35
  -3  -3  -7  115.57   23.06
   4   3   7    1.19    4.82
   4   3   7    0.00    4.24
  -4   3  -7    1.46   10.17
  -4  -3  -7   -0.06    8.28
  -4  -3  -7    8.06    5.53
  -4  -3  -7    9.62    5.59
  -4   3  -7    9.03    6.00
   5   3   7    0.78    3.07
   5   3   7   -0.21    3.67
  -5   3  -7    5.97    5.58
  -5   3  -7   16.59   10.32
  -5  -3  -7    0.13    7.41
  -5  -3  -7    3.52    4.18
   6  -3   7   -1.39    3.45
   6   3   7    2.31    4.39
   6   3   7    6.69    4.19
  -6   3  -7   10.74   11.00
  -6  -3  -7   17.88    8.22
  -6  -3  -7    4.60    3.94
   7  -3   7    4.01    3.26
   7   3   7    3.58    4.86
   7   3   7    2.58    3.44
  -7   3  -7   -2.13    3.67
  -7  -3  -7    0.71    4.34
  -7  -3  -7   -0.31    1.58
   8   3   7   -0.24    4.92
  -8   3  -7   -5.19    4.28
  -8  -3  -7    1.82    4.71
  -6   4   7   -1.24    4.06
  -6   4   7    0.41    3.69
   6   4  -7    0.16    7.15
   6  -4  -7   -2.37    5.57
   6  -4  -7   -5.02    6.87
  -5   4   7    0.00    5.20
   5   4  -7   -5.07    5.98
   5  -4  -7    1.38    6.04
   5  -4  -7   13.55    9.12
  -4   4   7   -0.43    4.35
   4   4  -7    1.55    4.37
   4  -4  -7    7.75    8.06
   4  -4  -7    4.63    8.09
  -3   4   7   -2.28    5.83
   3   4  -7    0.66    3.01
   3  -4  -7    3.85    6.46
   3  -4  -7   -7.74    9.90
  -2   4   7   -7.32    7.66
   2   4  -7   -0.76    3.38
   2  -4  -7    3.92    2.14
   2  -4  -7   -2.31    8.64
   2  -4  -7    7.16   13.45
  -1   4   7    7.54    7.60
   1   4  -7    3.26    2.89
   1  -4  -7    0.31    4.22
   1  -4  -7    5.81    8.64
   1  -4  -7    3.76    7.86
   0   4   7   -1.44    8.50
   0   4  -7    2.04    4.63
   0  -4  -7    6.78    3.81
   0  -4  -7   -4.84    8.70
   0  -4  -7   -0.52    7.87
   1   4   7   11.37   13.15
  -1   4  -7    4.96    6.28
  -1  -4  -7    4.86    4.65
  -1  -4  -7    6.21    9.70
  -1  -4  -7   13.30    8.81
   2   4   7    0.26    3.21
  -2   4  -7   -3.43    2.62
  -2  -4  -7    3.76    2.83
  -2  -4  -7    0.65    5.13
  -2  -4  -7    4.44    4.99
   3   4   7    6.34    4.82
  -3   4  -7   -0.60    4.24
  -3   4  -7    2.94    3.85
  -3  -4  -7    4.53    4.16
  -3  -4  -7    3.84    5.98
  -3  -4  -7   16.10    6.60
   4   4   7    1.36    2.60
  -4   4  -7   -2.30    3.70
  -4   4  -7   -8.52    3.56
  -4  -4  -7    3.82    3.34
  -4  -4  -7   -1.05    3.48
  -4  -4  -7    1.73    8.16
  -5   4  -7    3.08    3.04
  -5   4  -7    0.27    3.14
  -5  -4  -7   -0.01    4.38
  -5  -4  -7   -4.83    5.89
  -9   0   8   12.26    8.02
   9   0  -8   11.54    7.32
   9   0  -8    4.91    3.52
  -8   0   8    9.68    8.30
   8   0  -8    6.94    8.45
   8   0  -8    5.76    3.50
  -7   0   8   56.28   16.55
   7   0  -8   16.13    4.63
   7   0  -8   37.02   13.00
  -6   0   8   -1.43    5.77
   6   0  -8    6.85    9.92
   6   0  -8    9.08    9.94
   5   0  -8   29.63   16.68
   5   0  -8   51.00   26.95
   4   0  -8   10.04   10.20
   4   0  -8    4.45   21.38
   3   0  -8   -0.24   14.29
   3   0  -8   12.90   16.67
  -2   0   8    0.11    1.94
   2   0  -8   -0.17    7.23
   2   0  -8   11.52   13.98
  -1   0   8   -0.07    2.46
   1   0  -8   25.80   11.54
   1   0  -8    0.82    9.03
   0   0  -8    9.24    9.76
   0   0  -8    0.05   10.10
   0   0  -8    8.45    6.15
  -1   0  -8   12.92   10.94
  -1   0  -8   13.24    8.36
  -2   0  -8   14.53    9.93
  -2   0  -8    9.04    8.66
  -3   0  -8    8.59    8.60
  -3   0  -8   10.48   14.53
  -4   0  -8   10.97   12.41
  -4   0  -8    5.86    8.39
   5   0   8    0.34    1.97
  -5   0  -8    2.78    7.08
  -5   0  -8    0.03   10.31
   6   0   8    2.25    3.15
  -6   0  -8    0.37    6.40
  -6   0  -8   10.57   11.23
   7   0   8   -1.87    3.06
  -7   0  -8   -4.07   11.85
  -7   0  -8   -4.59    6.29
   8   0   8    4.14    3.70
  -8   0  -8    4.68    6.17
  -9  -1   8   -0.51    3.70
  -9   1   8   -0.38    3.80
   9   1  -8    2.98    4.54
   9  -1  -8   -5.25    4.22
   9   1  -8   -0.35    3.96
  -8  -1   8   -3.12    4.47
  -8   1   8   -7.96    6.96
   8  -1  -8   -1.95    4.70
   8   1  -8    3.76    2.31
   8   1  -8   -1.44    6.82
   8  -1  -8   -1.18    1.12
  -7  -1   8    1.47    3.62
  -7   1   8   -0.35    5.41
   7   1  -8    4.04    6.06
   7   1  -8   -1.72    4.57
   7  -1  -8   11.11   11.25
  -6  -1   8    1.51    4.09
   6   1  -8   11.14    4.63
   6   1  -8   -2.50    3.11
   6  -1  -8  -10.17    6.89
   6  -1  -8    0.02    5.43
  -5  -1   8   -1.13    4.22
  -5   1   8   -2.11    2.67
   5  -1  -8   -3.33    8.41
   5  -1  -8   -3.04   10.24
   5   1  -8   -2.83    6.82
  -4   1   8    0.44    4.48
   4   1  -8    1.62    4.64
   4   1  -8   -1.19    5.35
   4  -1  -8  -10.29    7.15
   4  -1  -8    1.34    8.43
  -3   1   8    0.10    2.69
   3   1  -8   -0.17    3.76
   3   1  -8   -0.51    4.03
   3  -1  -8   13.53   12.49
   3  -1  -8    1.66    6.95
  -2   1   8    0.11    3.10
   2   1  -8   -6.04    3.94
   2   1  -8    0.18    3.70
   2  -1  -8   11.60    7.98
   2  -1  -8    1.24    6.91
  -1   1   8   12.92    8.13
   1   1  -8    5.46    5.39
   1   1  -8    0.04    2.50
   1  -1  -8   -4.36    6.76
   1  -1  -8    0.35    5.42
   0   1   8    8.33    7.82
   0   1  -8   -1.81    7.87
   0  -1  -8   -7.69    8.78
   0  -1  -8   -0.22    6.09
  -1   1  -8    3.43    4.36
  -1   1  -8    3.99    3.06
  -1  -1  -8   -7.60    8.44
  -1  -1  -8    0.03    4.73
  -1  -1  -8    3.72    6.83
  -2   1  -8    5.24    4.50
  -2   1  -8    5.16    4.61
  -2  -1  -8   11.63   16.86
  -2  -1  -8    8.52    8.83
  -3   1  -8    5.00    4.87
  -3  -1  -8    0.85   13.18
  -3  -1  -8    3.14    8.29
  -4   1  -8   10.73   10.99
  -4  -1  -8   10.37    9.10
  -4  -1  -8    6.98   10.20
  -5  -1  -8   -6.73    7.91
  -5  -1  -8  -10.05    9.25
  -5   1  -8   -5.19   10.87
   6   1   8   -0.73    4.05
  -6   1  -8   -7.70    8.96
  -6  -1  -8    1.59    6.10
  -6  -1  -8   -7.84    7.29
   7   1   8    5.83    3.93
  -7   1  -8    4.97    6.84
  -7  -1  -8   -5.23    4.10
  -7  -1  -8    1.91    5.35
  -8   2   8   -6.82    5.29
   8   2  -8    3.53    3.19
   8   2  -8   -3.02    2.27
   8  -2  -8    4.56    6.40
  -7   2   8   -2.70    5.24
   7   2  -8   -3.74    4.25
   7   2  -8    1.73    2.83
   7  -2  -8   14.66    7.32
  -6   2   8    1.39    2.97
   6   2  -8    0.23    3.93
   6   2  -8   -1.86    2.37
   6  -2  -8    4.14    5.41
   6  -2  -8   -5.79    7.46
  -5   2   8   -0.99    3.59
   5   2  -8   -2.20    4.04
   5   2  -8   -0.85    2.37
   5  -2  -8   -4.62    6.29
   5  -2  -8   -1.42    8.55
  -4   2   8    0.42    3.62
   4   2  -8    3.54    4.42
   4   2  -8    4.92    2.38
   4  -2  -8    0.05    8.09
   4  -2  -8   -0.12   10.61
  -3   2   8   -2.30    9.23
   3   2  -8    0.68    2.94
   3  -2  -8    0.41   11.34
   3  -2  -8    9.97    8.62
  -2   2   8   -6.52    7.29
   2  -2  -8    0.38    8.27
   2  -2  -8    5.05   13.86
  -1   2   8    8.54    8.35
   1  -2  -8    0.15    8.37
   1  -2  -8   -5.68   11.53
   0   2   8    6.03    7.94
   0  -2  -8   -0.05    6.39
   0  -2  -8   -0.72    7.74
   1   2   8   18.85   11.39
  -1  -2  -8   -0.23    5.80
  -1  -2  -8   -0.11    5.94
   2   2   8    2.16    6.43
  -2  -2  -8    0.41   11.81
  -2  -2  -8    1.03    5.77
   3   2   8    3.08    6.85
  -3  -2  -8    0.01    6.90
  -4  -2  -8   29.65   19.57
  -4  -2  -8   12.85   12.22
  -5   2  -8    0.41    1.44
  -5  -2  -8   -2.41    4.28
  -5  -2  -8    0.70    4.46
  -6  -2  -8    7.31    6.42
  -6  -2  -8    0.30    6.51
  -6   3   8   -0.04    4.20
   6  -3  -8    2.77    6.70
  -5   3   8    1.65    3.42
  -5   3   8    4.85    4.60
   5   3  -8    3.78    4.04
   5  -3  -8    9.50    9.05
  -4   3   8    3.30    5.49
   4   3  -8   -1.64    1.71
   4  -3  -8   -3.20    3.98
   4  -3  -8   -0.05    7.83
  -3   3   8   -2.08    5.38
   3  -3  -8   -0.54    4.12
   3  -3  -8  -17.55   12.99
   3  -3  -8    3.13    2.95
  -2   3   8    5.92   12.14
   2  -3  -8   -1.28    6.93
   2  -3  -8    1.19   10.34
   2  -3  -8    0.89    2.54
  -1   3   8    8.66   14.21
   1  -3  -8   14.54   13.01
   1  -3  -8    0.67   14.13
   1  -3  -8    4.08    3.51
   0   3   8   10.93    8.73
   0  -3  -8    2.76    8.56
   0  -3  -8    7.41    8.03
   0  -3  -8    7.28    5.82
   1   3   8   15.05    9.48
  -1  -3  -8    9.50    8.66
  -1  -3  -8    9.24    6.76
  -1  -3  -8    4.19    5.43
   2   3   8   23.58   10.64
  -2  -3  -8   16.01   10.21
  -2  -3  -8   10.07   10.34
   3   3   8   11.08    7.55
  -3  -3  -8    8.38    8.49
   4   3   8    7.68    5.91
  -4  -3  -8   13.43    8.93
  -5   0   9    0.74    3.52
   5   0  -9   -8.99    6.45
  -4   0   9    2.17    4.45
   4   0  -9    0.37    4.19
   4   0  -9    0.87    3.49
   3   0  -9   -2.41    4.55
   3   0  -9   -9.90    6.24
   2   0  -9    0.01    4.75
   2   0  -9    2.11    2.76
   1   0  -9    0.52    1.41
   1   0  -9   -1.28    3.49
   0   0  -9    9.43   10.84
  -1   0  -9   11.05   12.35
  -2   0  -9    0.79    5.96
  -3   0  -9   -5.92    4.38
  -5   1   9    1.15    4.33
   5   1  -9    4.57    3.15
   5  -1  -9    0.65    5.54
   4   1  -9    1.82    4.66
   4  -1  -9    6.18    6.48
   4  -1  -9    2.95    5.20
   3   1  -9    0.87    1.62
   3  -1  -9    6.40    5.57
   3  -1  -9    0.24    6.82
   2  -1  -9   -1.78    6.33
   2  -1  -9   -2.88    6.44
  -1   1   9   -3.40    3.06
   1   1  -9   -0.51    1.52
   1  -1  -9   12.29    9.07
   1  -1  -9   -7.64    4.21
   0   1   9    1.16    3.23
   0  -1  -9   -1.90   11.92
   1   1   9    5.92    5.08
  -1  -1  -9    0.52    5.16
   2   1   9    7.31    5.73
  -2  -1  -9    4.45    7.27
   3   1   9   -0.27    3.05
  -3  -1  -9    3.32    5.97
  -2   2   9    0.68    2.72
   2  -2  -9    4.25    5.32
   2  -2  -9    0.47    4.86
  -1   2   9    1.23    5.80
   1  -2  -9   -3.96    4.48
   1  -2  -9    0.54    2.87
   0   2   9    4.10    4.74
   0  -2  -9    5.51   13.96
   1   2   9    4.29    4.95
  -1  -2  -9    2.42    6.27
   0   0   0    0.00    0.00

_computing_structure_solution     'SHELXT 2014/5 (Sheldrick, 2014)'
;
_shelx_hkl_checksum              70284
loop_
_space_group_symop_operation_xyz
'x, y, z'
'-x, y+1/2, -z+1/2'
'-x, -y, -z'
'x, -y-1/2, z-1/2'
loop_
_atom_site_label
_atom_site_type_symbol
_atom_site_fract_x
_atom_site_fract_y
_atom_site_fract_z
_atom_site_U_iso_or_equiv
_atom_site_adp_type
_atom_site_occupancy
_atom_site_site_symmetry_order
_atom_site_calc_flag
_atom_site_refinement_flags_posn
_atom_site_refinement_flags_adp
_atom_site_refinement_flags_occupancy
_atom_site_disorder_assembly
_atom_site_disorder_group
C1A C 0.1485(17) 0.669(4) 0.740(3) 0.076(3) Uani 0.5 1 d . U P A -1
H1A H 0.1343 0.7926 0.8068 0.091 Uiso 0.5 1 calc R U P A -1
C2A C 0.0862(15) 0.489(3) 0.689(3) 0.079(3) Uani 0.5 1 d . U P A -1
H2A H 0.0220 0.4904 0.7126 0.095 Uiso 0.5 1 calc R U P A -1
C3A C 0.1268(19) 0.308(3) 0.601(3) 0.076(3) Uani 0.5 1 d . U P A -1
H3A H 0.0996 0.1723 0.5643 0.091 Uiso 0.5 1 calc R U P A -1
C4A C 0.2937(10) 0.274(2) 0.5047(13) 0.076(3) Uani 0.5 1 d . U P A -1
H4A H 0.2716 0.1346 0.4641 0.091 Uiso 0.5 1 calc R U P A -1
C5A C 0.382(2) 0.308(5) 0.476(4) 0.071(3) Uani 0.5 1 d . U P A -1
H5A H 0.4099 0.1950 0.4124 0.085 Uiso 0.5 1 calc R U P A -1
C6A C 0.445(3) 0.493(8) 0.525(7) 0.070(3) Uani 0.5 1 d . U P A -1
C7A C 0.410(3) 0.692(5) 0.607(3) 0.074(3) Uani 0.5 1 d . U P A -1
H7A H 0.4531 0.8116 0.6125 0.089 Uiso 0.5 1 calc R U P A -1
C8A C 0.3246(9) 0.738(2) 0.6774(14) 0.075(2) Uani 0.5 1 d . U P A -1
H8A H 0.3232 0.8673 0.7442 0.090 Uiso 0.5 1 calc R U P A -1
C9A C 0.2412(9) 0.6178(19) 0.6629(14) 0.076(2) Uani 0.5 1 d . U P A -1
C10A C 0.2248(9) 0.3950(19) 0.5819(13) 0.075(2) Uani 0.5 1 d . U P A -1
C11A C 0.606(2) 0.665(5) 0.510(4) 0.073(3) Uani 0.5 1 d . U P A -1
H11A H 0.5913 0.7990 0.5657 0.088 Uiso 0.5 1 calc R U P A -1
C12A C 0.544(3) 0.495(9) 0.476(7) 0.070(3) Uani 0.5 1 d . U P A -1
C13A C 0.586(3) 0.332(5) 0.375(3) 0.074(3) Uani 0.5 1 d . U P A -1
H13A H 0.5549 0.2091 0.3225 0.089 Uiso 0.5 1 calc R U P A -1
C14A C 0.7504(10) 0.264(2) 0.2878(13) 0.078(2) Uani 0.5 1 d . U P A -1
H14A H 0.7258 0.1357 0.2333 0.093 Uiso 0.5 1 calc R U P A -1
C15A C 0.8391(19) 0.287(4) 0.275(3) 0.077(3) Uani 0.5 1 d . U P A -1
H15A H 0.8683 0.1662 0.2222 0.092 Uiso 0.5 1 calc R U P A -1
C16A C 0.8989(15) 0.456(3) 0.323(3) 0.083(4) Uani 0.5 1 d . U P A -1
H16A H 0.9624 0.4463 0.2956 0.100 Uiso 0.5 1 calc R U P A -1
C17A C 0.869(2) 0.642(3) 0.413(4) 0.080(3) Uani 0.5 1 d . U P A -1
H17A H 0.9205 0.7340 0.4459 0.096 Uiso 0.5 1 calc R U P A -1
C18A C 0.7834(9) 0.728(2) 0.4669(14) 0.077(2) Uani 0.5 1 d . U P A -1
H18A H 0.7831 0.8708 0.5168 0.093 Uiso 0.5 1 calc R U P A -1
C19A C 0.6992(9) 0.6098(19) 0.4487(14) 0.074(2) Uani 0.5 1 d . U P A -1
C20A C 0.6827(9) 0.3892(19) 0.3659(13) 0.075(2) Uani 0.5 1 d . U P A -1
loop_
_atom_site_aniso_label
_atom_site_aniso_U_11
_atom_site_aniso_U_22
_atom_site_aniso_U_33
_atom_site_aniso_U_23
_atom_site_aniso_U_13
_atom_site_aniso_U_12
C1A 0.082(7) 0.067(6) 0.079(6) 0.002(5) 0.003(5) -0.006(5)
C2A 0.085(7) 0.066(6) 0.087(6) 0.008(6) 0.009(5) -0.016(5)
C3A 0.082(6) 0.063(6) 0.084(6) 0.008(5) 0.008(5) -0.014(6)
C4A 0.093(6) 0.063(5) 0.072(5) -0.001(4) 0.002(5) -0.007(5)
C5A 0.090(7) 0.054(6) 0.068(6) -0.001(5) -0.001(5) -0.009(5)
C6A 0.087(6) 0.059(5) 0.064(4) -0.001(4) -0.001(5) -0.003(5)
C7A 0.085(6) 0.064(6) 0.072(6) 0.000(5) -0.001(5) -0.002(5)
C8A 0.082(6) 0.071(5) 0.071(5) -0.001(4) -0.001(4) -0.010(4)
C9A 0.087(5) 0.065(5) 0.075(5) 0.004(4) 0.001(4) -0.006(4)
C10A 0.088(6) 0.061(4) 0.077(5) 0.004(4) 0.001(4) -0.012(4)
C11A 0.087(6) 0.066(6) 0.067(5) -0.003(5) -0.001(5) -0.005(5)
C12A 0.088(6) 0.062(5) 0.061(4) -0.001(4) -0.003(5) -0.005(5)
C13A 0.090(6) 0.067(6) 0.064(6) 0.003(5) -0.002(5) -0.001(5)
C14A 0.090(6) 0.071(5) 0.072(5) 0.006(4) 0.007(5) -0.002(5)
C15A 0.088(7) 0.066(6) 0.078(6) 0.011(5) 0.011(5) -0.007(5)
C16A 0.091(7) 0.073(7) 0.084(6) 0.011(6) 0.009(5) -0.015(6)
C17A 0.088(6) 0.071(7) 0.081(6) 0.011(5) 0.001(5) -0.018(6)
C18A 0.091(6) 0.064(5) 0.076(5) 0.007(4) -0.004(4) -0.024(5)
C19A 0.090(5) 0.064(4) 0.068(4) 0.003(4) -0.003(4) -0.013(4)
C20A 0.090(5) 0.065(4) 0.069(4) 0.005(4) -0.001(4) -0.004(4)
loop_
_atom_type_symbol
_atom_type_description
_atom_type_scat_dispersion_real
_atom_type_scat_dispersion_imag
_atom_type_scat_source
C C 0.0181 0.0091 'International Tables Vol C Tables 4.2.6.8 and 6.1.1.4'
H H 0.0000 0.0000 'International Tables Vol C Tables 4.2.6.8 and 6.1.1.4'
loop_
_geom_angle_atom_site_label_1
_geom_angle_atom_site_label_2
_geom_angle_atom_site_label_3
_geom_angle
C2A C1A C9A 105.8(17)
C2A C1A H1A 127.1
C9A C1A H1A 127.1
C3A C2A C1A 116.6(16)
C3A C2A H2A 121.7
C1A C2A H2A 121.7
C2A C3A C10A 100.8(14)
C2A C3A H3A 129.6
C10A C3A H3A 129.6
C5A C4A C10A 134.7(19)
C5A C4A H4A 112.6
C10A C4A H4A 112.6
C4A C5A C6A 131(3)
C4A C5A H5A 114.7
C6A C5A H5A 114.7
C7A C6A C5A 122(3)
C7A C6A C12A 118(2)
C5A C6A C12A 121(2)
C8A C7A C6A 132(3)
C8A C7A H7A 114.2
C6A C7A H7A 114.2
C9A C8A C7A 129(2)
C9A C8A H8A 115.6
C7A C8A H8A 115.6
C8A C9A C10A 127.8(14)
C8A C9A C1A 128.4(16)
C10A C9A C1A 103.5(11)
C4A C10A C9A 124.0(14)
C4A C10A C3A 122.8(15)
C9A C10A C3A 113.1(13)
C12A C11A C19A 110(2)
C12A C11A H11A 124.9
C19A C11A H11A 124.9
C11A C12A C13A 110(3)
C11A C12A C6A 124(2)
C13A C12A C6A 125(2)
C12A C13A C20A 107(3)
C12A C13A H13A 126.5
C20A C13A H13A 126.5
C15A C14A C20A 133.3(19)
C15A C14A H14A 113.3
C20A C14A H14A 113.3
C14A C15A C16A 131(2)
C14A C15A H15A 114.3
C16A C15A H15A 114.3
C15A C16A C17A 122.4(18)
C15A C16A H16A 118.8
C17A C16A H16A 118.8
C16A C17A C18A 137(2)
C16A C17A H17A 111.4
C18A C17A H17A 111.4
C19A C18A C17A 122.2(17)
C19A C18A H18A 118.9
C17A C18A H18A 118.9
C18A C19A C11A 129.2(16)
C18A C19A C20A 127.8(14)
C11A C19A C20A 102.9(12)
C14A C20A C13A 125.8(19)
C14A C20A C19A 125.3(14)
C13A C20A C19A 108.8(16)
loop_
_geom_bond_atom_site_label_1
_geom_bond_atom_site_label_2
_geom_bond_distance
C1A C2A 1.42(2)
C1A C9A 1.49(3)
C1A H1A 0.9300
C2A C3A 1.41(3)
C2A H2A 0.9300
C3A C10A 1.48(3)
C3A H3A 0.9300
C4A C5A 1.29(3)
C4A C10A 1.370(17)
C4A H4A 0.9300
C5A C6A 1.45(4)
C5A H5A 0.9300
C6A C7A 1.44(6)
C6A C12A 1.466(9)
C7A C8A 1.38(4)
C7A H7A 0.9300
C8A C9A 1.370(16)
C8A H8A 0.9300
C9A C10A 1.477(17)
C11A C12A 1.35(4)
C11A C19A 1.46(3)
C11A H11A 0.9300
C12A C13A 1.39(6)
C13A C20A 1.41(4)
C13A H13A 0.9300
C14A C15A 1.26(3)
C14A C20A 1.374(16)
C14A H14A 0.9300
C15A C16A 1.35(2)
C15A H15A 0.9300
C16A C17A 1.38(3)
C16A H16A 0.9300
C17A C18A 1.40(3)
C17A H17A 0.9300
C18A C19A 1.378(15)
C18A H18A 0.9300
C19A C20A 1.472(17)
loop_
_geom_torsion_atom_site_label_1
_geom_torsion_atom_site_label_2
_geom_torsion_atom_site_label_3
_geom_torsion_atom_site_label_4
_geom_torsion
C9A C1A C2A C3A 6(2)
C1A C2A C3A C10A -5(2)
C10A C4A C5A C6A 4(4)
C4A C5A C6A C7A -7(6)
C4A C5A C6A C12A -180(2)
C5A C6A C7A C8A 12(6)
C12A C6A C7A C8A -175.0(19)
C6A C7A C8A C9A -13(4)
C7A C8A C9A C10A 7(2)
C7A C8A C9A C1A -179.7(18)
C2A C1A C9A C8A -178.5(13)
C2A C1A C9A C10A -4.1(15)
C5A C4A C10A C9A -2(3)
C5A C4A C10A C3A -179(2)
C8A C9A C10A C4A -0.9(17)
C1A C9A C10A C4A -175.4(13)
C8A C9A C10A C3A 175.8(13)
C1A C9A C10A C3A 1.4(15)
C2A C3A C10A C4A 178.7(12)
C2A C3A C10A C9A 1.9(17)
C19A C11A C12A C13A -7(4)
C19A C11A C12A C6A 178.1(15)
C7A C6A C12A C11A 4(2)
C5A C6A C12A C11A 177(5)
C7A C6A C12A C13A -170(6)
C5A C6A C12A C13A 3(2)
C11A C12A C13A C20A 9(4)
C6A C12A C13A C20A -176.6(12)
C20A C14A C15A C16A -6(3)
C14A C15A C16A C17A 4(3)
C15A C16A C17A C18A -6(3)
C16A C17A C18A C19A 7(3)
C17A C18A C19A C11A 174(2)
C17A C18A C19A C20A -4(2)
C12A C11A C19A C18A -175(3)
C12A C11A C19A C20A 3(3)
C15A C14A C20A C13A -176.9(19)
C15A C14A C20A C19A 6(2)
C12A C13A C20A C14A 175(3)
C12A C13A C20A C19A -7(3)
C18A C19A C20A C14A -1.5(17)
C11A C19A C20A C14A -179.6(16)
C18A C19A C20A C13A -179.3(13)
C11A C19A C20A C13A 2.6(17)
