#------------------------------------------------------------------------------
#$Date: 2020-10-04 06:44:43 +0300 (Sun, 04 Oct 2020) $
#$Revision: 257165 $
#$URL: file:///home/coder/svn-repositories/cod/cif/1/55/78/1557808.cif $
#------------------------------------------------------------------------------
#
# This file is available in the Crystallography Open Database (COD),
# http://www.crystallography.net/
#
# All data on this site have been placed in the public domain by the
# contributors.
#
data_1557808
loop_
_publ_author_name
'Cobos, Katherine'
'Rodr\'iguez, Rafael'
'Domarco, Olaya'
'Fern\'andez, Berta'
'Qui\~no\'a, Emilio'
'Riguera, Ricardo'
'Freire, F\'elix'
_publ_section_title
;
 Polymeric Helical Structures \`a la Carte by Rational Design of Monomers
;
_journal_issue                   8
_journal_name_full               Macromolecules
_journal_page_first              3182
_journal_page_last               3193
_journal_paper_doi               10.1021/acs.macromol.0c00085
_journal_volume                  53
_journal_year                    2020
_chemical_absolute_configuration syn
_chemical_formula_moiety         'C16 H13 N O2'
_chemical_formula_sum            'C16 H13 N O2'
_chemical_formula_weight         251.27
_chemical_name_common            R-m-MA
_space_group_crystal_system      monoclinic
_space_group_IT_number           4
_space_group_name_Hall           'P 2yb'
_space_group_name_H-M_alt        'P 1 21 1'
_atom_sites_solution_hydrogens   mixed
_atom_sites_solution_primary     dual
_atom_sites_solution_secondary   difmap
_audit_conform_dict_location     ftp://ftp.iucr.org/pub/cif_core.dic
_audit_conform_dict_name         cif_core.dic
_audit_conform_dict_version      2.4.3
_audit_creation_date             2016-04-29T13:21:38-00:00
_audit_creation_method           'WinGX routine CIF_UPDATE'
_cell_angle_alpha                90
_cell_angle_beta                 108.302(7)
_cell_angle_gamma                90
_cell_formula_units_Z            2
_cell_length_a                   8.4442(12)
_cell_length_b                   7.7559(11)
_cell_length_c                   10.4879(13)
_cell_measurement_reflns_used    4870
_cell_measurement_temperature    100(2)
_cell_measurement_theta_max      27.03
_cell_measurement_theta_min      2.54
_cell_measurement_wavelength     0.71073
_cell_volume                     652.13(16)
_computing_cell_refinement       'SAINT V8.37A integration software'
_computing_data_collection       'Bruker APEX2 software'
_computing_data_reduction        'SORTAV (Blessing, 1995)'
_computing_molecular_graphics    'ORTEP-3 for Windows (Farrugia, 2012)'
_computing_publication_material  'WinGX publication routines (Farrugia, 2012)'
_computing_structure_refinement  'SHELXL-2014/7 (Sheldrick, 2014)'
_computing_structure_solution    'SHELXT-2014 (Sheldrick, 2014)'
_diffrn_ambient_temperature      100(2)
_diffrn_detector                 'APEX-II CCD'
_diffrn_measured_fraction_theta_full 1
_diffrn_measured_fraction_theta_max 0.988
_diffrn_measurement_device       '\k-geometry diffractometer'
_diffrn_measurement_device_type  'Bruker APEX-II'
_diffrn_measurement_method       '\f or \w oscillation scans'
_diffrn_orient_matrix_UB_11      -0.124345
_diffrn_orient_matrix_UB_12      -0.00101
_diffrn_orient_matrix_UB_13      -0.038933
_diffrn_orient_matrix_UB_21      0.000964
_diffrn_orient_matrix_UB_22      0.126437
_diffrn_orient_matrix_UB_23      -0.018416
_diffrn_orient_matrix_UB_31      0.009805
_diffrn_orient_matrix_UB_32      -0.025232
_diffrn_orient_matrix_UB_33      -0.090724
_diffrn_radiation_monochromator  graphite
_diffrn_radiation_probe          x-ray
_diffrn_radiation_type           MoK\a
_diffrn_radiation_wavelength     0.71073
_diffrn_reflns_av_R_equivalents  0.0482
_diffrn_reflns_av_unetI/netI     0.0551
_diffrn_reflns_Laue_measured_fraction_full 1
_diffrn_reflns_Laue_measured_fraction_max 0.988
_diffrn_reflns_limit_h_max       10
_diffrn_reflns_limit_h_min       -10
_diffrn_reflns_limit_k_max       10
_diffrn_reflns_limit_k_min       -9
_diffrn_reflns_limit_l_max       13
_diffrn_reflns_limit_l_min       -13
_diffrn_reflns_number            11985
_diffrn_reflns_point_group_measured_fraction_full 0.998
_diffrn_reflns_point_group_measured_fraction_max 0.957
_diffrn_reflns_reduction_process
;
        Scaled and merged with Sortav
        R.H. Blessing, (1987) Cryst. Rev. 1, 3-58
        R.H. Blessing, (1989) J. Appl. Cryst. 22, 396-397
;
_diffrn_reflns_theta_full        25.242
_diffrn_reflns_theta_max         27.567
_diffrn_reflns_theta_min         2.045
_diffrn_source                   'sealed x-ray tube'
_diffrn_standards_number         0
_exptl_absorpt_coefficient_mu    0.085
_exptl_absorpt_correction_T_max  0.97
_exptl_absorpt_correction_T_min  0.86
_exptl_absorpt_correction_type   multi-scan
_exptl_absorpt_process_details
;
SADABS-2014/5 - Bruker AXS area detector scaling and absorption correction
;
_exptl_crystal_colour            colourless
_exptl_crystal_density_diffrn    1.28
_exptl_crystal_density_method    'not measured'
_exptl_crystal_description       Needle
_exptl_crystal_F_000             264
_exptl_crystal_size_max          0.46
_exptl_crystal_size_mid          0.12
_exptl_crystal_size_min          0.08
_refine_diff_density_max         0.189
_refine_diff_density_min         -0.253
_refine_diff_density_rms         0.049
_refine_ls_abs_structure_details
;
 Flack x determined using 848 quotients [(I+)-(I-)]/[(I+)+(I-)]
 (Parsons, Flack and Wagner, Acta Cryst. B69 (2013) 249-259).
;
_refine_ls_abs_structure_Flack   -0.5(8)
_refine_ls_extinction_method     none
_refine_ls_goodness_of_fit_ref   1.066
_refine_ls_hydrogen_treatment    mixed
_refine_ls_matrix_type           full
_refine_ls_number_constraints    0
_refine_ls_number_parameters     178
_refine_ls_number_reflns         2858
_refine_ls_number_restraints     1
_refine_ls_restrained_S_all      1.066
_refine_ls_R_factor_all          0.0613
_refine_ls_R_factor_gt           0.0421
_refine_ls_shift/su_max          0
_refine_ls_shift/su_mean         0
_refine_ls_structure_factor_coef Fsqd
_refine_ls_weighting_details
'w=1/[\s^2^(Fo^2^)+(0.0494P)^2^] where P=(Fo^2^+2Fc^2^)/3'
_refine_ls_weighting_scheme      calc
_refine_ls_wR_factor_gt          0.0868
_refine_ls_wR_factor_ref         0.0955
_reflns_Friedel_coverage         0.804
_reflns_Friedel_fraction_full    0.995
_reflns_Friedel_fraction_max     0.921
_reflns_number_gt                2227
_reflns_number_total             2858
_reflns_threshold_expression     'I > 2\s(I)'
_cod_data_source_file            ma0c00085_si_003.cif
_cod_data_source_block           shelx
_cod_depositor_comments
;Adding full bibliography for 1557803--1557808.cif.

 Adding full bibliography for 1557803--1557808.cif.
;
_cod_original_sg_symbol_H-M      'P 21'
_cod_database_code               1557808
_shelx_estimated_absorpt_t_min   0.962
_shelx_estimated_absorpt_t_max   0.993
_shelx_res_file
;
 
    shelx.res created by SHELXL-2014/7
 
 
TITL shelxt_a.res in P2(1)
CELL  0.71073   8.4442   7.7559  10.4879   90.000  108.302   90.000
ZERR     2.00   0.0012   0.0011   0.0013    0.000    0.007    0.000
LATT  -1
SYMM  - X, 1/2 + Y, - Z
SFAC  C    H    N    O
UNIT 32 26 2 4
MERG   2
FMAP   2
PLAN   20
SIZE     0.080   0.120   0.460
ACTA
BOND   $H
REM Instructions for potential hydrogen bonds
EQIV $1 -x+1, y+1/2, -z
HTAB O1 O3_$1
HTAB N4 O1
CONF
LIST   4
WPDB  -2
L.S.  20
TEMP  -173.00
WGHT    0.049400
FVAR       1.12603
O1    4    0.444614    0.870758    0.115096    11.00000    0.02852    0.02208 =
         0.02347    0.00326    0.01233    0.00762
AFIX 148
H1O   2    0.371548    0.931411    0.045138    11.00000   -1.50000
AFIX   0
C1    1    0.545665    0.760016    0.063459    11.00000    0.02338    0.01840 =
         0.01643   -0.00045    0.00831    0.00057
AFIX  13
H1    2    0.472452    0.702743   -0.019591    11.00000   -1.20000
AFIX   0
C2    1    0.623038    0.622123    0.166265    11.00000    0.02281    0.01098 =
         0.02232   -0.00025    0.00704   -0.00532
O3    4    0.704085    0.503461    0.136965    11.00000    0.02795    0.01370 =
         0.02323   -0.00111    0.00973    0.00174
N4    3    0.598044    0.639470    0.286222    11.00000    0.02885    0.01322 =
         0.01912    0.00173    0.00984    0.00320
H4    2    0.535015    0.729602    0.294226    11.00000    0.03915
C5    1    0.649750    0.530111    0.399651    11.00000    0.02030    0.01658 =
         0.02069    0.00320    0.00634   -0.00156
C6    1    0.709849    0.363555    0.394340    11.00000    0.02463    0.01914 =
         0.01680   -0.00249    0.00917   -0.00215
AFIX  43
H6    2    0.717605    0.318861    0.312174    11.00000   -1.20000
AFIX   0
C7    1    0.758406    0.263252    0.510409    11.00000    0.02109    0.01574 =
         0.02667    0.00105    0.00830   -0.00177
C8    1    0.746650    0.326899    0.631229    11.00000    0.02973    0.01911 =
         0.02180    0.00478    0.00733   -0.00121
AFIX  43
H8    2    0.780185    0.258191    0.710178    11.00000   -1.20000
AFIX   0
C9    1    0.685092    0.492534    0.634617    11.00000    0.03264    0.02254 =
         0.02053    0.00089    0.01013   -0.00258
AFIX  43
H9    2    0.675891    0.536752    0.716469    11.00000   -1.20000
AFIX   0
C10   1    0.637225    0.593418    0.520579    11.00000    0.02815    0.01598 =
         0.02476   -0.00160    0.01122   -0.00076
AFIX  43
H10   2    0.595574    0.706431    0.524421    11.00000   -1.20000
AFIX   0
C11   1    0.821237    0.090144    0.504258    11.00000    0.02728    0.02066 =
         0.02041    0.00394    0.00920   -0.00422
C12   1    0.872179   -0.049594    0.499888    11.00000    0.03125    0.02798 =
         0.02906    0.00230    0.01067    0.00371
AFIX 163
H12   2    0.913463   -0.162840    0.496346    11.00000   -1.20000
AFIX   0
C13   1    0.681244    0.858310    0.027899    11.00000    0.02387    0.01046 =
         0.02228    0.00268    0.00754    0.00365
C14   1    0.791736    0.963244    0.123019    11.00000    0.03308    0.02061 =
         0.02479    0.00444    0.00833   -0.00263
AFIX  43
H14   2    0.782715    0.972709    0.210784    11.00000   -1.20000
AFIX   0
C15   1    0.914476    1.053600    0.089818    11.00000    0.03185    0.02590 =
         0.04151    0.00744    0.00262   -0.00805
AFIX  43
H15   2    0.989083    1.124928    0.155265    11.00000   -1.20000
AFIX   0
C16   1    0.930170    1.041713   -0.036770    11.00000    0.02770    0.02984 =
         0.05607    0.02074    0.01855    0.00136
AFIX  43
H16   2    1.014954    1.104241   -0.058537    11.00000   -1.20000
AFIX   0
C17   1    0.821001    0.937602   -0.132012    11.00000    0.03927    0.02688 =
         0.03864    0.01459    0.02446    0.01234
AFIX  43
H17   2    0.831514    0.927569   -0.219272    11.00000   -1.20000
AFIX   0
C18   1    0.696046    0.847793   -0.099885    11.00000    0.03320    0.01558 =
         0.02448    0.00455    0.01363    0.00684
AFIX  43
H18   2    0.620096    0.778568   -0.166136    11.00000   -1.20000
REM #####
AFIX   0
HKLF    4
 
REM  shelxt_a.res in P2(1)
REM R1 =  0.0421 for    2227 Fo > 4sig(Fo)  and  0.0613 for all    2858 data
REM    178 parameters refined using      1 restraints
 
END
 
WGHT      0.0494      0.0000
 
REM Highest difference peak  0.189,  deepest hole -0.253,  1-sigma level  0.049
Q1    1   0.6721  0.8616 -0.0387  11.00000  0.05    0.19
Q2    1   1.0281  0.0772  0.4765  11.00000  0.05    0.18
Q3    1   0.8574  0.8688 -0.2845  11.00000  0.05    0.18
Q4    1   0.9096  0.5306  0.5980  11.00000  0.05    0.17
Q5    1   0.4286  0.8752  0.2031  11.00000  0.05    0.16
Q6    1   0.6825  0.9290  0.0374  11.00000  0.05    0.16
Q7    1   0.7184  0.9450 -0.1204  11.00000  0.05    0.16
Q8    1   1.1407  1.0261 -0.0966  11.00000  0.05    0.16
Q9    1   0.6280  1.0566  0.2602  11.00000  0.05    0.16
Q10   1   0.8886  0.9521  0.1195  11.00000  0.05    0.15
Q11   1   1.0375  1.0222  0.2625  11.00000  0.05    0.15
Q12   1   0.6981  0.3901  0.8206  11.00000  0.05    0.15
Q13   1   0.9581  0.8363  0.1192  11.00000  0.05    0.15
Q14   1   0.6406  1.0297 -0.3205  11.00000  0.05    0.15
Q15   1   0.6909  0.2627  0.7665  11.00000  0.05    0.15
Q16   1   0.7209  0.4911  0.8034  11.00000  0.05    0.15
Q17   1   0.8782  0.3694  0.4631  11.00000  0.05    0.15
Q18   1   0.7250 -0.0725  0.4603  11.00000  0.05    0.15
Q19   1   0.7185 -0.0342  0.5443  11.00000  0.05    0.15
Q20   1   0.7728  0.6010  0.0862  11.00000  0.05    0.14
;
_shelx_res_checksum              20998
_shelx_hkl_file
;
 -10   0   1 41.2351 10.8149   1
 -10   0   2 32.3265 9.24784   1
 -10   0   2 29.7368 13.5325   1
 -10   0   3-3.78084 10.3475   1
 -10   0   3 5.45563 7.70327   1
 -10   0   4 25.6245 12.5801   1
 -10   0   4 18.9962 8.62917   1
 -10   0   5 40.7868 13.3185   1
 -10   0   5 30.3937  8.1416   1
 -10   0   6 0.58118 10.2697   1
 -10   0   6 2.02725 6.55908   1
 -10   0   7 4.73616 10.4422   1
 -10   0   8 4.96716 10.2628   1
 -10   0   9-5.19324 9.72498   1
 -10   1   1 11.7641 7.66294   1
  10  -1  -1 18.9951 8.78772   1
 -10  -1   1 0.98904 8.27816   1
 -10  -1   2  4.5111 12.7339   1
 -10   1   2 6.39268 7.01376   1
 -10  -1   2 8.50372 7.48187   1
 -10   1   2 15.6471 12.7359   1
 -10   1   3 19.0994 8.71019   1
 -10  -1   3 17.2733 11.8172   1
 -10   1   3 2.57372 11.4575   1
 -10  -1   3 11.2075 7.56514   1
 -10   1   4 16.4047 11.3172   1
 -10  -1   4 0.73663 6.39795   1
 -10   1   4 1.73514 6.95518   1
 -10  -1   4   9.009 11.2475   1
 -10   1   5  14.066 8.50733   1
 -10  -1   5 24.6928 11.9243   1
 -10   1   5 12.9949 11.7566   1
 -10  -1   5 21.0897 8.34651   1
 -10   1   6 79.1997 11.1862   1
 -10  -1   6 107.437 17.1371   1
 -10  -1   6  67.818 10.7304   1
 -10   1   6 107.316 17.2185   1
 -10  -1   7 20.7791  11.374   1
 -10   1   7 22.9376 12.0498   1
 -10   1   8 14.6423 10.8959   1
 -10  -1   8 25.3633 11.8094   1
 -10  -1   9 26.0477 11.9218   1
  10  -2  -1  5.2379 8.12454   1
 -10   2   1 3.92401 8.21939   1
  10  -2  -2-0.76548 7.15349   1
 -10  -2   2 4.57552 8.79549   1
 -10   2   2 6.95701 13.2713   1
 -10   2   2-1.11474 7.10933   1
 -10   2   3 19.0752 13.6101   1
 -10  -2   3 33.1724 13.1443   1
 -10  -2   3 19.0543 9.48361   1
 -10   2   3 12.1013 7.08402   1
 -10  -2   4-0.10488 6.99865   1
 -10   2   4 14.8167  12.799   1
 -10   2   4 4.47001 6.86522   1
 -10  -2   4 15.2099 12.1161   1
 -10   2   5 134.359 19.2821   1
 -10  -2   5 105.388 17.1068   1
 -10   2   5 93.2985 12.0305   1
 -10  -2   5  83.884  12.628   1
 -10   2   6 24.2708  12.624   1
 -10  -2   6 3.87577 8.99131   1
 -10  -2   6 26.5818 12.5957   1
 -10   2   7 31.3205 13.1077   1
 -10  -2   7 21.2792 12.0451   1
 -10   2   8  18.249 12.1018   1
 -10  -2   8 26.8415 12.2918   1
  10  -3  -1 12.9818 8.67358   1
 -10   3   1 9.84442 9.61448   1
 -10  -3   2 47.0662 10.9116   1
 -10   3   2 45.4074 10.2471   1
  10  -3  -2 49.8622 10.3696   1
 -10   3   2 42.6678 16.8474   1
 -10   3   3 1.70648 7.65454   1
 -10  -3   3-8.11733 7.39116   1
  10  -3  -3 1.17902 7.51761   1
 -10   3   3  1.6557 13.2236   1
 -10  -3   4 26.5547 9.19745   1
 -10  -3   4 58.2287 15.3961   1
 -10   3   4 55.4285 16.5136   1
 -10   3   4 37.5407 11.0209   1
 -10  -3   5 11.4402 7.55237   1
 -10  -3   5 27.8099 13.4537   1
 -10   3   5 33.8304 14.4509   1
 -10  -3   6 12.0371 12.1115   1
 -10   3   6  4.3769 12.4489   1
 -10  -3   7 34.2427 13.9249   1
 -10   3   7 32.0319  13.642   1
 -10  -4   4 4.45238 9.48767   1
 -10   4   4 6.68554 14.3907   1
 -10  -4   4 11.6847 19.5878   1
  -9   0   1 13.3061 10.2056   1
  -9   0   1 24.1167 7.22086   1
  -9   0   2 6.82779 9.53068   1
  -9   0   2 8.72958 5.59833   1
  -9   0   3 -1.8422 5.88113   1
  -9   0   3 4.22146 8.71396   1
  -9   0   4 2.83777 5.69938   1
  -9   0   4 8.28926 8.71746   1
  -9   0   5-2.95954 5.00656   1
  -9   0   5-0.18909 8.18989   1
  -9   0   6 101.801  12.032   1
  -9   0   6 87.6868 13.6337   1
  -9   0   7 14.2599 6.07851   1
  -9   0   7  40.827 10.1256   1
  -9   0   8-5.47282 5.01373   1
  -9   0   8-4.66407 7.25401   1
  -9   0   9 83.9793 10.3152   1
  -9   0   9 102.865 14.2793   1
  -9   0  10  4.7893 8.27728   1
  -9  -1   1 10.0341 10.2166   1
  -9   1   1 7.63838 10.6584   1
  -9   1   1 17.3903 8.12919   1
   9  -1  -1 2.91788 6.46967   1
  -9  -1   1 11.3881 7.54785   1
  -9   1   2 21.5276 7.29741   1
  -9   1   2  10.363  10.047   1
  -9  -1   2 7.43261  9.7259   1
  -9  -1   2 11.8667  6.1673   1
   9  -1  -2  17.793 6.92985   1
  -9  -1   3 58.5169 12.8266   1
  -9   1   3 66.9284 13.0787   1
  -9   1   3 65.8186 10.1726   1
  -9  -1   3 66.4459  9.6479   1
  -9  -1   4  7.8666 8.98045   1
  -9  -1   4 6.48826 5.52542   1
  -9   1   4 5.74124 8.76739   1
  -9   1   4 6.38495 5.76626   1
  -9   1   5 18.7233 9.83334   1
  -9  -1   5 26.5246 7.88172   1
  -9   1   5 22.4949 6.68713   1
  -9  -1   5 17.9454 9.36393   1
  -9   1   6  7.5018 8.66531   1
  -9  -1   6  11.979 6.21798   1
  -9  -1   6 16.2183 8.77214   1
   9   1  -6 10.9028 11.5215   1
  -9   1   6 6.47879 5.42917   1
  -9  -1   7 16.8852 6.84766   1
  -9   1   7 23.8287 6.33069   1
  -9  -1   7 15.0554 8.86145   1
   9   1  -7 10.9649 11.0659   1
  -9   1   7 21.8953 9.73131   1
   9  -1  -8 23.8102 15.0964   1
   9   1  -8 31.7001 12.7532   1
  -9  -1   8 27.0897 9.78776   1
  -9   1   8 45.4234 10.6924   1
  -9   1   8  31.448 6.49342   1
  -9  -1   8 33.5846 7.79102   1
  -9   1   9 6.89256 5.79176   1
  -9   1   9 33.1085 10.3765   1
  -9  -1   9 28.1375 9.20349   1
   9   1  -9 19.7066  12.504   1
  -9  -1   9 43.9046 11.2092   1
  -9   1  10  4.9018 8.55103   1
   9   1 -10  7.3024  11.013   1
  -9  -1  10  3.7043 8.69155   1
  -9  -2   1 36.6163  15.233   1
  -9   2   1 40.3278 8.42834   1
  -9  -2   1 28.8903 8.37224   1
  -9   2   1 35.1361 12.8412   1
   9  -2  -1 48.6536 9.41708   1
  -9   2   2 49.5801 9.55218   1
   9  -2  -2  37.257 8.34661   1
  -9  -2   2 24.3792 7.94248   1
  -9  -2   2 38.4017 11.6007   1
  -9   2   2 40.0067 13.2787   1
  -9   2   3 6.64486 9.98339   1
  -9  -2   3 2.02681 6.03338   1
  -9  -2   3 10.8314 9.84333   1
   9  -2  -3 4.16768 5.91395   1
  -9   2   3 5.49513 6.10948   1
  -9   2   4 1.12504 5.23423   1
  -9  -2   4 6.99108 9.02293   1
  -9  -2   4 1.69749 5.87354   1
  -9   2   4 10.6283 9.74749   1
  -9   2   5   80.33 10.3862   1
  -9   2   5  88.936 14.8512   1
  -9  -2   5 75.4413 13.2212   1
  -9  -2   5 59.3202 10.3658   1
  -9   2   6 286.568 23.9086   1
  -9  -2   6 242.864 19.4382   1
  -9  -2   6 317.783 24.4274   1
  -9   2   6 262.722 18.1123   1
  -9  -2   7-0.48111 8.20025   1
  -9  -2   7 3.38677 6.05303   1
  -9   2   7 11.7132 9.43612   1
   9   2  -7 18.9979 12.7024   1
  -9   2   7 11.4885 6.06956   1
  -9  -2   8 79.5617 13.1956   1
  -9   2   8 55.4002 8.31657   1
   9   2  -8 72.2712  16.768   1
   9  -2  -8 32.9534  15.065   1
  -9  -2   8 53.9176 10.0321   1
  -9   2   8 74.7365 13.4155   1
   9   2  -9-0.33022 11.8851   1
  -9  -2   9 10.6603 9.26777   1
   9  -2  -9 9.05996 10.7412   1
  -9   2   9 9.54256 9.12853   1
  -9   2  10 44.3748 11.7866   1
   9   2 -10 41.6736 15.0839   1
   9  -2 -10  27.956  12.045   1
   9  -3  -1 66.5273 10.4572   1
  -9  -3   1 37.3721 9.26059   1
  -9   3   1 53.5645  14.589   1
  -9   3   1 57.2898 9.03032   1
  -9   3   2   51.54 14.1304   1
   9  -3  -2 46.7952 8.85225   1
  -9   3   2 34.5821 9.08517   1
  -9  -3   2  49.648 10.8001   1
  -9  -3   2 37.6278 11.9522   1
  -9   3   3 31.3628 8.48978   1
  -9  -3   3 27.0864 11.2688   1
  -9   3   3 18.2213 11.8711   1
   9  -3  -3 29.5611 7.69958   1
  -9  -3   3 15.8137 6.95002   1
  -9   3   4 11.6772 6.58472   1
  -9   3   4 20.1482 11.4571   1
   9  -3  -4 16.2666 6.60402   1
  -9  -3   4 20.7962 10.5473   1
  -9  -3   4 7.84688 7.21425   1
  -9  -3   5 21.0047 8.22719   1
  -9   3   5 43.0574 7.86916   1
  -9   3   5 39.4826 12.6634   1
  -9  -3   5 59.7082 12.8415   1
  -9  -3   6 49.2348 12.4889   1
  -9   3   6 44.6588 8.17452   1
  -9  -3   6 29.5965 8.66312   1
  -9   3   6 68.5037 14.1947   1
  -9  -3   7 167.313 16.5181   1
  -9  -3   7 191.249 21.7719   1
  -9   3   7 183.517  14.815   1
  -9   3   7 191.915 21.3398   1
  -9   3   8 11.5441 9.82677   1
  -9  -3   8 9.07695 9.63945   1
   9  -3  -9 51.6197 14.0405   1
  -9   3   9 52.5021 13.0953   1
  -9   4   1 39.4515 9.00325   1
  -9   4   1 54.6835 16.2655   1
   9  -4  -1 66.9289 10.8469   1
   9  -4  -2 83.9265 10.7316   1
  -9   4   2 85.6936 17.5918   1
  -9  -4   2 46.0711 10.5344   1
  -9   4   2 92.4132 12.7016   1
   9  -4  -3-0.87699 6.21709   1
  -9  -4   3-0.05019 7.30164   1
  -9   4   3 10.2765 12.9097   1
  -9  -4   3-2.88255 10.0303   1
  -9   4   3 4.98763 6.57955   1
  -9   4   4 9.02348 7.40188   1
  -9  -4   4 12.3283 11.1331   1
  -9   4   4 15.9306 12.6144   1
  -9  -4   4 19.0035 8.46364   1
  -9   4   5 23.2161 12.9273   1
  -9  -4   5 14.0942 8.57048   1
  -9   4   5 13.4442 7.00038   1
  -9  -4   5 8.81502   10.55   1
  -9  -4   6 24.8297 9.33987   1
  -9   4   6 51.3965 14.6195   1
  -9  -4   6 62.5155  14.081   1
  -9   4   6 55.5126 12.8682   1
  -9  -4   7 29.0264  12.295   1
  -9   4   7 29.4488  12.829   1
  -9   4   8 34.1584  13.188   1
  -9   5   1 16.4281 8.69021   1
   9  -5  -1 11.2441 8.00806   1
  -9   5   2 32.7747 16.1337   1
   9  -5  -2 19.2911 8.44546   1
  -9   5   2 17.4939 8.88754   1
  -9   5   3 37.4174 9.35089   1
  -9  -5   3 28.1122 9.96488   1
  -9   5   3 39.9093 16.5553   1
  -9  -5   4 1.78879 8.30407   1
  -9   5   4 7.88017  14.017   1
  -9  -5   4 2.67687 11.4637   1
  -9   5   5 21.0452 14.4137   1
  -9  -5   5 2.26115 9.07332   1
  -9  -5   5-4.43408 11.1781   1
  -9   5   6 78.9035 17.6507   1
  -9  -5   6 55.4906 15.1897   1
  -9  -5   7 10.2858 12.7322   1
  -9   5   7 6.51116 12.9515   1
  -8   0   1 349.708 21.4332   1
   8   0  -1 374.309 21.7103   1
   8   0  -1 353.279 21.6096   1
  -8   0   1 378.775 26.1436   1
  -8   0   2-0.01307 4.22175   1
  -8   0   2 6.40334 7.24817   1
   8   0  -2 0.26557 4.66044   1
  -8   0   3 8.35975 7.27713   1
  -8   0   3 20.7704 6.12076   1
  -8   0   4 172.851 13.1061   1
   8   0  -4 157.945 20.2288   1
  -8   0   4 198.103   17.32   1
  -8   0   4 118.172  15.879   1
   8   0  -5 39.3743 12.2933   1
  -8   0   5 26.5415 8.15179   1
  -8   0   6 162.577 12.5207   1
  -8   0   6 188.193 16.2325   1
   8   0  -6 161.257 19.2385   1
  -8   0   7 75.5343 10.7136   1
   8   0  -7 35.9471 6.66832   1
  -8   0   7 57.8318 7.31439   1
  -8   0   8 67.9414 7.93697   1
  -8   0   8 84.4895 11.3854   1
   8   0  -8 65.7915 7.67336   1
  -8   0   9 180.758 15.7792   1
   8   0  -9 143.901 10.9685   1
  -8   0   9 134.416  11.288   1
   8   0 -10 10.1419 4.05962   1
  -8   0  10 19.6342 5.39351   1
  -8   0  11-1.39764 5.12305   1
   8   1  -1 82.7867 9.89244   1
  -8   1   1  51.328 9.80559   1
  -8  -1   1 83.2961 12.9887   1
  -8  -1   1 64.1974 8.84209   1
   8  -1  -1 79.6314 9.44667   1
  -8   1   1 76.3569 8.97337   1
   8  -1  -1 101.969 11.0153   1
  -8   1   1 94.9947 14.1053   1
  -8  -1   2 71.2498 12.2707   1
  -8   1   2 65.8991 8.90266   1
   8   1  -2   54.01  8.1538   1
  -8   1   2 76.5557 12.4535   1
  -8  -1   2 56.8865 8.40097   1
   8  -1  -2 91.6019 9.93054   1
  -8  -1   3 6.72754  4.8074   1
  -8   1   3 2.49124 4.70711   1
  -8  -1   3 8.05076 7.40095   1
  -8   1   3 15.3188 7.96057   1
   8   1  -3 3.93304  9.2278   1
   8   1  -4 10.5191 8.42058   1
  -8   1   4 14.3746 7.39786   1
  -8  -1   4 4.07971 4.63072   1
   8  -1  -4 6.23831 8.77074   1
  -8   1   4  6.0728 4.14874   1
  -8  -1   4 21.1679 7.51738   1
  -8   1   5 166.112 16.5989   1
   8   1  -5 164.687 19.6521   1
  -8  -1   5 138.715 11.9596   1
  -8  -1   5 163.326  15.675   1
  -8   1   5  162.68  12.094   1
   8  -1  -5 136.653  16.975   1
   8   1  -6 0.89951 8.17008   1
  -8  -1   6-0.98931 4.30611   1
  -8  -1   6 8.92103 6.93825   1
  -8   1   6 5.32379 6.55514   1
   8  -1  -6-0.47069 7.41814   1
   8  -1  -6-2.37131 5.03632   1
  -8   1   6 4.70105  4.1003   1
   8   1  -7 8.68981 8.99992   1
  -8  -1   7 8.98792 5.13887   1
  -8  -1   7 8.32516 6.59215   1
  -8   1   7 7.18288  4.5032   1
  -8   1   7  11.378 6.79859   1
   8  -1  -7 4.56668 8.32157   1
   8  -1  -7 3.77668 4.63299   1
   8   1  -8 1.80173 8.75294   1
  -8   1   8 0.55773 3.96785   1
   8  -1  -8 2.62285 8.19846   1
  -8  -1   8 5.29446 4.48565   1
  -8   1   8 0.35487 5.93799   1
   8  -1  -8 0.06838  4.3111   1
  -8  -1   8-0.11878  6.2244   1
  -8   1   9 17.8674 7.56794   1
  -8   1   9 12.3581 4.86381   1
   8  -1  -9 7.52423 4.58645   1
   8   1  -9 9.00019 4.93918   1
  -8  -1   9 13.9483 5.42431   1
   8   1  -9 13.3985 9.94648   1
   8   1 -10 13.9604 10.1183   1
  -8  -1  10 10.9989 5.39226   1
   8   1 -10 13.5373 4.62982   1
  -8   1  10 24.8677 7.74708   1
  -8   1  10 23.7537 5.65001   1
  -8   1  11-1.74032 6.51487   1
   8   1 -11 5.57671 9.49771   1
  -8   1  11 5.20774 4.89373   1
  -8  -2   1 56.3259 11.6401   1
  -8  -2   1 42.5227 7.88612   1
  -8   2   1  66.553  9.3051   1
   8   2  -1 53.8258 9.01993   1
   8  -2  -1 62.9612 8.74135   1
  -8   2   1 66.5949 12.8842   1
   8   2  -2 26.6102 7.42564   1
   8  -2  -2 11.6213 5.50591   1
  -8  -2   2 16.2062 8.60513   1
  -8  -2   2   12.40  6.7633   1
  -8   2   2 20.9102 5.64345   1
  -8   2   2 21.8301 9.95347   1
  -8   2   2  11.693 7.04935   1
  -8  -2   3 14.4519 7.93581   1
  -8   2   3 9.65254 8.09076   1
   8   2  -3 11.3912 13.1179   1
  -8   2   3 7.55493 5.29358   1
   8  -2  -3 6.83912 5.08025   1
  -8  -2   3 16.8377 6.83147   1
   8  -2  -4 112.136 10.3188   1
   8  -2  -4 115.091 17.1649   1
  -8  -2   4  134.96 12.4483   1
   8   2  -4 156.146 19.7222   1
  -8  -2   4 147.523 15.7904   1
  -8   2   4 138.965 11.5553   1
  -8   2   4 121.854 15.7565   1
   8  -2  -5 7.84071 8.93339   1
  -8  -2   5 8.37723 7.25458   1
  -8   2   5  6.1432 4.70451   1
  -8  -2   5 2.85903 5.00735   1
  -8   2   5 13.5991 7.76611   1
   8   2  -5 9.02008 9.78003   1
  -8   2   6 49.2972 9.96957   1
  -8  -2   6 46.6239 8.34785   1
  -8   2   6 49.1792 7.26184   1
  -8  -2   6 48.6434 9.84153   1
   8  -2  -6 42.1416 11.2109   1
   8   2  -6 43.1089 12.8616   1
  -8  -2   7 38.5179 7.82981   1
  -8  -2   7 32.0251 8.83123   1
  -8   2   7 46.1428 6.83012   1
  -8   2   7 43.1329 9.57169   1
   8   2  -7 49.7224 13.0989   1
   8  -2  -7 35.5129 7.32031   1
   8  -2  -7 54.1071 12.1959   1
   8  -2  -8  60.293 11.8836   1
  -8   2   8 48.0818 7.17339   1
   8   2  -8 48.6149  13.314   1
  -8  -2   8 42.6338 7.68255   1
   8  -2  -8 41.0431  6.5915   1
  -8   2   8 57.4849 10.5126   1
   8  -2  -9 6.29073 8.06829   1
  -8   2   9 9.41276 4.91392   1
  -8  -2   9  13.136 6.11213   1
  -8   2   9 2.96659 6.91502   1
   8   2  -9 12.1807 10.9067   1
  -8  -2  10 15.9515 6.64177   1
   8  -2 -10 9.96331 8.82975   1
   8   2 -10 12.7916 11.4654   1
  -8   2  10 15.0101 5.38722   1
  -8   2  10 21.2228  8.0555   1
   8   2 -11 27.7019 12.4545   1
  -8   2  11  14.182 6.93715   1
  -8   2  11 16.5414 8.04219   1
  -8   3   1  124.82  12.626   1
  -8   3   1  132.48  17.713   1
  -8  -3   1 137.702 14.5152   1
  -8  -3   1  143.75 18.2638   1
   8   3  -1 144.508 14.4069   1
   8  -3  -1 158.585 13.0946   1
  -8  -3   2  79.399 10.6144   1
  -8   3   2  74.395 9.26562   1
  -8  -3   2 81.2448 13.0177   1
  -8   3   2 103.892 15.4756   1
   8  -3  -2   79.11  9.5478   1
   8  -3  -3 26.3399 6.31938   1
  -8   3   3 25.6669 6.67155   1
  -8   3   3  40.751 11.3832   1
  -8  -3   3 40.8282 10.1804   1
  -8  -3   3 28.8343 6.43765   1
  -8  -3   4 23.2643 8.82171   1
  -8   3   4 11.5967  5.7548   1
  -8  -3   4 0.94761 5.22979   1
  -8   3   4 12.4388 9.28315   1
   8  -3  -4 9.10249 5.08334   1
  -8  -3   5 95.1424 10.9533   1
  -8  -3   5 137.951 16.4807   1
   8  -3  -5 112.382 18.0541   1
   8   3  -5  134.02 20.6195   1
  -8   3   5 121.028 11.4666   1
  -8   3   5 137.181 16.7915   1
  -8   3   6 43.7015 10.4167   1
  -8  -3   6 47.5825 10.7138   1
  -8   3   6 50.4939 7.45534   1
  -8  -3   6 32.5816 7.88049   1
   8   3  -6 47.6353 14.4794   1
   8  -3  -6  51.775 13.0371   1
   8   3  -7 61.5133 16.2858   1
  -8   3   7 65.3746 11.8007   1
  -8   3   7 59.5902 7.70119   1
   8  -3  -7  34.399 11.1221   1
  -8  -3   7 22.4629 6.81919   1
  -8   3   8 37.7523 6.53045   1
   8  -3  -8 45.9992 12.2218   1
  -8   3   8 35.1133  10.017   1
   8   3  -8 36.1766 14.5209   1
  -8  -3   8 22.5397 6.93594   1
  -8   3   9 33.6396  6.3773   1
   8  -3  -9 31.2844 10.3103   1
   8   3  -9 30.0059 14.3929   1
  -8   3   9 36.4176 9.96189   1
  -8  -3   9   30.97 7.89859   1
   8   3 -10 156.218 22.3385   1
   8  -3 -10  140.36 16.8173   1
  -8   3  10  132.42 11.8388   1
  -8   3  10 157.491 17.4472   1
   8  -3 -11 14.0432  8.9472   1
   8   3 -11 10.9018 14.3452   1
  -8   3  11 21.5278 8.99914   1
  -8  -4   1 5.60655 6.74661   1
  -8   4   1 16.7523 11.8075   1
  -8   4   1 12.0751 6.74495   1
   8  -4  -1 0.53323 5.72212   1
  -8  -4   2 40.3352 9.31228   1
  -8   4   2 49.5605 8.45824   1
  -8   4   2 50.1305 13.4686   1
   8  -4  -2 46.0793 7.82511   1
  -8  -4   2  30.198 10.1735   1
   8  -4  -3 8.84739 5.60405   1
  -8   4   3 2.59501  9.9733   1
  -8   4   3 10.6959 5.95028   1
  -8  -4   3   3.466 6.17893   1
  -8  -4   3-1.87885 8.21059   1
  -8  -4   4 37.1439 8.77481   1
  -8   4   4  44.944 12.4858   1
  -8   4   4  52.589 8.38302   1
   8  -4  -4 59.3264 7.74187   1
  -8  -4   4 58.9125 12.0821   1
  -8   4   5 27.2815 11.0268   1
  -8   4   5 17.6711 6.10733   1
  -8  -4   5 20.6049 9.94462   1
  -8  -4   5 15.0839 7.31745   1
  -8   4   6 2.15106 4.84005   1
  -8  -4   6 1.54255  6.8173   1
   8  -4  -6 0.00705 11.3883   1
  -8   4   6 12.7911 9.76965   1
  -8   4   7 5.37241 5.17147   1
  -8   4   7 12.9476 9.83524   1
   8  -4  -7  6.4602 10.7591   1
  -8  -4   7 11.3881 7.39834   1
   8  -4  -8 36.8073 12.1552   1
   8   4  -8 84.4118 28.1241   1
  -8  -4   8  60.605 10.0643   1
  -8   4   8 78.6336 13.6902   1
  -8   4   8 64.9008 8.61178   1
   8  -4  -9  7.0318 9.71328   1
   8   4  -9  11.825 14.8738   1
  -8   4   9 3.37724 9.29257   1
   8  -4 -10 66.3438 13.2481   1
  -8   4  10  84.555 14.0805   1
   8   4 -10 89.7128 20.1452   1
  -8   5   1 8.95688 13.2359   1
   8  -5  -1 6.54256 6.56054   1
  -8   5   1 4.99069 6.56325   1
  -8   5   2 25.2033 13.6748   1
  -8   5   2 9.15052 7.15817   1
  -8  -5   2 14.5505 8.09201   1
   8  -5  -2 23.6444 7.19629   1
  -8  -5   3 37.5836  12.015   1
   8  -5  -3 38.2516 7.76366   1
  -8  -5   3 37.3808  9.5059   1
  -8   5   3 26.6758 13.8065   1
  -8   5   3 30.7327  7.5357   1
  -8  -5   4 4.46956 7.10119   1
  -8  -5   4 0.32222 9.00419   1
  -8   5   4  3.5817 5.90787   1
  -8   5   4 4.68635 11.0436   1
  -8  -5   5   2.406 7.01842   1
  -8   5   5 11.5813 6.41634   1
  -8  -5   5  17.284 10.4183   1
  -8   5   5 23.0765  12.267   1
  -8   5   6 27.9501  7.2042   1
  -8   5   6 15.2831 11.7612   1
  -8  -5   6 14.7297 8.43007   1
  -8  -5   7 12.1832 8.03961   1
  -8   5   7 5.04275   11.18   1
   8  -5  -8 10.3058 11.3105   1
  -8   5   8 11.7923 11.4648   1
  -8   5   9 7.86625 11.3511   1
   8  -5  -9 8.77572 11.2119   1
   8  -6  -1 10.6609 8.12887   1
  -8   6   1 11.8506 16.1011   1
  -8   6   1 15.8632 8.52581   1
  -8   6   2 93.8737 19.3064   1
  -8   6   2 66.5578 11.1238   1
   8  -6  -2 83.2849 10.8361   1
  -8   6   3 2.14592  6.7534   1
  -8   6   3 12.3247 14.6077   1
  -8  -6   3-3.80635 7.60687   1
  -8   6   4 11.5299 13.6371   1
  -8  -6   4 12.1228 11.0049   1
  -8   6   4 8.69787 7.54367   1
  -8  -6   4 4.18217 8.41546   1
  -8  -6   5 27.0776 12.6145   1
  -8   6   5 58.3235 16.7543   1
  -8  -6   5 14.5767 10.1234   1
  -8  -6   6 10.0674 9.92969   1
  -8   6   6 5.88017 13.0093   1
  -8   6   7 6.19924 13.2131   1
  -7   0   1 45.0058 7.21413   1
   7   0  -1 61.3282 7.62081   1
  -7   0   1 54.3478 9.91319   1
  -7   0   1 37.3554 10.9216   1
  -7   0   1 47.1812 11.3521   1
   7   0  -1 62.4636 8.35379   1
  -7   0   1 66.3619 8.56998   1
   7   0  -1 51.4644 7.38271   1
  -7   0   2   0.129 5.37646   1
  -7   0   2 1.08289 6.35466   1
  -7   0   2 0.48218 3.77234   1
  -7   0   2 6.61038  8.5684   1
   7   0  -2 3.56969 7.89187   1
  -7   0   2-0.15996 3.32861   1
   7   0  -2 3.14742 3.43961   1
   7   0  -2 3.08206  3.8991   1
  -7   0   3 4.96886 8.10186   1
   7   0  -3 5.17222 3.76391   1
  -7   0   3 9.31518 4.87035   1
  -7   0   3 11.3055 5.85325   1
   7   0  -3 6.27759 7.47023   1
  -7   0   3 11.1199 4.56142   1
  -7   0   3 11.2731 3.85576   1
   7   0  -3 13.1389 4.21048   1
   7   0  -4 45.7982 10.6225   1
  -7   0   4 55.3666 7.39309   1
   7   0  -4 36.8098 5.97238   1
  -7   0   4 47.8147 8.30482   1
   7   0  -4 61.5499 6.16819   1
  -7   0   4 57.1861 7.43263   1
  -7   0   4 60.7258 7.53521   1
   7   0  -5 127.519 16.1651   1
  -7   0   5 156.689 11.9193   1
  -7   0   5 150.289 10.7171   1
  -7   0   5 171.919 13.6221   1
  -7   0   5 146.961 11.6417   1
   7   0  -5 151.378 11.0463   1
   7   0  -5 170.528 17.4243   1
  -7   0   6 245.141 16.4986   1
  -7   0   6 194.842 14.1654   1
  -7   0   6 234.076 15.0484   1
  -7   0   6 217.648 13.4099   1
   7   0  -6 233.995 19.8129   1
   7   0  -6 227.856 13.8491   1
   7   0  -6  241.49 20.1472   1
   7   0  -7 24.0717 4.81326   1
  -7   0   7 20.5387 4.48979   1
   7   0  -7 22.5066 8.14238   1
  -7   0   7 22.5368 6.02871   1
  -7   0   7 17.8389  5.0345   1
   7   0  -8  8.7223 3.72388   1
   7   0  -8 5.36818 7.01359   1
  -7   0   8 6.40274 3.69472   1
   7   0  -9  5.8098 3.46882   1
   7   0  -9 -2.6198  6.4288   1
  -7   0   9 6.70684 3.65494   1
  -7   0  10 3.08592 3.67589   1
   7   0 -10 2.74541 7.08417   1
  -7   0  11 0.81367  3.9355   1
  -7   0  12 -0.0477 4.52098   1
  -7   1   1 20.1622 5.20364   1
  -7  -1   1 18.0109 7.42351   1
   7   1  -1 15.4722 5.22214   1
  -7  -1   1 8.63596 9.37306   1
  -7  -1   1 10.6688 4.68635   1
  -7   1   1 13.8862 7.34559   1
  -7   1   1 8.48514 7.56844   1
  -7  -1   1 5.35845 4.23245   1
   7  -1  -1 12.0366 4.52537   1
   7  -1  -1 20.6043  8.7864   1
  -7   1   1 15.0487 10.2245   1
   7  -1  -1 5.19668 4.51215   1
  -7  -1   1 6.90804 7.53435   1
  -7   1   1 6.05516 3.87873   1
   7   1  -1 12.8526 4.76902   1
   7  -1  -1 11.0506 4.44903   1
   7  -1  -2 129.596 10.2375   1
   7   1  -2 120.056 10.6935   1
   7   1  -2 141.424 10.9499   1
   7  -1  -2 123.284 10.0882   1
  -7   1   2 130.866 13.1261   1
  -7  -1   2  130.67 13.6253   1
  -7   1   2 120.029 9.86932   1
  -7  -1   2 142.098 11.0532   1
  -7  -1   2 126.671 17.4531   1
   7  -1  -2 109.911 15.8525   1
  -7   1   2 110.987 10.5534   1
  -7   1   2 130.175 13.8788   1
   7   1  -2 127.098 16.3287   1
  -7  -1   2  116.00 10.8927   1
  -7   1   2 112.854 15.9682   1
   7  -1  -3 28.9343 5.37709   1
  -7   1   3 24.2801  6.9421   1
   7  -1  -3 16.9771 8.25832   1
   7   1  -3 36.9888 6.12333   1
  -7  -1   3  34.385 6.30677   1
  -7  -1   3 33.1752 7.53285   1
   7  -1  -3 20.4984 5.22885   1
   7   1  -3 40.8352 10.6853   1
  -7  -1   3 28.0853 12.5659   1
  -7   1   3 22.5376 4.85131   1
  -7   1   3 30.2445 6.35174   1
  -7  -1   3 32.3891 5.66861   1
   7  -1  -3  27.093 4.99692   1
  -7   1   3 24.5067 5.30671   1
   7   1  -3 22.8132 5.00536   1
  -7  -1   3 1.85814 7.99716   1
  -7  -1   3 24.0862 5.61181   1
  -7   1   3 19.0514 9.49117   1
  -7  -1   4 52.4912 8.62238   1
   7   1  -4 53.1368 11.3131   1
  -7   1   4 53.9154 7.47876   1
  -7  -1   4 44.1334 6.72007   1
   7  -1  -4 46.0666 6.30946   1
   7  -1  -4 52.9439 5.40088   1
   7  -1  -4 59.4296 11.7873   1
  -7   1   4 50.7242 6.74528   1
  -7  -1   4 50.1129 7.10746   1
   7   1  -4 41.5558 6.51305   1
  -7  -1   4 52.5395 14.7689   1
  -7   1   4 59.6519  9.1969   1
  -7   1   4 54.9495 7.14294   1
  -7  -1   4 47.1637 6.50242   1
  -7  -1   5 6.96915 4.34757   1
   7  -1  -5 7.15656 7.00252   1
  -7  -1   5 6.94656 4.58702   1
  -7   1   5 5.60339 5.22425   1
   7   1  -5 8.71007 2.83656   1
  -7   1   5 9.65083 4.95108   1
   7   1  -5 7.21211 4.17195   1
  -7  -1   5 9.23471 4.66965   1
  -7   1   5 4.28076  4.1046   1
  -7  -1   5 5.61715  5.4068   1
   7   1  -5 15.1379 8.52622   1
   7  -1  -5 15.7546 4.52919   1
  -7   1   5 6.78896 3.50478   1
  -7   1   6 256.216 14.9048   1
  -7   1   6 263.322 17.5942   1
   7   1  -6 247.907 15.4867   1
  -7  -1   6 263.218   16.31   1
   7  -1  -6 262.209 15.4372   1
   7  -1  -6  279.18 20.8054   1
  -7  -1   6  237.59 19.0424   1
  -7   1   6 260.551 15.8641   1
   7   1  -6  281.90 22.1569   1
  -7  -1   6 297.373 18.5408   1
  -7  -1   6 241.676  15.486   1
  -7   1   7 85.3794 10.2713   1
   7   1  -7  99.457 14.2144   1
  -7   1   7 82.5178 8.33495   1
   7  -1  -7 82.9103 12.3186   1
   7  -1  -7 77.6029 7.94035   1
  -7   1   7 69.8983 7.33001   1
  -7  -1   7 72.8906 12.9984   1
  -7  -1   7 88.2191  8.3862   1
   7   1  -7 81.9192 8.38372   1
  -7   1   8 19.4204 4.37289   1
   7  -1  -8 14.8949 4.11695   1
   7  -1  -8 19.5259 8.12914   1
   7   1  -8 12.8844 8.60728   1
  -7   1   8 20.2577 6.19573   1
  -7   1   8 12.3287  6.3435   1
   7   1  -8 20.9455 4.74619   1
  -7  -1   8 10.1498 4.41359   1
  -7  -1   9 22.7303 5.12401   1
   7   1  -9 22.8476 9.88275   1
  -7   1   9 30.0521 5.00787   1
   7   1  -9 22.6468  4.4291   1
  -7  -1  10 11.2241 4.74298   1
  -7   1  10 5.65675 3.78729   1
   7   1 -10 4.57541 3.14665   1
   7   1 -10 1.19703 8.19399   1
  -7   1  11 18.3404 4.52838   1
  -7  -1  11  16.373 5.17755   1
   7   1 -11  14.428 9.15021   1
  -7  -1  12 8.23106  5.4722   1
  -7   1  12 7.32937 4.16894   1
   7   1 -12 4.56322 8.40179   1
  -7   2   1 30.1314 9.22153   1
   7   2  -1 12.4384 4.96097   1
  -7   2   1 14.4647 5.23014   1
  -7   2   1 13.3343 12.6248   1
   7   2  -1 21.1513 8.70645   1
   7  -2  -1 14.2627 5.12572   1
   7  -2  -1 17.2577 10.1426   1
  -7  -2   1 10.0806 7.23134   1
   7  -2  -1 23.3707 5.31114   1
  -7   2   1 24.4235 5.75944   1
  -7   2   1 13.7914 5.39247   1
  -7   2   1 22.7966 14.3598   1
  -7  -2   1 15.8576 5.11075   1
   7  -2  -1 20.3357 5.51913   1
  -7  -2   1  21.987 5.50196   1
   7   2  -1 21.9861 6.02004   1
   7   2  -2 199.355 19.9959   1
  -7   2   2 150.666 21.1543   1
   7  -2  -2 189.206 12.9337   1
   7   2  -2 204.443  13.966   1
  -7  -2   2 169.481 13.6619   1
  -7  -2   2 213.091 17.1523   1
  -7   2   2  186.72 12.9473   1
  -7  -2   2 167.697 20.2002   1
  -7   2   2 206.961 17.6692   1
   7  -2  -2 200.694 13.1245   1
   7  -2  -2 198.726  20.264   1
  -7  -2   2 200.943  22.618   1
   7   2  -2 183.792 13.7199   1
  -7   2   2 194.257 14.3411   1
  -7  -2   2 210.611 14.4519   1
  -7   2   2 186.307 13.9438   1
  -7   2   3 8.81178 4.48469   1
  -7  -2   3 9.80636 9.32185   1
   7  -2  -3  2.3754 3.75533   1
  -7  -2   3 9.40965 4.57924   1
  -7   2   3 6.53934 3.87138   1
   7  -2  -3 9.11445  7.8039   1
  -7   2   3 2.19296 4.16666   1
  -7   2   3 6.55606 6.12793   1
  -7  -2   3 3.51595 10.4356   1
  -7   2   3-0.88349 3.98468   1
  -7   2   3-3.14687 6.79619   1
   7   2  -3-2.42045 7.04746   1
   7   2  -3-5.29809  3.5132   1
  -7  -2   3 9.15406  6.2418   1
  -7  -2   3 2.13017 4.16401   1
   7   2  -3-2.60448 2.84715   1
   7  -2  -3-1.23419 3.19743   1
   7  -2  -3 5.03257  3.9291   1
   7  -2  -4 101.011 7.21032   1
  -7   2   4  105.69 9.85996   1
   7  -2  -4 66.9775 11.9719   1
  -7   2   4 75.7546 8.21052   1
  -7  -2   4 76.7057 9.18094   1
  -7  -2   4 88.5745 11.2966   1
   7   2  -4 96.3137 9.45298   1
  -7   2   4 79.6545 9.15674   1
   7   2  -4 106.428 15.7635   1
  -7  -2   4 97.8281 9.62152   1
  -7  -2   4 80.8453 14.6184   1
  -7   2   4 99.8975 12.2608   1
   7  -2  -4 84.5903 7.89511   1
   7  -2  -4 90.7329 9.12154   1
   7   2  -4 90.5298 8.53331   1
  -7  -2   4  111.33 10.5208   1
   7  -2  -5 3.61199 4.08502   1
   7  -2  -5 12.2333 7.67903   1
   7   2  -5 22.2504 9.66703   1
  -7  -2   5 16.6247 5.45393   1
  -7   2   5  22.649 5.35649   1
  -7   2   5 6.31227 5.10775   1
  -7  -2   5 10.9739 4.91218   1
  -7   2   5 12.2154 4.18259   1
  -7   2   5 23.8502 6.97316   1
  -7  -2   5 25.5662 7.13801   1
  -7  -2   5 17.1139 5.61502   1
   7   2  -5 9.54158 4.58813   1
  -7   2   6 226.032 16.6832   1
   7   2  -6 223.324 14.7737   1
  -7   2   6 217.153 14.3781   1
   7  -2  -6 241.948 19.6076   1
  -7  -2   6 189.473 14.3559   1
  -7   2   6 230.783 13.7512   1
   7  -2  -6 240.666 14.3129   1
   7   2  -6 229.123 22.0277   1
   7  -2  -7 113.025 14.1015   1
  -7   2   7 127.749 9.54678   1
  -7  -2   7 106.596 9.86065   1
   7  -2  -7 117.983 9.43513   1
   7   2  -7 121.793 10.5728   1
  -7   2   7 131.308 12.6082   1
   7   2  -7 136.035 18.3155   1
  -7  -2   8-0.40005 3.98194   1
   7  -2  -8 5.46381 6.39383   1
  -7   2   8 5.08173 3.75161   1
  -7   2   8 10.8266 5.72051   1
   7   2  -8 8.08934  9.8567   1
   7   2  -8 9.13658 4.52361   1
  -7  -2   9  32.585 6.40019   1
   7  -2  -9 38.2742 8.76207   1
  -7   2   9 38.6468 5.55481   1
   7   2  -9  47.201 12.6389   1
   7   2  -9 35.2436  5.7666   1
  -7   2   9  36.834 7.33893   1
  -7   2  10 192.283 12.2113   1
  -7   2  10 209.457 14.9855   1
   7   2 -10  225.69 21.4552   1
   7  -2 -10 155.054 15.3361   1
  -7  -2  10 169.393 13.1828   1
   7   2 -10 184.829 12.3283   1
   7   2 -11 6.11034 10.3539   1
  -7   2  11-1.39375 3.78091   1
  -7   2  11 1.95803 5.44761   1
  -7  -2  11 9.34784  5.8475   1
  -7   2  12 -0.1877 4.12852   1
   7   2 -12-18.0938 9.28899   1
  -7  -3   1 37.2508 9.29922   1
  -7  -3   1 38.6811 7.28669   1
  -7  -3   1 29.7459 6.54158   1
  -7   3   1 27.6012 6.67483   1
   7   3  -1 26.8309 6.70676   1
  -7   3   1 36.9045 10.3144   1
  -7   3   1 18.5796  7.0926   1
   7  -3  -1 40.4308 6.75566   1
  -7   3   1 31.3182 6.40501   1
   7  -3  -1 30.6983 6.19465   1
  -7   3   2 258.262  16.047   1
  -7  -3   2 238.188 16.6335   1
  -7   3   2 258.913 17.6641   1
   7  -3  -2 255.671  15.529   1
  -7  -3   2 240.612 19.4638   1
   7   3  -2 242.029 23.0686   1
  -7  -3   2 228.761 16.8052   1
   7   3  -2 240.157 16.5834   1
  -7   3   2 247.779 20.8909   1
   7  -3  -2 259.975 15.3602   1
  -7   3   2  236.93 16.8874   1
  -7  -3   3 27.7926 6.58175   1
  -7  -3   3 26.1487 8.10684   1
   7   3  -3 21.9188 10.6689   1
  -7   3   3 28.1226 8.28369   1
  -7   3   3 25.6829 6.14865   1
  -7   3   3 31.9882 5.80736   1
   7  -3  -3 5.63395 9.19073   1
   7  -3  -3 28.7724 5.36909   1
  -7  -3   3 27.1062 5.98738   1
   7   3  -3 25.8404 5.95146   1
   7  -3  -3 21.8036 5.39989   1
  -7   3   3 39.1067 9.57362   1
   7  -3  -4 20.2819 10.2106   1
  -7  -3   4 31.3931 6.93878   1
   7  -3  -4 43.4873 5.71423   1
  -7   3   4 38.8032 6.44496   1
  -7  -3   4 42.5945 12.2572   1
  -7   3   4 45.5608 9.71322   1
   7   3  -4  33.209 11.9654   1
  -7   3   4 40.4117 10.9241   1
   7  -3  -4 41.8487 6.84833   1
  -7  -3   4 34.4015 8.54223   1
  -7   3   5 125.618 14.4775   1
  -7  -3   5 117.803 11.6092   1
  -7  -3   5 109.293 12.0371   1
  -7   3   5  128.72 10.6086   1
   7  -3  -5 130.675  9.0201   1
   7  -3  -5 146.051 11.2614   1
   7   3  -5  166.68  19.749   1
  -7   3   6 170.069  12.191   1
  -7   3   6 181.436 16.2325   1
   7  -3  -6 185.327 13.0087   1
   7   3  -6 218.921 22.2541   1
  -7  -3   7 77.1273 9.16812   1
   7   3  -7 97.2402 16.5437   1
   7  -3  -7 46.9604 10.6458   1
  -7   3   7 91.3879 11.7086   1
  -7   3   7 88.7798 8.56733   1
   7   3  -8  90.902 16.4113   1
  -7   3   8  98.272 12.1863   1
  -7   3   8  76.123 8.05521   1
  -7  -3   8 72.9234 8.89082   1
   7  -3  -8 69.9865 11.4629   1
  -7   3   9 128.745 13.5832   1
   7   3  -9 151.531  19.989   1
  -7  -3   9 114.698 11.4911   1
  -7   3   9 129.061 10.3308   1
   7  -3  -9 116.071 13.9699   1
   7   3 -10 75.1479 15.8593   1
  -7   3  10 69.1394  9.6788   1
   7  -3 -10 62.1448  10.501   1
  -7  -3  10 51.7187 8.75362   1
  -7   3  10 56.4955 6.93563   1
   7   3 -11 17.2989 12.8172   1
  -7   3  11 15.6893 5.03715   1
   7  -3 -11 9.23756 6.82303   1
  -7   3  11 19.0171 6.84018   1
  -7  -4   1 33.7339 7.65952   1
   7  -4  -1 39.2531 7.30815   1
  -7  -4   1 30.8137 9.80111   1
  -7   4   1 39.3207 7.31307   1
  -7   4   1 32.6956 7.83656   1
  -7   4   1 31.8539 11.1486   1
   7   4  -1 34.8701 7.72597   1
  -7  -4   1 47.4203 8.86701   1
   7  -4  -2 120.471  10.307   1
  -7   4   2 118.725 16.0079   1
  -7  -4   2 130.819 15.6144   1
   7   4  -2 136.423 12.6906   1
  -7  -4   2 107.676 12.5988   1
  -7   4   2 110.956 11.3348   1
  -7  -4   3 58.8626 9.14583   1
   7  -4  -3 31.3335 13.1097   1
  -7   4   3 47.6778 7.48363   1
   7   4  -3 53.4244 12.2158   1
  -7  -4   3 71.1815 11.4631   1
   7  -4  -3 71.1717 7.68886   1
  -7   4   3 62.9351 11.9893   1
  -7   4   4 39.6695   7.103   1
   7   4  -4 58.3973 14.1053   1
  -7   4   4 35.0863 10.1536   1
  -7  -4   4  30.705  7.1735   1
  -7  -4   4 45.9482 9.64465   1
   7  -4  -4 38.6125  5.8405   1
   7  -4  -4 39.5456 12.9065   1
   7  -4  -5 6.87264 3.87845   1
  -7   4   5 4.40115 8.03537   1
   7  -4  -5 4.88211 8.99916   1
  -7   4   5 1.41652   4.438   1
   7   4  -5-2.62041 9.86104   1
  -7  -4   5 2.72037 6.29839   1
  -7   4   6 399.874 27.0279   1
   7   4  -6 454.965 33.3331   1
   7  -4  -6 357.279 27.5872   1
  -7   4   6 408.394 22.7326   1
  -7  -4   6 368.115 22.8738   1
  -7  -4   7 8.41964 6.55382   1
  -7   4   7 2.96589 6.88151   1
   7   4  -7 11.8328 11.5646   1
   7  -4  -7 6.91119 8.94243   1
  -7   4   7 4.10301 4.42393   1
  -7  -4   8 18.3565 6.90755   1
  -7   4   8  18.105 5.48159   1
   7   4  -8 23.1873 13.3961   1
   7  -4  -8-4.47645 7.39553   1
  -7   4   8 23.4923 8.32815   1
  -7  -4   9 6.68666 6.64166   1
   7   4  -9 20.0514 13.5324   1
  -7   4   9 11.3641 7.71063   1
   7  -4  -9-4.61853 7.26034   1
  -7   4   9 9.88465 4.89244   1
  -7   4  10 29.0057 6.34438   1
  -7   4  10 22.5399 8.52066   1
   7  -4 -10 15.0559 8.33733   1
   7   4 -10 21.4348 14.5156   1
   7   4 -11 5.23792 13.9032   1
  -7   4  11 5.58071 7.82961   1
   7  -4 -11 7.18752 7.17513   1
  -7   4  11-5.45404 6.69266   1
   7   5  -1 3.78266 5.81228   1
  -7  -5   1 6.43737  11.419   1
  -7  -5   1-0.67956 6.12016   1
  -7   5   1-0.82788 10.7149   1
   7  -5  -1 7.31513 5.68273   1
  -7   5   1 3.39965 5.50264   1
  -7  -5   2 100.872 14.2655   1
  -7   5   2 95.1322 10.5778   1
   7  -5  -2 86.8486 9.48276   1
  -7   5   2 100.492  16.424   1
  -7  -5   2   70.25 10.7508   1
   7  -5  -3 17.4133 5.55365   1
  -7   5   3 19.4125 6.21934   1
  -7  -5   3 31.3705 7.84146   1
  -7   5   3 23.3532 11.6762   1
  -7  -5   3 30.6262 9.91143   1
  -7   5   4 9.09703 5.62965   1
  -7  -5   4 13.7439 6.58374   1
  -7   5   4 26.3548 10.9169   1
   7  -5  -4 13.4419 4.77517   1
  -7  -5   5 48.0836 8.81542   1
  -7   5   5 83.5066 14.2306   1
   7  -5  -5 34.1331  14.665   1
  -7   5   5 92.2556 10.2884   1
  -7   5   6-2.09347 4.70131   1
   7  -5  -6 0.24912 10.3656   1
  -7  -5   6-7.23449 5.32093   1
  -7   5   6 0.79812 8.73406   1
  -7   5   7 18.1577  10.106   1
  -7  -5   7 14.4694 7.43238   1
  -7   5   7  7.3586  5.5517   1
   7  -5  -7 5.90642 10.4049   1
  -7   5   8 28.5433 11.0844   1
   7  -5  -8 10.2908 9.92515   1
  -7  -5   8 36.2826 9.15973   1
  -7   5   8 41.2995 7.38291   1
  -7   5   9   58.68 8.62469   1
  -7   5   9 45.8432  12.245   1
   7  -5  -9 35.6234  11.633   1
  -7   5  10 37.3409 11.4455   1
   7  -5 -10 16.1498 9.89372   1
  -7   6   1-3.54969 5.67597   1
  -7   6   1 -2.9032 12.4976   1
   7  -6  -1-2.90557 5.84098   1
  -7  -6   2 0.20057 6.67117   1
   7  -6  -2-1.57523 5.45442   1
  -7   6   2  1.1648 6.15333   1
  -7   6   2-0.72685 11.7157   1
  -7  -6   3 23.3852 10.5647   1
   7  -6  -3 37.9848 7.05375   1
  -7  -6   3 32.8928 9.60977   1
  -7   6   3 39.5214 14.0865   1
  -7   6   3 28.7308 7.95011   1
  -7   6   4 21.1937 7.42167   1
  -7   6   4 15.9899  6.7859   1
  -7  -6   4 7.82079 7.28673   1
  -7   6   4  33.438 13.3703   1
  -7   6   5-10.2335 10.6607   1
  -7   6   5-2.09028 5.50832   1
  -7  -6   5 6.03469 7.47799   1
  -7   6   6 4.80637 6.02454   1
  -7   6   6 0.06359 10.5996   1
  -7  -6   6-0.62069  7.0094   1
  -7   6   7 2.42787 10.9143   1
  -7  -6   7 13.3857 8.57389   1
  -7   6   8 14.0085 11.9504   1
   7  -6  -8 4.77068 12.1213   1
  -7   7   1-5.47073 6.99021   1
   7  -7  -1 4.60785 7.21231   1
  -7   7   2 22.7007 8.62654   1
   7  -7  -2 18.4171 7.82653   1
  -7   7   3 59.5252 11.0429   1
  -7   7   3 52.2671 9.92265   1
  -7  -7   3 35.8917 10.8644   1
  -7   7   4 47.5007 12.5408   1
  -7   7   4 62.8125 17.4434   1
  -7  -7   4 50.2781 11.5476   1
  -7  -7   5 12.3974 9.05066   1
  -7   7   5 0.25761 13.4392   1
  -7   7   6-0.46984 13.6708   1
  -7  -7   6 4.24502 9.50215   1
  -6   0   1 57.2892 6.90442   1
   6   0  -1 41.5694 8.72732   1
  -6   0   1 63.1037 11.9788   1
   6   0  -1 64.4026 6.96875   1
  -6   0   1 66.5366 9.33005   1
   6   0  -1 72.7404 7.72424   1
  -6   0   1 53.5021 6.48173   1
  -6   0   1 57.0918  6.7518   1
   6   0  -1 49.7508 6.32522   1
  -6   0   1  51.509  10.335   1
  -6   0   2-4.20101 3.85851   1
  -6   0   2-4.66378 5.53474   1
  -6   0   2-2.80886 2.71096   1
   6   0  -2 -0.8397 2.28421   1
   6   0  -2-0.30176  2.8323   1
  -6   0   2 3.34228 6.13822   1
   6   0  -2 1.19046 5.20962   1
  -6   0   2-0.50553 2.49692   1
  -6   0   2 2.74309 3.46525   1
   6   0  -2 4.06754 3.25145   1
   6   0  -3-0.18073 5.44332   1
  -6   0   3 1.12723 6.04522   1
  -6   0   3 1.27956 5.06489   1
  -6   0   3-3.23116 3.00505   1
  -6   0   3  4.6369 3.00855   1
   6   0  -3 1.55841 2.73485   1
  -6   0   3 1.37867 3.99967   1
  -6   0   3 1.94694 3.00259   1
   6   0  -3 2.84199 2.87677   1
   6   0  -3-2.04448 5.20624   1
  -6   0   4 4.65167 4.05269   1
  -6   0   4-0.13458 3.08473   1
   6   0  -4 7.52617 6.13697   1
  -6   0   4 2.77435 2.85457   1
  -6   0   4  0.4314  3.2245   1
  -6   0   4 1.92615 6.37183   1
   6   0  -4 4.09706 3.00048   1
   6   0  -4  2.0472 2.59954   1
   6   0  -4 3.48034  5.0778   1
   6   0  -5 342.671 21.9582   1
  -6   0   5 296.507 17.3403   1
  -6   0   5 312.745 16.3873   1
  -6   0   5 342.838  18.685   1
  -6   0   5 315.866 16.9349   1
  -6   0   5 314.822 17.2517   1
   6   0  -5 299.176 21.2395   1
   6   0  -5 310.569 16.7686   1
  -6   0   6 111.692 8.34113   1
   6   0  -6 113.129 12.6109   1
   6   0  -6 97.6377 7.64843   1
  -6   0   6 101.808  8.3282   1
  -6   0   6 88.6183 7.26484   1
  -6   0   6 84.0757 7.16709   1
   6   0  -6 97.2736 12.1352   1
   6   0  -7 159.765 14.9446   1
   6   0  -7 170.659 10.1093   1
  -6   0   7 164.353 9.96914   1
  -6   0   7 173.074 10.8077   1
  -6   0   7 170.141 10.8515   1
  -6   0   7 151.172  9.7446   1
   6   0  -8 94.8329 6.64374   1
  -6   0   8 85.9352  6.8966   1
   6   0  -8 86.3615 11.4784   1
  -6   0   8 90.1723  7.8516   1
  -6   0   8  97.503 8.10966   1
  -6   0   9  55.504 5.73596   1
   6   0  -9 61.7862 9.74063   1
  -6   0   9 56.9929 8.65356   1
  -6   0  10 2.66094 2.88955   1
   6   0 -10-0.03014 5.59563   1
   6   0 -11 44.4886 8.41634   1
  -6   0  11 45.6752 5.12129   1
  -6   0  12 104.813 8.09029   1
  -6   0  13-6.02525 3.75093   1
  -6  -1   1 171.298 17.0839   1
  -6   1   1 186.166 15.0851   1
  -6   1   1 169.318 12.2661   1
  -6   1   1  196.31 11.7516   1
  -6  -1   1 152.063 17.1655   1
   6   1  -1 174.121 12.0931   1
  -6   1   1 176.174  12.124   1
   6   1  -1 185.125 12.2419   1
   6  -1  -1 189.916 11.7514   1
  -6   1   1 142.952 17.0425   1
   6   1  -1 187.418 17.1381   1
   6  -1  -1 183.919 11.8925   1
  -6   1   1 183.446 17.3399   1
  -6  -1   1  182.04 12.6316   1
   6  -1  -1 163.341 11.9769   1
   6  -1  -1 187.882 16.9898   1
  -6  -1   1 165.047 12.1757   1
  -6  -1   1 189.863 12.1545   1
  -6  -1   1 191.349 15.0225   1
   6   1  -2 207.096 17.6049   1
   6  -1  -2 207.463 12.2462   1
  -6  -1   2 206.543 17.9651   1
  -6  -1   2 200.225 12.9242   1
  -6   1   2 206.044 12.9568   1
  -6   1   2  197.68 12.0376   1
   6  -1  -2 197.221  12.051   1
  -6  -1   2 198.504 18.3302   1
   6   1  -2 203.313 12.5724   1
   6  -1  -2 184.352 17.1793   1
  -6   1   2 195.284 12.4487   1
  -6  -1   2 189.394 12.8619   1
  -6   1   2 208.557 15.2204   1
  -6   1   2 141.097 16.3604   1
  -6  -1   2 192.506 14.7817   1
   6   1  -2 208.909 12.6521   1
  -6  -1   2  200.78 12.6271   1
  -6   1   2 181.313  17.277   1
   6  -1  -3 140.885 9.51834   1
   6   1  -3 131.824 10.1267   1
   6  -1  -3 128.425 14.4138   1
   6   1  -3  139.96 15.1936   1
   6  -1  -3 133.493 10.0757   1
  -6   1   3 133.527 14.8883   1
  -6  -1   3 143.103 10.4098   1
  -6   1   3 140.565 9.63337   1
  -6   1   3  141.18 10.3539   1
  -6   1   3 162.656 12.7158   1
  -6   1   3  141.37 10.3701   1
  -6   1   3 156.702 15.1068   1
   6   1  -3 170.397 10.3709   1
  -6  -1   3 149.993 10.3198   1
  -6  -1   3 143.468  10.597   1
  -6  -1   3  159.67 17.0457   1
  -6  -1   3 153.921 12.3434   1
  -6  -1   4 288.921 16.3045   1
   6   1  -4 291.363 16.4825   1
  -6   1   4 276.423 15.6962   1
  -6  -1   4 312.451 18.1764   1
  -6   1   4 300.808 18.2335   1
  -6   1   4 307.464  16.542   1
  -6  -1   4 235.905 19.7203   1
  -6  -1   4 285.341  15.919   1
   6  -1  -4 303.426 20.6946   1
   6   1  -4 317.246 15.4276   1
   6  -1  -4 290.311 15.8534   1
  -6   1   4 295.369 15.6049   1
  -6   1   4 294.869 16.4948   1
   6   1  -4 306.095 21.6487   1
   6  -1  -4 271.173 13.6958   1
  -6  -1   4 288.112 16.1859   1
   6  -1  -4 305.764 13.7081   1
   6   1  -5 84.7816 12.1664   1
  -6  -1   5 69.7062 7.53277   1
  -6   1   5 84.0951 7.63183   1
  -6  -1   5 82.3662 7.28556   1
  -6   1   5  96.113 7.25177   1
  -6   1   5  82.807 7.69859   1
   6   1  -5 89.6682 7.77408   1
   6  -1  -5 84.5312  7.2505   1
  -6   1   5 82.0992 8.81653   1
  -6   1   5 92.5625 6.87833   1
  -6  -1   5 88.7063 8.02454   1
   6  -1  -5  84.863 11.1765   1
  -6   1   6 66.8186 6.23284   1
  -6  -1   6 78.6848 7.59695   1
   6   1  -6 70.1273 11.4766   1
  -6   1   6 67.5779 7.98881   1
  -6   1   6 68.7836 6.79593   1
   6  -1  -6 71.9254 10.3884   1
  -6  -1   6 62.9944 6.98266   1
   6   1  -6 69.3264 6.73205   1
  -6  -1   6 55.0324 6.24926   1
  -6   1   6 66.6565 5.67973   1
  -6   1   6 65.3278 6.82309   1
   6  -1  -6 69.3199 6.53046   1
   6   1  -7 458.547 22.0779   1
   6  -1  -7 465.697 26.0603   1
   6  -1  -7 458.143 21.5817   1
  -6  -1   7 467.026  22.823   1
  -6   1   7 414.036 20.4475   1
  -6   1   7 435.783 21.3116   1
  -6  -1   7 464.646 23.0102   1
  -6   1   7 435.208 21.7398   1
   6   1  -7 484.406 28.2054   1
  -6  -1   7 402.087 21.9542   1
  -6   1   7  462.71 22.1771   1
  -6   1   8 228.433 13.0845   1
   6  -1  -8 225.613 11.4484   1
  -6   1   8 225.672 12.4587   1
   6   1  -8 241.935 12.9766   1
  -6   1   8 236.716  13.127   1
   6  -1  -8 226.289 16.6901   1
  -6  -1   8 209.802 12.7311   1
   6   1  -8 236.791 19.0594   1
  -6  -1   8 238.282 13.9263   1
  -6   1   9 110.269 7.42659   1
  -6  -1   9 108.472 8.45934   1
   6   1  -9  110.17 14.6024   1
  -6  -1   9 113.311  9.7843   1
   6   1  -9 102.822   7.109   1
  -6  -1  10 76.1654 7.41536   1
   6   1 -10 81.9153 12.3106   1
  -6   1  10 78.2165 6.31367   1
   6   1 -11 34.5077 9.26622   1
  -6   1  11 21.0195 3.74036   1
  -6  -1  11 21.0559  4.6907   1
  -6  -1  12 33.7189 5.92729   1
   6   1 -12 32.0489 9.09484   1
  -6   1  12 39.6616 4.44248   1
  -6  -1  13 37.3079 6.90394   1
   6   1 -13 18.2954 8.15558   1
  -6  -2   1 488.661 32.0314   1
  -6   2   1 480.351 25.0496   1
  -6   2   1 468.034 30.1564   1
   6   2  -1 501.302 25.2657   1
  -6   2   1 495.545 28.3768   1
  -6  -2   1 492.162 30.3775   1
   6  -2  -1 470.459 23.8415   1
  -6  -2   1  472.30 24.8087   1
  -6  -2   1 457.263 24.6595   1
   6   2  -1 482.534 30.6989   1
  -6   2   1 484.626 25.2677   1
  -6  -2   1 485.328 27.2943   1
  -6   2   1 495.006 24.4362   1
   6  -2  -1  463.19 24.6335   1
   6   2  -1 489.423 25.3693   1
   6  -2  -1 416.822 29.7363   1
  -6   2   1 446.222 30.3305   1
   6  -2  -1 510.443 24.1751   1
   6   2  -2 215.655 13.1995   1
  -6   2   2  195.72 13.2368   1
  -6   2   2 203.847 13.2533   1
   6  -2  -2  176.66 12.4031   1
  -6   2   2 196.849 15.7003   1
   6   2  -2 208.527 18.4466   1
   6  -2  -2 201.589  12.042   1
  -6   2   2 220.968 13.3894   1
  -6  -2   2 211.101 20.5132   1
  -6  -2   2 210.942 13.3589   1
  -6  -2   2 171.672 12.7001   1
  -6   2   2 174.668 17.1073   1
   6   2  -2 193.121 13.0056   1
  -6   2   2 161.198 16.6078   1
  -6  -2   2 215.785  15.476   1
  -6   2   2 184.962 12.2151   1
  -6  -2   2 202.804 18.0222   1
   6  -2  -2 169.014 17.6013   1
   6  -2  -2 204.532 12.0648   1
  -6  -2   2 184.852 13.0087   1
   6  -2  -3 43.1721 9.60205   1
  -6   2   3 75.7054 7.78862   1
  -6   2   3 77.7671 7.92347   1
  -6  -2   3 64.6171 7.59262   1
  -6   2   3 80.6962 7.81453   1
  -6   2   3 64.6396 9.11831   1
   6  -2  -3 74.0934 7.42398   1
  -6  -2   3  76.991 13.3275   1
  -6  -2   3 82.6306 8.33628   1
  -6  -2   3 85.0215 9.97916   1
  -6   2   3 72.3216  7.2411   1
   6   2  -3 63.9415 7.20821   1
  -6  -2   3 83.4082 12.3106   1
   6  -2  -3 66.0537 6.45083   1
   6   2  -3 77.1956 12.5522   1
  -6  -2   3  75.798 8.08251   1
   6  -2  -4 41.9236 5.02805   1
  -6   2   4 47.8854 7.60086   1
  -6   2   4 43.1637 6.20359   1
  -6  -2   4 45.2733 6.52091   1
  -6  -2   4 42.4705  6.1806   1
   6   2  -4 55.8669  11.307   1
  -6  -2   4 39.4404 8.89281   1
  -6   2   4 58.2554  6.7875   1
  -6   2   4 56.7214 6.90375   1
   6  -2  -4  42.848  3.7967   1
  -6   2   4 52.2203 5.75129   1
  -6  -2   4 35.1702 5.60282   1
   6  -2  -4 45.7882 3.91712   1
   6  -2  -4 47.4854 5.81215   1
   6   2  -4 51.2312 6.52134   1
   6  -2  -4 30.3731 8.11662   1
  -6   2   5 24.6334  4.3468   1
   6   2  -5 25.5652  3.4634   1
  -6   2   5 30.4752 5.09843   1
   6  -2  -5 15.5733 6.83759   1
  -6  -2   5 28.7325 5.39206   1
  -6  -2   5 31.7336 5.52151   1
  -6  -2   5 24.3226 5.09532   1
   6   2  -5  41.312 10.1987   1
   6   2  -5 35.0985 5.45396   1
   6  -2  -5 30.9134  4.9414   1
  -6   2   5 27.2686 6.34534   1
  -6   2   5 26.1747 4.86189   1
  -6  -2   6 38.9526 6.34865   1
   6   2  -6 38.7695 5.72002   1
  -6   2   6 44.1711  6.9782   1
  -6  -2   6  38.146 5.80175   1
  -6   2   6 39.5724 5.07941   1
  -6   2   6 36.5672 5.26128   1
   6  -2  -6 40.5097 5.22533   1
  -6  -2   6 31.7647 5.69755   1
  -6   2   6 46.6649 5.75104   1
   6   2  -6 50.6599 10.5789   1
   6  -2  -6 31.3314 7.70243   1
  -6   2   7 175.189 11.4265   1
  -6   2   7 193.607 11.1285   1
   6  -2  -7 193.503 15.4245   1
  -6  -2   7 198.766  13.005   1
   6   2  -7 176.262 12.0347   1
  -6   2   7 193.331 12.9806   1
   6   2  -7 213.127 18.5332   1
  -6  -2   7 184.028 12.8863   1
  -6  -2   7 160.904 11.7725   1
  -6   2   7 188.086 11.6065   1
  -6  -2   8 195.032 13.6106   1
  -6   2   8 210.851 12.6884   1
  -6  -2   8 194.681  12.939   1
   6  -2  -8 209.979 15.4826   1
  -6   2   8 224.962 13.8416   1
   6   2  -8 216.238 13.1782   1
  -6   2   8 228.353 12.2033   1
   6  -2  -9 5.46413 5.07696   1
   6   2  -9 4.19762 8.11124   1
  -6   2   9 4.70722 2.95142   1
   6   2  -9 8.24397 3.68513   1
  -6  -2   9 4.81433  4.1161   1
   6  -2 -10 74.2314 9.71359   1
   6   2 -10 87.5369 14.0182   1
   6   2 -10 64.8647 6.65814   1
  -6  -2  10 49.6933 7.11801   1
  -6   2  10 81.0799  6.4265   1
  -6   2  11 13.0997 3.43048   1
  -6  -2  11 10.7863 5.16411   1
   6   2 -11 16.5245  9.6486   1
  -6  -2  12 41.1501 7.81149   1
  -6   2  12 49.7278 4.78943   1
   6   2 -12 60.0931 12.6557   1
  -6   3   1 125.944 16.3571   1
  -6  -3   1  141.04 11.7592   1
   6  -3  -1 136.341 10.4826   1
  -6   3   1 149.114 11.6367   1
  -6  -3   1 135.566 16.2821   1
   6  -3  -1 131.404 10.1318   1
  -6  -3   1 134.382 13.6651   1
  -6  -3   1 144.279 19.3577   1
   6  -3  -1 133.932 17.0839   1
   6  -3  -1 139.731 11.1232   1
  -6  -3   1  137.14 11.5824   1
   6   3  -1 122.321  10.986   1
  -6   3   1 114.666 14.0848   1
  -6   3   1 142.941 12.0164   1
  -6   3   1 129.172 10.6503   1
   6   3  -1 158.418 11.9145   1
   6   3  -1 142.277 16.6601   1
  -6  -3   2 46.3936 7.46805   1
   6  -3  -2 37.9191 5.54965   1
  -6  -3   2 34.1555 6.22392   1
   6   3  -2 48.2461  11.185   1
   6   3  -2 46.9899 6.90364   1
  -6   3   2 35.5626 6.47123   1
   6  -3  -2 41.6476 5.58632   1
  -6   3   2 36.8298 5.47603   1
   6   3  -2 44.1204 6.59091   1
  -6   3   2 48.5223 7.03822   1
  -6   3   2 36.7459 10.6395   1
   6  -3  -2 55.4035 12.5868   1
  -6  -3   2 36.7408 7.76577   1
  -6   3   2  24.408 8.17487   1
  -6  -3   2 29.8551  8.7513   1
  -6  -3   2 26.1884 10.6348   1
   6  -3  -2 43.2697 5.62912   1
  -6   3   2 52.6067 9.76947   1
  -6   3   2 47.5433 7.06669   1
  -6  -3   3 4.20116 8.99978   1
   6   3  -3 5.59087 3.34425   1
   6  -3  -3-0.04796 7.04527   1
  -6  -3   3 10.0147 5.65935   1
   6  -3  -3 4.97089 2.97127   1
  -6  -3   3-0.52374 3.59023   1
  -6   3   3 2.29104 3.25839   1
  -6   3   3 1.14286 3.52746   1
   6  -3  -3 3.75686 2.98105   1
   6  -3  -3-0.49884 3.15515   1
  -6   3   3-1.27281 3.44428   1
  -6   3   3 1.73992 7.15664   1
  -6   3   3-0.14122 5.27803   1
   6   3  -3 2.50499 7.57733   1
  -6  -3   3 1.00096 6.41044   1
   6   3  -3 -0.7101 3.51101   1
  -6  -3   3-0.05498 3.50323   1
  -6   3   3 2.60822   4.019   1
  -6  -3   3 4.60546 4.47779   1
  -6   3   4 106.696 9.48554   1
   6   3  -4 111.074 9.66828   1
  -6  -3   4 98.8446 10.1296   1
   6   3  -4  126.01 15.9499   1
   6  -3  -4 119.063 14.8493   1
   6   3  -4 113.884 9.07432   1
   6  -3  -4  107.64 9.26719   1
   6  -3  -4 108.534 5.70973   1
  -6  -3   4 104.089  9.6141   1
   6  -3  -4 103.718 7.56633   1
  -6   3   4 109.192 8.98203   1
  -6  -3   4 93.9448 13.5141   1
  -6   3   4  93.538 11.7127   1
  -6   3   4 98.3453 9.22291   1
  -6  -3   4 107.339 10.1939   1
  -6  -3   5 98.1361 9.73053   1
  -6  -3   5 76.0068 9.07625   1
  -6   3   5 88.3609 10.6339   1
  -6  -3   5 63.7424 8.27343   1
   6  -3  -5 90.6621 13.1735   1
   6   3  -5 94.1507 7.56504   1
   6   3  -5 101.997 15.3603   1
   6   3  -5 92.6231 8.84589   1
  -6   3   5 90.4047 8.53001   1
  -6   3   5  87.667 7.96255   1
  -6   3   5 92.6185 8.70468   1
   6  -3  -5 76.8143 8.00785   1
   6  -3  -5  84.903 6.15846   1
   6   3  -6 98.5472 14.9417   1
  -6  -3   6 84.6824 9.31553   1
   6   3  -6 71.6271 8.37562   1
  -6   3   6  97.864 7.85631   1
  -6   3   6  86.628 8.33425   1
   6  -3  -6 80.9091 12.3654   1
  -6  -3   6 94.2928 9.89359   1
  -6   3   6 83.6552 8.11209   1
  -6  -3   6 95.5862 9.81004   1
  -6   3   6 83.1082 10.1075   1
   6   3  -7  15.544 9.28876   1
  -6   3   7 15.4461 3.97487   1
  -6   3   7 18.9069 5.97945   1
  -6   3   7 18.9628 4.58192   1
  -6  -3   7 12.9511 4.66851   1
   6   3  -7 18.8268 5.01481   1
   6  -3  -7 18.5167  7.6127   1
  -6  -3   8 68.6638 8.80131   1
   6   3  -8 89.9057 14.7495   1
  -6   3   8 75.3385 7.30953   1
  -6   3   8  95.738 9.90335   1
  -6   3   8 66.6684  6.9749   1
   6   3  -8 59.9548 7.43437   1
   6   3  -9 75.8415 14.5145   1
   6   3  -9 52.0921 6.98506   1
  -6  -3   9  57.878 7.97476   1
   6  -3  -9 28.1322 7.05466   1
  -6   3   9 63.0924 8.05869   1
  -6   3   9 69.6505 6.81265   1
  -6   3  10 115.756 8.51186   1
   6  -3 -10 101.338 10.9728   1
  -6   3  10 121.346 10.5907   1
  -6  -3  10 101.092 11.0883   1
   6   3 -10 119.855 17.7897   1
   6   3 -10 102.608 9.73023   1
  -6   3  11 0.02875 4.27485   1
   6   3 -11-0.76056 10.0217   1
   6   3 -11-5.01909 3.70271   1
  -6   3  11-0.22882 3.49662   1
   6  -3 -11-1.02329 4.78348   1
  -6  -3  11 1.43575  5.6328   1
  -6   3  12 10.0038 4.79704   1
   6   3 -12 9.27417 11.6696   1
  -6   3  12 15.8177 4.25469   1
  -6  -4   1 43.5861  7.7563   1
  -6  -4   1 36.5879 6.95524   1
  -6  -4   1 49.3915  9.2633   1
   6  -4  -1 44.9036 6.66291   1
  -6   4   1   54.02   11.14   1
  -6   4   1 25.7893 6.19513   1
  -6   4   1 44.7784 6.50576   1
   6  -4  -1  38.212  6.2405   1
   6  -4  -1 36.8297 6.41906   1
  -6   4   1 7.74912 14.5729   1
  -6  -4   1 49.7262 14.3871   1
   6  -4  -1 26.0553 12.2412   1
   6   4  -1  37.764 11.0236   1
   6   4  -1 42.6466 7.32528   1
  -6   4   1   40.46 6.91154   1
   6   4  -1 55.0855 8.03141   1
  -6  -4   2 36.2373 8.52991   1
   6  -4  -2 34.5858 6.09042   1
  -6   4   2 39.1813  7.2369   1
   6  -4  -2 36.6697  5.7213   1
   6  -4  -2 11.9517  10.663   1
  -6  -4   2 26.2436 6.36065   1
  -6  -4   2 33.4992 6.51104   1
   6   4  -2  38.679 12.0615   1
  -6   4   2 35.5509 6.98658   1
   6  -4  -2 39.9358  5.8296   1
  -6  -4   2 39.7193 13.7137   1
  -6  -4   2 15.2914 17.8088   1
  -6   4   2 26.6882 5.96021   1
  -6   4   2 27.6098 11.3357   1
   6   4  -2 29.3426 6.22922   1
  -6   4   2 38.4797 6.38141   1
  -6   4   2 39.0115 9.80925   1
   6   4  -2 37.9955  6.8115   1
   6  -4  -3 48.8078 7.36284   1
   6   4  -3 43.4064 7.15569   1
  -6  -4   3 53.8718 8.54475   1
  -6   4   3 48.5199 7.00671   1
   6  -4  -3 27.8692 10.7139   1
  -6  -4   3  38.584 13.8912   1
   6  -4  -3  49.028    5.67   1
  -6   4   3 54.5452  7.4935   1
  -6   4   3 36.0999 9.24026   1
  -6   4   3 40.1765 6.53276   1
   6   4  -3 60.2845 12.1907   1
  -6   4   3 46.5347 6.72886   1
  -6  -4   3 47.6852 12.1967   1
  -6  -4   3 40.2601 7.19636   1
   6   4  -3  33.759 6.59191   1
   6  -4  -3 50.3979 5.99491   1
   6  -4  -4 112.123 10.2747   1
   6   4  -4 120.554 10.1855   1
  -6  -4   4 89.0242 10.1324   1
   6  -4  -4 102.882 5.59228   1
   6  -4  -4 113.621  7.7962   1
   6  -4  -4  105.20 16.1198   1
   6   4  -4 124.102 16.9554   1
  -6   4   4 113.885 10.8109   1
  -6  -4   4 88.6983   10.30   1
  -6   4   4 116.694 10.5879   1
  -6   4   4 98.0509 12.8289   1
  -6   4   4  125.35 10.0994   1
  -6  -4   5 8.09818 7.85493   1
  -6   4   5 4.91724 4.35769   1
  -6  -4   5  4.8977  5.3197   1
   6  -4  -5  2.2621 8.40446   1
   6  -4  -5 6.57946  2.8463   1
   6   4  -5 1.64958  8.5461   1
  -6  -4   5 1.27594 4.96077   1
   6   4  -5 4.11335  4.3498   1
  -6   4   5 1.59855 3.55096   1
  -6   4   5 3.99148 6.35008   1
  -6   4   6 228.406 14.4916   1
  -6  -4   6 204.691 14.8776   1
   6  -4  -6 163.263 18.5123   1
   6   4  -6  252.65  23.378   1
  -6   4   6 241.141 18.1654   1
   6  -4  -7 46.1184 10.4884   1
  -6  -4   7  47.213 8.53745   1
   6   4  -7 91.1004 15.7805   1
  -6   4   7 82.4598 8.35628   1
  -6   4   7 76.9399 10.7975   1
   6  -4  -8 10.1873 7.70707   1
   6   4  -8 2.49845 9.87321   1
  -6   4   8 10.2969 4.31782   1
  -6  -4   8 11.2403 5.75156   1
  -6   4   8 6.30718 6.08444   1
  -6   4   9 4.70422 5.90106   1
  -6  -4   9 -0.7101 5.19271   1
  -6   4   9 0.55641 3.92536   1
   6  -4  -9 2.07624  6.4218   1
   6   4  -9 0.50223 10.5338   1
  -6   4  10 12.2256 4.69502   1
   6  -4 -10 6.54197 6.68658   1
  -6   4  10 10.4728 6.33466   1
   6   4 -10 11.8478 12.5833   1
  -6  -4  10 9.25617 7.03738   1
  -6   4  11-3.17796 5.52588   1
  -6   4  11-4.72071 4.26473   1
   6  -4 -11 0.63427 6.00339   1
   6   4 -11-3.83894 12.0734   1
  -6  -5   1 72.4233 11.6781   1
  -6   5   1 55.8429  9.0293   1
  -6  -5   1 43.4085 8.40364   1
   6   5  -1 55.3506 9.15337   1
   6  -5  -1 62.9319 7.98661   1
  -6  -5   1 58.2021 9.23611   1
  -6   5   1 57.0223  8.4123   1
  -6   5   1 75.1278 14.3316   1
  -6  -5   2 28.7477 8.94174   1
  -6   5   2 23.5422 5.96669   1
   6   5  -2 20.0417 6.47093   1
   6  -5  -2 18.7778 5.26799   1
  -6   5   2 42.6808 11.5062   1
  -6  -5   2 27.2259 7.44984   1
  -6  -5   2 28.1256  7.7109   1
  -6   5   2 20.9772  5.6769   1
   6  -5  -3 11.1481 10.6547   1
  -6   5   3 23.8563 6.23647   1
  -6  -5   3 18.9619  6.7018   1
   6   5  -3 19.2782   6.308   1
   6  -5  -3 18.3137 4.77136   1
  -6   5   3 12.8875 9.08626   1
   6   5  -4 7.67647 10.8831   1
   6  -5  -4 5.23501 9.23485   1
  -6  -5   4-0.16924 4.72919   1
   6  -5  -4 7.19718  3.6609   1
  -6   5   4-0.04288 7.68431   1
   6   5  -5 8.27574 10.3232   1
  -6   5   5 2.24169 7.95618   1
  -6   5   5 12.7952 5.15305   1
  -6  -5   5 9.18737 6.36591   1
   6  -5  -5 4.62019 9.59427   1
   6  -5  -5 9.36583 4.79491   1
  -6  -5   6 54.0893 8.96464   1
   6  -5  -6 24.9983 11.0337   1
   6   5  -6 81.8917 16.6125   1
  -6   5   6 45.8704 10.7814   1
  -6   5   6 67.0624 8.38018   1
   6  -5  -7 17.4722 10.2162   1
  -6   5   7  28.565 9.49499   1
  -6  -5   7 34.3407 7.92773   1
  -6   5   7 54.3679 7.49696   1
   6   5  -7 55.5743  15.083   1
   6   5  -8-6.77395 11.1816   1
   6  -5  -8 4.23636 8.99859   1
  -6   5   8-0.76977 4.15638   1
  -6   5   8 0.04483 7.62952   1
  -6  -5   8 1.45311 6.26309   1
  -6  -5   9  3.4797 6.83229   1
  -6   5   9 0.77127 7.67859   1
   6  -5  -9-2.33915  7.7912   1
  -6   5   9 7.53607 4.95118   1
   6   5  -9-2.50586 12.7526   1
  -6   5  10 38.5521 9.82337   1
  -6   5  10 49.1789 7.33685   1
   6   5 -10 69.1315 18.6476   1
   6  -5 -10 19.9847 9.57246   1
   6  -5 -11 7.49138 7.65775   1
  -6   5  11   7.808 8.15145   1
   6   5 -11 17.7063 16.4093   1
  -6  -6   1-0.84381 5.76225   1
   6  -6  -1 6.62507 5.27564   1
  -6   6   1  2.5738  5.8969   1
   6   6  -1 1.83963 5.81438   1
  -6  -6   2 8.08493 8.57001   1
   6   6  -2 8.32512 6.07856   1
   6  -6  -2 11.1706  5.4606   1
  -6  -6   2 15.1446 6.86674   1
  -6   6   2 15.4908 6.43697   1
  -6   6   2 14.2018 12.2042   1
  -6  -6   3  3.6556 5.94151   1
  -6   6   3 4.42284 5.69556   1
  -6   6   3 10.3019 10.9295   1
   6  -6  -3 7.96471 4.80251   1
  -6   6   4 23.5382 6.98394   1
   6  -6  -4  20.874  5.3207   1
  -6   6   4 17.9327 12.1913   1
  -6  -6   4 25.1726 8.06057   1
  -6  -6   5 12.7393 7.24462   1
  -6   6   5 5.05839 10.1269   1
  -6   6   5 6.30175  5.8481   1
   6  -6  -5  4.9674 12.0162   1
   6  -6  -6 6.18097 11.3773   1
  -6   6   6 6.45952 9.94905   1
  -6   6   6 16.4869 6.10142   1
  -6  -6   6 9.43442 6.71628   1
  -6   6   7 29.9033 11.6781   1
  -6  -6   7  24.793 8.23033   1
  -6   6   7 33.7078 7.15493   1
   6  -6  -7 36.2113 13.4403   1
  -6   6   8 66.2971 9.19987   1
  -6   6   8 70.6458 13.7898   1
   6  -6  -8 34.7501 12.9516   1
  -6  -6   8 42.0244 9.82393   1
  -6   6   9 18.4144 11.4616   1
  -6   7   1 0.35837 6.19056   1
   6  -7  -1  2.7287 6.08322   1
   6   7  -1  5.4409 8.88419   1
  -6   7   1-3.41458 5.87904   1
   6  -7  -2 7.29423 6.18399   1
  -6   7   2 13.4957 7.29001   1
  -6  -7   2 7.27023 7.43769   1
  -6   7   3 36.4022 8.60808   1
   6  -7  -3 41.5849 8.50697   1
  -6  -7   3 30.9149 9.39795   1
  -6   7   4 9.56143 6.93066   1
  -6  -7   4 10.6975 8.04216   1
  -6  -7   5 7.20711 7.93692   1
  -6   7   5 6.95014 6.88939   1
  -6   7   6 26.2579 14.2388   1
  -6   7   6 33.1795 10.2475   1
  -6  -7   6 29.8262 9.47009   1
  -6   7   7-2.74732 12.4808   1
  -6  -7   7 6.88126 8.53072   1
  -6   7   8 52.6632 15.2638   1
   6  -8  -1 4.20462 7.55722   1
  -6   8   1-6.23441 7.60782   1
  -6   8   1 6.48605 8.01674   1
   6  -8  -2   4.392  9.2587   1
  -6   8   2-1.06305 7.95393   1
  -6   8   3  104.31 18.5418   1
  -6  -8   4 9.16941  9.0234   1
  -6  -8   5  69.139 13.3634   1
  -5   0   1  32.926 7.93614   1
   5   0  -1 24.1186  3.7688   1
   5   0  -1 27.3231 4.23604   1
  -5   0   1 42.7152 8.39993   1
  -5   0   1 24.2145 4.35183   1
  -5   0   1 34.4008  4.7942   1
   5   0  -1 20.9992   5.485   1
   5   0  -1 35.4874 5.06595   1
  -5   0   1 22.3887 5.31755   1
  -5   0   1 33.0586 4.24826   1
   5   0  -1  38.462 5.01127   1
   5   0  -2  308.76 15.2696   1
   5   0  -2 287.509 18.9931   1
   5   0  -2 292.687 19.3966   1
   5   0  -2 260.557 14.4191   1
  -5   0   2 306.402 19.7226   1
   5   0  -2 298.898 15.2594   1
  -5   0   2 291.821 17.1684   1
  -5   0   2 279.174 19.3669   1
  -5   0   2 287.366 15.3551   1
  -5   0   2 287.598 15.4137   1
  -5   0   2 291.096 15.6158   1
  -5   0   2 276.956 14.9091   1
  -5   0   3 99.6657  7.2427   1
   5   0  -3  124.01  8.1308   1
  -5   0   3 127.403 11.5949   1
   5   0  -3 121.285 11.3744   1
  -5   0   3 95.5319 7.17207   1
  -5   0   3 110.815 8.01975   1
  -5   0   3  111.66 7.92403   1
  -5   0   3 108.884  9.0914   1
   5   0  -3 104.921 11.0497   1
   5   0  -3 110.961 6.93901   1
  -5   0   3 109.097  11.088   1
   5   0  -4 84.5732 9.99138   1
  -5   0   4 81.3105 6.32835   1
   5   0  -4 54.9439 3.41995   1
   5   0  -4 81.1944 9.50132   1
  -5   0   4 80.5449 7.39592   1
  -5   0   4 79.9419 9.30864   1
  -5   0   4 73.9296 6.28199   1
   5   0  -4 80.0307 6.40373   1
  -5   0   4  86.302 5.84056   1
  -5   0   4 84.8501 5.92444   1
  -5   0   4 60.2803 13.6187   1
   5   0  -4  61.813 3.44613   1
   5   0  -5 257.234 13.3737   1
   5   0  -5  251.72 16.9821   1
  -5   0   5 268.956 13.5136   1
  -5   0   5 245.658 12.8277   1
  -5   0   5 258.269  13.042   1
  -5   0   5 240.094 13.5644   1
   5   0  -6 158.327 9.01864   1
  -5   0   6 152.429 8.91735   1
   5   0  -6 164.397 13.0638   1
  -5   0   6  158.29  9.2219   1
  -5   0   6  155.46 9.38336   1
  -5   0   6 143.672 8.61398   1
   5   0  -6 153.201 12.7016   1
   5   0  -7  19.718 5.99054   1
   5   0  -7 21.0108 3.05864   1
  -5   0   7 29.7491 3.94807   1
  -5   0   7 20.6356 3.09745   1
  -5   0   7 21.0855 3.35074   1
  -5   0   7 17.6683 3.39721   1
   5   0  -8 10.6923  5.4805   1
   5   0  -8 6.69539 1.42532   1
  -5   0   8 8.16843 3.06343   1
  -5   0   8 9.16853 2.78089   1
  -5   0   8 10.8387 2.44131   1
   5   0  -9-1.02509   4.492   1
  -5   0   9 2.07964 1.98876   1
  -5   0   9-0.63316 2.25966   1
   5   0 -10 24.0285 6.36556   1
  -5   0  10 26.4648 3.27233   1
  -5   0  10 27.8805 3.14321   1
  -5   0  11 14.5267 2.67792   1
   5   0 -12 49.5505 7.38965   1
  -5   0  12 46.8504 4.35624   1
  -5   0  13 4.04604 3.48012   1
   5   1  -1 257.398  13.616   1
  -5   1   1 255.131 16.3646   1
  -5   1   1 242.746 13.7159   1
   5  -1  -1 243.856 18.1538   1
   5  -1  -1 256.131   13.82   1
   5  -1  -1 249.146 13.6163   1
   5   1  -1 241.861 14.2605   1
   5  -1  -1 231.725 13.2659   1
  -5   1   1 260.884 14.2304   1
  -5   1   1  245.39 19.0194   1
  -5  -1   1 245.356 18.3043   1
  -5  -1   1 262.831 14.2711   1
   5   1  -1 248.104  14.236   1
  -5  -1   1 245.205 15.9245   1
  -5  -1   1 249.359 14.0412   1
   5   1  -1 252.867 18.5539   1
  -5  -1   1 241.006 14.3345   1
  -5  -1   1  243.43 18.4648   1
   5  -1  -1 259.441 14.2126   1
  -5   1   1 258.636 14.5311   1
  -5   1   2 120.482 9.04284   1
  -5  -1   2 126.139 8.78672   1
  -5   1   2 144.042 9.35759   1
  -5   1   2 154.959 8.86281   1
  -5  -1   2 129.527 8.99213   1
  -5   1   2 144.834   13.40   1
   5   1  -2 130.459 12.9457   1
   5  -1  -2 134.209 8.89806   1
  -5   1   2 145.818 11.2977   1
   5   1  -2 125.318 8.34886   1
  -5  -1   2 139.889 12.9488   1
  -5  -1   2 119.408 10.3995   1
  -5  -1   2 137.898  13.908   1
   5  -1  -2 118.929 8.19793   1
  -5   1   2 125.499 12.7183   1
   5  -1  -2 122.851 8.21039   1
  -5  -1   2 129.941 9.21804   1
   5  -1  -2 125.018 8.35861   1
   5  -1  -2 135.116 12.7269   1
   5   1  -2  132.48 9.12272   1
  -5   1   2 116.409 8.43498   1
  -5  -1   3 350.583  21.867   1
  -5   1   3 395.104 18.2067   1
   5  -1  -3 343.523 17.2626   1
   5  -1  -3 360.682 18.0496   1
  -5  -1   3 368.897 18.2934   1
  -5   1   3 363.604 20.1248   1
  -5   1   3 351.937 18.1879   1
  -5  -1   3 336.128 19.3395   1
   5   1  -3 362.522 17.6965   1
   5   1  -3 357.855 18.8373   1
  -5   1   3 387.692 22.6261   1
  -5  -1   3 356.562 22.6001   1
  -5  -1   3  350.17 17.9159   1
  -5   1   3 398.648 18.8801   1
   5  -1  -3 352.861 16.7924   1
   5   1  -3 383.906 23.4589   1
   5  -1  -3 356.123 16.7712   1
  -5  -1   3 334.844 18.1634   1
  -5   1   3 325.276 21.7352   1
  -5   1   3 381.621 19.0302   1
   5  -1  -3 380.587 22.2252   1
   5   1  -3 386.573 18.3781   1
  -5   1   4  80.546 6.09493   1
  -5  -1   4 86.0435 6.95483   1
  -5  -1   4  87.476 7.01543   1
  -5  -1   4 74.2508 6.70136   1
  -5   1   4 81.2946 7.59049   1
  -5  -1   4   78.24 6.37398   1
   5  -1  -4 81.2984 6.57143   1
  -5  -1   4 67.0998 10.1116   1
   5  -1  -4 78.2209 9.55999   1
  -5   1   4 81.0742 5.84348   1
  -5   1   4 73.5924 9.21842   1
   5   1  -4 82.1457 11.6135   1
  -5   1   4 81.8225 6.66981   1
   5   1  -4 86.4987 5.61702   1
   5   1  -4 83.0421 5.27686   1
   5   1  -4 87.1711 6.98547   1
  -5  -1   4 71.6308 9.81118   1
  -5   1   4  86.871 6.65266   1
  -5  -1   5 57.5167 5.83904   1
  -5   1   5 66.0755 5.39631   1
  -5  -1   5 73.5266 6.41884   1
  -5  -1   5 56.1606 5.53703   1
  -5  -1   5 68.0232 6.34265   1
   5  -1  -5 65.2434  5.6364   1
  -5   1   5 74.0538 5.97411   1
  -5   1   5  63.824 6.69754   1
   5  -1  -5 67.8702 8.45138   1
   5   1  -5 63.7909 6.02427   1
  -5   1   5 71.8045 5.07128   1
   5   1  -5 72.4729 10.1413   1
  -5   1   5 61.7156 5.67766   1
  -5  -1   6 313.277 16.0495   1
  -5   1   6 325.235 15.6844   1
   5   1  -6 330.013  16.239   1
  -5  -1   6 311.347 16.2336   1
   5  -1  -6 317.933 15.3503   1
   5  -1  -6 316.523 18.7739   1
  -5  -1   6 297.861 15.5596   1
  -5   1   6 320.939 14.8991   1
  -5   1   6  314.50 15.9684   1
   5   1  -6 304.766 20.2394   1
  -5  -1   7 91.5703 7.52924   1
   5  -1  -7  96.272 9.29394   1
  -5   1   7 79.5833 5.05779   1
  -5  -1   7 93.6438 6.67444   1
  -5   1   7 92.1214 5.69132   1
  -5   1   7 94.6585 6.20596   1
  -5  -1   7 92.1471 7.18945   1
  -5   1   7 91.2243 6.55374   1
   5  -1  -7  86.794 5.72957   1
   5   1  -7 89.2583  6.5431   1
   5   1  -7 85.4982 10.9289   1
   5  -1  -8 204.301 14.0051   1
  -5   1   8 198.026 9.56637   1
   5   1  -8 216.897 16.0037   1
  -5   1   8  218.10 11.0826   1
  -5   1   8  215.72 10.1656   1
  -5  -1   8 231.562 12.5932   1
  -5  -1   8 212.773 11.5428   1
  -5   1   8 208.766  10.375   1
   5   1  -8 204.812 10.8966   1
  -5  -1   8 212.607 12.0832   1
  -5  -1   9 58.1522 5.53249   1
  -5  -1   9  38.432  5.3205   1
  -5  -1   9 56.3759 5.62529   1
  -5   1   9 57.7534 3.79784   1
   5   1  -9 54.8385 9.36872   1
  -5   1   9 59.5495 3.61421   1
  -5  -1  10 96.2413 7.23496   1
   5   1 -10 100.595 11.8024   1
  -5  -1  11 39.9347 5.07672   1
   5   1 -11  30.775 8.20379   1
   5   1 -12 14.1854 7.12421   1
  -5  -1  12 13.7691 4.54229   1
   5   1 -13 64.9248 9.55168   1
  -5  -1  13 64.4773 7.82016   1
  -5   2   1 156.037  10.685   1
   5  -2  -1  104.22 13.9417   1
  -5   2   1  141.99 14.3665   1
  -5  -2   1  143.52 13.9176   1
  -5   2   1 139.792 9.70691   1
   5  -2  -1  137.04 9.80726   1
   5   2  -1 130.751  14.283   1
  -5  -2   1 137.463 10.1142   1
  -5  -2   1 146.176 10.2003   1
  -5   2   1 146.717 10.2446   1
  -5   2   1  143.63 12.9451   1
  -5  -2   1 142.549 16.0012   1
  -5  -2   1  143.61 10.0724   1
   5   2  -1 158.983  10.496   1
   5   2  -1 156.244 10.6292   1
  -5   2   1 156.883 10.5404   1
   5  -2  -1 142.495 9.22401   1
   5  -2  -1 155.699 9.73292   1
  -5  -2   1 162.989  12.338   1
  -5   2   1 136.027 14.1245   1
  -5   2   2 5.91815 2.66191   1
  -5   2   2 10.0845 3.51927   1
  -5  -2   2 9.10358 7.90533   1
   5   2  -2 6.47236 3.26759   1
  -5  -2   2 5.75679 4.25856   1
   5  -2  -2  5.6941  3.0417   1
   5  -2  -2 9.04978 2.89053   1
  -5  -2   2 7.57564 3.49222   1
  -5  -2   2 2.65163 3.15794   1
   5  -2  -2 11.3577 3.11581   1
  -5  -2   2 12.0161 3.80568   1
   5  -2  -2 11.9173  7.2785   1
  -5  -2   2 5.68977 5.54434   1
  -5   2   2 11.5252 4.72289   1
  -5   2   2 11.0833 5.15102   1
   5   2  -2 9.28499 6.75984   1
  -5   2   2  4.4341 3.09924   1
  -5   2   2 11.7484 3.60946   1
   5   2  -2 10.9012 3.26963   1
  -5   2   2 5.50082 5.45871   1
  -5  -2   3 25.0333 4.45778   1
   5   2  -3 18.2653 3.95186   1
   5   2  -3  25.435 4.08881   1
  -5   2   3  19.744 3.83711   1
  -5   2   3 10.7988 6.02393   1
   5   2  -3 28.6878 8.35399   1
   5  -2  -3 26.3407 3.69308   1
   5  -2  -3 20.2028 3.83674   1
  -5   2   3 30.3599 4.59865   1
   5  -2  -3 27.0357 7.99696   1
  -5  -2   3 22.6826 6.48425   1
  -5  -2   3 21.9822 4.39543   1
   5  -2  -3 21.7269 3.41548   1
  -5   2   3 23.0695 6.78337   1
  -5  -2   3 22.0399 7.71332   1
  -5   2   3  23.177 5.30829   1
  -5  -2   3 22.0468 4.32989   1
  -5   2   3 20.6676 4.16689   1
   5  -2  -3 27.7751 3.45975   1
  -5   2   4 50.2926 6.99707   1
  -5   2   4 47.7193 5.46688   1
   5   2  -4 52.4648  9.3351   1
  -5  -2   4 56.3793 6.28186   1
  -5   2   4 56.8292 5.85247   1
   5   2  -4 47.5492 4.79003   1
  -5   2   4  52.169 5.26041   1
  -5  -2   4 48.6417  5.8576   1
  -5  -2   4 49.6829 8.05991   1
   5  -2  -4 53.5807 4.52593   1
   5   2  -4 49.2268 5.86318   1
  -5   2   4 41.1583 5.30115   1
  -5  -2   4 44.5624 5.67943   1
   5  -2  -4 57.2802 9.21849   1
   5  -2  -4 42.2254 5.15686   1
  -5  -2   4 43.1493 8.53438   1
  -5  -2   5 91.6939  8.2235   1
  -5   2   5 88.8117 6.92561   1
  -5  -2   5 97.2469 7.79059   1
   5   2  -5 102.185 7.83194   1
   5   2  -5 73.5128 4.27877   1
  -5   2   5 93.4897 6.98098   1
   5  -2  -5 93.7289 10.8343   1
  -5  -2   5 105.776 8.20773   1
   5   2  -5 101.153  11.966   1
   5  -2  -5 97.1768 7.27509   1
  -5   2   5  105.94 7.32567   1
  -5   2   5 103.163 6.75541   1
  -5   2   5 102.477 8.43177   1
  -5   2   6 124.851 8.01008   1
   5  -2  -6 123.542 11.6415   1
   5   2  -6 117.461 8.79051   1
   5   2  -6 134.451 13.8965   1
  -5   2   6 124.509 7.77451   1
  -5   2   6 117.321 8.86232   1
  -5   2   6 128.325 8.31617   1
  -5  -2   6 122.805  9.3675   1
  -5  -2   6 113.007 8.61778   1
  -5  -2   6 118.815 8.90213   1
  -5   2   7 6.32875 2.75154   1
  -5  -2   7 2.91842  3.5445   1
  -5  -2   7 3.02151 3.41902   1
  -5   2   7 6.50291 2.62632   1
   5   2  -7 7.82466   6.862   1
  -5   2   7 2.44434  2.1974   1
  -5  -2   7 6.25671 3.35639   1
   5  -2  -7 2.94029 4.06592   1
   5   2  -7 9.05956 3.19051   1
   5   2  -8 135.294 9.33047   1
  -5  -2   8 126.897 9.62135   1
  -5   2   8 142.874 7.81688   1
   5   2  -8 153.901 15.4202   1
  -5   2   8 146.023 8.48397   1
  -5   2   8 138.502 7.96804   1
  -5  -2   8 152.003 10.2589   1
  -5  -2   8 156.673 10.3967   1
   5  -2  -8 126.729  10.773   1
  -5   2   9 284.793 13.3442   1
  -5   2   9 305.176 13.5812   1
  -5  -2   9 336.214 17.4244   1
   5  -2  -9 308.562 17.2704   1
   5   2  -9 307.719 21.9783   1
  -5  -2   9 271.475 16.3466   1
   5   2  -9 289.978 15.0379   1
   5   2 -10 60.9928 5.27309   1
   5  -2 -10 55.7836 7.31626   1
   5   2 -10 71.4738  5.3427   1
   5   2 -10 76.1163 12.2333   1
  -5  -2  10 60.3308 6.75079   1
  -5  -2  11 60.6199 7.68844   1
   5   2 -11 63.2213 11.8476   1
   5   2 -12  6.4466 8.68875   1
  -5  -2  12 9.18324 5.52666   1
  -5  -2  13 2.66288 10.0532   1
   5   2 -13-6.80789 8.28314   1
   5   3  -1 62.2179 12.0801   1
  -5   3   1 55.1448 11.2816   1
   5  -3  -1 39.0354 5.13962   1
  -5   3   1 34.1562 5.52003   1
  -5   3   1 39.8474 6.14824   1
   5   3  -1 46.7161 6.65221   1
  -5   3   1 54.7937 8.75643   1
   5   3  -1 31.0379 5.43772   1
  -5  -3   1 43.3319 7.13828   1
  -5  -3   1 44.7737 7.51714   1
   5  -3  -1 32.7493 5.10826   1
  -5  -3   1 34.3764 8.98803   1
   5  -3  -1 45.1031 10.3119   1
  -5  -3   1 42.0937  6.2845   1
   5  -3  -1 32.1385 5.11162   1
  -5   3   1 46.0173 6.52327   1
  -5  -3   1 41.5512 11.5008   1
  -5   3   1 36.1988  5.4574   1
  -5  -3   1 38.3912 5.86191   1
  -5  -3   2  219.21 19.6659   1
   5   3  -2 216.982 13.7188   1
   5   3  -2 224.285 13.8622   1
  -5   3   2 208.345  13.687   1
  -5  -3   2 213.525 13.7006   1
   5  -3  -2 222.733 12.3636   1
   5  -3  -2 218.748 12.2264   1
  -5   3   2 209.919 13.4736   1
  -5   3   2 220.482 16.2199   1
   5  -3  -2 203.093 13.2129   1
  -5   3   2 225.994 13.5869   1
  -5  -3   2 225.402 15.5922   1
  -5  -3   2  230.42 14.0684   1
   5   3  -2 224.504 19.0504   1
  -5   3   2 233.097 18.5468   1
  -5   3   2  240.11 13.3814   1
  -5  -3   2 219.223 13.9356   1
   5  -3  -2 200.646 18.6595   1
  -5  -3   2 224.367 18.0374   1
   5  -3  -3 21.7684 8.45278   1
   5  -3  -3 29.2427 4.05754   1
   5   3  -3  32.826 5.27983   1
   5   3  -3 40.2678 9.94958   1
  -5  -3   3 18.0962 7.23525   1
  -5   3   3 25.6501 4.45352   1
  -5   3   3 29.5631 8.41753   1
   5  -3  -3   27.33 3.64071   1
  -5  -3   3 20.8838 6.95476   1
   5  -3  -3 25.4758 4.46351   1
  -5   3   3 24.1128 4.32549   1
  -5   3   3 31.9919 6.77111   1
  -5   3   3 29.3959 4.89536   1
  -5   3   3 30.1159 5.17335   1
  -5  -3   3 22.0229 4.62725   1
  -5  -3   3  30.404   5.385   1
  -5  -3   3 18.2589 4.79017   1
  -5   3   4 172.293 10.7848   1
   5  -3  -4 179.914 11.0413   1
  -5  -3   4 155.165 14.9651   1
  -5  -3   4 160.501 11.4345   1
  -5  -3   4  186.67 11.9907   1
   5   3  -4 191.033  17.066   1
  -5   3   4 186.533 11.3796   1
   5   3  -4 171.354 11.7066   1
   5  -3  -4 159.949  15.679   1
  -5  -3   4 160.581 11.7304   1
  -5  -3   4  184.47 17.2361   1
   5   3  -4 175.712 10.8676   1
  -5   3   4 170.136 11.2609   1
   5  -3  -4 167.596 9.21332   1
  -5   3   4 184.613 13.3545   1
  -5   3   4 168.958 11.0854   1
   5  -3  -5 20.0326 2.62826   1
   5   3  -5 17.9182 8.09339   1
  -5   3   5 13.1292 5.91222   1
  -5   3   5 16.9419 4.96559   1
   5   3  -5 14.3704 3.08878   1
  -5  -3   5  10.899 6.08265   1
  -5  -3   5  17.762 4.54286   1
   5  -3  -5 14.2055 7.26651   1
  -5  -3   5 9.82925 4.30368   1
  -5  -3   5 9.66335 3.77902   1
  -5   3   5 18.6707  3.7264   1
   5   3  -5 17.5144 4.19927   1
  -5   3   5 13.1186 3.71047   1
  -5   3   5 17.4972 3.86979   1
  -5   3   6 146.976 9.44384   1
  -5  -3   6 173.987 11.1952   1
  -5  -3   6 149.718 10.9265   1
   5   3  -6 159.381 16.4414   1
  -5   3   6 156.858 9.35132   1
  -5  -3   6 122.914 10.1029   1
  -5   3   6 137.248 9.55287   1
   5  -3  -6 111.231 12.9175   1
   5   3  -6 149.602 10.7668   1
  -5   3   6 139.604  11.074   1
  -5   3   7 100.582 7.52038   1
  -5   3   7 109.241 9.10001   1
   5   3  -7 101.129 9.03265   1
   5  -3  -7 80.0409 11.1318   1
  -5  -3   7 114.383 9.77186   1
  -5  -3   7 111.294 9.63545   1
  -5  -3   7 114.072 9.53247   1
  -5   3   7  111.95 7.60966   1
   5   3  -7 106.702 15.3207   1
  -5   3   7 104.522 7.81764   1
  -5  -3   8 328.589 18.2062   1
   5   3  -8 338.617 18.6581   1
  -5  -3   8 372.505 18.6508   1
  -5   3   8 337.311 17.2046   1
  -5   3   8  340.43 16.8893   1
   5   3  -8 387.852 26.5166   1
  -5   3   8 334.868 16.9166   1
   5  -3  -8 255.895 18.8367   1
  -5   3   8 355.747  18.073   1
   5   3  -9 67.3715 13.2359   1
  -5  -3   9 70.7767  8.2128   1
  -5   3   9  65.832 6.41812   1
  -5   3   9 56.8998 5.61404   1
   5  -3  -9 45.9673 7.55991   1
   5   3  -9 63.6491 6.96649   1
   5   3 -10 62.8534 6.62471   1
   5  -3 -10 38.4653 6.08235   1
   5   3 -10 56.2641 6.74616   1
  -5   3  10 66.1844 5.63277   1
  -5  -3  10 56.3858 7.76964   1
   5   3 -10 98.3846 15.5613   1
   5   3 -11 5.11522 3.53222   1
   5  -3 -11 3.41739 3.80587   1
  -5  -3  11 3.93607 5.48483   1
  -5   3  11 1.00077  2.6249   1
   5   3 -11 6.03432  10.508   1
  -5  -3  12 52.9791 8.87983   1
   5   3 -12 56.8322 14.0217   1
  -5   4   1 92.3144 9.83389   1
  -5   4   1 114.172 15.4473   1
  -5   4   1 95.7593 9.41005   1
   5   4  -1 94.5884 9.58356   1
   5   4  -1 117.708 10.4082   1
  -5   4   1 123.321 14.8736   1
   5   4  -1 118.088 15.2544   1
  -5   4   1 102.761 9.22888   1
  -5   4   1 110.121 9.38422   1
  -5   4   1 102.599 9.97115   1
   5  -4  -1 115.667 9.07878   1
  -5  -4   1  103.15 10.1846   1
   5  -4  -1 101.654 9.21487   1
   5  -4  -1 63.3611 13.4307   1
  -5  -4   1 119.061 16.7387   1
  -5  -4   1 112.188 11.9063   1
   5  -4  -1 107.319 8.54827   1
  -5  -4   1 103.547 10.3508   1
   5  -4  -2 24.7944 9.83002   1
   5  -4  -2 42.9721  6.1518   1
  -5   4   2  50.134 9.31336   1
  -5  -4   2 43.6191 10.1815   1
   5  -4  -2 56.6276 6.08191   1
   5   4  -2 56.8213 7.63484   1
  -5  -4   2  43.165 6.68718   1
   5   4  -2 53.2691 7.19899   1
  -5  -4   2 45.4181 7.05802   1
   5   4  -2 48.6582 11.0715   1
   5  -4  -2 51.9419 5.80015   1
  -5   4   2 53.9759 11.3803   1
  -5   4   2 51.0928 6.99685   1
  -5   4   2 43.6282 6.43374   1
  -5   4   2 52.0611 6.46285   1
  -5   4   2 60.6414  7.6243   1
  -5   4   3  3.5845 3.40995   1
  -5  -4   3-1.80308   3.732   1
  -5  -4   3 4.17753 3.88315   1
   5  -4  -3 4.71387  2.9354   1
  -5   4   3-1.11604 3.51557   1
   5  -4  -3 5.53096 3.81491   1
   5  -4  -3  0.8826 2.59029   1
   5   4  -3 7.12614 3.84105   1
  -5   4   3 1.47981 3.12628   1
   5   4  -3 4.34242 3.83797   1
   5   4  -3 1.46289 7.21881   1
  -5   4   3 6.52307 5.98565   1
  -5  -4   3-9.56357 6.90883   1
  -5   4   3-1.57861 3.33529   1
  -5  -4   3 1.50564 4.18167   1
   5  -4  -4 118.743 15.3266   1
  -5   4   4 123.033 10.1499   1
  -5   4   4 134.354 9.98788   1
   5   4  -4 134.059 10.0449   1
  -5   4   4 138.453 13.1283   1
   5   4  -4 131.526 16.6129   1
   5   4  -4 152.815 11.0398   1
  -5  -4   4 114.076 10.6411   1
  -5  -4   4  102.96 10.4632   1
  -5  -4   4 123.486 16.3054   1
  -5  -4   4 120.202 10.6267   1
   5  -4  -4 116.954 7.43053   1
  -5   4   4 131.418 9.94191   1
   5   4  -5 178.181 18.6686   1
   5   4  -5 176.313 12.6181   1
  -5   4   5  151.33 11.2986   1
  -5   4   5 162.112 14.5062   1
  -5  -4   5 179.389 13.1591   1
  -5  -4   5 153.712 12.8345   1
  -5   4   5 183.104 11.5684   1
  -5   4   5 181.799 11.3224   1
   5  -4  -5 195.011 17.5334   1
  -5  -4   5 184.612 13.1123   1
   5  -4  -5 181.173 9.26703   1
  -5  -4   6 165.023  13.689   1
   5  -4  -6 227.669 18.2642   1
   5   4  -6 211.051 10.6242   1
   5   4  -6 191.334 13.7081   1
  -5   4   6 193.051 12.2277   1
  -5  -4   6 188.223 13.9092   1
  -5  -4   6 202.856 14.1655   1
   5   4  -6 222.853 21.3512   1
  -5   4   6 190.018 14.9274   1
  -5   4   6 195.798 12.3746   1
  -5   4   6  210.05 12.5607   1
   5   4  -7 108.068  16.256   1
  -5   4   7 91.5644 8.00693   1
   5   4  -7 83.1377 9.18812   1
  -5   4   7 84.7425 7.90468   1
   5  -4  -7 82.9343 12.1548   1
  -5  -4   7 84.8087 9.93362   1
  -5   4   7 92.2456 10.2241   1
  -5   4   8 21.2829 4.51879   1
   5  -4  -8 21.7181 7.97719   1
  -5  -4   8 23.1174  6.0529   1
  -5   4   8 22.4224 6.12658   1
   5   4  -8 24.0251 11.9779   1
   5   4  -8 20.0839 5.67799   1
  -5   4   8 25.7775 5.14534   1
  -5   4   9 34.6973 6.63342   1
   5  -4  -9 9.11334 6.58032   1
  -5   4   9 25.8944 4.69416   1
   5   4  -9 35.6862 13.7164   1
   5   4  -9 26.2169 7.39232   1
  -5  -4   9 31.2626 6.84769   1
   5  -4 -10 2.90775 5.75859   1
  -5   4  10 9.78394 4.16692   1
   5   4 -10 14.1082 12.6187   1
  -5  -4  10 11.9865  6.2661   1
  -5   4  10 7.54091 4.92368   1
  -5   4  11 10.8207 5.14551   1
   5  -4 -11 4.74779 5.19457   1
   5   4 -11 26.0195 14.1067   1
  -5  -4  11 13.9896 7.11202   1
  -5   4  11 11.6324 4.44985   1
   5   4 -12 74.7103 17.9053   1
   5  -4 -12 65.2724 7.28159   1
  -5   4  12 62.4818 7.39241   1
  -5   4  12 61.2426 6.80583   1
   5  -5  -1 103.949 10.2871   1
  -5  -5   1 109.903 13.1315   1
   5  -5  -1 91.7761 8.97358   1
   5  -5  -1 97.4369 9.02929   1
  -5  -5   1 80.6099 9.70794   1
  -5  -5   1 72.2778 9.33259   1
  -5   5   1 87.3101 14.8444   1
  -5   5   1 89.9878 9.59306   1
  -5   5   1  122.55 15.2467   1
   5   5  -1 85.6921 15.7857   1
  -5   5   1 63.8384 8.63764   1
  -5   5   1 104.998 10.1776   1
   5   5  -1 80.1531 9.75925   1
   5   5  -1 103.636 10.5498   1
   5   5  -2 192.453 13.8932   1
  -5   5   2 172.394 13.7674   1
  -5   5   2 173.046 13.5859   1
  -5  -5   2 175.401 14.0841   1
   5  -5  -2 176.812 11.6574   1
   5  -5  -2 173.809 11.7212   1
   5  -5  -2 180.562 13.1718   1
  -5  -5   2  182.38 14.2693   1
   5  -5  -2 172.987  19.215   1
   5   5  -2 156.943 13.3023   1
  -5   5   2 166.514 12.5177   1
  -5   5   2 170.721 19.6916   1
  -5   5   2 164.143 12.7205   1
   5   5  -2 177.936 19.8482   1
  -5   5   2 177.202 18.7643   1
  -5   5   3 30.9914 9.73763   1
  -5  -5   3 27.0204 6.63317   1
   5  -5  -3 34.6785 4.93113   1
  -5   5   3  43.124 7.41867   1
   5  -5  -3 47.0135 12.3927   1
  -5  -5   3 34.4901 6.74747   1
   5  -5  -3 43.9611 5.55709   1
   5   5  -3 37.9591 6.56722   1
  -5   5   3 36.0158 6.14018   1
  -5   5   3 35.5465 6.33182   1
  -5  -5   3 33.1747  15.652   1
   5   5  -3 23.4347 5.61698   1
   5   5  -3 39.0342 11.8838   1
  -5   5   4 86.3917 12.6348   1
   5   5  -4 68.5908 8.96794   1
  -5   5   4 84.4561 8.76092   1
  -5  -5   4  81.516 10.5204   1
   5   5  -4 92.5498  9.2829   1
   5   5  -4 88.7352 15.2604   1
   5  -5  -4 84.2839 6.65444   1
  -5  -5   4 79.0271 21.4603   1
   5  -5  -4 94.9879 15.4926   1
  -5   5   4 82.2118 8.91681   1
  -5  -5   4 70.8447 8.76388   1
  -5   5   4 72.2541 8.75698   1
  -5   5   5 30.8685 5.56955   1
   5   5  -5 26.5075 11.3597   1
  -5   5   5  20.281 7.91689   1
   5  -5  -5 20.6118 9.69606   1
  -5  -5   5  26.859 6.81316   1
  -5   5   5 14.2562 5.22695   1
   5  -5  -5 27.0723 3.67333   1
  -5   5   6 187.182 17.0195   1
  -5   5   6 177.677 12.7012   1
   5   5  -6 217.393 23.4519   1
   5  -5  -6 179.411 18.3041   1
  -5  -5   6 175.488 14.8199   1
  -5  -5   7 5.19664 5.87309   1
   5  -5  -7 9.83411 8.72084   1
   5   5  -7 11.9001 11.7937   1
  -5   5   7 34.4813 8.98881   1
  -5   5   7 15.5214 4.97993   1
   5  -5  -8 52.1855 11.4885   1
  -5   5   8 76.5637 11.3381   1
  -5  -5   8 69.3444 10.0735   1
   5   5  -8 69.0035 16.3674   1
  -5   5   8 80.0715 8.42773   1
  -5   5   9 23.7015 8.42919   1
   5   5  -9 28.8864 14.5094   1
   5  -5  -9 14.4084 8.43763   1
  -5   5   9 36.5567 6.28504   1
  -5  -5   9 28.6969 7.76315   1
  -5   5  10 34.7395 6.51896   1
   5   5 -10 44.6012 16.9219   1
  -5   5  10 40.4176   8.825   1
  -5  -5  10 29.1558 8.54742   1
   5  -5 -10 16.4372 8.45224   1
   5  -5 -11-0.00471 7.14449   1
  -5   5  11 32.1843 8.37133   1
   5   5 -11 14.4876 16.1243   1
  -5   5  11 20.2495 6.35398   1
   5  -6  -1 24.2646 6.62755   1
  -5   6   1 26.2612 6.47166   1
   5   6  -1 25.4719 7.45722   1
  -5  -6   1 26.0343 8.80662   1
  -5  -6   1 26.9395 7.35333   1
  -5   6   1 18.0502  7.4678   1
  -5  -6   1 10.1875 6.06385   1
  -5  -6   2 33.7002 7.42601   1
   5   6  -2 34.4869 7.45753   1
  -5  -6   2 25.2099 7.03996   1
   5  -6  -2 27.0101 6.59958   1
   5  -6  -2  38.741 6.31851   1
  -5   6   2 31.5379 7.01092   1
   5  -6  -3 156.784  11.051   1
   5   6  -3 153.513 13.3745   1
  -5  -6   3 143.548 14.0891   1
  -5   6   3 170.052 19.9563   1
  -5   6   3 157.766 13.4521   1
   5  -6  -3 143.626 21.0493   1
   5  -6  -3 162.604 13.1093   1
  -5  -6   4  107.19 12.7212   1
  -5   6   4 146.613 18.1116   1
   5  -6  -4 120.092 8.87947   1
   5  -6  -4  109.03 10.9673   1
   5  -6  -4 120.847 18.3978   1
  -5   6   4 123.528 11.8583   1
  -5  -6   5 30.8744 7.97226   1
  -5   6   5 49.2985 12.3698   1
  -5   6   5 46.1675 7.39378   1
   5  -6  -5 24.7517 11.8922   1
  -5   6   6 5.19974 4.61797   1
  -5   6   6 5.66436 9.65083   1
  -5  -6   6 4.91456 5.90672   1
   5  -6  -6 1.46008 10.0778   1
  -5   6   7  99.577 14.7602   1
  -5  -6   7 67.1021 10.6252   1
   5  -6  -7  57.745 14.0239   1
  -5   6   7 96.4564 10.4116   1
  -5  -6   8 56.0218 10.1675   1
  -5   6   8 81.3451 13.6207   1
   5  -6  -8 34.7912 12.3623   1
  -5   6   8 69.4696 9.18405   1
  -5  -6   9 24.7554 9.10131   1
  -5   6   9 37.7621 11.2521   1
  -5   6   9 29.3113 7.31712   1
   5  -6  -9 30.5987  11.549   1
   5  -6 -10  9.3538 9.93719   1
  -5   6  10 19.9419  10.205   1
   5   7  -1 18.1663 7.66754   1
  -5   7   1 29.7614 7.93542   1
  -5  -7   1 18.8428 7.55336   1
   5  -7  -1 24.2019 7.72957   1
   5  -7  -2 28.9227 7.61609   1
  -5  -7   2 35.4282 8.40414   1
   5   7  -2 42.2132 9.05848   1
  -5   7   2 31.5576 7.77754   1
  -5  -7   3 59.7206 10.1052   1
   5  -7  -3 28.0054 7.19934   1
  -5   7   3 46.1737    8.65   1
  -5   7   4 22.3384 7.09035   1
  -5  -7   4 12.2618 7.16753   1
   5  -7  -4 14.4769 6.30623   1
   5  -7  -5 22.8758 6.43461   1
  -5  -7   5 6.83695 7.17229   1
  -5   7   5 49.0492 8.81037   1
  -5   7   6 3.14087 5.91845   1
  -5  -7   6 7.48516 7.34262   1
  -5  -7   7 116.226 14.4046   1
  -5   7   7 115.885 12.8663   1
   5  -7  -7 66.4277 18.2531   1
  -5  -7   8 1.68255 14.7917   1
   5  -7  -8 5.60885 12.3105   1
   5  -7  -9 18.1658 13.1286   1
  -5   8   1-6.39926 6.62865   1
   5  -8  -1 4.48297 7.51178   1
   5  -8  -2 60.1887 11.0755   1
  -5   8   2 56.9119 10.3714   1
  -5  -8   3  44.383 10.3116   1
  -5   8   3  62.323 11.3195   1
   5  -8  -3 44.5092 9.71255   1
  -5   8   4 25.4775 8.87015   1
  -5  -8   4 21.8508 9.39268   1
  -5  -8   5 34.6008 10.1409   1
  -5  -8   6 32.4534 10.8868   1
   4   0  -1-0.27465 4.06367   1
  -4   0   1 13.0383 5.28288   1
  -4   0   1 4.07949 3.41761   1
   4   0  -1 0.87375 3.53647   1
   4   0  -1 4.73679 2.57215   1
  -4   0   1 3.82035 2.29587   1
   4   0  -1-0.27851 1.74716   1
  -4   0   1 1.19653 1.89614   1
   4   0  -1 4.70742 2.26111   1
   4   0  -1 4.80942 2.41945   1
  -4   0   1 0.56565 2.14903   1
  -4   0   1 5.42881 4.05846   1
  -4   0   1 2.29177 2.01095   1
  -4   0   2 250.025  16.118   1
  -4   0   2 244.508  12.824   1
   4   0  -2 241.132 12.0021   1
   4   0  -2 241.662 15.8863   1
  -4   0   2 238.742 13.8358   1
   4   0  -2 237.402 15.5222   1
  -4   0   2 227.499 12.2003   1
   4   0  -2 250.504 12.5192   1
   4   0  -2 230.336  12.635   1
  -4   0   2 256.878 16.1009   1
   4   0  -2 252.027  12.428   1
  -4   0   2 227.133  12.245   1
  -4   0   2 241.876  12.666   1
  -4   0   3 27.2556 3.42531   1
  -4   0   3 23.9704 3.38486   1
  -4   0   3 29.8958 5.70417   1
   4   0  -3   26.72 5.69655   1
   4   0  -3 32.0771 6.42928   1
  -4   0   3 21.8944 5.87788   1
  -4   0   3 22.8076 3.35453   1
  -4   0   3 19.5036 3.82593   1
   4   0  -3 33.4068 3.95511   1
   4   0  -3 22.5332 2.54395   1
  -4   0   3 21.9621 2.96715   1
   4   0  -3 21.1728 2.66685   1
  -4   0   4 1.17233 1.91933   1
   4   0  -4 -3.0905 3.16987   1
  -4   0   4 0.16543 1.45897   1
  -4   0   4 1.32584  1.9678   1
   4   0  -4  0.1563 1.77815   1
   4   0  -4 2.47138 3.28572   1
  -4   0   4 3.52071 3.37617   1
  -4   0   4-0.38701 1.82608   1
  -4   0   4 -0.7888  3.9138   1
  -4   0   5 269.256 13.0828   1
   4   0  -5 272.529 16.0199   1
   4   0  -5 268.878 13.2202   1
  -4   0   5 272.492 13.5767   1
  -4   0   5 268.496 12.8018   1
  -4   0   5  281.70 13.2901   1
   4   0  -5 280.175 16.2659   1
  -4   0   6 24.0024 2.40836   1
  -4   0   6 23.3239 2.60092   1
  -4   0   6 19.5363 3.03757   1
   4   0  -6 20.7752 2.64101   1
   4   0  -6 25.2329  5.4609   1
   4   0  -7 34.0436 5.85816   1
  -4   0   7 33.8725 3.61161   1
  -4   0   8 2.42658 2.03298   1
   4   0  -8 1.01655 3.47719   1
   4   0  -9 8.53812 4.17164   1
   4   0 -10 235.713 13.8813   1
   4   0 -11 43.7445 5.87439   1
   4   0 -12 1.24781 3.22805   1
   4  -1  -1 1004.04 43.6437   1
  -4  -1   1  961.96 43.8518   1
   4  -1  -1 1005.60 48.0324   1
  -4  -1   1 987.923 44.3231   1
  -4  -1   1 1009.47 44.1896   1
   4  -1  -1 999.987 43.8071   1
  -4  -1   1 1027.30 47.9252   1
  -4   1   1 998.848 45.0229   1
   4   1  -1 1033.76 44.8881   1
   4   1  -1 969.602 48.5591   1
   4   1  -1 1030.36 44.3932   1
  -4   1   1 1041.73 44.7069   1
  -4  -1   1 1031.02 44.1326   1
  -4  -1   1 917.297 47.6439   1
   4   1  -1 1015.87 45.1189   1
  -4   1   1 1021.86 44.4898   1
  -4   1   1 979.024 48.3945   1
  -4  -1   1 967.149 45.3452   1
   4  -1  -1 995.506 43.4441   1
  -4   1   1 1034.54 46.5979   1
  -4   1   1 1044.57 44.8735   1
  -4   1   1 953.775 48.7242   1
  -4  -1   2 94.1925 6.65082   1
  -4  -1   2 91.6779 6.92887   1
  -4   1   2 92.7463 6.67171   1
   4   1  -2 89.1094 6.60824   1
  -4   1   2 91.2557 9.52941   1
  -4  -1   2 84.2818  6.7229   1
   4   1  -2 92.7539 10.3281   1
  -4  -1   2 90.3864 6.52512   1
   4   1  -2 83.3847 5.97371   1
  -4   1   2 82.8643 7.92558   1
  -4  -1   2 78.8461  7.7664   1
  -4  -1   2 94.0554  10.869   1
  -4   1   2 94.6402 6.76865   1
   4  -1  -2 90.5849 6.04636   1
   4  -1  -2 90.0201 9.80535   1
  -4   1   2 103.118 9.99445   1
   4  -1  -2 96.9871 6.19028   1
  -4   1   2 85.7228 6.19186   1
   4  -1  -2 89.1278 6.66124   1
  -4   1   2 96.6363 6.11601   1
   4  -1  -2 104.106 6.23694   1
  -4  -1   2 79.0271 9.17589   1
  -4  -1   3 197.625 11.0287   1
  -4   1   3  195.26 10.4374   1
   4  -1  -3 193.181 9.37267   1
  -4  -1   3 213.598 11.1316   1
  -4  -1   3 204.926   10.77   1
  -4   1   3 204.937  11.806   1
   4  -1  -3 195.295 10.6772   1
  -4  -1   3  199.00 14.8242   1
   4   1  -3 201.641 10.0844   1
   4  -1  -3 204.994 9.42341   1
   4  -1  -3 177.082 13.3826   1
  -4   1   3 199.154 10.7114   1
   4  -1  -3 201.397 10.1053   1
   4   1  -3 202.168 11.1052   1
  -4  -1   3 193.713 10.8248   1
  -4  -1   3 189.611  13.313   1
  -4   1   3  209.31 10.2957   1
  -4   1   3 189.398 13.2374   1
   4   1  -3 209.723 14.6854   1
  -4   1   3 184.197 13.0562   1
  -4   1   3 221.595 11.2125   1
  -4   1   4 233.548 11.4711   1
  -4  -1   4 213.029 11.1715   1
  -4  -1   4 213.517 11.6787   1
  -4   1   4 223.842  12.185   1
  -4   1   4 222.074 11.1871   1
  -4   1   4 213.699 13.7063   1
   4   1  -4 230.016 12.0872   1
  -4  -1   4 229.993 11.6394   1
  -4  -1   4 208.686 13.7379   1
  -4  -1   4 203.573 14.2392   1
   4  -1  -4 219.816  11.142   1
  -4   1   4 241.068  11.055   1
  -4   1   4 231.721 11.8829   1
   4   1  -5 126.364 7.86862   1
  -4   1   5 131.669 7.15197   1
   4   1  -5 136.459 11.6108   1
  -4   1   5 131.351 6.68256   1
  -4   1   5 129.485 6.92425   1
  -4   1   5 133.053 7.66036   1
  -4  -1   5 138.219 8.12578   1
  -4  -1   5 138.061 7.44112   1
  -4  -1   5 134.787 7.86727   1
   4  -1  -5 104.825 9.12399   1
   4  -1  -5 120.386 7.12847   1
  -4   1   6 86.7442 4.67204   1
   4   1  -6 92.9055 6.17104   1
   4  -1  -6 90.0863 7.59535   1
  -4   1   6 85.9355 4.53105   1
  -4  -1   6 92.6716 6.23884   1
  -4  -1   6  99.097 6.77809   1
  -4   1   6 89.5813 5.75641   1
   4   1  -6 99.6124 9.91727   1
  -4   1   6 88.3454 4.67379   1
  -4  -1   6 80.6551 5.67789   1
   4  -1  -6 95.4918 5.27331   1
  -4   1   7 10.6966 1.89169   1
  -4   1   7 13.7104 2.24322   1
   4   1  -7 12.2722 2.45361   1
  -4  -1   7 17.5616  2.8127   1
   4   1  -7  15.538 5.60346   1
  -4  -1   7 14.4449 2.51471   1
   4  -1  -7 18.3431 3.98031   1
  -4   1   7 14.2584 1.64677   1
  -4  -1   7 14.0304 3.23567   1
   4  -1  -8 62.0406 6.39415   1
   4   1  -8 56.5747 8.47692   1
  -4   1   8 52.6995 3.15385   1
  -4  -1   8 58.2646  4.7027   1
  -4  -1   8 60.6731  5.8196   1
   4   1  -8 57.7204 3.93089   1
  -4   1   8 62.8812 3.79791   1
   4   1  -8 56.9147 3.99965   1
  -4  -1   8 66.6589 4.90645   1
  -4  -1   9 224.368 11.4074   1
  -4  -1   9 206.502 10.5234   1
  -4   1   9 180.433    8.61   1
  -4  -1   9  194.83 10.4325   1
   4   1  -9 200.717 14.7072   1
  -4  -1  10 6.95252 2.49595   1
  -4  -1  10 7.07723 2.70953   1
   4   1 -10 6.15207 6.16983   1
  -4  -1  11 71.2661 6.38399   1
   4   1 -11 57.7749  9.2761   1
   4   1 -12  4.8174 6.71472   1
  -4  -1  12  6.1709 4.30169   1
  -4  -1  13  84.591  8.2374   1
   4   1 -13 75.8046  10.859   1
  -4  -2   1 392.304 19.9586   1
  -4   2   1 436.405 24.9151   1
  -4   2   1 429.336 20.2386   1
  -4   2   1 397.899 20.5472   1
  -4  -2   1 405.206 24.8302   1
   4  -2  -1 422.752 19.5648   1
   4   2  -1 403.572 20.2039   1
   4   2  -1 408.311 20.7208   1
  -4   2   1 409.737 20.4638   1
   4  -2  -1 392.416 19.2568   1
  -4   2   1  428.89 20.9304   1
   4   2  -1 424.155 20.7956   1
   4  -2  -1 410.114 19.5201   1
  -4  -2   1 390.215 21.4034   1
   4  -2  -1  423.30 24.5636   1
  -4  -2   1 364.115 20.0371   1
  -4   2   1 426.974 23.0263   1
  -4  -2   1  391.86 20.0854   1
   4   2  -1 394.791 24.5151   1
  -4  -2   1  435.18 24.1026   1
  -4  -2   2 1043.27 51.4639   1
  -4  -2   2 1042.75 47.8406   1
  -4   2   2 1033.97 52.6612   1
   4  -2  -2 1098.57 52.1107   1
   4  -2  -2 1079.82 46.9221   1
  -4  -2   2 1110.73  48.038   1
   4  -2  -2 1059.27 47.7808   1
   4  -2  -2 1082.27 47.0346   1
  -4  -2   2 1109.26 52.7573   1
  -4   2   2 1127.71 48.6645   1
  -4   2   2 1142.82 49.0176   1
   4  -2  -2 1113.77 46.8537   1
   4   2  -2 1139.59 48.5996   1
  -4   2   2 1086.33 49.2697   1
  -4  -2   2 1033.16  48.018   1
  -4   2   2 1084.98 50.5493   1
   4   2  -2 1150.76 49.2869   1
  -4   2   2 1153.09 49.3504   1
  -4   2   2 1100.00 48.6086   1
   4   2  -2 1076.57 53.3798   1
  -4  -2   3 74.6314 9.18252   1
  -4  -2   3 81.1464 6.72829   1
  -4  -2   3 77.1718 10.0293   1
  -4  -2   3 80.4042 6.76588   1
   4  -2  -3 67.7391 5.99913   1
  -4  -2   3 80.2902 6.64984   1
   4  -2  -3 75.3181 9.81795   1
   4  -2  -3 78.4624 4.82967   1
  -4   2   3 68.6841 5.87924   1
  -4   2   3 69.8784 5.53288   1
   4   2  -3 77.3105 10.1218   1
  -4   2   3 66.7999 8.69648   1
   4   2  -3  78.682 5.45136   1
  -4   2   3 77.0904 5.80787   1
   4  -2  -3 79.0733 5.09623   1
  -4   2   3 73.5746 5.94986   1
   4   2  -3 86.8822 6.38431   1
  -4   2   3 69.7817 8.13253   1
   4   2  -3 74.6711  6.2793   1
   4  -2  -3 75.7311  4.7162   1
  -4   2   3 79.8642 7.46915   1
  -4  -2   4 174.754 10.4616   1
   4   2  -4 181.329 9.14392   1
   4   2  -4 176.025 8.78671   1
  -4  -2   4 156.629 9.97983   1
  -4  -2   4 163.181 13.5595   1
   4  -2  -4 156.893 8.17543   1
  -4  -2   4 157.304 9.94465   1
  -4  -2   4 187.817 13.0184   1
   4  -2  -4 165.121 9.41955   1
  -4   2   4 164.504 10.4137   1
   4   2  -4 173.285 10.3266   1
  -4   2   4 164.521 11.7311   1
  -4   2   4 157.956 9.56059   1
   4   2  -4 174.405  14.283   1
  -4   2   4 166.216 9.69819   1
   4  -2  -4 163.889 12.9739   1
  -4   2   4 168.966 9.27195   1
  -4   2   4 171.706 9.46769   1
  -4   2   5 56.0394 4.98729   1
  -4   2   5 54.1665 4.45253   1
   4   2  -5 52.0455 9.16799   1
  -4   2   5 53.8518 4.69289   1
  -4  -2   5   60.64 7.68877   1
  -4  -2   5 44.8648   5.271   1
  -4   2   5 57.5658 4.56885   1
   4   2  -5 54.2885 5.64648   1
  -4  -2   5 56.5872 5.89262   1
   4  -2  -5 53.8294 7.84818   1
  -4  -2   5  56.903 5.55923   1
  -4   2   5  60.133 5.28962   1
  -4  -2   6  48.479 5.07897   1
  -4  -2   6 44.6228 5.00234   1
  -4  -2   6 45.4356 5.29832   1
   4  -2  -6 32.6867 5.67032   1
   4   2  -6  46.357 9.00381   1
  -4   2   6 51.8571 3.79635   1
  -4   2   6 49.1279 3.76674   1
  -4   2   6 46.3392 4.32789   1
   4   2  -6 47.4833 5.14729   1
  -4   2   6 44.4089 4.10805   1
  -4  -2   7 303.677 15.8955   1
  -4  -2   7 309.107 15.5599   1
   4   2  -7 324.975 16.6168   1
  -4  -2   7 321.807 15.7027   1
   4  -2  -7 272.805 16.4919   1
  -4   2   7  354.93 15.5924   1
   4   2  -7 307.521 21.3356   1
   4  -2  -8 96.2039 8.12419   1
  -4  -2   8 119.054 8.75441   1
  -4  -2   8 115.711 8.05609   1
  -4  -2   8  116.14  8.1452   1
  -4   2   8  116.66 6.85262   1
   4   2  -8 113.555 13.6145   1
   4   2  -8 101.089 7.47482   1
   4   2  -9 329.451  23.019   1
   4  -2  -9 331.058 17.0619   1
  -4  -2   9 412.145  18.826   1
   4   2  -9 342.667  16.184   1
   4   2  -9 340.218 16.2811   1
  -4  -2   9  359.09 18.1261   1
  -4  -2   9 328.652 17.8452   1
   4   2 -10 56.7793 11.0701   1
  -4  -2  10 55.6761 6.58288   1
   4   2 -10  38.416 2.32679   1
  -4  -2  11 41.7494 6.27629   1
   4   2 -11 49.0951 11.1814   1
   4   2 -12 10.2189 9.32725   1
  -4  -2  12 5.80936 5.36905   1
  -4  -2  13 11.6197 6.82603   1
   4   2 -13 13.0808 10.2037   1
  -4   3   1 428.728 21.9027   1
   4  -3  -1 444.667 20.4615   1
   4  -3  -1  416.21 20.4568   1
  -4  -3   1 429.255 21.6728   1
  -4  -3   1 423.906 21.3031   1
  -4   3   1 428.766 22.1659   1
  -4  -3   1 419.688 22.8361   1
   4  -3  -1 434.697 20.7877   1
  -4  -3   1 425.479 26.8921   1
  -4   3   1 447.253 21.4947   1
  -4  -3   1 384.245 21.3779   1
   4   3  -1 424.943 22.0791   1
   4   3  -1 433.485 22.2071   1
  -4   3   1 468.556 26.7551   1
   4   3  -1 426.244 26.6144   1
  -4   3   1 455.165 21.9477   1
  -4   3   1 411.398 23.8233   1
   4   3  -1 411.873 21.4112   1
   4  -3  -1 378.489 25.5464   1
   4   3  -2 167.602 11.0015   1
   4   3  -2 201.633 16.3579   1
  -4   3   2 201.129 11.9097   1
   4   3  -2 186.895 11.9358   1
   4  -3  -2  201.13 10.6851   1
  -4  -3   2 189.522  12.023   1
  -4  -3   2 202.106 16.7209   1
  -4   3   2 194.093 11.3128   1
  -4   3   2 203.434 11.7289   1
  -4   3   2 186.917 15.2822   1
   4   3  -2 199.153 12.0782   1
  -4  -3   2 189.015 12.2771   1
   4  -3  -2 198.531 11.0447   1
   4  -3  -2 197.872 16.4097   1
   4  -3  -2 190.564  10.491   1
  -4  -3   2 188.886 12.2937   1
   4  -3  -2 189.087 11.6043   1
  -4   3   2 205.834  11.708   1
  -4   3   2 175.085 13.4596   1
  -4  -3   3 179.833 15.4423   1
  -4   3   3  175.78 10.3446   1
  -4  -3   3 149.795 11.1251   1
  -4  -3   3 174.516  11.213   1
  -4  -3   3  160.78 11.2682   1
  -4   3   3 187.078 10.6921   1
  -4   3   3 174.978 13.9668   1
  -4   3   3 168.777 12.4263   1
   4   3  -3 122.569 13.4303   1
   4  -3  -3 188.067 8.99425   1
  -4   3   3 173.516 10.6175   1
   4  -3  -3 167.883 14.7898   1
   4  -3  -3 176.025 10.7742   1
   4  -3  -3 183.278 9.29168   1
  -4   3   3 166.381 10.6176   1
   4   3  -3 194.655  11.074   1
   4   3  -3 183.235 15.7641   1
   4  -3  -3 177.442 9.29967   1
  -4   3   4 247.048 13.6751   1
   4   3  -4 224.701 13.1166   1
  -4   3   4 252.669 13.6817   1
  -4   3   4 256.936 13.3553   1
  -4  -3   4 259.051 14.8677   1
  -4  -3   4 264.507 19.4157   1
   4  -3  -4 275.999 18.5679   1
  -4  -3   4 255.252 14.9014   1
  -4  -3   4 261.303 14.8094   1
   4  -3  -4 254.595 12.2302   1
   4   3  -4 278.184 14.6683   1
  -4   3   4 259.669 13.5315   1
  -4   3   4 258.828 15.0941   1
   4   3  -4 262.459 19.4463   1
  -4  -3   5 340.583 17.9907   1
   4  -3  -5 321.798 20.5402   1
  -4   3   5 344.336 16.9061   1
  -4   3   5 333.916 16.4978   1
  -4   3   5  311.42 16.7345   1
  -4  -3   5 319.047 17.7057   1
  -4   3   5 318.787 16.4224   1
  -4   3   5  337.26 17.8558   1
   4   3  -5 353.541 17.9807   1
   4   3  -5 348.001 15.6845   1
  -4  -3   5 339.308 17.7543   1
   4   3  -5 341.175 15.5674   1
   4   3  -5 338.601 23.3527   1
   4  -3  -6 29.9137 7.05005   1
  -4  -3   6 25.7983 5.16039   1
  -4   3   6 20.9301 3.36365   1
   4   3  -6 24.3458 4.35068   1
  -4   3   6  17.937 3.06525   1
  -4  -3   6 11.9486 3.88475   1
   4   3  -6 19.8121  8.5619   1
  -4  -3   6 17.8098 4.31408   1
  -4   3   6 17.6418 3.17027   1
  -4   3   6 22.8398 4.33387   1
  -4  -3   7 282.883 15.7018   1
  -4   3   7 258.326 12.9271   1
   4   3  -7 278.015  21.515   1
  -4   3   7 267.698 13.3461   1
   4   3  -7 277.361 14.9954   1
  -4  -3   7 262.059 15.3647   1
   4  -3  -7 252.658   16.81   1
  -4   3   7 267.131 12.8291   1
  -4   3   7 249.826 13.3864   1
  -4  -3   7  271.95 15.4288   1
  -4   3   8 281.863   13.53   1
  -4   3   8 291.813 13.6956   1
   4   3  -8 300.977 16.2921   1
   4  -3  -8 255.281 16.6745   1
  -4   3   8 307.641 15.4937   1
  -4  -3   8 312.176 16.8465   1
  -4  -3   8 288.068 16.2595   1
   4   3  -8 308.472 23.4844   1
  -4  -3   8 284.626 16.2804   1
  -4  -3   9 96.7269 9.31524   1
   4   3  -9 107.128 8.68148   1
   4   3  -9 106.662 8.90241   1
   4  -3  -9 84.9309 8.83208   1
  -4  -3   9 99.2582  9.4773   1
   4   3  -9 113.114 15.6088   1
  -4  -3  10 51.3531 7.24244   1
   4  -3 -10 27.0417 4.80401   1
   4   3 -10 43.3014 5.48518   1
   4   3 -10 68.7277 13.3466   1
   4   3 -10  38.775 5.44171   1
   4   3 -11 8.40704  3.3062   1
   4   3 -11 4.39938 10.4025   1
  -4  -3  11 8.19174 5.49855   1
  -4  -3  12 49.0201  8.5118   1
   4   3 -12 47.4258  13.853   1
   4   3 -13 120.131  18.505   1
  -4   4   1 79.4438  8.1933   1
   4   4  -1 78.2985 7.87002   1
  -4   4   1 82.9161 8.23322   1
  -4   4   1  72.409 10.0139   1
   4  -4  -1 72.1132 7.67999   1
   4   4  -1 88.3432 12.8789   1
  -4   4   1 74.1487 7.40471   1
  -4  -4   1 89.8643  9.1604   1
  -4   4   1 82.7029 12.2324   1
  -4  -4   1 80.7227  8.4592   1
  -4  -4   1 71.3466 11.6989   1
  -4   4   1 79.6887 7.81832   1
   4   4  -1 90.0644 8.46214   1
   4  -4  -1 83.5529 7.02099   1
   4  -4  -1 82.2639 13.1089   1
  -4  -4   2 3.66443 3.54663   1
  -4  -4   2-0.88692  6.6137   1
   4  -4  -2 3.82563 7.08295   1
   4   4  -2 3.50897 3.57129   1
  -4   4   2  2.7229 2.90942   1
   4  -4  -2 2.96182 2.58398   1
   4  -4  -2   2.453 2.82536   1
  -4  -4   2 2.82273 3.40942   1
   4  -4  -2  2.1469 2.54974   1
  -4  -4   2 7.55021 4.23202   1
  -4   4   2 6.06816 6.17547   1
  -4   4   2 2.25201 3.05337   1
   4   4  -2 -0.2351 6.16223   1
   4   4  -2 7.80554  3.5562   1
  -4   4   2 6.07681 3.14032   1
  -4   4   2 1.91279 5.40454   1
  -4   4   2 2.68286 2.98205   1
  -4  -4   3 0.66096 3.28311   1
  -4  -4   3-0.46512 3.19172   1
   4  -4  -3 4.96712 2.40236   1
   4   4  -3 4.89949 6.74911   1
   4   4  -3  0.4681 2.73448   1
  -4   4   3-0.98286 4.74678   1
   4   4  -3 4.73935 3.35977   1
   4  -4  -3 3.09213  2.9951   1
  -4   4   3-0.91315 5.38361   1
  -4   4   3-0.31104 2.95303   1
  -4   4   3-0.16715  2.5714   1
  -4  -4   3 0.71749 6.63656   1
  -4   4   3 0.57561 2.80052   1
  -4   4   3 3.66823 3.00678   1
   4  -4  -3-8.25952 5.96253   1
  -4  -4   3 1.97792 3.62233   1
  -4   4   4 252.917 14.6072   1
  -4  -4   4 288.714  16.029   1
  -4   4   4 266.632 14.9308   1
   4  -4  -4 235.598 19.4467   1
  -4  -4   4 256.019 15.7161   1
  -4  -4   4 289.935 21.7312   1
  -4  -4   4 256.834 15.9518   1
   4   4  -4 278.239 15.9427   1
  -4   4   4 277.636 15.2386   1
  -4   4   4 250.812  14.675   1
   4  -4  -4  250.42 12.6208   1
  -4   4   4 256.814 17.2288   1
   4   4  -4 269.977 14.9702   1
   4   4  -4 291.826 22.3855   1
   4   4  -5 54.4497 6.99248   1
   4   4  -5 43.2537 4.83323   1
  -4   4   5 47.5505 7.41432   1
  -4   4   5 50.8539 5.70002   1
  -4  -4   5 38.9268 6.08307   1
  -4  -4   5 58.0842 7.11017   1
   4  -4  -5 45.3413 10.1964   1
  -4   4   5 52.4619 5.83211   1
   4  -4  -5 49.9607 3.44695   1
  -4  -4   5  42.101 6.49454   1
   4   4  -5 62.9394 12.3342   1
  -4   4   5 51.5011 6.03136   1
  -4  -4   6  509.49 24.9889   1
  -4   4   6 453.656 24.8139   1
  -4   4   6 476.485 23.1075   1
   4   4  -6 496.247 24.8884   1
  -4   4   6 480.152 23.0972   1
  -4  -4   6 466.479 24.5992   1
  -4  -4   6 431.729 24.5513   1
   4   4  -6 488.074  31.825   1
   4   4  -6 508.955 21.3401   1
  -4   4   6 433.032 22.6905   1
  -4   4   7 16.7451 5.17419   1
  -4   4   7 15.0033 3.55814   1
  -4  -4   7 10.2368 4.86238   1
   4  -4  -7 10.6352 7.24786   1
  -4   4   7 13.0603  3.2962   1
  -4  -4   7 6.97606 4.68986   1
  -4   4   7 14.3548 3.77907   1
  -4  -4   7 12.5363 5.02537   1
   4   4  -7 13.9038  4.7163   1
   4   4  -7  15.775 9.69993   1
  -4   4   8  2.0254 3.35062   1
   4   4  -8  3.5139 4.44883   1
  -4   4   8 11.3242  3.5726   1
   4  -4  -8 4.21695 6.64122   1
  -4  -4   8 4.75428 4.75718   1
   4   4  -8 16.4495 10.2672   1
  -4   4   8 6.13047 3.53186   1
  -4   4   8 4.75741 4.36936   1
   4   4  -9-4.61162 9.27046   1
   4   4  -9 4.83584 4.68296   1
  -4  -4   9 0.31765 4.76436   1
   4  -4  -9 1.71805 5.94004   1
   4   4  -9 4.36869 4.63675   1
  -4   4   9 0.10912 3.65814   1
  -4   4   9 1.63606  3.2417   1
   4   4 -10 1.14643 4.56849   1
  -4   4  10-1.58744 3.14846   1
   4   4 -10-1.13343 10.6958   1
  -4   4  10 4.51016 3.76726   1
  -4  -4  10 7.23139 5.75153   1
   4  -4 -10-0.88992 5.44129   1
   4   4 -10 3.22022 8.23514   1
   4   4 -11 7.77045 5.88327   1
  -4   4  11-0.61056 3.56193   1
   4   4 -11  1.3878 11.7515   1
   4  -4 -11  3.3305 4.92869   1
  -4   4  11 5.08433 3.57281   1
  -4  -4  11 5.93412 6.20911   1
   4   4 -12 11.5898 13.7936   1
   4  -4 -12 0.14974 0.38562   1
  -4   4  12 12.1574 4.33391   1
  -4   4  12 7.24389 4.13792   1
  -4   5   1 390.052 21.7122   1
   4  -5  -1 387.449 19.5473   1
  -4   5   1 406.462 22.4009   1
   4   5  -1 393.801 28.1283   1
  -4   5   1 382.151 22.0662   1
   4   5  -1 405.197 22.3786   1
   4  -5  -1  356.48 27.0457   1
  -4   5   1 377.773 22.4019   1
  -4   5   1 430.656 28.8508   1
  -4  -5   1 336.524 20.9699   1
  -4  -5   1 400.444 21.6129   1
  -4  -5   1 343.405 27.2497   1
   4  -5  -1 395.849 21.0273   1
   4   5  -1 397.306 22.6499   1
  -4   5   1 463.198 27.4129   1
   4  -5  -2 4.35485 3.54616   1
  -4   5   2 7.27644  4.0498   1
  -4   5   2 14.7845 4.84946   1
  -4   5   2 8.55432  4.2832   1
   4   5  -2 21.8502 9.12475   1
  -4   5   2   22.81 8.67147   1
   4  -5  -2 11.6541 3.58547   1
  -4  -5   2 3.87064 8.23732   1
   4  -5  -2 15.7073 9.70362   1
  -4  -5   2 8.91103 4.41177   1
  -4  -5   2 3.00603 3.85501   1
  -4   5   2 13.8164 7.78125   1
   4   5  -2  7.7966 4.15413   1
  -4   5   2 2.16036 3.80987   1
   4   5  -2 10.5037 4.91458   1
  -4  -5   3 10.3047 9.04908   1
  -4   5   3 11.6752 4.14337   1
  -4   5   3 16.2045 4.66737   1
   4  -5  -3 12.5857 8.84043   1
  -4  -5   3 8.55998 4.45472   1
   4  -5  -3 15.5923 4.18916   1
  -4   5   3 8.36576 4.19724   1
   4   5  -3 13.4351 4.69171   1
  -4   5   3 23.1347 15.8245   1
   4   5  -3 9.16332 8.78524   1
  -4   5   3 18.2341 4.92476   1
  -4   5   3 9.05266 8.15377   1
  -4  -5   3 1.93907 4.04659   1
   4   5  -3 14.4285 4.89289   1
   4  -5  -3 15.0363 3.31797   1
  -4   5   4 226.493 18.8202   1
   4  -5  -4 242.168 14.6245   1
  -4   5   4 264.564 15.6733   1
  -4  -5   4 291.285 17.3052   1
  -4  -5   4 262.508 23.5351   1
  -4  -5   4 236.868  15.824   1
   4  -5  -4 214.869 20.6772   1
  -4  -5   4 238.503 16.2398   1
  -4   5   4 247.105  15.364   1
   4   5  -4 274.051 15.5615   1
  -4   5   4 246.431 15.1793   1
   4   5  -4 278.598 23.7948   1
  -4  -5   5 131.542 11.4071   1
  -4   5   5 151.638 10.8412   1
   4  -5  -5 112.773 16.3828   1
   4  -5  -5 138.774 7.61166   1
  -4  -5   5 133.502 12.0138   1
  -4  -5   5 157.962 12.4705   1
  -4   5   5 147.383 15.0059   1
  -4   5   5 159.051 11.0639   1
   4   5  -5  142.60 10.2297   1
  -4   5   5 123.715 10.4856   1
   4   5  -5  147.04 18.8528   1
   4   5  -5 152.374 12.1546   1
   4  -5  -5 130.945 9.62445   1
  -4   5   6 46.3561 6.43297   1
  -4   5   6 53.5363 6.68715   1
  -4  -5   6 46.7723 7.86378   1
   4   5  -6 66.8496 14.1905   1
  -4  -5   6 46.8594 7.57978   1
   4   5  -6 46.9947 7.43977   1
  -4  -5   6 50.9093 11.0596   1
  -4   5   6 51.6721 9.26377   1
  -4   5   7 74.8299 7.79064   1
  -4   5   7 77.6751  8.0764   1
   4   5  -7 89.0715 16.3941   1
   4  -5  -7 63.8335 11.8939   1
  -4   5   7 74.5322 10.2718   1
  -4   5   8 56.5231 9.24809   1
  -4   5   8 71.8224  7.6842   1
   4   5  -8 82.0999 16.5245   1
  -4  -5   8 52.8952 8.87948   1
   4   5  -9 120.788 20.1061   1
   4   5  -9 112.634 11.7663   1
  -4  -5   9 117.513 12.5515   1
  -4   5   9 125.814  13.373   1
  -4   5   9 115.014 10.1226   1
  -4   5  10 9.18509 6.74599   1
   4   5 -10-0.52716 12.9533   1
  -4  -5  10 4.23951  6.6028   1
   4  -5 -10-4.02738 7.32627   1
  -4   5  10 0.50843 4.67598   1
  -4   5  11 9.56946 5.65517   1
   4  -5 -11  5.6406 7.38984   1
  -4   5  11 13.8729 7.14281   1
   4   5 -11 18.5154 15.6832   1
  -4  -6   1 70.0576 8.81832   1
   4  -6  -1 62.6384 7.47944   1
  -4   6   1 78.7949 9.62035   1
  -4   6   1  84.704 9.50703   1
   4   6  -1 93.7915 10.9375   1
   4   6  -1 58.7464 8.61527   1
  -4   6   1 98.3882 11.3247   1
  -4  -6   1 63.9373 9.08535   1
   4  -6  -1 75.6007 16.1884   1
   4  -6  -1 76.2724 9.31043   1
   4   6  -2 23.2471 13.3804   1
  -4   6   2 20.2762 6.01872   1
   4   6  -2 23.7499 6.19737   1
   4  -6  -2 27.7975 6.14381   1
   4  -6  -2 27.8008 10.9991   1
  -4  -6   2  7.7972 5.26866   1
  -4  -6   2 20.2232 5.83276   1
   4  -6  -2 7.75605 5.01313   1
  -4   6   2 34.9664 7.56194   1
   4   6  -2 19.5485 6.02315   1
  -4   6   2 14.9862 5.40089   1
  -4   6   2 14.4409  5.8996   1
  -4  -6   3 163.958  14.412   1
   4  -6  -3 186.057 13.2027   1
  -4  -6   3 169.585 14.0446   1
   4  -6  -3 191.264 21.0946   1
  -4   6   3 196.678  23.577   1
   4   6  -3 203.491 22.2278   1
  -4   6   3 176.703 13.8181   1
   4   6  -3  203.91 14.6079   1
  -4   6   3 206.617 15.2193   1
   4   6  -4 22.7108 12.0518   1
   4  -6  -4 11.1084 4.25901   1
  -4   6   4 18.0796 5.50581   1
  -4  -6   4 12.1781 6.01786   1
  -4  -6   4 11.3241  6.5687   1
   4  -6  -4 11.9763 12.1012   1
   4   6  -4 21.7749 5.92926   1
   4  -6  -5 2.61792 3.91891   1
   4   6  -5 3.02391 10.2279   1
  -4   6   5 13.0959 4.98971   1
  -4  -6   5 9.43797  5.8604   1
   4  -6  -6 56.8771 6.83166   1
  -4  -6   6 45.1316 8.81115   1
  -4   6   6 43.5115 11.6804   1
   4  -6  -6 31.9857   12.03   1
   4   6  -6  61.251  15.793   1
  -4   6   6 52.1355 7.76912   1
   4   6  -7 113.744 20.2304   1
  -4  -6   7 68.1977 10.3921   1
  -4   6   7 99.5242 14.2611   1
   4  -6  -7 78.7457 14.1855   1
  -4   6   7 101.757 10.4824   1
  -4   6   8 0.62775 5.08816   1
   4   6  -8 1.74032 12.6676   1
   4  -6  -8 4.89495 9.72156   1
  -4  -6   8-4.64507 6.28078   1
   4  -6  -9 3.14827   9.452   1
   4   6  -9 21.7299 15.9962   1
  -4  -6   9 13.0432 7.74487   1
  -4   6   9 13.4075 6.02384   1
  -4   6  10 23.1761 6.94579   1
   4   6 -10 21.0646 19.5375   1
   4  -7  -1 87.7889 10.9298   1
  -4   7   1 101.107  11.592   1
   4   7  -1 98.5564 11.8716   1
  -4  -7   1 81.3003 10.2795   1
  -4  -7   1 59.5878 10.0462   1
   4  -7  -2 11.0548 5.93359   1
  -4  -7   2 10.6786  6.2448   1
  -4   7   2 7.03442 5.75713   1
   4   7  -2 10.4856  6.1941   1
   4  -7  -3 45.6904 7.70023   1
  -4  -7   3 47.7019 9.19163   1
   4   7  -3 42.1052 8.55991   1
  -4   7   3 37.7872 7.77329   1
  -4   7   4 58.0812 9.17877   1
  -4  -7   4 35.6232 8.40408   1
   4  -7  -4 8.11835 20.9472   1
   4  -7  -4 53.6004  7.8132   1
   4  -7  -5 47.1483 20.0663   1
   4  -7  -5 65.0916 8.26886   1
  -4   7   5 71.3126 9.83695   1
  -4  -7   5 65.9921 10.3576   1
   4  -7  -6  8.5377 12.2825   1
   4  -7  -6 19.8843  8.9443   1
  -4   7   6 25.9782 7.38268   1
  -4  -7   6 8.81869 7.55255   1
  -4  -7   7 1.35555 7.11124   1
   4  -7  -7-1.21613 11.1991   1
  -4   7   7 1.54091 5.73424   1
   4  -7  -8 12.5151 12.1623   1
  -4  -7   8 16.1679 8.90579   1
  -4   7   8 5.11188 6.71429   1
   4  -7  -9 5.35025 12.1458   1
  -4   8   1  4.9583 6.86518   1
   4  -8  -1 11.5416 7.09643   1
   4   8  -1 11.9298 6.98097   1
  -4  -8   2 26.9826 9.39073   1
   4  -8  -2 31.8663 8.15249   1
  -4   8   2 37.0104 8.96128   1
   4  -8  -3 163.016 15.1175   1
  -4   8   3 151.075 15.1758   1
  -4  -8   3 158.924 16.4524   1
   4  -8  -4  149.65 14.7872   1
  -4   8   4 130.888 14.3771   1
  -4  -8   4 108.483 14.4059   1
  -4  -8   5-8.66696 7.49157   1
  -4   8   5 14.7126 8.01352   1
  -4  -8   6 127.158 15.9868   1
  -4  -8   7 7.17249 9.04503   1
  -4   9   1 8.60732 9.22795   1
  -4   9   2 13.2915  9.0662   1
   4  -9  -2 14.3972 13.4232   1
   3   0  -1 155.469 7.84627   1
  -3   0   1  134.43 10.7258   1
  -3   0   1 141.659 8.11664   1
  -3   0   1 143.845 8.22451   1
  -3   0   1 142.745 7.78073   1
   3   0  -1 152.509 10.8063   1
   3   0  -1 134.837 10.1312   1
  -3   0   1 140.296 9.15362   1
   3   0  -1 140.062  8.0128   1
   3   0  -1 142.201 7.95787   1
  -3   0   1 152.183 10.9602   1
  -3   0   1 143.186 7.84952   1
   3   0  -2 207.749 12.8493   1
  -3   0   2 210.867 13.1443   1
   3   0  -2 223.273 10.8615   1
  -3   0   2 213.715 10.8752   1
  -3   0   2 201.483 11.4155   1
   3   0  -2 220.519 10.2371   1
  -3   0   2 219.612 10.8106   1
  -3   0   2 206.147 10.5378   1
   3   0  -2  207.08 13.3842   1
  -3   0   2 230.969 13.3036   1
  -3   0   2 226.194 10.5579   1
   3   0  -3 1001.68 45.5103   1
   3   0  -3 1051.62 43.5912   1
  -3   0   3 993.333  43.244   1
   3   0  -3 1045.85 45.9691   1
  -3   0   3 974.733 43.4808   1
  -3   0   3 965.655 43.0117   1
  -3   0   3 994.866  45.449   1
  -3   0   3 1052.21 43.7064   1
  -3   0   3 1021.61 45.2772   1
   3   0  -4 742.879 32.4469   1
  -3   0   4 772.286 32.0013   1
   3   0  -4 739.177 34.5457   1
  -3   0   4 788.143 32.7097   1
   3   0  -4 756.153 34.3358   1
  -3   0   4 699.768 33.6203   1
   3   0  -5 447.217 19.1819   1
   3   0  -5 382.927 21.0239   1
  -3   0   5 463.107 19.6424   1
   3   0  -5 462.229 21.5464   1
  -3   0   6 50.9212 3.75013   1
   3   0  -6 50.6627 5.53778   1
   3   0  -7 30.9655 4.77589   1
  -3   0   7 39.7462 3.20455   1
   3   0  -8 1.50156 3.37663   1
  -3   0   8 1.35154 1.05433   1
   3   0  -9 5.19586 3.73193   1
  -3   0  10 207.813 10.9788   1
   3   0 -10  176.94 11.6084   1
   3   0 -11 106.058 8.88677   1
   3   0 -12 13.3769 4.45329   1
  -3   0  13 64.6137 6.28641   1
  -3   1   1 1789.47 72.9744   1
   3   1  -1 1675.17  72.566   1
  -3  -1   1 1655.90  71.955   1
  -3  -1   1 1731.38 71.9648   1
   3  -1  -1 1810.96 75.3114   1
   3  -1  -1 1670.71 71.6123   1
  -3   1   1 1793.31 72.7449   1
   3   1  -1 1691.02 75.7145   1
  -3  -1   1 1692.87 74.7537   1
   3  -1  -1 1642.52 71.8994   1
  -3  -1   1 1657.76 75.2082   1
  -3   1   1 1802.57 75.9804   1
   3   1  -1 1679.18 72.2105   1
  -3   1   1 1710.85 75.5656   1
  -3   1   1 1675.26 72.4642   1
  -3   1   1 1576.32 73.5297   1
  -3  -1   1 1628.32 72.9122   1
  -3  -1   1 1646.43 72.2282   1
   3  -1  -1 1688.93 71.5646   1
  -3   1   1 1658.00 72.2077   1
  -3  -1   1 1708.69 72.3923   1
   3   1  -1 1647.25 72.7864   1
   3   1  -2 4.44185 2.18424   1
  -3   1   2 9.10999 1.99743   1
   3  -1  -2 10.3632 2.00025   1
  -3   1   2 11.5001 3.58899   1
  -3   1   2 5.03622 2.61327   1
   3   1  -2  10.393 4.30689   1
  -3  -1   2 3.19311 1.93656   1
   3  -1  -2 6.05426 1.69701   1
  -3  -1   2  10.445 3.79292   1
   3  -1  -2 7.50845 2.14592   1
  -3  -1   2 5.63656 2.00051   1
   3   1  -2 6.40507 1.90307   1
  -3   1   2 7.75051 2.09321   1
  -3   1   2 11.1269 2.00593   1
  -3   1   2 11.1748 2.28491   1
   3   1  -2 10.6433 1.93326   1
   3  -1  -2 5.52328 4.03468   1
  -3  -1   2 5.93123 2.24545   1
  -3   1   2 7.08603 3.58717   1
  -3  -1   3 113.163  8.8524   1
   3   1  -3 113.863 10.0001   1
   3  -1  -3 126.568 6.74093   1
  -3   1   3  107.71 6.97103   1
  -3   1   3 123.954 6.47394   1
   3   1  -3 116.235 6.02394   1
  -3   1   3 105.149 6.25298   1
  -3   1   3 118.741 6.11062   1
   3   1  -3 116.259 7.00994   1
  -3  -1   3 118.921 9.79081   1
   3   1  -3 123.688 6.31931   1
  -3  -1   3 108.889 6.61702   1
  -3  -1   3 114.358 7.16114   1
   3  -1  -3 113.285 9.21106   1
  -3  -1   3 121.022 6.99971   1
  -3   1   3 131.605  6.9652   1
  -3   1   3 140.736 9.02686   1
  -3   1   4 124.509 5.94308   1
  -3   1   4  124.49 6.76286   1
   3   1  -4 131.531 10.1331   1
   3   1  -4 130.403 7.19924   1
  -3  -1   4 120.357 6.94733   1
  -3  -1   4 132.683 8.64756   1
  -3  -1   4 125.662 7.31684   1
   3  -1  -4 120.625 6.50413   1
  -3  -1   4 116.027  9.1675   1
   3  -1  -4 114.801 8.57048   1
  -3  -1   4 114.979 6.57628   1
  -3   1   4 121.053 7.60763   1
  -3   1   4 118.857 5.85234   1
  -3   1   4 121.674 5.94161   1
  -3  -1   5 278.546 12.9631   1
   3  -1  -5  278.28 14.4793   1
   3   1  -5 310.438 13.8289   1
   3   1  -5 268.744 16.5185   1
  -3   1   5 305.967 13.2885   1
  -3   1   5 272.719 12.5139   1
  -3  -1   5 288.149 14.7642   1
  -3  -1   5 289.399 13.8632   1
  -3  -1   5 280.847 13.1604   1
  -3   1   6 322.127 14.8712   1
  -3  -1   6 334.906 15.0535   1
  -3   1   6 371.551  15.023   1
   3   1  -6 294.711 18.4414   1
  -3  -1   6 334.216  16.068   1
  -3  -1   6 344.519 15.1532   1
   3   1  -6 363.457 15.7197   1
   3   1  -7  2.9304 4.09564   1
  -3   1   7 5.48044 1.37536   1
  -3  -1   7 9.41158 1.66615   1
  -3  -1   7  5.9319 2.44632   1
   3   1  -7 6.69867 1.66314   1
  -3  -1   7 5.57847 1.40156   1
   3  -1  -7 6.20944 2.02922   1
   3   1  -7 6.19574  1.7539   1
  -3  -1   8  133.40 6.71644   1
  -3  -1   8 132.948  7.8237   1
   3   1  -8 111.725 10.1394   1
  -3   1   8 116.995 6.00649   1
  -3  -1   9 242.482 12.2556   1
   3   1  -9  223.26 15.0459   1
  -3   1   9 220.204 10.6475   1
  -3  -1   9 249.798 11.6592   1
   3   1 -10 94.0505 10.5378   1
  -3  -1  10 101.846 6.65042   1
  -3  -1  11 15.1137 3.94686   1
   3   1 -11 8.75215 6.61068   1
   3   1 -12 35.3639 8.56852   1
  -3  -1  12 34.2433 5.56916   1
   3   1 -12 32.8002  8.2305   1
  -3  -1  13  6.6744 5.59231   1
   3   1 -13 10.5431 7.87294   1
  -3   2   1 387.059 18.7224   1
   3  -2  -1 370.955 17.7528   1
   3  -2  -1 365.909 21.8095   1
   3  -2  -1  376.13 17.6976   1
  -3   2   1 339.492 17.8403   1
   3   2  -1 395.664 18.8076   1
   3   2  -1 386.717 18.6572   1
   3  -2  -1 392.402  17.622   1
  -3  -2   1 343.949  18.102   1
  -3   2   1 372.332 19.9987   1
  -3   2   1 399.132 18.4231   1
  -3  -2   1 371.715 18.2678   1
  -3   2   1 380.737 18.5336   1
   3   2  -1 362.648  18.145   1
   3   2  -1 407.419 22.7687   1
  -3  -2   1  379.59 18.4994   1
  -3  -2   1 393.285 23.0942   1
  -3   2   2 617.003 27.1628   1
   3  -2  -2 629.296 26.2195   1
  -3  -2   2 581.957 27.3567   1
  -3   2   2 618.973  26.894   1
   3   2  -2 607.656 27.3086   1
  -3   2   2 584.359 27.1259   1
   3  -2  -2 592.847 30.2046   1
  -3  -2   2 600.735 27.2785   1
  -3   2   2 591.716 28.0948   1
  -3   2   2 593.694 29.8485   1
   3   2  -2 578.487 26.7156   1
  -3   2   2 568.836 26.6087   1
   3   2  -2 577.614 30.8546   1
   3  -2  -2 579.576 26.1704   1
   3  -2  -2 598.815 26.9914   1
  -3  -2   2 600.526 31.0641   1
  -3  -2   2 545.774 26.9433   1
   3   2  -3 899.946 37.7587   1
   3   2  -3  869.38 42.1401   1
   3   2  -3 862.326 38.3292   1
  -3   2   3 814.653 37.3099   1
  -3   2   3 881.995 37.4697   1
   3   2  -3 854.583  37.304   1
   3  -2  -3 844.421  37.316   1
   3  -2  -3 853.573  40.416   1
  -3   2   3 840.005   37.84   1
   3  -2  -3 847.727 36.3753   1
  -3  -2   3 869.712 37.9108   1
  -3   2   3 856.904 38.3797   1
  -3   2   3 852.946 37.8233   1
  -3  -2   3 863.061 38.0332   1
  -3  -2   3 851.851  41.299   1
  -3  -2   3 811.968 37.5955   1
  -3  -2   4 119.613 7.84079   1
  -3  -2   4 120.922 7.57858   1
  -3  -2   4 123.988 8.08581   1
  -3  -2   4 130.479 10.8668   1
  -3   2   4  123.66 7.03656   1
  -3   2   4  114.65 8.16548   1
   3   2  -4 122.356 6.16276   1
  -3   2   4 128.439 6.58967   1
  -3   2   4 122.995 7.02401   1
  -3   2   4 116.276 8.47957   1
   3   2  -4 122.065 11.4151   1
   3   2  -4 127.244 6.26353   1
  -3   2   4 117.431 6.58547   1
  -3   2   4 117.158 7.03767   1
   3   2  -4 130.457 7.92224   1
   3  -2  -4  116.93 9.81427   1
   3  -2  -5 153.126 11.1637   1
  -3  -2   5 180.817 9.84093   1
  -3  -2   5 182.486 9.90527   1
  -3   2   5 198.232 9.34184   1
  -3  -2   5 194.455 10.4116   1
   3   2  -5 181.155 10.2014   1
   3   2  -5 195.798 13.8858   1
  -3   2   5  176.10 7.92765   1
  -3   2   5 167.512 9.11616   1
   3  -2  -6 191.124 12.6084   1
  -3  -2   6 226.539 11.7855   1
  -3  -2   6 254.901 12.6453   1
  -3  -2   6 242.623 11.9571   1
   3   2  -6 244.104 12.5385   1
   3   2  -6  235.28 16.6043   1
  -3   2   6 224.538 11.2044   1
  -3   2   6 249.814 11.2539   1
  -3  -2   7 193.105 10.9889   1
  -3  -2   7 170.745 10.1883   1
   3   2  -7 197.888 10.6394   1
  -3   2   7  193.91 8.81456   1
   3   2  -7 180.434 14.5482   1
  -3  -2   7 193.133  10.285   1
  -3  -2   8 60.5597 5.51322   1
   3   2  -8 60.2786 5.54765   1
   3  -2  -8 61.2789 5.41874   1
  -3  -2   8  68.604 6.42503   1
  -3  -2   8 62.7744 6.06311   1
   3   2  -8 61.9683   5.487   1
   3   2  -8 69.6055  10.104   1
   3   2  -9 34.3543 3.76191   1
   3   2  -9  40.702 8.80176   1
  -3  -2   9 41.7677 5.36899   1
  -3  -2   9 43.6953 4.74974   1
  -3  -2   9 40.6532 5.07722   1
   3   2  -9 48.1519 4.71103   1
  -3  -2  10 55.9449 6.33726   1
   3   2 -10 62.8086 10.8591   1
  -3  -2  11 33.9958 6.12672   1
   3   2 -11   25.82 9.29116   1
   3   2 -12   33.68 10.5169   1
  -3  -2  12 37.4346 7.10493   1
   3   2 -13-1.05083 9.31276   1
   3   2 -13 0.59345 9.49984   1
  -3  -2  13-2.40501  5.6532   1
   3   3  -1 902.026 45.1869   1
   3  -3  -1 918.684 39.8744   1
  -3  -3   1 891.639 44.9675   1
  -3  -3   1 863.033 40.4015   1
   3  -3  -1 938.358 44.9706   1
  -3  -3   1 875.529 40.5938   1
   3  -3  -1 898.026 40.3441   1
  -3  -3   1 867.081 40.2021   1
   3  -3  -1 877.722 39.3705   1
   3   3  -1 874.035 40.6684   1
   3   3  -1 897.307 41.0389   1
  -3   3   1 930.828 40.6609   1
  -3   3   1 977.005 42.8057   1
  -3   3   1 923.337 41.1072   1
  -3   3   1 882.871   44.70   1
   3   3  -1 878.495 40.9179   1
  -3   3   1 889.906 40.4132   1
  -3   3   1 891.306 40.8957   1
  -3  -3   2 53.1298 5.90416   1
   3  -3  -2 55.9298 5.02002   1
  -3  -3   2  64.967 10.0485   1
  -3  -3   2 64.3596 6.91114   1
   3  -3  -2 50.8042 5.20628   1
   3  -3  -2 54.2055 9.37802   1
  -3  -3   2 55.3889 6.13065   1
   3   3  -2 69.0432 6.59951   1
   3   3  -2 58.0071 9.43783   1
  -3   3   2 51.2625 5.28147   1
   3   3  -2 56.0334 5.92518   1
   3   3  -2 48.2687 5.06995   1
  -3   3   2 42.7612 4.95219   1
  -3   3   2  45.435 4.85213   1
  -3   3   2 51.8206 5.26898   1
   3   3  -3 76.4524 5.90852   1
  -3  -3   3 70.5336 9.99892   1
  -3  -3   3 88.1717 7.11526   1
  -3   3   3 70.5923 8.17659   1
  -3   3   3 69.5251  8.7522   1
   3  -3  -3  82.839 6.15035   1
   3  -3  -3 76.9137 3.97376   1
  -3  -3   3 66.2235 6.72569   1
   3   3  -3 82.3001 6.59969   1
  -3   3   3  80.271 6.21796   1
   3   3  -3 74.9149  10.548   1
   3   3  -3 76.3195 6.53557   1
  -3   3   3  88.209 6.30895   1
   3  -3  -3 74.0037 10.6573   1
  -3   3   3 80.9499 6.01853   1
  -3  -3   3 86.0657 6.98369   1
   3  -3  -3 82.3429 3.96671   1
  -3   3   3 85.5182 6.15664   1
  -3  -3   4 165.416 14.2534   1
  -3   3   4 175.462 9.24472   1
  -3  -3   4 174.266 10.6491   1
  -3  -3   4 157.103 10.5068   1
  -3  -3   4 181.723 10.7926   1
   3  -3  -4 171.087 7.90569   1
   3  -3  -4 161.642 9.32807   1
   3  -3  -4  163.72  13.417   1
  -3   3   4 168.421 9.29915   1
   3   3  -4 178.883 10.6936   1
  -3   3   4 173.305 9.57216   1
  -3   3   4 158.037 10.3679   1
   3   3  -4 159.622 9.15489   1
   3   3  -4 166.433 14.4393   1
  -3   3   4 158.168 9.46422   1
  -3   3   4 155.147 12.3229   1
   3   3  -5 547.624 25.1921   1
   3   3  -5  545.25 22.6917   1
  -3   3   5  509.55 23.8708   1
  -3   3   5 521.768 23.8345   1
   3   3  -5 556.285 30.2403   1
   3  -3  -5 459.728 26.2967   1
  -3  -3   5 496.678 24.2727   1
  -3  -3   5 528.454 24.5708   1
  -3  -3   5 520.171 24.3758   1
  -3   3   5 507.734 23.3675   1
  -3   3   5 488.338 23.9242   1
  -3   3   5 496.304 23.1603   1
   3   3  -5  496.89 22.5787   1
   3  -3  -6 147.438 12.1127   1
  -3   3   6 166.942 9.45995   1
  -3  -3   6 166.765 10.6634   1
  -3  -3   6 186.132 11.1701   1
  -3  -3   6 159.535 10.3016   1
  -3   3   6 171.192 9.01479   1
   3   3  -6 198.096 15.9123   1
  -3   3   6 163.433 8.56596   1
  -3   3   6  175.57 8.77876   1
   3   3  -6 169.272 10.9739   1
  -3   3   6 182.718 9.45784   1
  -3  -3   7 54.6457 6.50392   1
  -3  -3   7 61.2057 6.54655   1
  -3  -3   7 50.3817 6.05214   1
  -3   3   7 57.2103 3.28815   1
   3  -3  -7 52.6839 7.72373   1
   3   3  -7 62.3397 6.40064   1
  -3   3   7 46.0527 4.22035   1
  -3   3   7  52.289 3.23971   1
   3   3  -7 63.6675 10.8285   1
   3   3  -8 135.133  15.375   1
  -3  -3   8 137.593 9.49895   1
  -3  -3   8 125.708 9.61907   1
   3   3  -8 131.849 9.30347   1
  -3  -3   8 125.364 9.56363   1
   3  -3  -8 102.393 9.83702   1
   3   3  -8  126.92 9.41691   1
   3   3  -9 70.3294 6.97991   1
   3  -3  -9 61.9473 7.93994   1
   3   3  -9 75.6857 12.7424   1
   3   3  -9 70.5191 6.95799   1
  -3  -3   9 76.1688 8.00102   1
  -3  -3   9 66.4333 7.38623   1
   3   3 -10 28.4407  10.549   1
  -3  -3  10 29.8553 6.24784   1
   3  -3 -10 30.9488 5.34187   1
   3   3 -10 33.6404 5.19173   1
   3   3 -10 31.2262 4.65917   1
  -3  -3  11 18.9257 6.18283   1
   3  -3 -11 1.80553  2.2538   1
   3   3 -11 18.0938 10.6171   1
   3   3 -11 14.3786 3.95419   1
  -3  -3  12 16.0907 6.99584   1
   3   3 -12 15.5772  11.684   1
   3   3 -13 17.6754 12.5316   1
   3  -4  -1 5.74623 7.34783   1
  -3   4   1 5.02803 3.24195   1
   3  -4  -1 0.85484 2.49483   1
  -3  -4   1 0.05776 2.83411   1
   3  -4  -1 4.34052 2.53218   1
   3  -4  -1 4.52082 3.49379   1
  -3   4   1 1.90586 2.60722   1
  -3  -4   1 2.88513 5.83737   1
  -3  -4   1 3.06045 3.18169   1
  -3  -4   1 4.48007 2.82363   1
   3   4  -1 3.98989 3.21111   1
  -3   4   1 6.25884 5.75053   1
   3   4  -1 2.95076  2.8413   1
   3   4  -1 4.71821 6.34873   1
  -3   4   1 1.34559 2.83345   1
   3   4  -1 3.04899 2.97762   1
  -3   4   1 4.04394 5.91532   1
  -3   4   1 6.27914 3.24181   1
   3  -4  -2 11.4397 3.30022   1
   3  -4  -2 19.7093 3.11431   1
  -3  -4   2 9.86942 3.75904   1
  -3  -4   2 14.1214 3.91412   1
  -3  -4   2 12.9997 4.13301   1
   3  -4  -2 7.73032 3.09124   1
  -3  -4   2 12.2945 6.45816   1
   3   4  -2 15.5837 4.00654   1
  -3   4   2 11.5985 3.46088   1
  -3   4   2 12.1113 3.64005   1
   3   4  -2 13.3448 7.00142   1
   3   4  -2 17.4723 4.15795   1
  -3   4   2 24.3938 7.20478   1
   3   4  -2 11.6548 3.89371   1
  -3   4   2 14.2573 3.65781   1
  -3   4   2 10.3761 3.44411   1
  -3   4   2 8.76332 5.13964   1
  -3  -4   3 331.665 19.6063   1
   3  -4  -3 389.311 17.1387   1
  -3  -4   3 352.264 19.6812   1
  -3   4   3 379.105 19.2059   1
  -3   4   3 334.632 20.5057   1
  -3   4   3 363.957 18.8716   1
  -3  -4   3 387.825 19.9926   1
  -3  -4   3 382.545 25.0786   1
   3   4  -3 394.704 25.6967   1
  -3   4   3 355.503 18.8059   1
  -3   4   3 400.057 19.5227   1
   3  -4  -3 381.524 16.9532   1
   3  -4  -3 369.491 24.0694   1
   3   4  -3  381.02 19.4189   1
  -3   4   3 372.247 23.1805   1
   3  -4  -3 369.623 18.8735   1
   3   4  -3 392.399 19.8679   1
   3  -4  -4  195.06 11.5271   1
  -3  -4   4 207.093 12.9676   1
  -3  -4   4 210.441 12.8658   1
  -3  -4   4 208.148 18.0686   1
   3  -4  -4 204.922 16.7258   1
  -3  -4   4 190.696 12.9531   1
   3   4  -4 231.876 18.4592   1
  -3   4   4 198.633 11.6585   1
   3   4  -4 195.078 12.7054   1
  -3   4   4 203.098  11.621   1
  -3   4   4 212.011 11.8529   1
  -3   4   4 166.924  13.242   1
  -3   4   4 198.013 11.8779   1
   3   4  -4 207.779 11.8357   1
  -3  -4   5 48.4265 6.46976   1
  -3   4   5 43.7577 4.97413   1
  -3   4   5 46.8411 5.27907   1
   3   4  -5 47.6888 6.44918   1
   3   4  -5 43.9135 4.55791   1
   3  -4  -5 47.8972 9.53498   1
   3   4  -5 50.5871 10.1988   1
   3  -4  -5 41.8384 4.68927   1
  -3  -4   5 59.6081 7.24763   1
  -3  -4   5 39.8786 6.03012   1
  -3   4   5 53.1486  5.4554   1
  -3   4   5  40.767 5.20703   1
  -3   4   5 53.0386 6.94702   1
  -3  -4   6 25.0435 5.42454   1
  -3  -4   6   32.29 5.66314   1
   3   4  -6 40.7358 6.07149   1
  -3   4   6 25.6646 3.93963   1
  -3   4   6 31.2247 4.39156   1
   3   4  -6  37.186 9.79568   1
  -3  -4   6   36.23 6.22268   1
   3  -4  -6 26.7153 8.14065   1
  -3   4   6 36.9806 5.88247   1
  -3   4   6 30.4077 4.27975   1
  -3   4   7 144.691 9.08422   1
  -3  -4   7 169.518 11.9668   1
  -3  -4   7 163.143 11.8362   1
  -3   4   7 161.418 11.1978   1
  -3   4   7 160.241 9.65542   1
   3  -4  -7 136.045 13.5787   1
  -3   4   7 159.466 9.62065   1
   3   4  -7 177.602 12.0587   1
   3   4  -7 172.051 17.8845   1
  -3  -4   7 173.027 11.8937   1
  -3   4   8 373.619 18.1482   1
   3   4  -8 418.242 20.7043   1
  -3  -4   8 380.703 20.5519   1
  -3   4   8  341.95 18.4694   1
   3  -4  -8 315.985 21.3774   1
  -3  -4   8 384.952 20.9688   1
  -3   4   8 391.443 17.9474   1
   3   4  -8 385.312 27.7399   1
  -3   4   8 331.225 17.3607   1
   3   4  -8 366.208 20.1689   1
   3  -4  -9 26.5717 7.69591   1
   3   4  -9 37.7902 6.28923   1
  -3   4   9  28.583 3.98147   1
   3   4  -9 36.4826  11.815   1
  -3  -4   9 29.5743 6.59824   1
  -3   4   9 30.3842 4.66076   1
   3   4  -9 27.9767 5.72809   1
   3   4 -10  27.249 6.25288   1
  -3  -4  10 21.8999 6.77424   1
   3  -4 -10 19.6025 6.90794   1
  -3   4  10 27.9086 4.06283   1
  -3   4  10 32.3968 4.60542   1
   3   4 -10 36.5721 12.7418   1
   3   4 -10 27.7132 5.81666   1
  -3   4  11 36.7551 4.55366   1
  -3   4  11 29.8444 4.68517   1
   3   4 -11 31.7279 7.72622   1
   3   4 -11 28.3884  13.427   1
   3  -4 -11 24.4471 6.83846   1
  -3  -4  11 37.8767 8.19703   1
   3  -4 -12 12.9434 4.06323   1
  -3   4  12 13.1837 4.03174   1
   3   4 -12 9.47444 13.2619   1
   3  -5  -1 1.42543 2.87966   1
  -3  -5   1 3.86578 3.60453   1
   3   5  -1 3.40799 3.60997   1
   3   5  -1 6.83956 7.06753   1
   3   5  -1-1.77838 2.95623   1
  -3   5   1-1.41013 2.99484   1
  -3   5   1 1.52349 3.12027   1
  -3   5   1 0.09617 6.41445   1
   3  -5  -1-8.34503 6.56596   1
  -3   5   1 3.05342 3.37399   1
  -3   5   1 1.57033 3.30571   1
   3  -5  -1 -0.0046 3.03347   1
  -3  -5   1 7.59242 4.15567   1
  -3  -5   1 5.34665 6.74056   1
   3   5  -2 105.618 10.1825   1
   3   5  -2 95.7823  15.036   1
  -3   5   2 92.0079 8.67271   1
   3   5  -2 87.9387   8.839   1
  -3   5   2 82.5562 8.65055   1
  -3   5   2 97.5655 8.49402   1
   3  -5  -2 89.3577 8.11753   1
  -3  -5   2 73.6782 12.6848   1
   3  -5  -2 63.0359 11.6252   1
  -3  -5   2 93.5842 9.31005   1
  -3   5   2 87.2379 12.6876   1
  -3   5   2 86.2786 8.47735   1
  -3  -5   2 73.1428 8.52933   1
   3  -5  -2 88.8797 6.78664   1
  -3   5   3 109.434 9.09054   1
  -3  -5   3 82.5994 8.78928   1
  -3  -5   3 91.9409 9.34511   1
  -3  -5   3  100.59  9.8189   1
  -3   5   3 107.157 9.19254   1
   3   5  -3 100.775 14.6564   1
  -3   5   3 111.111 9.29186   1
   3   5  -3 102.747 9.31259   1
   3   5  -3  107.38  9.9932   1
  -3   5   3 105.091 13.6857   1
  -3   5   3 126.101 13.8404   1
   3  -5  -3 96.9504 8.38008   1
  -3   5   3 103.361 9.19453   1
  -3  -5   3 75.3215 12.4347   1
   3  -5  -3 100.845 6.56122   1
   3  -5  -3 90.2647 13.3884   1
  -3   5   4 1.96929 3.26485   1
  -3   5   4-1.26345 3.10208   1
   3   5  -4 -0.7559 2.97944   1
  -3   5   4 9.61006 6.98422   1
   3   5  -4 0.16788 6.91051   1
  -3   5   4 12.4325  4.1659   1
   3   5  -4-2.61158 2.68112   1
  -3   5   4-1.69329 2.81657   1
   3  -5  -4-1.45212 2.73156   1
  -3  -5   4 6.38152 4.04804   1
  -3  -5   4-0.54078 7.75337   1
  -3  -5   4 0.48525 3.83933   1
  -3  -5   4 5.18092 4.04918   1
   3  -5  -4  5.1868 7.79287   1
   3   5  -5 302.295 23.9925   1
  -3   5   5 253.521 19.5189   1
  -3   5   5 261.404 15.4689   1
   3   5  -5 272.116 17.0385   1
   3   5  -5 269.032 14.8899   1
   3  -5  -5 280.451 14.8451   1
   3  -5  -5  206.69 19.3683   1
  -3  -5   5 268.606 17.0332   1
  -3   5   5  271.94 15.7556   1
  -3  -5   5 278.934 17.1175   1
  -3  -5   5 287.216 17.0322   1
  -3   5   5 287.163 15.7028   1
  -3  -5   6  135.88 12.3566   1
   3  -5  -6 148.797 15.9969   1
  -3   5   6 145.442 10.5893   1
  -3   5   6 153.592 10.9461   1
  -3  -5   6 167.296 12.5339   1
  -3  -5   6  143.12 12.3439   1
   3  -5  -6 131.751 9.24093   1
  -3   5   6 177.328 15.5392   1
   3   5  -6 157.392 12.6023   1
  -3   5   6 161.447 10.7808   1
   3   5  -6  151.20 9.73674   1
   3   5  -6 168.478 19.4492   1
  -3  -5   7 368.289 22.0496   1
   3  -5  -7 365.896 17.9658   1
   3   5  -7 465.222 32.0173   1
  -3   5   7 395.212 21.1962   1
  -3   5   7 411.886 20.8564   1
   3  -5  -7 360.608 24.7174   1
   3   5  -7 395.372 22.9965   1
  -3   5   7 394.492 23.9455   1
   3  -5  -8 6.40382 7.86297   1
   3   5  -8 3.24237 4.98822   1
  -3   5   8 11.6009 6.80725   1
  -3   5   8 9.14982 4.28282   1
  -3   5   8 11.0469 4.32918   1
   3   5  -8 14.0147 10.8319   1
  -3  -5   8 8.95994 5.97628   1
   3  -5  -9 38.6461 10.3066   1
   3   5  -9 79.2066 16.8328   1
  -3  -5   9 61.9421 9.55902   1
   3   5  -9 68.5453 8.99412   1
  -3   5   9 69.0312 7.51216   1
   3   5 -10 76.0068  17.508   1
  -3  -5  10 51.9372 8.90333   1
   3  -5 -10 36.5938 9.93644   1
  -3   5  10 58.7251 7.32612   1
   3  -5 -11 5.46482 7.96365   1
   3   5 -11 2.86688 14.0531   1
  -3   5  11 8.71325 5.32099   1
  -3  -6   1 75.4929 9.22568   1
   3  -6  -1 63.8278 13.0786   1
  -3  -6   1  65.156 13.7397   1
   3  -6  -1 93.0319 9.87838   1
  -3  -6   1 50.7031 7.75644   1
   3  -6  -1 65.0295 7.34873   1
   3   6  -1 89.3297 10.3876   1
  -3   6   1 90.6704 9.36831   1
   3   6  -1 90.2688 15.4653   1
  -3   6   1 90.0423 14.9942   1
  -3   6   1 64.7932  8.8871   1
   3   6  -1 96.0944 10.7012   1
  -3   6   1 87.7613 9.80986   1
  -3  -6   2 245.485 24.0907   1
   3  -6  -2 275.797 14.8032   1
  -3   6   2 295.394 17.9615   1
  -3   6   2 256.748 17.0026   1
  -3   6   2 277.897  17.199   1
   3   6  -2 298.892 18.2995   1
  -3   6   2 268.758 17.8294   1
   3   6  -2 276.482 24.8366   1
   3   6  -2 286.067  17.845   1
  -3   6   2 265.389 23.6938   1
  -3  -6   2 233.536 16.9435   1
   3  -6  -2 253.331 22.7636   1
   3  -6  -2 273.753 16.6528   1
  -3  -6   2 271.448 17.4376   1
  -3   6   3 31.0511 6.21697   1
  -3   6   3 26.7154 5.68468   1
   3   6  -3 40.7205 11.7493   1
   3   6  -3 40.8249 7.50466   1
  -3  -6   3  25.514 6.26443   1
   3  -6  -3   31.44 4.47138   1
   3  -6  -3 35.9387 6.28947   1
  -3   6   3 28.1302 6.54199   1
   3  -6  -3 24.6714 10.5965   1
   3   6  -3 39.9835  6.8329   1
  -3  -6   3 24.3072 12.5841   1
  -3  -6   3 19.6751 5.81167   1
  -3   6   4 70.1785 8.07383   1
   3   6  -4 56.9037 7.56323   1
   3  -6  -4 66.3275 13.3807   1
  -3  -6   4 56.0744 8.70717   1
  -3  -6   4 65.7264 8.78908   1
   3  -6  -4 75.9829 8.53271   1
  -3   6   4 55.1665 7.92071   1
   3   6  -4 67.4396 9.59986   1
   3   6  -4 73.9018 14.1993   1
  -3   6   4 81.9092 9.50043   1
   3  -6  -5 8.59632 9.03043   1
   3   6  -5 9.95627 9.71295   1
  -3   6   5  10.705 4.75167   1
  -3  -6   5 4.93868 5.10013   1
   3  -6  -5 2.47939 3.58812   1
   3  -6  -6 9.63789 10.1281   1
  -3   6   6 7.54331 4.84155   1
   3  -6  -6 5.71692 3.89735   1
   3   6  -6 17.4888 10.7472   1
  -3  -6   6 7.44759 5.83697   1
  -3  -6   7 17.7514 6.89894   1
  -3   6   7 2.11639 4.78371   1
   3  -6  -7 3.64243 3.41933   1
   3  -6  -7 6.75315 9.76139   1
   3   6  -7 11.7859 11.4254   1
   3   6  -8 234.873 17.6166   1
  -3  -6   8 216.821 17.2185   1
  -3   6   8 214.273 15.5316   1
   3   6  -8  241.31 26.8333   1
   3  -6  -8 169.414 19.9548   1
   3  -6  -9 13.6908  10.317   1
  -3  -6   9 10.7471 7.81029   1
   3   6  -9 10.8747 13.6443   1
  -3   6   9 6.52187    5.76   1
   3  -6 -10 13.4835 10.5378   1
  -3   6  10 20.2439 6.77459   1
   3   6 -10 8.62325 15.4797   1
  -3  -7   1 164.262 14.8777   1
  -3  -7   1 162.775 14.5017   1
   3  -7  -1  187.73 14.6475   1
  -3   7   1 168.123 14.1238   1
  -3   7   1 167.545 15.6845   1
   3   7  -1 188.065 14.9701   1
   3  -7  -2 163.381 13.4309   1
  -3  -7   2 131.735 13.5801   1
  -3  -7   2 148.335   13.94   1
  -3   7   2 167.265 13.9145   1
   3   7  -2 167.488 14.4779   1
   3   7  -3 123.675 12.5768   1
  -3   7   3 134.685 12.8379   1
   3  -7  -3 173.039 29.3916   1
   3  -7  -3 110.219 11.5295   1
  -3  -7   3  121.70 13.0015   1
  -3  -7   4 15.0162 6.57759   1
   3  -7  -4 28.5341 6.42487   1
   3  -7  -4 19.3931 12.8096   1
  -3   7   4 12.4805 6.35369   1
   3  -7  -5  252.53 16.2442   1
  -3   7   5 247.382 17.5901   1
  -3  -7   5  246.09 18.7678   1
   3  -7  -5 226.031 24.0813   1
   3  -7  -6  142.05  20.821   1
  -3  -7   6 137.789 14.9112   1
   3  -7  -6 140.531 11.6118   1
  -3   7   6 150.329  13.721   1
   3  -7  -7 23.6891  13.355   1
  -3  -7   7 20.6863 8.44192   1
  -3   7   7 18.9088 7.28833   1
  -3  -7   8 7.90508 8.30088   1
   3   7  -8 4.12899  13.021   1
  -3   7   8  7.3648 6.44256   1
   3  -7  -8 8.24378 11.9007   1
   3  -7  -9 27.5686 13.7199   1
   3  -8  -1 32.4897 7.66456   1
   3   8  -1 53.5603 9.96226   1
  -3   8   1 46.7196  9.0098   1
   3  -8  -2 7.19213 5.91519   1
  -3  -8   2 3.70408   6.358   1
  -3   8   2 8.50493 6.85812   1
   3   8  -2 10.5003 7.07373   1
  -3  -8   3 28.2893 8.50548   1
   3  -8  -3 15.9609 6.69379   1
  -3   8   3 11.4907 7.10828   1
  -3   8   4 40.1418 9.01532   1
  -3  -8   4 26.0756 8.35409   1
   3  -8  -4 36.3152 8.18061   1
  -3  -8   5 13.2258 7.99445   1
  -3   8   5 35.1088 9.13085   1
  -3  -8   6 39.4725 10.5755   1
  -3   8   6 25.9241 8.93332   1
  -3  -8   7 31.8838 10.9251   1
   3   8  -7 46.2133  13.257   1
  -3   9   1 43.2748   10.47   1
   3  -9  -1 36.2114 9.79962   1
  -3   9   2 102.184 13.7878   1
   3  -9  -2 117.601 14.8688   1
  -3   9   3 4.30681 7.85222   1
  -3  -9   4-0.89201 9.91539   1
  -3  -9   5 10.9088 9.05614   1
  -2   0   1 3039.57 129.566   1
  -2   0   1 3131.28 131.721   1
  -2   0   1 3007.04 130.176   1
   2   0  -1 3282.00 129.422   1
   2   0  -1 3142.70 131.708   1
   2   0  -1 3028.86 129.912   1
   2   0  -1 3029.40 130.367   1
  -2   0   1 3027.79 129.405   1
  -2   0   1 3117.73 130.402   1
   2   0  -1 3214.57 131.865   1
   2   0  -1 3044.02 129.501   1
  -2   0   1 3143.65 130.013   1
  -2   0   2  160.20  7.6486   1
   2   0  -2 170.421  9.3076   1
   2   0  -2 157.286 8.95409   1
   2   0  -2 157.217  7.5875   1
  -2   0   2 153.149 9.08405   1
  -2   0   2 141.548 7.18618   1
  -2   0   2 141.082 7.33824   1
  -2   0   2 159.319 9.03309   1
   2   0  -3 93.1034 5.92257   1
  -2   0   3 81.4103  5.4382   1
   2   0  -3 85.0888 6.17359   1
   2   0  -3 99.4185 4.77628   1
  -2   0   3 95.4925 4.93921   1
   2   0  -4 348.726 14.7299   1
   2   0  -4 393.267 16.3298   1
  -2   0   4 342.157 15.0438   1
   2   0  -4 287.375 16.0318   1
  -2   0   5 0.86503 1.05601   1
   2   0  -5 -1.4276  1.8145   1
   2   0  -6 26.0228 3.71849   1
  -2   0   6 34.8207 2.34904   1
   2   0  -7 117.808 7.62321   1
   2   0  -8 38.2381 5.42724   1
   2   0  -8 44.3321 5.60589   1
  -2   0   9 16.3692 3.50868   1
   2   0  -9 23.2971 5.03526   1
   2   0  -9 23.4892 5.14401   1
  -2   0  10  5.2742 3.53885   1
   2   0 -10 -1.0273 4.48772   1
  -2   0  11 6.52481 3.96885   1
   2   0 -11 3.96574   5.296   1
  -2   0  11 9.45059 2.75623   1
   2   0 -12 6.63146   6.214   1
  -2   0  12 27.4284 4.49307   1
   2   0 -13-1.69063 5.80687   1
   2   0 -13-1.91001 5.83333   1
   2   0 -13 1.87606 5.36173   1
   2  -1  -1 49.4082   3.678   1
   2  -1  -1 46.8793 6.68472   1
   2  -1  -1 40.4824 4.10966   1
   2   1  -1 38.7739 3.81864   1
  -2   1   1 37.6995 3.44195   1
  -2  -1   1 37.3518 3.74582   1
   2  -1  -1 42.2389 3.40532   1
  -2   1   1 40.4517 3.63913   1
  -2  -1   1 37.6628 3.92962   1
   2  -1  -1 39.8587 3.42488   1
  -2   1   1 38.0085  4.5892   1
  -2  -1   1  39.371 3.77944   1
   2  -1  -1 40.0428 3.11851   1
  -2  -1   1 53.5924 6.18781   1
   2   1  -1 43.2875 6.25904   1
  -2   1   1 42.5506 6.07187   1
  -2  -1   1 63.9636 7.57407   1
  -2   1   1 33.6241 3.17933   1
   2   1  -1 36.7673 3.44318   1
   2  -1  -2 1695.56  72.647   1
  -2   1   2 1659.46 74.9659   1
  -2  -1   2 1800.81 72.6374   1
   2   1  -2 1697.04 77.7631   1
   2   1  -2 1919.50 75.1266   1
   2  -1  -2 1807.33 72.4798   1
  -2  -1   2 1684.79 72.7284   1
  -2   1   2 1812.19  75.575   1
  -2   1   2 1863.46 75.5967   1
   2   1  -2 1870.66 75.8933   1
  -2   1   2 1812.59 75.0389   1
  -2   1   2 1840.95 76.9224   1
  -2   1   2 1733.36 75.3896   1
  -2  -1   2 1694.10 75.0076   1
   2  -1  -2 1650.04 74.2705   1
  -2  -1   2 1720.30 72.9655   1
  -2   1   2 1686.94 76.8669   1
  -2  -1   3 258.706 12.0412   1
  -2  -1   3 255.296 11.6175   1
  -2  -1   3 241.778 13.5916   1
   2  -1  -3 237.965 11.2686   1
  -2  -1   3 252.592 11.4675   1
  -2   1   3 250.811 11.6677   1
  -2   1   3 221.282 11.6731   1
   2   1  -3 259.897 11.8134   1
  -2   1   3 246.669 11.2482   1
  -2   1   3 274.845 11.3682   1
   2   1  -3 226.797 13.6228   1
   2   1  -4 540.395 26.8888   1
  -2  -1   4 458.597 25.1634   1
  -2  -1   4 585.311  23.668   1
  -2  -1   4 558.472 24.4517   1
  -2  -1   4 535.611 23.6092   1
   2  -1  -4 547.037 24.6631   1
  -2   1   4 598.116 24.1047   1
   2   1  -4 570.675 24.7716   1
  -2   1   4 541.099 24.0384   1
  -2  -1   4  617.52  25.591   1
  -2  -1   5  916.65 38.1844   1
  -2  -1   5 915.479 37.9769   1
  -2   1   5 778.787 35.5978   1
   2   1  -5 923.848  36.704   1
   2   1  -5 840.193 39.0436   1
  -2  -1   5 795.014 37.6341   1
  -2   1   5 870.486 36.0032   1
   2   1  -6 162.138 7.84034   1
   2   1  -6 142.689 10.4332   1
  -2   1   6 161.394 7.51721   1
  -2  -1   6 171.522 9.28048   1
  -2  -1   6 187.826 8.06456   1
   2   1  -7  175.31 12.1511   1
  -2  -1   7 174.335 8.09898   1
  -2  -1   7 172.077 9.38299   1
  -2  -1   7 194.076 8.28383   1
  -2   1   7 178.346 8.73539   1
   2   1  -7 189.928 8.46386   1
   2   1  -7  162.68 8.27994   1
   2  -1  -8 308.714 13.6141   1
  -2  -1   8 303.218 14.5597   1
  -2  -1   8 301.156 13.5265   1
  -2   1   8 292.078 13.5209   1
   2   1  -8  269.15 16.9562   1
  -2  -1   8 303.412 13.7445   1
   2   1  -9 191.329 14.3021   1
  -2  -1   9 195.909 9.65011   1
  -2   1   9 190.544 10.2024   1
  -2  -1   9 191.499 10.3179   1
   2  -1  -9  198.71 9.90805   1
  -2  -1   9 209.484 10.2742   1
   2  -1 -10  86.852 6.09509   1
   2  -1 -10 69.8509  6.7236   1
  -2   1  10 87.1527 6.55049   1
  -2  -1  10 95.8822 6.83235   1
  -2  -1  10  99.662 5.97974   1
   2   1 -10 83.7805 11.1119   1
  -2  -1  11 38.3858  6.3075   1
  -2  -1  11 40.4491 5.45338   1
   2   1 -11 43.1896 9.06109   1
   2  -1 -11 37.4942 4.93491   1
   2  -1 -12  56.328 4.99389   1
  -2   1  12 62.0199 5.11249   1
  -2  -1  12 49.8284 6.43092   1
   2   1 -12 43.0386 9.52464   1
   2   1 -13 1.59864 7.92572   1
  -2  -1  13 7.91553 5.56136   1
  -2   1  13 4.54712 3.78432   1
  -2  -2   1 814.493 36.1011   1
   2  -2  -1 813.792 35.3767   1
  -2   2   1 772.192 36.2906   1
   2   2  -1 845.438 39.9545   1
  -2  -2   1 827.237 39.2951   1
  -2  -2   1 738.005 35.9513   1
   2  -2  -1 866.254 36.1352   1
   2  -2  -1 822.251 35.6281   1
  -2  -2   1 817.325 36.2726   1
   2   2  -1 868.974 37.0487   1
  -2   2   1 801.956 39.2419   1
  -2   2   1 889.748 36.5511   1
   2   2  -1 802.961 36.7793   1
  -2   2   1 775.621 37.2674   1
  -2   2   1 844.959 36.8344   1
  -2   2   1 859.381 36.8111   1
   2   2  -1 882.761 36.8118   1
   2  -2  -1 831.873 36.0304   1
  -2  -2   2 365.816 17.7586   1
   2  -2  -2 385.325 16.2508   1
  -2  -2   2 370.843 17.6847   1
  -2  -2   2 362.528 20.4676   1
  -2  -2   2  367.91 17.6451   1
  -2   2   2 350.968 16.9658   1
   2   2  -2 379.478 17.5006   1
  -2   2   2 361.764 17.2715   1
  -2   2   2 388.924 17.9194   1
   2   2  -2 371.319 17.2202   1
  -2   2   2 363.155 17.2722   1
   2   2  -2 360.119 20.6637   1
  -2   2   2 355.811 19.2777   1
  -2   2   2 398.609 17.0524   1
   2  -2  -2 371.742 17.2277   1
   2  -2  -2 369.698   16.33   1
   2  -2  -2 357.507 19.9708   1
  -2   2   3 373.544 17.7106   1
   2   2  -3 414.343 17.5736   1
  -2   2   3 382.941 17.1305   1
  -2   2   3 361.346 19.1517   1
  -2   2   3 376.978 17.2709   1
   2   2  -3  396.45 18.5114   1
  -2   2   3 396.667 17.6764   1
  -2  -2   3  380.43 17.8496   1
   2  -2  -3 349.601 19.5288   1
  -2  -2   3 381.401 18.0724   1
  -2   2   3 389.739  17.756   1
   2   2  -3 392.945 21.5324   1
  -2  -2   3 393.186 17.9633   1
  -2  -2   3 368.781 20.6865   1
   2  -2  -3 383.394  17.207   1
   2   2  -4 70.0797 8.32339   1
  -2   2   4 72.6112 4.13911   1
  -2   2   4 66.6879 4.64065   1
  -2  -2   4 61.3725 5.12645   1
  -2  -2   4 60.7162 7.69356   1
  -2  -2   4 62.9106 5.33089   1
  -2  -2   4 65.5921 4.92225   1
   2   2  -4 67.4234  3.4728   1
   2   2  -4 66.1609 5.45867   1
  -2   2   4 68.1067 4.46642   1
  -2   2   4 69.2068 4.48407   1
  -2   2   5 13.9225 1.85469   1
  -2   2   5 14.5259 1.93662   1
   2  -2  -5  15.162 3.64542   1
  -2  -2   5 14.4794 2.57043   1
  -2  -2   5 17.7792 3.01496   1
  -2  -2   5 18.5287 3.13532   1
  -2  -2   5 12.9644 4.87739   1
   2   2  -5 11.3815 2.78645   1
   2   2  -5 14.0295 5.05633   1
  -2  -2   6 131.383 7.52203   1
  -2  -2   6  138.67 8.33211   1
   2  -2  -6 113.491 8.12935   1
  -2  -2   6 150.651 8.17097   1
  -2   2   6  146.97 6.81242   1
   2   2  -6 134.311 8.27875   1
   2   2  -6 139.742  8.4814   1
  -2   2   6 136.953 6.77744   1
   2   2  -6  141.17  12.019   1
  -2  -2   7 116.994 7.63391   1
  -2  -2   7 117.638 6.86162   1
  -2  -2   7 121.179 7.59718   1
   2   2  -7  117.65 7.40634   1
   2  -2  -7 93.5219 7.05573   1
  -2   2   7 116.093 5.25455   1
   2   2  -7 123.668 7.75191   1
   2   2  -7 101.555 11.1163   1
   2  -2  -8 49.2225  5.2572   1
   2   2  -8 59.8229 9.96515   1
  -2  -2   8  59.666 5.98657   1
  -2  -2   8 62.1793  5.0915   1
   2   2  -8 71.3235 5.73312   1
   2   2  -8 54.5377 5.13524   1
  -2  -2   8 64.8195 5.89818   1
   2   2  -9 60.0935 5.43666   1
   2   2  -9  45.894 4.68925   1
   2  -2  -9 67.3786 5.02704   1
   2   2  -9  65.438 10.7483   1
  -2  -2   9 60.3806 6.27645   1
   2  -2  -9 52.0778 5.46831   1
  -2  -2   9 57.3527  6.2151   1
  -2  -2   9 59.2652 5.61012   1
  -2  -2  10 125.663 9.22666   1
   2   2 -10  114.18 6.75554   1
   2   2 -10 127.678 7.05618   1
  -2  -2  10 133.142 9.35357   1
   2  -2 -10 75.5364 7.12941   1
   2  -2 -10 104.266 7.06813   1
   2   2 -10 128.582 15.0655   1
   2  -2 -11 11.2487 4.00688   1
   2  -2 -11 23.9322 3.79807   1
  -2  -2  11 30.5945 5.86766   1
   2   2 -11 37.2967  10.527   1
   2   2 -12-0.65573 9.13535   1
   2  -2 -12 1.10159 3.68634   1
  -2  -2  12 0.00944 5.52136   1
   2  -2 -12 0.23118 2.70857   1
  -2  -2  12 1.37704 5.40606   1
   2   2 -13  2.7563 9.70763   1
  -2  -3   1 222.613 12.2438   1
  -2  -3   1 201.234 12.2366   1
  -2  -3   1 214.889 12.4738   1
  -2   3   1  226.65 12.3348   1
  -2   3   1  245.73 12.3294   1
  -2   3   1 225.774 15.6206   1
   2   3  -1 225.448  12.704   1
   2   3  -1 247.748  17.144   1
   2  -3  -1 227.158 11.8191   1
   2  -3  -1 221.285 11.4135   1
   2  -3  -1 226.209 12.1647   1
  -2  -3   1 234.067 16.1851   1
   2  -3  -1 228.182 15.9803   1
  -2   3   1 221.472 12.1266   1
   2   3  -1 225.948 12.4816   1
  -2   3   1 229.883 12.5067   1
   2   3  -1 217.348 12.5466   1
  -2   3   1 213.051 14.5064   1
  -2   3   2  259.89 16.9318   1
  -2   3   2 269.525 14.1247   1
   2   3  -2 280.923 14.5868   1
   2   3  -2  283.69 14.4286   1
   2   3  -2 293.616 18.6286   1
   2  -3  -2 288.677 12.9608   1
   2  -3  -2 263.776 13.6361   1
  -2  -3   2 279.355  14.239   1
  -2  -3   2 263.706 14.2593   1
  -2  -3   2 267.143 17.9179   1
   2  -3  -2 243.286 16.9391   1
  -2  -3   2  247.64 14.0819   1
  -2   3   2 272.773 13.8338   1
  -2   3   2 291.864  15.637   1
   2   3  -2 270.688 14.1615   1
  -2   3   2 274.646 14.0729   1
  -2   3   2 254.381 13.7804   1
  -2  -3   3 27.9734 6.71505   1
   2  -3  -3 26.5165 3.34203   1
  -2  -3   3 26.6381 3.98866   1
   2  -3  -3 31.4497  6.9146   1
  -2  -3   3 20.5052 3.67916   1
   2   3  -3 31.8333 3.99363   1
  -2   3   3 25.8118 3.62543   1
  -2   3   3 33.2622 4.99458   1
   2   3  -3 37.9195 4.35742   1
  -2   3   3 22.5135 3.32609   1
   2   3  -3 37.2278 4.55228   1
  -2   3   3 30.3328 5.34687   1
  -2   3   3 44.8048 4.18839   1
  -2   3   3 28.3933 3.65095   1
   2   3  -3 32.3142 6.92424   1
  -2  -3   3 32.1018 4.70867   1
  -2   3   4  420.18 20.0334   1
  -2   3   4 458.607 19.5712   1
  -2  -3   4 416.877  20.819   1
  -2  -3   4 436.502 24.7989   1
   2  -3  -4 413.016 19.5478   1
  -2  -3   4 430.198 20.6732   1
  -2  -3   4 439.945 21.0857   1
   2  -3  -4 408.405 22.7984   1
  -2   3   4 401.453 20.3594   1
  -2   3   4 413.797 21.5936   1
   2   3  -4 438.048 21.1615   1
  -2   3   4 426.846 19.6203   1
   2   3  -4 434.684 25.2195   1
  -2   3   4 425.931  20.073   1
   2   3  -4  438.23 19.8389   1
  -2   3   5 26.0867 3.23587   1
   2   3  -5 29.2406 7.20273   1
   2  -3  -5 17.9298  5.4188   1
  -2  -3   5 22.9439 4.08552   1
  -2  -3   5 30.8161 9.62995   1
  -2  -3   5 14.9098 3.33884   1
   2  -3  -5 21.6826 2.77194   1
  -2  -3   5 22.6583 4.09254   1
  -2   3   5 16.1916 2.73663   1
  -2   3   5 20.7055 3.01093   1
  -2   3   5 22.6515 2.61777   1
   2   3  -5 23.2755 2.43742   1
   2   3  -5 19.2752 3.76212   1
   2   3  -5 21.2576  2.2257   1
   2  -3  -5 21.7777 1.53613   1
  -2  -3   6 99.0417 7.67954   1
   2  -3  -6 77.5652 8.40263   1
  -2  -3   6 92.8374 7.55957   1
   2   3  -6 112.946 12.4699   1
  -2   3   6 104.289 5.23353   1
  -2  -3   6 99.8438 7.36285   1
   2   3  -6 110.809 8.22517   1
  -2   3   6 89.2866 6.20583   1
  -2   3   6 98.7719 5.22468   1
   2   3  -7 15.3452 7.49912   1
  -2  -3   7 8.65386 3.46388   1
   2   3  -7 11.7154 3.45973   1
  -2  -3   7 7.14516 3.60986   1
   2   3  -7 8.07792 3.60483   1
   2  -3  -7  13.684 4.82971   1
  -2  -3   7 10.2248 3.29676   1
   2   3  -8 174.807 10.9997   1
   2  -3  -8 139.618 11.6067   1
  -2   3   8  177.93 9.00443   1
   2   3  -8 171.492 11.3199   1
  -2  -3   8 165.097 11.0959   1
  -2  -3   8  179.98 10.8275   1
  -2  -3   8 188.961 11.6677   1
   2   3  -8 188.931 17.4275   1
   2   3  -9  113.13 9.20858   1
   2   3  -9 121.509 15.6706   1
  -2  -3   9 116.842 9.73907   1
   2   3  -9 114.526 8.44248   1
  -2  -3   9 134.168 10.5012   1
  -2  -3  10 14.6879 5.29771   1
   2  -3 -10 8.84794 3.57675   1
   2   3 -10 7.12995 9.59832   1
   2   3 -10 7.20006 3.66324   1
   2   3 -10  10.192 4.33647   1
  -2   3  11 36.6205 3.66343   1
   2  -3 -11   34.27 6.72266   1
   2  -3 -11 27.3297 5.34114   1
  -2  -3  11 50.2127 7.66799   1
   2   3 -11 59.2001 13.2054   1
   2   3 -11 43.1029 5.63715   1
   2   3 -12 9.20712 11.3441   1
   2  -3 -12 10.3555 5.13991   1
   2  -3 -12 1.26901 4.59607   1
  -2  -3  12 17.9047 6.79507   1
  -2   3  12 16.1632 3.19292   1
  -2  -4   1 144.122 10.2446   1
  -2  -4   1 137.086 9.95418   1
  -2  -4   1 163.885  14.831   1
   2  -4  -1 160.271 9.90959   1
  -2  -4   1  145.07 10.0133   1
   2  -4  -1  163.85  10.134   1
   2  -4  -1 149.964 14.1608   1
   2  -4  -1 149.907  9.1352   1
  -2   4   1 153.584 10.1672   1
  -2   4   1 172.916 10.5166   1
   2   4  -1 158.287 14.7741   1
   2   4  -1 167.981 10.8068   1
   2   4  -1 155.554  10.644   1
  -2   4   1 169.385  14.609   1
  -2   4   1 159.788 10.2804   1
  -2   4   1 157.139 10.5516   1
   2   4  -1 165.451 10.7885   1
  -2  -4   2 533.259 26.5816   1
  -2  -4   2 567.979 26.6271   1
   2  -4  -2 495.104 30.3458   1
  -2   4   2 544.786 30.2846   1
  -2   4   2 549.415 26.2985   1
   2   4  -2 545.076 26.9383   1
  -2  -4   2 530.134 26.5296   1
  -2  -4   2 543.932 31.5003   1
   2  -4  -2 558.742   26.09   1
   2   4  -2 562.393 26.7809   1
  -2   4   2 531.771 26.3289   1
   2   4  -2 572.783 26.8275   1
  -2   4   2 572.524 26.3691   1
   2   4  -2 561.574 31.7349   1
  -2   4   2 535.701 26.4698   1
   2  -4  -2 569.576 25.1519   1
   2  -4  -3 926.596 42.4708   1
  -2  -4   3 931.836 43.4241   1
  -2  -4   3 951.785 43.6447   1
   2  -4  -3 959.934 40.3943   1
   2  -4  -3 972.924 40.4663   1
  -2  -4   3 980.675 48.9804   1
  -2   4   3 892.278 43.5283   1
  -2   4   3 953.117 42.4906   1
  -2   4   3 933.767 45.8318   1
  -2   4   3 925.428 42.0771   1
  -2   4   3 981.823 42.1197   1
   2   4  -3 941.791 42.4561   1
   2   4  -3 876.256 42.8565   1
   2  -4  -3 890.892 46.7948   1
  -2  -4   3 963.848 43.5036   1
   2   4  -3 998.626 48.8831   1
  -2   4   3 918.333 42.3094   1
   2   4  -3 980.662 42.5545   1
  -2   4   4 124.806 8.41181   1
   2   4  -4 133.387 14.0873   1
  -2  -4   4 115.946 9.41038   1
  -2  -4   4 129.543 9.39732   1
  -2  -4   4 124.964 13.9803   1
   2  -4  -4 109.722 11.7916   1
  -2  -4   4 132.787  9.6615   1
   2  -4  -4 125.471 8.15276   1
  -2   4   4 119.959 8.12311   1
  -2   4   4 118.276 8.47266   1
   2   4  -4 123.586 8.26798   1
  -2   4   4 116.418 11.0385   1
   2   4  -4 138.756 9.84431   1
  -2   4   4 127.686 8.53215   1
  -2  -4   5 181.872 11.4404   1
  -2  -4   5 178.384 11.8488   1
   2   4  -5 175.785 11.5965   1
   2   4  -5 176.372 16.6467   1
  -2   4   5 166.216 9.71393   1
  -2   4   5  175.37 10.0691   1
   2  -4  -5 168.219   9.732   1
  -2  -4   5 156.275  11.191   1
   2  -4  -5 170.468 14.2287   1
   2  -4  -5  170.64 8.49593   1
  -2   4   5 168.925 11.8156   1
  -2   4   5 180.032 10.2305   1
   2   4  -5 148.248 9.17489   1
  -2  -4   6 218.471 13.3651   1
  -2  -4   6 221.463 13.6271   1
   2  -4  -6 202.801 15.6446   1
   2  -4  -6  195.16  10.769   1
   2  -4  -6 195.932  9.5173   1
  -2   4   6 210.807 13.2352   1
  -2   4   6 224.397 11.5983   1
   2   4  -6 204.764 10.1368   1
  -2  -4   6 229.337  13.427   1
  -2   4   6 189.054 11.1092   1
   2   4  -6 226.115 19.5637   1
   2   4  -6 219.365 13.6516   1
  -2  -4   7 288.276  16.896   1
   2  -4  -7 265.307 13.1485   1
  -2  -4   7 283.804 16.4315   1
  -2  -4   7 306.372 16.8735   1
   2   4  -7 286.396 16.6796   1
   2   4  -7 293.539  16.966   1
   2   4  -7 318.378 23.8794   1
  -2   4   7 284.801  15.931   1
   2  -4  -7 264.208 18.6705   1
  -2   4   7 280.142 14.3658   1
  -2   4   7 289.667 14.6083   1
  -2   4   8 331.136 17.6764   1
  -2   4   8  325.39 16.5744   1
   2  -4  -8 247.622 18.8434   1
  -2  -4   8 334.331 18.0415   1
  -2  -4   8 320.852 18.1308   1
   2   4  -8 362.073 19.2562   1
   2   4  -8 365.948 19.5582   1
   2   4  -8 356.784 26.7275   1
  -2   4   8 345.852 16.7435   1
  -2  -4   9 69.5291 8.74018   1
   2   4  -9  68.188 7.76035   1
   2   4  -9 94.6775 16.0949   1
   2   4  -9 76.2848 8.47791   1
  -2   4   9 72.8259 6.23783   1
   2  -4  -9 66.8549 10.5768   1
   2   4 -10 27.8659 12.5428   1
   2  -4 -10 16.1891 7.59318   1
   2   4 -10 9.51882 5.69675   1
  -2   4  10   12.03 3.96041   1
  -2   4  10 17.1473 3.74756   1
   2   4 -10 17.3525 5.13382   1
  -2  -4  10 29.8614 7.15118   1
   2  -4 -11 18.0673 5.69486   1
  -2   4  11 14.9991 4.04843   1
   2   4 -11 18.5806 12.9742   1
   2  -4 -11 17.0497 7.97929   1
  -2  -4  11 9.35098 6.78463   1
   2   4 -12 13.3472 14.3901   1
   2  -4 -12  8.2523 7.12803   1
   2  -4 -12 5.58607  5.6126   1
  -2   4  12 4.62788  4.1334   1
   2  -5  -1 28.0745 4.60666   1
   2  -5  -1 44.3077 6.21309   1
  -2  -5   1 24.9399 4.92403   1
  -2  -5   1 30.3829 9.50032   1
   2  -5  -1 40.6823 10.3389   1
  -2  -5   1 22.9532 5.04748   1
  -2   5   1 30.9643 5.74469   1
   2   5  -1 34.8742 5.73235   1
   2   5  -1 35.1275 5.84274   1
  -2   5   1 48.9664 9.93899   1
   2   5  -1 45.8311 8.40087   1
  -2   5   1 40.0878 5.80461   1
   2   5  -1 27.2443 8.33415   1
  -2   5   1  34.377 5.62496   1
  -2   5   1 30.5541 5.06461   1
  -2  -5   2 130.767 15.4408   1
   2  -5  -2 135.565 9.71529   1
  -2  -5   2 112.324 9.93563   1
   2   5  -2  135.43 14.8627   1
   2  -5  -2 122.246 15.0588   1
   2   5  -2 122.358 9.99912   1
  -2  -5   2 130.308 10.2898   1
  -2   5   2 129.057 13.1903   1
  -2   5   2 125.913 10.0602   1
  -2  -5   2 103.216 9.86233   1
   2  -5  -2  136.06 8.40168   1
  -2   5   2 130.682 9.81987   1
   2   5  -2 137.675 10.5844   1
  -2   5   2 132.054 9.79569   1
  -2   5   2 123.633  9.7657   1
   2   5  -3 150.609 16.2778   1
  -2   5   3 145.743 10.5306   1
  -2   5   3 149.744 10.8478   1
  -2   5   3 143.959 10.6386   1
  -2  -5   3 160.624 16.7685   1
   2   5  -3 148.786 11.3344   1
  -2  -5   3  123.44 10.7191   1
   2  -5  -3 144.382  15.205   1
   2  -5  -3 138.723 7.95064   1
  -2  -5   3 144.127 11.0468   1
   2  -5  -3 140.575 9.98056   1
  -2  -5   3  143.95 11.0793   1
  -2   5   3 153.802 10.4989   1
   2   5  -3  163.32 10.9765   1
  -2   5   3 139.713 13.9413   1
  -2   5   4 148.267 10.3922   1
   2   5  -4 156.251 10.2789   1
  -2  -5   4 148.201 11.5904   1
   2  -5  -4 156.697 10.1491   1
  -2  -5   4 153.481 11.6225   1
   2  -5  -4 136.335 14.5258   1
  -2  -5   4 145.604 17.0117   1
  -2  -5   4 141.987 11.2651   1
  -2   5   4 132.412 10.1759   1
   2   5  -4 157.209 17.4788   1
  -2   5   4 132.312 10.2386   1
  -2   5   4 154.117 10.3067   1
   2  -5  -5 134.465 9.15229   1
  -2  -5   5 130.912 11.1508   1
  -2   5   5 118.399 9.77753   1
  -2  -5   5 141.228 10.9138   1
  -2  -5   5 133.594 11.0166   1
   2  -5  -5 108.108 13.4708   1
  -2   5   5 135.941 9.58497   1
   2   5  -5 138.422 9.08805   1
   2   5  -5 123.992 11.0443   1
   2   5  -5  133.03 17.1706   1
  -2  -5   6 531.378 26.8387   1
  -2  -5   6 485.881 26.4839   1
   2  -5  -6 483.661 23.8841   1
   2   5  -6 551.582 27.8764   1
   2  -5  -6 529.184 24.4639   1
   2  -5  -6 445.621 29.4353   1
  -2  -5   6 524.912 26.5647   1
  -2   5   6 513.566 25.9932   1
  -2   5   6 505.112 25.5869   1
   2   5  -6 551.016 35.2381   1
  -2  -5   7 327.714 19.1062   1
   2  -5  -7 300.863 15.1052   1
   2   5  -7 296.709 19.1537   1
   2   5  -7 348.393 19.5894   1
  -2   5   7 307.308 17.2701   1
   2  -5  -7  258.54 21.2803   1
   2   5  -7 334.126 27.5297   1
  -2  -5   8 59.0626 8.95721   1
   2  -5  -8 68.6365 12.4122   1
   2  -5  -8 62.2218 5.37217   1
  -2   5   8 76.0156 7.82809   1
   2   5  -8 93.1028   17.44   1
   2   5  -8 85.0409 9.56595   1
   2   5  -9 23.2913 13.0528   1
  -2   5   9 12.4582 4.56997   1
  -2  -5   9 17.1954 6.98471   1
   2   5  -9  17.217   5.925   1
   2  -5  -9 14.5724 9.17677   1
   2   5 -10-5.02975 12.4741   1
  -2  -5  10-3.09725 6.19051   1
   2  -5 -10 9.37117 8.78117   1
   2  -5 -11 24.9581 10.1989   1
   2   5 -11 28.5992 16.1199   1
  -2   5  11  26.895  6.1481   1
   2   6  -1 81.8093 14.9165   1
   2   6  -1 71.8685  8.8862   1
  -2   6   1 80.8937 9.67287   1
  -2  -6   1 74.2608 8.51141   1
   2  -6  -1 85.8574 8.87862   1
  -2  -6   1 85.3952  9.6434   1
   2  -6  -1 75.7748 7.74994   1
  -2  -6   1  54.782 12.4999   1
   2  -6  -1 85.9892 15.4877   1
  -2   6   1 88.4259 14.4517   1
  -2   6   1  89.184 9.67985   1
  -2   6   1 88.6412 9.74542   1
   2   6  -1 87.2587 10.0063   1
  -2   6   1 78.1506   8.915   1
  -2   6   2 59.6261 10.6297   1
  -2  -6   2 96.9727 10.1226   1
   2   6  -2 77.6768   8.845   1
  -2   6   2 99.4868 9.98895   1
  -2   6   2 75.7538 9.29717   1
   2   6  -2 79.0716 9.34291   1
  -2   6   2 77.3211 8.90302   1
   2   6  -2 85.4522 13.7413   1
   2  -6  -2 86.9262 15.0806   1
  -2  -6   2 53.4476 7.86966   1
  -2  -6   2 76.7179 15.1186   1
   2  -6  -2 108.437 10.2304   1
   2  -6  -2 66.0991 7.00435   1
  -2   6   2 77.7554 8.93904   1
  -2   6   3 103.584 10.1593   1
   2   6  -3 110.965 11.1553   1
  -2   6   3 98.7451 10.3319   1
   2   6  -3 120.442 16.3306   1
  -2  -6   3  82.294 14.3691   1
   2   6  -3 126.549 10.5073   1
  -2   6   3 118.337 10.4163   1
   2  -6  -3 110.601 9.65015   1
  -2  -6   3 98.9564  10.175   1
  -2  -6   3 117.607 11.5102   1
   2  -6  -3  121.16  17.401   1
   2  -6  -3 97.5787 7.29916   1
  -2   6   3  119.45 10.9445   1
   2  -6  -4 192.569 19.5306   1
  -2   6   4 234.377 14.7559   1
  -2   6   4 198.612 14.2473   1
   2   6  -4 195.851 21.7736   1
  -2  -6   4  193.63 21.9409   1
  -2  -6   4 209.474 15.0768   1
  -2  -6   4 191.378 14.4127   1
   2  -6  -4 214.599 13.5215   1
  -2   6   4 229.297 14.9503   1
   2   6  -4 211.459 13.9422   1
   2   6  -4 212.964 15.5933   1
   2  -6  -5 21.6848 4.88921   1
  -2   6   5 32.7741 6.12382   1
   2   6  -5 5.18929 6.85163   1
   2   6  -5 27.5842 11.3031   1
  -2  -6   5 32.4701  6.7995   1
   2  -6  -5 25.1656 10.9702   1
  -2  -6   5 20.1272 5.74408   1
   2   6  -5 19.8208 4.93358   1
   2  -6  -6 205.978 13.0795   1
   2  -6  -6  208.25 20.2558   1
  -2  -6   6 202.763 15.9215   1
  -2   6   6  203.72 14.5134   1
   2   6  -6  227.06 24.5808   1
   2   6  -7 8.47452  11.235   1
   2  -6  -7 3.44372  9.4093   1
  -2   6   7 0.52101 4.51993   1
   2  -6  -7 2.94987 3.45181   1
  -2  -6   7  3.3081 6.11761   1
   2   6  -7 6.14508 5.62447   1
   2  -6  -8 88.8309 15.5521   1
  -2  -6   8 96.5352 12.0733   1
   2  -6  -8 83.7546 7.87149   1
   2   6  -8 119.724 21.4948   1
   2   6  -8 74.0011 10.2544   1
  -2   6   8  94.671  10.016   1
  -2  -6   9 72.0018 11.7811   1
   2  -6  -9 89.3711 15.6116   1
   2   6  -9 114.065 22.5012   1
  -2   6   9 113.441 11.4557   1
   2   6 -10 44.3578 19.7921   1
   2  -6 -10 22.1708 11.8849   1
  -2   6  10  22.712 6.99437   1
  -2  -7   1 119.141 12.0721   1
   2  -7  -1 137.555 12.1567   1
  -2  -7   1  116.35 12.5917   1
   2   7  -1 120.898 12.8559   1
   2   7  -1 132.199 12.9114   1
   2  -7  -1 115.274 10.6477   1
  -2   7   1  153.54 12.9717   1
  -2   7   1 150.499 18.3799   1
  -2   7   1 146.131  13.829   1
  -2  -7   2 59.6225 8.98217   1
   2  -7  -2  77.677 17.8654   1
   2  -7  -2 58.7163 8.36297   1
  -2  -7   2 57.9739 9.15744   1
   2   7  -2 65.3811 9.25863   1
  -2   7   2 60.2279 9.30846   1
  -2  -7   3 309.002 20.8432   1
   2  -7  -3 339.118 20.1564   1
   2  -7  -3 324.921 28.0416   1
  -2  -7   3 348.946 21.4806   1
  -2   7   3 324.242 20.6419   1
   2   7  -3 338.588  20.353   1
   2  -7  -4 177.425 13.9444   1
   2  -7  -4 212.077 22.4461   1
  -2   7   4 252.004 16.7661   1
   2   7  -4 194.368 15.1557   1
  -2  -7   4 184.076 15.8551   1
   2  -7  -5 4.06354 10.3115   1
  -2  -7   5 7.66691 6.28608   1
   2  -7  -5 3.05127 4.33757   1
  -2   7   5 6.98861 5.71733   1
  -2  -7   6 155.932 16.0283   1
  -2   7   6 144.612 13.5974   1
   2  -7  -6 139.624 11.7377   1
   2   7  -6 149.913 14.7002   1
  -2  -7   7 11.1578 7.54859   1
   2  -7  -7 2.20789 11.2418   1
   2   7  -7 8.35107 7.16332   1
  -2   7   7 9.13374 6.24261   1
  -2  -7   8 6.89051 8.43943   1
   2  -7  -8 13.7225 13.1815   1
  -2   7   8 27.1635 7.69131   1
   2   7  -8 17.5451  8.7421   1
   2  -7  -9 22.6101 14.3312   1
  -2   8   1 142.153 14.4873   1
   2   8  -1 154.955 15.1787   1
   2  -8  -1  159.55 14.4365   1
  -2  -8   1 140.125 14.8838   1
  -2  -8   1 142.085 14.6972   1
   2  -8  -2 4.73446  5.5809   1
  -2  -8   2 10.9039 6.30984   1
   2   8  -2 2.87539  6.0406   1
  -2   8   2 3.26359 5.98329   1
  -2  -8   3 60.2682 10.4719   1
   2  -8  -3 61.3481 9.13636   1
  -2   8   3 68.1394 11.0799   1
   2  -8  -4 3.56615 5.41187   1
  -2  -8   4 6.23602 6.41998   1
  -2   8   4 2.61822 6.59625   1
  -2  -8   5 6.06613  6.6211   1
   2  -8  -5 1.31669 6.26781   1
  -2   8   5-1.54483 6.57127   1
  -2  -8   6 33.3984  9.2465   1
   2   8  -6 39.6591 10.2629   1
  -2   8   6 48.5659  10.122   1
  -2  -8   7 36.8235 10.5484   1
   2   8  -7  42.012 10.3754   1
   2   9  -1 20.3886   9.361   1
   2  -9  -1 7.97275 7.47321   1
  -2   9   1 14.0483 8.00502   1
   2  -9  -2 5.64559 7.26871   1
  -2   9   2 3.25497 7.19731   1
  -2   9   3 4.54941 7.64855   1
   2  -9  -3 18.0915 8.26968   1
  -2  -9   4 14.9529 9.89888   1
  -2   9   4 9.22264 8.98149   1
  -2  -9   5 1.77082 9.15309   1
  -2  -9   6 16.8398 9.84532   1
   1   0  -1 316.818 15.2015   1
  -1   0   1 326.288  15.253   1
   1   0  -1 304.934 14.2708   1
  -1   0   1  362.50 14.6541   1
   1   0  -1 378.299  15.379   1
   1   0  -1  388.78 14.6984   1
   1   0  -1 295.899 14.2292   1
  -1   0   1  316.47 14.4127   1
  -1   0   1 367.527 15.3552   1
  -1   0   2 4.46084 0.80491   1
   1   0  -2 3.13769 1.28754   1
   1   0  -2 4.44869 0.75354   1
   1   0  -2 6.05095  1.2305   1
  -1   0   3 72.8533  3.2269   1
   1   0  -3 54.1944 3.65848   1
  -1   0   4 443.987 17.5197   1
   1   0  -4 346.129 18.1834   1
   1   0  -4 433.123 18.3127   1
   1   0  -5 2.27955 2.34254   1
  -1   0   5 3.63218 1.06977   1
   1   0  -6 39.7628 5.00862   1
  -1   0   7 69.6574 5.44265   1
   1   0  -7 62.9837 6.94969   1
   1   0  -8 379.605 21.9085   1
  -1   0   8 460.277 20.3358   1
  -1   0   9 122.903 8.64602   1
  -1   0   9 137.164 6.89358   1
  -1   0   9 117.335 6.36575   1
  -1   0  10 75.5824 7.32766   1
   1   0 -10 51.5405 8.62531   1
  -1   0  10 75.7799 5.86543   1
  -1   0  10 67.5656 5.17444   1
  -1   0  11-0.41531 4.02559   1
   1   0 -11-1.40457 6.22892   1
  -1   0  11 1.91007 3.23997   1
  -1   0  12 101.597 8.38859   1
   1   0 -12 82.9554 11.5245   1
   1   0 -12 62.1484 11.1911   1
   1   0 -13 5.05556 8.36362   1
   1   0 -13 9.10866 7.71212   1
   1  -1  -1 2110.86 87.3261   1
  -1  -1   1 2106.73  87.553   1
   1  -1  -1 1941.63 88.4662   1
   1  -1  -1 2073.34 86.8291   1
  -1  -1   1 2079.31 87.3312   1
   1   1  -1 2330.53 88.6737   1
  -1   1   1 1999.39 88.6706   1
   1   1  -1 2106.19 88.6562   1
  -1   1   1 2251.05 88.3447   1
   1   1  -1 2093.05  90.525   1
  -1   1   1 2154.79 88.7396   1
  -1   1   1 1956.11 88.3012   1
  -1   1   1 2013.47 88.6598   1
  -1  -1   1 2217.12 87.3257   1
   1  -1  -1 2067.99 87.3012   1
  -1  -1   1 2028.90 89.0394   1
   1  -1  -1 2096.54 87.0315   1
  -1  -1   2 1076.74 45.4902   1
   1  -1  -2 959.053  45.806   1
  -1  -1   2 1084.59 45.1191   1
   1   1  -2 1133.39 46.5042   1
  -1   1   2 1018.28 47.1707   1
   1   1  -2 1163.83 47.2622   1
  -1   1   2 1045.17 46.6735   1
   1   1  -2 1093.91 48.7182   1
   1   1  -2 1201.11 46.5291   1
   1  -1  -2 1128.90 44.9628   1
  -1  -1   2 1053.19 46.9227   1
  -1  -1   2 1102.00 45.1308   1
  -1  -1   3 692.784 27.8997   1
  -1  -1   3 658.909 28.4832   1
  -1  -1   3 671.606 27.7697   1
  -1  -1   3 669.996 29.6528   1
   1  -1  -3 577.547 28.0897   1
  -1   1   3 615.638 28.4559   1
   1   1  -3 700.058  29.309   1
   1   1  -3 670.306 31.0655   1
  -1   1   3 716.504 28.4965   1
   1   1  -4 407.889   20.64   1
   1   1  -4  431.61 18.7405   1
  -1  -1   4 404.756 18.4698   1
   1  -1  -4 463.288 18.6078   1
  -1  -1   4 422.729 18.3771   1
  -1  -1   4 428.973  19.328   1
   1  -1  -4 421.779 18.5209   1
  -1  -1   4 435.287 20.1909   1
   1   1  -4 370.308 20.4389   1
  -1   1   4 424.975 17.6972   1
   1   1  -4 398.426  18.545   1
  -1   1   4 464.102 18.2122   1
  -1   1   5 681.691 27.3365   1
   1   1  -5 561.418 29.5617   1
  -1  -1   5 615.127  27.931   1
   1  -1  -5 624.716 27.3838   1
  -1  -1   5  661.01  27.128   1
  -1  -1   5  636.58 26.9229   1
  -1   1   5 629.993 26.4221   1
   1   1  -5  608.66 27.2861   1
   1   1  -5 646.318 27.4516   1
  -1  -1   6 20.0045 2.07224   1
   1  -1  -6 18.8586 2.44793   1
  -1  -1   6 20.8088 2.27373   1
  -1   1   6 18.4738 1.77796   1
  -1   1   6 23.9851 2.86956   1
   1   1  -6 20.4687 2.48835   1
   1   1  -6 18.8002 2.64199   1
   1   1  -6 17.2832 4.97546   1
  -1  -1   6 19.4684  2.6812   1
  -1  -1   7 307.388 14.5436   1
  -1  -1   7 330.936 14.1676   1
  -1  -1   7 304.659 13.6237   1
   1  -1  -7  291.96 14.7537   1
   1   1  -7 304.783 13.9389   1
  -1   1   7 295.301 13.1046   1
   1   1  -7 285.074 17.5231   1
   1  -1  -7 275.367 14.9236   1
  -1   1   7 301.602  14.344   1
   1   1  -7 288.421 13.6667   1
  -1  -1   8 160.327  8.6079   1
   1  -1  -8 134.533 9.68571   1
   1   1  -8  145.86 7.78417   1
  -1   1   8 152.646 8.92126   1
   1   1  -8 153.497 8.06258   1
   1  -1  -8 147.805 9.41362   1
  -1  -1   8 151.291 8.60724   1
   1   1  -8 164.669 13.1321   1
  -1  -1   8 161.182 8.01262   1
  -1  -1   9 28.4618 4.06128   1
  -1  -1   9 33.9477 5.39924   1
   1  -1  -9 37.7504 5.81534   1
  -1  -1   9 38.4847 3.98574   1
   1   1  -9 40.2275 3.05192   1
   1   1  -9 39.7471 8.40431   1
   1   1  -9 32.2344 3.14996   1
  -1   1   9 36.9025 4.71062   1
  -1   1  10 1.42034 1.98992   1
   1  -1 -10 0.89994 4.54448   1
  -1  -1  10 8.05258 3.63163   1
   1  -1 -10 0.63062 4.46716   1
  -1  -1  10 4.00727 3.98458   1
   1   1 -10 -3.2516  6.5109   1
  -1   1  10 6.98674 3.56191   1
  -1   1  10 1.32713 1.97042   1
   1   1 -11 39.3128 9.95682   1
  -1  -1  11 53.9294 7.34921   1
  -1   1  11  60.546 5.44129   1
   1  -1 -11 50.4529 8.01308   1
  -1  -1  11 57.6717 6.51472   1
   1   1 -12 2.89153  8.5583   1
   1   1 -12 1.11801 8.57553   1
  -1  -1  12 0.72124 4.60855   1
   1  -1 -12 2.71567 6.75336   1
  -1  -1  12 7.17794 5.32139   1
   1  -1 -12 5.86743 5.95165   1
  -1   1  12-0.37361  3.3274   1
   1  -1 -13 30.7538 8.76037   1
   1   1 -13  32.978 11.2242   1
   1  -1 -13 43.1465 8.29768   1
  -1   1  13 43.2412 5.96596   1
  -1  -2   1 191.826 10.7098   1
  -1  -2   1 216.604 10.8078   1
  -1  -2   1 202.685 13.2193   1
   1  -2  -1 211.708  9.9853   1
  -1  -2   1  196.83 10.7094   1
   1   2  -1 205.331 13.0338   1
  -1   2   1  191.08 10.0576   1
   1   2  -1 220.551 10.5209   1
   1   2  -1 193.795 10.3744   1
  -1   2   1 208.684 10.0491   1
  -1   2   1 197.511 10.2777   1
   1  -2  -1 198.681 10.1816   1
   1  -2  -1 233.586 11.0352   1
  -1   2   1 185.372 12.2832   1
   1  -2  -1 209.911 10.5218   1
   1   2  -1  209.58 10.5834   1
  -1  -2   2 0.86498 1.77166   1
   1  -2  -2 0.89286 0.55605   1
  -1  -2   2  1.2969 1.67652   1
   1  -2  -2 0.68866 3.14575   1
  -1  -2   2 1.44682 1.89868   1
   1  -2  -2 1.91836  0.6017   1
  -1  -2   2 2.80011 3.69062   1
   1  -2  -2-0.09839 1.40524   1
   1   2  -2 5.80522 3.68336   1
  -1   2   2 1.89566 1.47879   1
  -1   2   2-0.32621 1.33368   1
   1   2  -2 0.49452 1.70212   1
   1   2  -2 4.01199 1.90395   1
  -1   2   2 0.30742 1.47343   1
   1   2  -2 2.19901  1.5865   1
  -1   2   2-0.00981 2.31242   1
  -1   2   3 170.629 10.5625   1
   1  -2  -3 183.195  11.319   1
  -1   2   3 203.542 8.96485   1
  -1   2   3 212.087  8.9835   1
   1   2  -3 195.644 13.4488   1
  -1   2   3 198.788 8.94502   1
   1   2  -3  206.02  10.637   1
   1   2  -3 209.931 9.75822   1
  -1  -2   3 195.947 10.1651   1
  -1  -2   3 197.956 10.3312   1
  -1  -2   3 187.171 12.5468   1
   1  -2  -3 188.108 9.30245   1
  -1  -2   3 195.327 9.89664   1
  -1   2   3 186.317 9.66357   1
   1  -2  -4 689.975 30.2338   1
  -1  -2   4 700.495 33.8611   1
   1  -2  -4 651.643 32.1467   1
  -1  -2   4 704.403  31.571   1
  -1  -2   4 722.771 31.3406   1
   1  -2  -4 771.635 30.1968   1
  -1  -2   4 685.401  30.932   1
   1   2  -4 727.447 32.7859   1
   1   2  -4 759.572 30.9405   1
  -1   2   4 699.313 31.7103   1
   1   2  -4 739.157 30.8767   1
   1   2  -4 741.575 36.1728   1
   1  -2  -5 178.901 10.9193   1
   1   2  -5 198.507 14.2363   1
  -1  -2   5 206.779 10.0236   1
   1  -2  -5 179.342 8.60788   1
  -1  -2   5 198.588 10.5746   1
  -1  -2   5  203.24 12.9582   1
  -1  -2   5 198.725  10.429   1
   1   2  -5 201.256 10.5894   1
  -1   2   5 194.712 9.39445   1
   1   2  -5 191.659 10.7486   1
  -1  -2   6   79.73 5.40117   1
  -1  -2   6 77.4881   6.121   1
  -1  -2   6 78.0003 6.05019   1
   1  -2  -6 71.8443  6.8164   1
   1   2  -6 76.9541 6.22982   1
   1   2  -6 67.5042 9.64712   1
   1   2  -6 69.8896 5.65729   1
  -1   2   6 87.7425 4.71718   1
   1  -2  -7 18.0298 4.32272   1
   1   2  -7  25.383 3.91087   1
   1   2  -7 21.3467 3.30443   1
  -1  -2   7 22.9128 3.20097   1
  -1  -2   7 20.5399 3.54015   1
  -1  -2   7 24.6227 3.98189   1
  -1   2   7 19.5482 2.29186   1
   1   2  -7  28.848 7.61848   1
  -1   2   7 24.2129 3.20373   1
   1  -2  -8 55.3572 5.71573   1
   1  -2  -8 49.2176 6.82837   1
   1   2  -8 74.0085 11.2234   1
   1   2  -8 53.2224 5.50408   1
  -1  -2   8 50.6884  5.5184   1
   1   2  -8 55.0408 5.30289   1
  -1   2   8 50.6487 4.91825   1
  -1  -2   8 63.6711 5.37857   1
  -1  -2   8 70.3638 6.43119   1
   1  -2  -9 153.918 10.6501   1
  -1  -2   9 171.664 10.7536   1
  -1  -2   9 157.487 9.81528   1
   1  -2  -9 148.431 11.0641   1
   1   2  -9 147.595 9.12165   1
   1   2  -9  179.85 16.4247   1
  -1   2   9 136.992 9.04774   1
   1   2  -9  161.91 9.75324   1
  -1  -2   9 151.975 10.0133   1
  -1  -2  10   36.05 5.82508   1
   1  -2 -10 20.3366  5.3433   1
   1   2 -10 26.4146 3.85817   1
  -1   2  10 27.3606 4.84987   1
   1   2 -10 31.7448 4.40861   1
  -1   2  10 28.2954 2.80856   1
   1   2 -10 38.8733 10.4777   1
   1   2 -11 24.1027  3.4307   1
  -1  -2  11 16.3667  5.9916   1
   1  -2 -11 9.84685 6.26491   1
  -1  -2  11 24.3716  5.7997   1
   1  -2 -11 17.5433 6.43739   1
   1   2 -11  20.831 10.1218   1
  -1   2  11  24.487 3.54817   1
   1   2 -11 17.3397 2.89472   1
   1   2 -12 45.3643 12.4632   1
   1  -2 -12 45.2597  7.9682   1
  -1  -2  12 43.0964 8.25092   1
  -1  -2  12 55.5091 7.60932   1
  -1   2  12 49.2598 5.27488   1
   1  -2 -12 27.5567 7.78327   1
   1  -2 -13 2.36266 7.04216   1
   1  -2 -13 12.3454 6.79208   1
   1   2 -13 14.4795 11.9637   1
  -1   2  13 7.67506  4.2563   1
   1  -3  -1 672.216 30.8916   1
  -1  -3   1 680.474 31.6404   1
  -1  -3   1 692.123 31.4694   1
  -1  -3   1 693.451 31.5011   1
   1  -3  -1  694.32 34.7142   1
   1  -3  -1  682.47  30.558   1
   1  -3  -1 675.131 31.2883   1
  -1  -3   1 755.289 35.7826   1
   1   3  -1  725.22 31.5776   1
  -1   3   1 693.186 31.0462   1
  -1   3   1 675.735 34.4073   1
   1   3  -1 717.909 31.7502   1
  -1   3   1 681.844 31.3761   1
  -1   3   1 644.231 31.0187   1
   1   3  -1  715.30 35.2342   1
   1   3  -1  686.15 31.4146   1
  -1  -3   2 108.866 10.9245   1
  -1  -3   2 103.331 7.53977   1
   1  -3  -2 97.9261 10.0843   1
   1   3  -2 134.062 8.02387   1
  -1   3   2  101.96 7.05795   1
   1  -3  -2 112.376 6.17058   1
   1  -3  -2  106.71 6.97675   1
  -1   3   2 117.375 9.71787   1
   1   3  -2 111.601 7.55619   1
   1   3  -2 114.725 10.7352   1
   1   3  -2 115.801  7.5939   1
  -1   3   2 104.775 6.98236   1
  -1   3   2 106.911  7.3042   1
  -1  -3   2 107.266 7.63798   1
   1  -3  -2 110.091 5.86413   1
  -1  -3   2 106.767 7.40112   1
  -1  -3   3 358.982 18.3319   1
   1  -3  -3 332.548 20.4107   1
  -1  -3   3 364.856 21.8103   1
  -1  -3   3 405.094 18.4516   1
  -1  -3   3 383.677 18.5638   1
   1  -3  -3 371.625 17.5666   1
   1   3  -3  389.09 22.7547   1
  -1   3   3  363.48 17.6399   1
   1   3  -3 397.394 18.8845   1
  -1   3   3 378.473 20.1684   1
  -1   3   3  342.40 17.8128   1
  -1   3   3 371.922 17.5776   1
   1   3  -3 388.999 17.9953   1
   1   3  -3 396.192 18.3265   1
  -1   3   4 67.7123 5.22394   1
  -1  -3   4 77.6918 9.91075   1
  -1  -3   4 69.9042 6.12691   1
  -1  -3   4 72.6588 6.47882   1
  -1  -3   4 71.8206 6.01447   1
   1  -3  -4 69.0026 5.14637   1
   1  -3  -4 72.4511 4.53226   1
  -1   3   4 72.8374 4.91814   1
   1   3  -4 76.4775 10.3801   1
   1   3  -4 69.2558 5.39068   1
   1   3  -4 68.0462 6.29748   1
  -1   3   4  68.617 4.80321   1
   1  -3  -4 69.7432 8.02841   1
  -1   3   4 70.5262 6.50589   1
  -1   3   5 54.1916 4.17803   1
   1   3  -5 58.8456  9.7395   1
  -1   3   5 50.9666 4.48904   1
   1  -3  -5 48.0786  4.1522   1
  -1  -3   5 48.7286 5.41068   1
  -1  -3   5 50.6022 5.63267   1
   1  -3  -5 46.3367 3.62199   1
  -1  -3   5 40.7462 8.34903   1
  -1  -3   5 49.6502 5.08012   1
   1  -3  -5 51.2989 7.16734   1
   1   3  -5 45.5148 5.30733   1
  -1   3   5 42.6733 3.68312   1
   1   3  -5 50.8018 3.91756   1
   1   3  -5 46.5762 5.50569   1
   1   3  -5 50.1978 3.51811   1
  -1   3   5 37.3428 4.63549   1
  -1   3   5 46.7072 3.84148   1
  -1  -3   6 279.006 14.4035   1
   1  -3  -6 262.433 12.6828   1
  -1  -3   6  277.50  14.892   1
   1  -3  -6 263.592 12.6036   1
  -1  -3   6  278.12  14.943   1
  -1   3   6 266.069  12.452   1
  -1   3   6 252.368 12.5082   1
   1   3  -6 301.251 20.4263   1
  -1   3   6 260.349 12.4831   1
  -1   3   6 270.071 13.2991   1
   1   3  -6 273.895 15.0052   1
  -1   3   6 280.502 12.6011   1
   1   3  -6 273.476  14.759   1
   1  -3  -6  261.13 16.3064   1
  -1  -3   7 205.847 11.8569   1
  -1  -3   7 219.588 12.5955   1
  -1  -3   7 192.297  12.303   1
   1  -3  -7 194.784  13.691   1
   1   3  -7 239.558 18.9015   1
  -1   3   7 195.383 9.71877   1
   1   3  -7 186.149 11.8789   1
   1   3  -7 201.831 12.5085   1
  -1   3   7 211.485 9.88562   1
  -1  -3   8  25.692 5.23818   1
  -1  -3   8 24.7507 4.72773   1
   1  -3  -8 20.3009 5.96416   1
  -1   3   8 24.0496 2.74599   1
   1   3  -8 16.3414  4.6866   1
   1   3  -8  33.485 9.98968   1
  -1  -3   8 22.2234 4.24051   1
  -1   3   8 23.8438 2.83809   1
   1   3  -8 19.7729 3.97497   1
  -1   3   9 5.28548  2.2027   1
  -1  -3   9 1.41681 3.77792   1
   1  -3  -9 9.09381 5.37858   1
  -1  -3   9 2.76312 4.18726   1
  -1   3   9 8.37728 2.59757   1
   1   3  -9 10.1524 4.66667   1
   1   3  -9 5.71697 9.12235   1
  -1   3   9 6.95797 2.66441   1
   1   3  -9 9.65896 3.67593   1
   1  -3 -10 69.0903 9.94934   1
   1  -3 -10 68.8958 8.61001   1
   1   3 -10 64.3855 7.46187   1
   1   3 -10 83.3042 14.3203   1
  -1   3  10 66.3474 5.59781   1
  -1   3  10 82.3732 6.63381   1
   1   3 -10 57.8843 6.63035   1
  -1  -3  10 70.6873 8.61349   1
  -1  -3  11 20.1688 6.57044   1
   1  -3 -11 6.39414 5.84098   1
   1   3 -11 19.7097 5.44427   1
  -1   3  11 19.9775 3.82561   1
   1   3 -11 23.4515 11.8913   1
   1   3 -12 31.2181 8.87555   1
   1   3 -12 19.7245 13.1466   1
  -1  -3  12 15.6121 7.58756   1
   1  -3 -12 11.4432 6.97378   1
  -1   3  12  23.494 4.73319   1
   1  -3 -12 43.0294 8.96143   1
   1   4  -1 120.037 8.76989   1
   1   4  -1 124.934 8.75831   1
  -1  -4   1 121.382 8.74057   1
  -1  -4   1 114.024 12.4292   1
   1   4  -1 121.269 12.2698   1
  -1   4   1 113.566 8.40219   1
   1  -4  -1 115.834 12.2352   1
  -1  -4   1 129.055 8.64478   1
   1  -4  -1  108.94 8.22601   1
  -1  -4   1 102.356 8.24341   1
   1  -4  -1 107.277 7.43813   1
   1  -4  -1 115.644 7.83577   1
  -1   4   1 110.562 11.6901   1
  -1   4   1 119.485 8.50024   1
  -1   4   1 114.106  8.5821   1
   1   4  -1  123.91 8.92751   1
  -1  -4   2 563.488 26.6605   1
   1  -4  -2 529.529 25.9058   1
   1  -4  -2 556.207 30.6442   1
   1  -4  -2 539.561  24.954   1
  -1  -4   2 528.677 26.3234   1
  -1  -4   2 562.235 31.6097   1
  -1   4   2 549.621 29.6352   1
  -1   4   2 500.327 25.6364   1
   1   4  -2 556.142 26.1806   1
   1   4  -2 540.566 26.2017   1
   1   4  -2 568.337 31.2332   1
  -1   4   2 538.254 25.7641   1
   1   4  -2 569.805  26.715   1
  -1   4   2 542.947 26.0506   1
  -1  -4   2 555.091 26.7031   1
   1  -4  -3 330.599 16.9034   1
  -1  -4   3 327.994  22.205   1
  -1  -4   3 330.862 17.6446   1
   1   4  -3 327.769 22.3143   1
  -1  -4   3 358.158 17.7877   1
   1  -4  -3 339.125 14.8589   1
   1   4  -3 345.072 17.6868   1
  -1   4   3 345.425 20.4594   1
  -1   4   3 330.046 17.0954   1
  -1   4   3 345.445 17.3466   1
  -1   4   3 331.681 17.2749   1
   1  -4  -3 328.134 21.0985   1
   1   4  -3 331.612 17.9493   1
   1  -4  -3 318.371 14.8283   1
   1   4  -3 363.794 17.5759   1
  -1  -4   3 319.795 17.6993   1
  -1  -4   4 62.2857 6.50282   1
  -1   4   4 53.2508 5.48656   1
  -1  -4   4  55.616 6.55302   1
  -1  -4   4 50.7993  6.3643   1
  -1  -4   4 45.5485 8.96535   1
   1  -4  -4 56.7041  9.3857   1
   1  -4  -4 62.5004 5.61776   1
   1   4  -4 63.4986 6.72641   1
   1   4  -4 68.9956  11.304   1
  -1   4   4 44.0905 5.15187   1
   1   4  -4 57.6192 5.36398   1
  -1   4   4 56.5937 5.48852   1
   1   4  -5  5.8037 7.19245   1
   1  -4  -5 5.75947  2.5018   1
   1   4  -5-2.63702 1.51347   1
  -1  -4   5 5.97444 3.17873   1
  -1  -4   5 8.35099 3.54129   1
   1  -4  -5 10.9804 2.50577   1
   1  -4  -5 4.35842 5.44814   1
  -1  -4   5  10.246 3.45601   1
  -1   4   5 3.95402 2.66979   1
  -1   4   5 3.24015 2.55717   1
  -1   4   5 8.11684  2.8004   1
   1   4  -5 4.29205  3.4958   1
   1   4  -5 14.9859 4.08285   1
  -1  -4   6 210.103 13.6006   1
   1  -4  -6 191.782 11.0939   1
   1  -4  -6  211.35 15.8911   1
  -1  -4   6 216.588 13.3286   1
  -1  -4   6 202.548 12.9632   1
   1   4  -6 199.605 10.3688   1
  -1   4   6 216.809   11.63   1
   1   4  -6 220.905 19.7299   1
  -1   4   6 211.908 11.6497   1
   1   4  -6 209.798 13.3023   1
   1   4  -6 220.577  13.842   1
   1  -4  -6 215.344 10.6599   1
   1   4  -7 220.773 14.4201   1
  -1   4   7 222.399  12.236   1
   1  -4  -7 233.738 11.4985   1
   1  -4  -7 233.602 16.9533   1
  -1  -4   7 221.674 14.2538   1
   1   4  -7 229.679 14.0724   1
   1   4  -7 230.853 21.5997   1
  -1   4   7 213.084 12.0302   1
   1  -4  -7 198.615 11.1845   1
  -1  -4   7 220.629 14.0542   1
  -1  -4   7 233.142 14.6058   1
   1   4  -8 210.677 21.4718   1
   1  -4  -8 176.903 14.9476   1
  -1  -4   8 185.942 13.3541   1
  -1  -4   8 181.958 14.8403   1
   1  -4  -8 174.461  8.4976   1
  -1   4   8 183.585  11.494   1
   1   4  -8 171.348 12.3506   1
   1   4  -8 188.357 13.2157   1
  -1   4   8 170.621 10.6417   1
  -1   4   8 175.973 10.5489   1
   1  -4  -9 14.5404  7.4654   1
  -1  -4   9 11.5379 5.70473   1
  -1   4   9 12.0463 3.72671   1
  -1   4   9 15.0077 4.32572   1
   1   4  -9  9.7611 4.66069   1
   1   4  -9 15.2327 5.70869   1
   1   4  -9 11.0043  11.581   1
  -1  -4  10 13.9597  6.3473   1
   1  -4 -10 16.7085 8.12306   1
   1   4 -10 10.8732 5.93105   1
   1   4 -10  35.365 14.4171   1
  -1   4  10 10.0376  3.9234   1
   1  -4 -11 45.1239 10.3813   1
  -1   4  11 28.1209 5.29706   1
   1   4 -11 53.6021 16.2413   1
  -1  -4  11 35.9328 8.16654   1
   1  -4 -11 44.2065 8.32191   1
   1  -4 -12-3.06747 7.94552   1
   1  -4 -12 0.86433 6.52188   1
   1   4 -12 2.38778 14.5464   1
  -1   4  12  1.3278 4.60143   1
  -1   5   1 63.9809 7.10149   1
  -1   5   1  67.429 7.46709   1
  -1  -5   1 63.7541 7.04554   1
   1  -5  -1 54.0814 6.57501   1
   1  -5  -1 68.7522 11.8027   1
  -1  -5   1 53.1172 10.8015   1
  -1  -5   1 62.7447 7.08368   1
   1  -5  -1 74.8928 6.88602   1
  -1  -5   1 52.9508 7.12025   1
  -1   5   1 47.5755  9.1635   1
   1   5  -1 76.6985 11.9114   1
   1   5  -1 70.2948 7.76876   1
   1   5  -1 65.5706 7.22722   1
  -1   5   1 54.2729 6.75035   1
   1   5  -1 57.2482 6.85223   1
  -1  -5   2 7.93781  3.7116   1
   1  -5  -2 3.67124   3.016   1
  -1  -5   2  5.6762 3.78512   1
   1  -5  -2 6.67977  7.1751   1
  -1  -5   2  9.3785 7.30982   1
   1  -5  -2 4.00984 2.55291   1
  -1  -5   2 5.67839 3.02693   1
  -1   5   2 5.78943 3.30344   1
   1   5  -2 4.74486 3.62115   1
  -1   5   2 3.95501 3.17938   1
  -1   5   2  6.3571 5.61532   1
   1   5  -2 3.17827 3.25331   1
  -1   5   2 9.08084 3.60943   1
   1   5  -2 13.8181 6.84631   1
   1  -5  -3 153.567 15.6458   1
  -1  -5   3 166.758 11.6634   1
  -1   5   3 151.628 14.0957   1
  -1   5   3 141.999 10.5266   1
   1  -5  -3 150.237 10.4853   1
  -1   5   3 143.497 10.5323   1
   1   5  -3 149.318 15.7834   1
  -1   5   3 156.852 10.6287   1
   1   5  -3 159.411 10.7506   1
   1   5  -3 143.828 11.3644   1
  -1  -5   3 154.393  16.738   1
   1  -5  -3 158.459 8.63778   1
  -1  -5   3 142.205 11.1371   1
  -1  -5   3 158.059 11.5488   1
   1  -5  -4 287.339 21.3571   1
   1  -5  -4 280.439 16.1333   1
  -1  -5   4 314.934 17.8649   1
  -1  -5   4 308.129  17.468   1
  -1  -5   4 298.689 17.5316   1
   1   5  -4 323.638 24.1773   1
  -1   5   4 318.659 17.0832   1
  -1   5   4 293.649 16.8833   1
   1   5  -4 308.972 16.6427   1
  -1   5   4 290.442 16.7589   1
  -1   5   5 20.9703 4.67187   1
   1   5  -5 26.1695 4.41175   1
  -1   5   5 22.3334 4.64242   1
   1  -5  -5 20.8026 8.07327   1
  -1  -5   5 23.4296 5.75473   1
  -1  -5   5 21.3773 5.14174   1
   1  -5  -5 25.5596 4.41892   1
   1  -5  -5 26.3504  3.9727   1
  -1  -5   5 19.8183 5.15194   1
   1   5  -5 28.2714 10.5842   1
   1   5  -5 17.8259 5.16561   1
   1   5  -5 23.0131 5.38516   1
  -1  -5   6  219.26 15.0182   1
   1  -5  -6 205.876 18.0438   1
   1  -5  -6  200.04 11.4604   1
  -1   5   6 227.376 13.4457   1
   1   5  -6 223.494 15.0789   1
   1   5  -6 224.208 14.6385   1
  -1  -5   6  213.32  14.551   1
  -1  -5   6 194.819 14.1402   1
  -1   5   6 209.414 13.1879   1
   1  -5  -6 205.679  12.223   1
   1   5  -6 233.636 22.7437   1
   1   5  -6 195.076 11.7398   1
   1   5  -7 49.6496 7.51633   1
   1  -5  -7 57.2981 11.6463   1
   1  -5  -7 40.0421 5.24396   1
  -1  -5   7  50.206 8.05833   1
   1   5  -7 44.0733 7.69102   1
   1   5  -7 56.9627 15.5944   1
  -1   5   7 57.4138 6.77431   1
   1  -5  -8 245.146  20.251   1
  -1  -5   8 241.098 17.6213   1
   1  -5  -8 234.844 12.6825   1
   1   5  -8 246.075 16.4256   1
   1   5  -8 282.246 27.4749   1
  -1   5   8 220.895 14.4076   1
   1   5  -9 42.4568 7.61682   1
   1   5  -9 72.1169 18.0876   1
   1  -5  -9 61.4929 12.8397   1
  -1   5   9 41.7381 6.21299   1
  -1  -5   9 60.3842  9.9261   1
   1  -5 -10 24.6815 10.8111   1
  -1  -5  10 22.6826 8.09969   1
  -1   5  10 31.4061 6.09643   1
   1   5 -10 53.8161 17.7159   1
   1  -5 -11  31.328 8.44075   1
   1   5 -11 28.5239 17.6544   1
  -1   5  11 47.6788 7.41792   1
  -1  -6   1 31.6047 10.0301   1
   1  -6  -1 39.2317 6.15831   1
   1  -6  -1 39.1679 5.68547   1
   1  -6  -1 33.8566 10.9803   1
  -1  -6   1 36.2424 6.28507   1
  -1  -6   1 29.8844 5.85122   1
   1   6  -1 43.3875 10.6509   1
   1   6  -1 30.0798 5.81892   1
  -1   6   1 35.8108  9.2344   1
  -1   6   1 31.6954 6.23154   1
  -1   6   1 31.1959 6.12645   1
   1   6  -1 34.2592 6.45323   1
  -1   6   1 28.4932 5.71706   1
  -1  -6   2 74.3514 9.14579   1
   1  -6  -2  64.247 6.68554   1
   1  -6  -2 70.2601  13.796   1
  -1  -6   2 52.5216 11.8254   1
  -1  -6   2   62.02 8.11592   1
   1  -6  -2 65.3763  7.8635   1
   1   6  -2 63.1265  12.265   1
  -1   6   2 63.2113 8.16474   1
  -1   6   2 83.5423 13.1232   1
   1   6  -2 85.3629 9.56632   1
   1   6  -2 65.0286 8.47352   1
  -1   6   2 65.1534 8.40592   1
  -1   6   2 75.4003  8.6762   1
  -1  -6   3 3.10099 4.19638   1
  -1  -6   3 4.63204 3.86988   1
   1  -6  -3    5.22 7.96721   1
   1  -6  -3 1.93549 2.70659   1
  -1  -6   3 2.46377  8.6954   1
   1  -6  -3  2.9341 3.57838   1
  -1   6   3  8.5262 4.51728   1
   1   6  -3  4.3797 3.83257   1
   1   6  -3 5.89532 4.45826   1
  -1   6   3 5.75849 4.10745   1
  -1   6   3 8.93367 4.13837   1
   1   6  -3 3.34104 7.67837   1
   1   6  -4 205.984 21.6062   1
   1   6  -4 215.108 13.9374   1
  -1   6   4 232.555 14.8757   1
   1  -6  -4 206.938 13.6302   1
   1  -6  -4  202.63 20.1373   1
  -1  -6   4 200.425 14.7923   1
  -1  -6   4 213.905 15.1478   1
   1   6  -4 246.549 16.3286   1
  -1   6   4 186.327 14.2435   1
   1   6  -5 3.33081 8.86849   1
   1  -6  -5 4.52363 7.97115   1
  -1  -6   5 1.09058 4.71651   1
  -1   6   5 2.99727 4.18978   1
   1   6  -5 0.31203 3.20303   1
   1   6  -5-1.80418 4.18004   1
   1   6  -5-6.89506 4.57454   1
  -1  -6   5 0.60393 3.88419   1
   1  -6  -5-1.13106 3.19166   1
   1  -6  -6 107.816 16.8813   1
  -1  -6   6 128.066 13.2777   1
  -1   6   6 110.661 10.9163   1
   1   6  -6 149.862  21.766   1
   1   6  -6  123.11 12.2561   1
   1  -6  -6 109.313 9.64125   1
  -1  -6   7 76.9489 10.8526   1
   1   6  -7 117.721 20.6548   1
  -1   6   7 83.4968 9.49521   1
   1  -6  -7 76.8831 7.80911   1
   1  -6  -7 83.2129 15.7296   1
   1   6  -7 73.2149 10.1255   1
   1   6  -8 370.122 32.3266   1
  -1   6   8 314.335 19.6932   1
   1   6  -8 325.374 21.4282   1
   1  -6  -8 256.254 24.0459   1
  -1  -6   8 325.953 21.4826   1
   1  -6  -8 320.282 19.1607   1
  -1   6   9 124.727 12.3479   1
  -1  -6   9 97.4334  13.179   1
   1  -6  -9 107.276 17.7819   1
   1   6  -9 152.767 26.6139   1
   1  -6 -10 69.8048 15.9554   1
  -1   6  10 68.8027 9.91621   1
  -1  -7   1 35.9671 7.50156   1
   1  -7  -1 39.8679 6.26678   1
   1  -7  -1 50.4848  17.708   1
   1  -7  -1 33.6166 7.10199   1
  -1  -7   1 43.4808 7.39457   1
   1   7  -1  56.795 8.88914   1
   1   7  -1 42.8412 7.81865   1
  -1   7   1 40.1446  7.3873   1
  -1   7   1  31.985 6.81796   1
   1   7  -2 204.178 17.5796   1
  -1  -7   2 199.842 15.2295   1
   1  -7  -2 187.034 14.3846   1
  -1   7   2 193.183 15.5296   1
   1   7  -2  227.06 15.5651   1
  -1   7   2 200.456 15.3283   1
  -1  -7   2  181.65 14.5567   1
  -1  -7   3 60.5261 9.15956   1
   1  -7  -3 62.1246 8.58487   1
   1  -7  -3 63.7701 14.9199   1
  -1  -7   3 71.8553 9.69083   1
  -1   7   3 72.0819 13.3769   1
   1   7  -3 73.1117 9.77869   1
  -1   7   3 64.4659 9.65722   1
  -1  -7   4 150.262  13.528   1
   1  -7  -4 128.709 18.5431   1
   1  -7  -4 122.607 11.8556   1
  -1   7   4  165.41  13.716   1
   1   7  -4  133.83 11.9578   1
   1  -7  -5 39.9002 7.21223   1
  -1  -7   5 47.9191 8.87491   1
   1   7  -5  53.909 9.59382   1
   1  -7  -5  36.022 12.7694   1
  -1   7   5 50.7594 8.59316   1
   1   7  -6 10.3293 6.64028   1
   1  -7  -6 13.4269 12.4622   1
   1  -7  -6 14.7564  5.5806   1
  -1  -7   6 17.9638 7.04398   1
  -1   7   6 12.1357  6.3756   1
  -1  -7   7 33.1165 8.80115   1
   1  -7  -7 35.7008 15.0617   1
  -1   7   7 24.7832 7.41407   1
   1   7  -7 21.4169 7.79782   1
   1   7  -8 101.193 14.1201   1
  -1   7   8 98.0065 12.0519   1
  -1  -7   8 82.7033 12.6416   1
   1  -7  -8 83.8488 18.0803   1
   1  -7  -9 18.4046 14.6794   1
   1   8  -1 217.059 17.1792   1
  -1  -8   1 189.907 16.8336   1
   1  -8  -1 207.045 16.7592   1
  -1  -8   1 211.782   16.49   1
  -1   8   1 195.616 16.7989   1
  -1  -8   2 91.7646 11.7481   1
   1  -8  -2 80.0553 11.1671   1
  -1   8   2  53.751 9.53461   1
   1   8  -2 73.7975 10.8931   1
  -1  -8   3 14.7785  6.8932   1
   1  -8  -3 8.75778  6.2479   1
  -1   8   3 7.33092 6.54141   1
   1   8  -3 10.2677 6.17998   1
   1  -8  -4 43.1201 8.27084   1
  -1  -8   4 29.1143 7.98821   1
  -1   8   4 42.3981 9.69775   1
   1   8  -4 48.2325 10.3636   1
  -1  -8   5 83.0595 11.7272   1
   1  -8  -5  71.261 10.3744   1
   1   8  -5 79.8435 12.2751   1
  -1   8   5 76.3831 11.8681   1
  -1  -8   6 1.22074 7.87816   1
  -1   8   6-3.02889  6.8645   1
   1   8  -6 12.5977  8.2383   1
  -1  -8   7  5.0494 8.91951   1
   1   8  -7 9.78226 8.96045   1
   1   9  -1 27.1783 8.93703   1
   1  -9  -1 19.7924 8.16138   1
  -1   9   1 15.3659 8.08116   1
   1  -9  -2 13.7591 7.97265   1
  -1   9   2 11.4524 7.84164   1
   1  -9  -3 20.5639 8.56167   1
  -1   9   3 56.2847 11.7801   1
  -1  -9   4 8.66462 10.1302   1
  -1   9   4 6.54202 8.33552   1
  -1  -9   5 41.0075 11.5637   1
  -1  -9   6 3.10414 10.0624   1
  -1  10   1 15.5015  10.489   1
   0   0  -1  257.08 10.7865   1
   0   0  -1 238.888 10.7952   1
   0   0   2 3417.77 145.763   1
   0   0  -2 3678.77 146.739   1
   0   0  -2 3480.91 145.708   1
   0   0   2 3580.63 145.783   1
   0   0  -2 3340.38 145.741   1
   0   0  -3 1182.98 49.5393   1
   0   0  -3 1147.95 49.6144   1
   0   0  -3 1171.27 50.8505   1
   0   0   3 1203.49 49.6819   1
   0   0   4 737.889 34.8192   1
   0   0   4 813.356 34.2762   1
   0   0  -4  800.15 34.0537   1
   0   0  -4 773.017 34.1413   1
   0   0  -4 858.625 35.9405   1
   0   0   5 1404.49 57.6586   1
   0   0  -5 1339.39 57.1952   1
   0   0  -5 1510.86 60.1115   1
   0   0   5 1256.28 58.2746   1
   0   0   5 1249.76 56.3147   1
   0   0  -5 1360.47 57.3596   1
   0   0   6 117.264 6.75057   1
   0   0   6 113.908 5.89093   1
   0   0  -6 111.931 6.29254   1
   0   0   6 123.469 6.09735   1
   0   0   6 113.206 7.37118   1
   0   0  -6 117.874 6.59066   1
   0   0  -6 125.585  9.6126   1
   0   0  -7 17.1508 2.61791   1
   0   0  -7 19.1543 2.52625   1
   0   0   7 15.4549 2.71634   1
   0   0   7 17.7496 2.40337   1
   0   0   7 19.8017 2.58186   1
   0   0  -7 12.3644 4.94514   1
   0   0   7 19.2798 3.51282   1
   0   0   8 816.204 35.7493   1
   0   0   8 815.171 34.0845   1
   0   0  -8 794.528 33.5694   1
   0   0   8 726.601 33.6419   1
   0   0  -8 738.562 38.2657   1
   0   0  -8 754.502 33.3548   1
   0   0   9 239.143 12.2343   1
   0   0  -9 236.501 10.8574   1
   0   0  -9 214.919 10.8012   1
   0   0  -9 218.833 17.2066   1
   0   0   9 263.032 12.7298   1
   0   0   9 255.488 14.0182   1
   0   0  10 119.521 9.26777   1
   0   0  10 91.7061 7.59463   1
   0   0 -10 86.9473 12.4689   1
   0   0 -11   51.55 9.86301   1
   0   0  11 58.2196 6.31624   1
   0   0 -11 22.1658 9.55549   1
   0   0  11 42.7684 7.14162   1
   0   0 -12 14.2438  9.2421   1
   0   0 -12 25.4547 9.27141   1
   0   0  12 23.8779 5.54815   1
   0  -1   0-2.53449 0.90457   1
   0  -1   0-3.17887 0.85923   1
   0   1   0-1.59631 0.96562   1
   0   1   0-1.61454 1.60623   1
   0   1   0-1.77115 0.87155   1
   0   1   0-2.64301 0.99524   1
   0  -1   1 852.842 37.9449   1
   0  -1  -1 943.537  36.473   1
   0  -1  -1 895.555 36.1004   1
   0  -1  -1 851.608  37.416   1
   0  -1  -1 776.685 35.9936   1
   0  -1  -1 926.215 35.9803   1
   0  -1   1 814.485 36.6165   1
   0  -1   1 797.483 36.4213   1
   0  -1   1 856.198 36.4037   1
   0   1   1 893.955 35.6275   1
   0   1   1 823.166 35.8761   1
   0   1   1 797.089 35.5642   1
   0   1  -1 870.942 35.8736   1
   0   1  -1 823.242 35.9241   1
   0   1  -1 883.258 37.5837   1
   0   1   1 825.355 36.7599   1
   0   1  -2 51.3748  3.8864   1
   0  -1   2 58.4604 6.03612   1
   0   1  -2 58.5381 4.14867   1
   0  -1  -2 53.9636   3.665   1
   0  -1   2 56.6075 3.98827   1
   0  -1   2 56.7899 4.04549   1
   0  -1  -2 63.6709 3.58887   1
   0  -1   2 56.2481   3.646   1
   0   1  -2 57.0613  6.0631   1
   0   1   2  55.301  3.4399   1
   0   1  -2 60.1551 3.61974   1
   0   1   2 53.9778 3.45867   1
   0  -1  -2 73.5804  5.0288   1
   0  -1   3 39.5512 3.39451   1
   0  -1   3 37.8243  3.3585   1
   0  -1  -3 32.8976   2.852   1
   0  -1   3 36.9612 2.83815   1
   0  -1  -3 42.1816 3.07558   1
   0  -1   3 47.4195 5.72648   1
   0  -1   3 36.9761 3.43257   1
   0   1   3 41.9161 3.13027   1
   0   1  -3 34.6828 3.25038   1
   0   1  -3 40.1172   3.787   1
   0   1   3 40.6796 2.91137   1
   0   1  -3 41.4827 5.82779   1
   0  -1   4 442.333 18.9589   1
   0  -1   4 414.937 19.5526   1
   0  -1  -4 439.904 20.4329   1
   0  -1  -4  428.67 18.8612   1
   0  -1   4 413.208  19.205   1
   0  -1   4 417.123 19.6413   1
   0  -1   4 454.176 21.1374   1
   0   1   4 439.414 19.1594   1
   0   1  -4 417.301 19.8466   1
   0   1  -4 416.369 19.5941   1
   0   1   4 440.941 19.6063   1
   0   1  -4 463.546 22.7821   1
   0  -1  -5 37.9519 4.63997   1
   0   1   5 37.0954 3.01324   1
   0  -1   5 34.5298 3.58821   1
   0  -1   5 35.9784 3.78377   1
   0  -1  -5  37.708 3.03363   1
   0  -1   5 35.6868 3.11603   1
   0  -1   5 33.7821 4.96496   1
   0  -1   5 38.3103 3.68067   1
   0  -1  -5 38.8678 3.08907   1
   0   1  -5  28.492  5.6407   1
   0   1   5  36.709   3.494   1
   0   1  -5 36.5917 3.42332   1
   0   1  -5 31.1084  3.5297   1
   0   1   6 18.2226 2.51733   1
   0  -1   6 17.8928 2.83534   1
   0  -1  -6 14.9079 2.11774   1
   0   1   6 21.9419 3.28711   1
   0   1  -6 21.9184 5.64031   1
   0  -1   6 16.7268 2.85346   1
   0  -1   6 19.5171 2.98471   1
   0  -1   6 24.7371 2.86432   1
   0  -1  -6 21.4855 2.28457   1
   0  -1  -6 18.5208 3.86825   1
   0  -1  -6  24.956 4.23897   1
   0   1  -6 25.8386 3.36056   1
   0   1  -6 22.9756 2.99865   1
   0   1   7 48.6192 5.08348   1
   0  -1   7 32.6625 4.20375   1
   0  -1  -7 40.1775 5.81592   1
   0  -1  -7 40.8389 3.16577   1
   0  -1  -7 42.4937  3.1871   1
   0  -1  -7 27.2175 5.11333   1
   0  -1   7 37.1486 4.19542   1
   0   1   7 39.9041 3.85845   1
   0   1  -7 48.9027  4.9689   1
   0   1  -7 34.6652 7.77564   1
   0   1  -7 44.8063 4.21926   1
   0   1   7 46.7703 3.37905   1
   0  -1   7 47.5058 4.02092   1
   0   1   7 38.8534 3.26921   1
   0  -1   8 446.611 19.9079   1
   0  -1   8 407.869 20.8546   1
   0   1   8 406.314 17.9778   1
   0  -1  -8 408.367 22.0358   1
   0  -1   8 385.974 19.0486   1
   0  -1  -8 390.962  22.166   1
   0   1  -8 375.643 18.5213   1
   0   1  -8 432.672 19.1353   1
   0   1   8 400.614 17.9051   1
   0   1   8 411.665 19.6377   1
   0   1  -8 326.072 23.6458   1
   0   1   9  53.578 4.93223   1
   0  -1   9 53.8489 5.82991   1
   0   1  -9 31.9827 9.56761   1
   0   1  -9 41.8042  4.3712   1
   0   1   9 40.6743 5.68097   1
   0   1   9 48.0256  4.6898   1
   0   1  -9 53.7013 5.08002   1
   0  -1   9 58.7675  5.7712   1
   0  -1   9 42.0509 6.20735   1
   0  -1  -9 40.5701 8.11866   1
   0  -1  -9  62.753 8.81284   1
   0   1 -10 6.20556 3.15489   1
   0  -1 -10 5.74338  6.2037   1
   0  -1  10 9.65061 4.77144   1
   0  -1  10 8.22793 4.05529   1
   0  -1 -10 0.61088 6.27463   1
   0   1 -10 1.06659 7.34305   1
   0   1  10 10.1433 4.97807   1
   0   1  10 7.65756  3.1118   1
   0   1  10 9.55145 4.46281   1
   0   1 -10 9.80416 2.93178   1
   0  -1  11 2.88263 4.69923   1
   0  -1 -11 10.3672 7.21152   1
   0   1 -11 15.7238 8.86096   1
   0   1  11   10.74 4.00937   1
   0   1  11   4.417  4.9595   1
   0  -1 -11 3.65051 6.96599   1
   0  -1  11 10.7842 4.73978   1
   0  -1 -12 62.5408 11.0829   1
   0  -1 -12 25.5628 10.3675   1
   0  -1  12 52.4359 7.51282   1
   0  -1  12 59.1058 9.06837   1
   0   1  12 63.6295 7.08545   1
   0   1 -12 36.6372 12.4859   1
   0  -2   0 2611.19 107.387   1
   0  -2   0 2468.10 107.591   1
   0  -2   0 2562.20 107.199   1
   0   2   0 2475.29 110.683   1
   0   2   0 2494.23 111.015   1
   0   2   0 2870.51 110.871   1
   0   2   0 2691.31 113.573   1
   0  -2  -1 551.178 24.8427   1
   0   2   1  581.84 27.5166   1
   0  -2   1 612.228 28.3602   1
   0  -2   1 572.215 25.6186   1
   0  -2   1 555.746 25.4023   1
   0  -2  -1 533.085  25.322   1
   0  -2   1 597.733 25.5207   1
   0  -2  -1 567.281  24.929   1
   0   2  -1 571.771 25.7899   1
   0   2  -1 630.924 28.7182   1
   0   2   1 553.376 25.2441   1
   0   2   1 547.134 25.3934   1
   0   2  -1 561.519 25.5039   1
   0  -2  -1 570.285 27.6197   1
   0   2  -1 589.269  25.521   1
   0   2   1 544.585 25.1822   1
   0  -2  -2 120.448 5.66954   1
   0  -2  -2 123.085 9.03066   1
   0  -2   2 131.256 10.2506   1
   0  -2  -2 114.482 6.87727   1
   0  -2  -2 122.264  5.8426   1
   0  -2  -2 143.978 5.84982   1
   0  -2   2 120.743 7.06782   1
   0  -2   2 118.152 7.37869   1
   0  -2  -2 120.971 5.86491   1
   0  -2   2 116.585 7.30811   1
   0   2  -2 135.907 7.44958   1
   0   2   2 123.421 6.71102   1
   0   2  -2  139.18 7.19327   1
   0   2   2  131.11 8.77169   1
   0   2  -2 125.803 10.3217   1
   0   2  -2 121.392 7.49802   1
   0   2   2 117.227 6.74856   1
   0   2   2 131.107 7.15337   1
   0  -2  -3  455.61 22.2319   1
   0  -2   3 399.767  20.397   1
   0  -2   3 444.921 20.1194   1
   0  -2   3 465.122 23.5881   1
   0  -2  -3 447.073 19.7147   1
   0  -2   3 435.187 20.4173   1
   0  -2  -3 435.589 19.8169   1
   0   2   3 427.833  19.212   1
   0   2   3 462.315 20.5639   1
   0   2  -3 420.801 19.7871   1
   0   2   3 408.348 18.5766   1
   0   2  -3 432.414 20.0634   1
   0   2   3 423.188 18.9665   1
   0   2  -3  432.36 19.3091   1
   0   2   3 388.905 18.6251   1
   0   2  -3 400.963 18.7689   1
   0   2  -3 442.779 23.2177   1
   0  -2  -4 1529.87  70.364   1
   0  -2   4 1671.13 72.0882   1
   0  -2   4 1494.45 69.1394   1
   0  -2   4 1643.22 68.7255   1
   0  -2   4 1561.75 68.9624   1
   0  -2  -4 1705.06 68.7679   1
   0  -2  -4 1673.52 68.3779   1
   0   2  -4 1571.68 65.7673   1
   0   2  -4 1504.29 67.2728   1
   0   2  -4 1669.38 71.3786   1
   0   2   4 1556.25  66.514   1
   0   2  -4 1561.30 67.5404   1
   0   2  -4 1699.02 66.1537   1
   0   2   4 1460.63  65.744   1
   0   2   4 1527.43 65.8257   1
   0   2   4 1533.10 67.1567   1
   0   2   4 1570.71 65.7361   1
   0   2   5 23.2813 3.01934   1
   0   2  -5 16.8076 3.02061   1
   0   2  -5 18.9638 6.37647   1
   0   2   5 18.7388 2.02816   1
   0  -2  -5 15.1511 2.34279   1
   0  -2  -5 16.7079 2.66306   1
   0   2   5 18.5281 2.59567   1
   0  -2   5 16.8765 5.39373   1
   0  -2   5 20.5021 2.97673   1
   0  -2   5 17.0541 3.07437   1
   0  -2  -5  19.243 4.39066   1
   0  -2   5 15.0703 3.07884   1
   0   2   5 18.8272   2.067   1
   0   2  -5 15.3301 3.34247   1
   0  -2  -6 116.211 9.53059   1
   0  -2   6 120.765 8.03151   1
   0  -2   6 108.065 7.67515   1
   0  -2   6 111.384 7.18579   1
   0   2  -6 120.423 8.09268   1
   0   2   6 106.258 5.71494   1
   0   2   6 110.967  6.9854   1
   0   2   6 103.401 6.46641   1
   0   2  -6 113.329 12.2784   1
   0   2  -6 112.012  7.4035   1
   0   2   6 107.514  5.8643   1
   0  -2  -6 122.272 6.51584   1
   0  -2  -7 46.0514 7.18835   1
   0  -2   7 42.9246 5.29244   1
   0  -2  -7 40.3439 6.09481   1
   0  -2  -7   41.02 3.52299   1
   0  -2   7 42.3975  4.9674   1
   0   2   7 42.2537 4.12729   1
   0   2  -7 40.3648 4.70891   1
   0   2  -7 44.5645 5.42284   1
   0   2  -7  48.865  9.5368   1
   0  -2  -7  47.451 3.58764   1
   0   2   7 42.9353 4.94608   1
   0   2   7 44.0904 3.69983   1
   0   2   7 44.9965 3.94268   1
   0   2  -8 337.213 23.0324   1
   0  -2   8 331.353 16.9455   1
   0   2   8 309.636  16.177   1
   0  -2   8 302.423 16.4602   1
   0  -2  -8 322.165 18.8608   1
   0  -2  -8 314.723 18.0354   1
   0  -2   8 294.003 15.8989   1
   0   2  -8 336.344 16.9264   1
   0   2   8 298.137 14.6939   1
   0   2   8 312.308 15.0523   1
   0   2   8 316.233  15.318   1
   0   2  -8 298.114 16.0632   1
   0  -2  -9 106.468 10.8311   1
   0  -2   9 135.883 9.78703   1
   0   2   9 120.144 7.58308   1
   0   2  -9 131.258 16.2869   1
   0   2   9 114.326 8.05203   1
   0   2   9 118.033 8.95151   1
   0  -2  -9 124.428 11.6682   1
   0   2  -9 109.501 9.21373   1
   0   2   9 140.354 9.11417   1
   0   2  -9 125.039 8.51865   1
   0   2  10-1.46869 2.59034   1
   0  -2 -10-1.60793 4.73884   1
   0  -2 -10 4.62274 6.03029   1
   0   2 -10-0.99068 3.11592   1
   0   2  10-0.34636 3.76494   1
   0   2  10-2.01419 4.08763   1
   0   2 -10 0.48887 4.03246   1
   0  -2  10-4.10322 3.94622   1
   0   2 -10-6.18711 8.09312   1
   0  -2  10 4.82107 4.48716   1
   0   2 -11 31.3536 5.43194   1
   0  -2  11 27.1724 6.56382   1
   0  -2 -11 22.7865 8.68905   1
   0  -2 -11  37.564 8.97354   1
   0   2  11 32.3614 4.81977   1
   0   2 -11 32.6558 11.7441   1
   0  -2  11 25.8026 6.15718   1
   0  -2  12 48.4834 9.09138   1
   0   2 -12 37.5179 13.1663   1
   0  -2 -12 41.5573 10.0214   1
   0  -2  12 45.6904 8.61476   1
   0   2  12 48.1031 6.37018   1
   0  -3   0 0.08945 1.83369   1
   0  -3   0-1.77344 2.93314   1
   0  -3   0 1.79988 1.93129   1
   0  -3   0 0.68068 1.93977   1
   0   3   0 2.96916 2.24434   1
   0   3   0-0.32892 3.29758   1
   0   3   0-2.09148 1.86125   1
   0   3   0-2.10924  1.8236   1
   0   3   1 57.1408 5.11955   1
   0   3   1 57.9148 5.41016   1
   0  -3  -1 54.5477 8.11875   1
   0  -3   1 56.3804 5.19513   1
   0  -3  -1 53.7574 4.73797   1
   0  -3   1 65.6167 8.69537   1
   0  -3   1 60.8459 5.46804   1
   0  -3  -1 56.3955 4.81477   1
   0  -3   1 54.3869 5.27515   1
   0  -3  -1 53.4192 5.10188   1
   0   3  -1  58.482 5.60902   1
   0   3   1  56.428 5.20484   1
   0   3  -1 52.9779 5.37149   1
   0   3  -1 61.5883 5.37376   1
   0   3   1  63.668 7.85886   1
   0  -3   2 189.587 14.2475   1
   0  -3  -2 160.649 9.21717   1
   0  -3  -2 174.963 8.86883   1
   0  -3  -2 190.217   13.35   1
   0  -3   2 174.969 10.0594   1
   0  -3   2 155.539 9.99574   1
   0  -3  -2 174.169 9.85946   1
   0  -3   2 175.759 10.2944   1
   0   3   2 166.466 9.71361   1
   0   3  -2 185.546 10.6952   1
   0   3  -2 184.385 14.4395   1
   0   3   2 163.485 9.87468   1
   0   3   2 188.845 13.1556   1
   0   3  -2 178.998 9.94773   1
   0   3   2 173.261 9.75104   1
   0   3  -2 182.015  10.254   1
   0  -3   3 317.413 15.8954   1
   0  -3   3 299.749 15.4645   1
   0  -3  -3 307.095 18.3593   1
   0  -3   3 313.698 19.4003   1
   0  -3   3 305.686 15.7462   1
   0  -3  -3 287.357 15.0767   1
   0   3   3 316.134 15.2499   1
   0   3  -3 323.594 15.7646   1
   0   3  -3 328.146 15.4332   1
   0   3  -3 313.807 20.3191   1
   0   3   3 306.138  15.127   1
   0   3   3 296.207 15.4076   1
   0   3  -3 296.395 16.0494   1
   0   3   3 328.912 17.8254   1
   0   3  -4 16.2418 3.25466   1
   0   3  -4 29.4879 7.67939   1
   0  -3   4 20.8024 3.44508   1
   0  -3   4 16.5899 3.53985   1
   0  -3  -4  22.277  5.5198   1
   0  -3   4 15.3607 3.42716   1
   0  -3  -4 19.4146 3.02918   1
   0  -3   4 18.4985 6.65145   1
   0  -3  -4 11.7784 2.70949   1
   0   3   4 16.4603 2.94702   1
   0   3   4 12.4057 2.66214   1
   0   3  -4 15.0408 3.28308   1
   0   3   4 16.2267 4.32718   1
   0   3   4 23.3929 3.29399   1
   0   3  -4 17.2626 3.74981   1
   0   3  -4 26.0631 3.13648   1
   0  -3  -5 53.7998 4.78842   1
   0   3   5 50.3436  4.5881   1
   0   3   5 51.9457 5.13755   1
   0  -3   5 54.4409 5.17377   1
   0  -3  -5 49.2678 7.48204   1
   0  -3   5 45.9411 5.50034   1
   0  -3  -5 48.4164 4.51525   1
   0  -3   5 45.5557 8.59926   1
   0  -3   5  44.673 5.34411   1
   0   3  -5 52.1041 4.74886   1
   0   3  -5 49.3036 3.92926   1
   0   3   5 57.7726 4.93332   1
   0   3   5 48.2046 4.32467   1
   0   3  -5 57.3236 6.23624   1
   0   3  -5 55.4577 10.1129   1
   0   3  -5   47.31 5.61732   1
   0   3   6 11.8171    2.82   1
   0  -3   6 12.5635 3.70606   1
   0  -3   6 14.8063 4.03597   1
   0  -3   6  19.673 3.63364   1
   0  -3  -6 14.9202 2.92376   1
   0  -3  -6 15.9944 3.13524   1
   0  -3  -6 17.9041 6.22176   1
   0   3   6 19.7332    3.56   1
   0   3   6 15.0474 2.86347   1
   0   3  -6 14.8544 8.13043   1
   0   3  -6  17.666  4.4308   1
   0   3  -6 7.67658 3.14065   1
   0   3   6 12.2759 2.93448   1
   0  -3  -7 7.60044  2.4681   1
   0   3   7 6.75989 2.85699   1
   0   3  -7 7.92497 8.48194   1
   0   3  -7 11.7278 3.75364   1
   0   3   7 6.89663 2.56159   1
   0   3   7 11.6116  3.4443   1
   0  -3  -7 12.9005 6.36687   1
   0   3  -7 11.6204 4.24043   1
   0  -3   7 10.2194 3.56766   1
   0  -3  -7 6.57422 3.21231   1
   0  -3   7 10.4287 3.39908   1
   0  -3   7 7.81048 3.99324   1
   0  -3   8 103.955 8.99439   1
   0  -3  -8 94.5266 11.9848   1
   0  -3   8 108.699 9.38786   1
   0  -3   8 111.777 9.03132   1
   0  -3  -8 101.491 6.07721   1
   0   3   8 111.855  7.7117   1
   0   3  -8 117.033 9.81911   1
   0   3  -8 120.459 16.5904   1
   0   3   8 94.6864  8.1758   1
   0   3  -8 101.103 8.49982   1
   0   3   8  91.258 6.87134   1
   0  -3   9 115.186  10.414   1
   0  -3  -9 122.071 11.0394   1
   0  -3  -9  104.46 13.2724   1
   0   3   9 105.041 8.96662   1
   0   3  -9 106.392   10.06   1
   0   3   9 93.6614 7.35738   1
   0   3  -9 127.049 18.1397   1
   0   3  -9 102.227 8.87976   1
   0   3  10 109.207 8.55974   1
   0  -3  10 124.917 11.5015   1
   0  -3 -10 124.976  14.423   1
   0   3 -10 115.214 9.84381   1
   0   3 -10 121.463 11.1188   1
   0   3 -10 139.185 19.2872   1
   0   3 -10 140.812 19.5799   1
   0  -3 -10 123.727 12.4036   1
   0  -3  11 0.14911 5.43804   1
   0  -3  11 10.5486 6.52391   1
   0  -3 -11 3.22172 8.09317   1
   0   3 -11 5.69057 7.74694   1
   0  -3 -11 1.09337 6.40603   1
   0   3  11 5.50295 3.96422   1
   0   3 -11 3.45649 10.9671   1
   0   3  12 40.0439 6.19189   1
   0  -3 -12 53.0464 11.3952   1
   0  -3 -12 28.4051 9.36866   1
   0  -3  12 55.4924 9.57679   1
   0   3 -12 41.3168  15.193   1
   0  -4   0 658.515   30.09   1
   0  -4   0 609.779 34.0039   1
   0  -4   0 654.723 29.7437   1
   0   4   0 610.357 30.2584   1
   0   4   0 656.847 34.6586   1
   0   4   0 685.079 30.6749   1
   0   4   0 644.309 30.3692   1
   0  -4   0 618.209 29.3227   1
   0  -4   1 21.0386 4.11501   1
   0  -4  -1 20.8469 3.47542   1
   0  -4   1 17.7832 3.80595   1
   0  -4  -1 16.2063 6.20973   1
   0  -4   1 19.1465  3.9642   1
   0  -4  -1 17.3164 3.61975   1
   0  -4   1 28.5634 7.99718   1
   0  -4  -1 18.0418 3.66899   1
   0   4   1 16.5408 3.72471   1
   0   4  -1 18.1553 3.73931   1
   0   4   1 20.7802 4.09606   1
   0   4   1 18.4217 3.79895   1
   0   4  -1 21.4603 4.01106   1
   0   4   1 14.8829 5.36629   1
   0   4  -1 18.8156 6.63188   1
   0   4  -1 18.0944 3.78782   1
   0  -4   2 386.995 23.9555   1
   0  -4  -2 371.087 22.9587   1
   0  -4   2 380.599 19.3571   1
   0  -4  -2 357.821 17.6681   1
   0  -4  -2 368.691 18.8128   1
   0  -4  -2 368.101 17.5531   1
   0  -4   2  371.85  19.108   1
   0  -4   2 362.263 18.9311   1
   0   4   2 360.479 18.7221   1
   0   4  -2 369.557 19.0402   1
   0   4   2 345.543 18.6652   1
   0   4  -2 369.888   18.79   1
   0   4   2 371.904 18.7171   1
   0   4  -2 406.976 24.5115   1
   0   4  -2 368.177 19.4674   1
   0   4   2 386.161 22.4308   1
   0  -4   3 38.1817 7.33951   1
   0  -4  -3 53.2904 4.02957   1
   0  -4  -3 62.6644 9.65412   1
   0  -4   3 60.1477 6.22142   1
   0  -4  -3 54.2898 5.65719   1
   0  -4  -3 50.9346 3.97443   1
   0  -4   3 57.6951 6.51879   1
   0  -4   3 69.9373 6.94165   1
   0  -4  -3 41.8744 6.21751   1
   0   4  -3 63.9142 6.60164   1
   0   4  -3 70.0206 6.44581   1
   0   4   3 55.0807 5.99791   1
   0   4   3 57.0412 5.81436   1
   0   4   3 58.3592 6.23507   1
   0   4   3 60.9514 8.69944   1
   0   4  -3 59.3738 5.75599   1
   0   4  -3 84.4707 12.7602   1
   0   4  -3 63.6736 6.93617   1
   0   4  -4 27.7505 4.89213   1
   0  -4  -4 26.5371 6.84892   1
   0  -4   4 23.1198 4.76583   1
   0  -4  -4 28.2048 3.94818   1
   0  -4   4 18.9725 6.87769   1
   0  -4   4 19.0224 4.03054   1
   0  -4  -4 24.9746  3.9964   1
   0  -4   4 29.8941 4.83664   1
   0   4  -4 25.3865 3.79029   1
   0   4  -4 32.6704 9.00953   1
   0   4   4 20.8085 3.82524   1
   0   4   4  25.205 3.94476   1
   0   4   4 25.3234 4.00007   1
   0   4  -4 26.8653 4.59592   1
   0   4  -5  5.1165 2.43453   1
   0   4   5 5.62648 2.96489   1
   0  -4   5 13.5964  3.9755   1
   0  -4   5 15.2444 3.82527   1
   0  -4  -5 9.29857 3.10194   1
   0  -4   5 7.53804 7.38865   1
   0  -4  -5  16.398 3.40463   1
   0  -4  -5 9.13505 6.03321   1
   0  -4   5 10.5603 4.08793   1
   0   4  -5 11.7485  4.2079   1
   0   4  -5 14.7016 8.73771   1
   0   4  -5 8.94323    3.67   1
   0   4   5 6.88575 2.97846   1
   0   4   5 10.7819 3.13933   1
   0  -4   6 17.4001 4.05226   1
   0  -4  -6 15.9844 3.45829   1
   0  -4   6 6.99349 3.69441   1
   0  -4  -6 12.6443  6.4883   1
   0  -4   6 11.1504  4.6015   1
   0   4   6 8.69672 3.05816   1
   0   4  -6 21.7912 9.77198   1
   0   4  -6 12.0474 4.68647   1
   0   4   6  6.9714 3.21888   1
   0   4  -6 8.50554 4.04061   1
   0   4  -6 14.1849 2.64992   1
   0  -4  -6 13.9803 3.47516   1
   0  -4  -7 119.908 13.0794   1
   0   4   7 115.461 9.34969   1
   0  -4   7 123.201 10.9601   1
   0  -4  -7  114.89 8.30292   1
   0  -4   7 119.957 10.2963   1
   0  -4   7 109.643   9.689   1
   0  -4  -7 116.343 7.99634   1
   0   4  -7 119.163 10.7443   1
   0   4  -7 119.155 10.0721   1
   0   4   7 116.329 8.77956   1
   0   4   7 99.2287  8.1368   1
   0   4  -7 145.846 17.7266   1
   0  -4   8-4.54848 4.07285   1
   0  -4  -8  1.2203 2.74027   1
   0  -4  -8 3.89277 6.40627   1
   0   4  -8  1.5641 10.3227   1
   0   4  -8 5.29347  4.0671   1
   0   4  -8 2.56544  4.7539   1
   0   4   8-0.55962 2.75042   1
   0   4   8 1.49249   4.061   1
   0   4   9 7.32955 3.73107   1
   0  -4  -9 18.6281 2.71637   1
   0  -4   9 9.09186 5.67098   1
   0   4  -9 9.60761 12.0979   1
   0   4  -9 17.1573 5.39178   1
   0  -4  -9 15.7979 8.03246   1
   0   4  10 56.1613 7.10241   1
   0  -4  10 75.6347 9.55184   1
   0  -4 -10 66.2444 12.2717   1
   0  -4 -10 57.3649 9.64645   1
   0   4 -10 72.3709 16.5488   1
   0  -4 -11 38.4946 9.08161   1
   0   4  11 39.2188 6.63184   1
   0   4 -11 38.6146  15.329   1
   0  -5   0-3.84105 5.26168   1
   0  -5   0  -0.807 2.65582   1
   0   5   0 5.59696 5.03979   1
   0   5   0 2.07109  2.9631   1
   0   5   0-3.45368 2.53588   1
   0  -5   0 3.95211 2.89618   1
   0   5   0  2.7912 3.15029   1
   0  -5  -1 35.4354 5.26755   1
   0  -5   1 37.5248 8.83856   1
   0  -5  -1 39.2299 9.70816   1
   0  -5  -1 45.8481 5.34987   1
   0  -5   1 47.3348 6.50348   1
   0  -5   1 52.0273 6.40615   1
   0  -5   1 36.8369 5.70268   1
   0   5  -1 43.4528 6.23099   1
   0   5   1 43.1918 6.21731   1
   0   5  -1  40.203 6.07028   1
   0   5   1 42.2681 5.90385   1
   0   5   1 49.8443 9.58994   1
   0   5  -1 43.6194 9.46535   1
   0   5  -1 42.7335 5.92294   1
   0   5   1 36.2074   5.814   1
   0  -5   2 204.875 12.9373   1
   0  -5  -2 192.721 12.3347   1
   0  -5  -2 194.231 11.1626   1
   0  -5   2 192.913 12.6529   1
   0  -5   2 196.589 18.1485   1
   0  -5  -2  168.41 16.7151   1
   0  -5   2 199.837 12.9456   1
   0   5  -2 188.728 13.1241   1
   0   5  -2 193.212 12.4116   1
   0   5   2 209.255 16.9527   1
   0   5   2 194.406 12.5862   1
   0   5  -2 197.365 18.0864   1
   0   5   2 189.189 12.2775   1
   0   5   2 190.757 12.6135   1
   0  -5  -3 140.138 14.9392   1
   0  -5   3 126.526 10.2393   1
   0  -5   3 120.266 14.9954   1
   0  -5   3 131.245 10.3925   1
   0  -5  -3 134.973 9.76094   1
   0  -5  -3 123.271  9.5294   1
   0   5  -3 123.909 9.19054   1
   0   5  -3 125.803 10.2504   1
   0   5  -3 115.598 15.7149   1
   0   5   3 121.585 13.5634   1
   0   5   3 113.188 9.51161   1
   0   5   3 114.744 9.14876   1
   0   5   3 105.519 9.04287   1
   0   5  -3 145.477  10.899   1
   0  -5  -3 134.866 7.95134   1
   0  -5   3 134.141 10.5964   1
   0   5  -4 5.63624 3.90788   1
   0  -5  -4 5.51226 3.29584   1
   0  -5   4 6.15291 3.85439   1
   0  -5  -4 8.14363  6.9611   1
   0  -5   4 2.05173 3.86349   1
   0  -5   4  7.8883 3.95494   1
   0  -5   4 2.87865 5.82027   1
   0   5   4 4.32829 3.26388   1
   0   5   4 3.91022 3.20307   1
   0   5   4 7.22696 3.59158   1
   0   5  -4  5.5969 8.35039   1
   0   5  -4  7.5864 3.27783   1
   0   5  -4 5.43697 3.77637   1
   0   5  -5 43.6097 6.68619   1
   0   5  -5 28.1779 5.80088   1
   0   5  -5 25.8207 4.49627   1
   0  -5   5 32.4398 5.69849   1
   0  -5   5 29.6671 5.75344   1
   0  -5  -5 18.9507 5.56653   1
   0  -5  -5 23.0222 8.20536   1
   0  -5   5 28.2543 5.94992   1
   0  -5  -5 29.0704 4.88829   1
   0   5  -5 39.0104 11.6207   1
   0   5   5 28.5333  5.1166   1
   0   5   5 21.9444 4.82849   1
   0  -5  -6 154.947 10.3891   1
   0  -5   6 137.472 12.0625   1
   0  -5  -6 141.542 15.8111   1
   0  -5   6 154.066 12.6279   1
   0   5  -6 180.634 13.1348   1
   0   5   6 145.845 10.9253   1
   0   5  -6 152.834 11.8903   1
   0   5  -6 169.088 20.1915   1
   0   5  -6 117.134 9.00556   1
   0   5   6 141.169 10.6347   1
   0  -5   6 174.597 12.7247   1
   0  -5  -7 12.2232 8.15818   1
   0  -5   7 14.3837 6.00014   1
   0  -5  -7 12.6351 4.04807   1
   0   5   7  10.174 4.29418   1
   0   5  -7 27.9173 13.8737   1
   0   5  -7  4.8977 4.67372   1
   0   5  -8-4.49687 12.3056   1
   0  -5   8-0.52978 5.39558   1
   0  -5  -8 7.03799  8.6575   1
   0  -5  -8-2.28742  3.2954   1
   0   5   8 3.99789 4.00942   1
   0   5  -8 0.07445 5.03082   1
   0   5   9 6.44848 4.59055   1
   0  -5  -9 7.75884 9.28638   1
   0  -5   9 7.73339 6.92371   1
   0   5  -9 11.6139 14.8407   1
   0   5  -9 8.99013 5.39612   1
   0  -5 -10 57.7448 13.5504   1
   0   5 -10 72.4719  19.891   1
   0  -5 -10 30.6631 8.78584   1
   0  -5  10 58.7514   9.854   1
   0   5  10 45.2028 7.47892   1
   0   5 -11 24.2506 18.7345   1
   0  -5 -11 8.92752 7.65167   1
   0  -5 -11 22.1059 11.9332   1
   0   6   0 43.1433 9.74072   1
   0  -6   0 44.0806 11.0968   1
   0  -6   0 36.0689 6.08253   1
   0  -6   0 43.6847 6.65309   1
   0   6   0 45.5817 6.85464   1
   0   6   0 44.9256 6.84563   1
   0  -6   1 170.695 12.4695   1
   0  -6   1 165.391 12.0017   1
   0  -6  -1  165.62 12.1021   1
   0  -6  -1 155.746 17.9566   1
   0  -6  -1 138.263 10.7626   1
   0   6   1 150.378  16.179   1
   0   6   1 146.753 12.1004   1
   0   6  -1 174.893 13.0141   1
   0   6   1 175.545 12.6181   1
   0   6  -1 162.378 12.3666   1
   0   6  -1 150.208 17.0743   1
   0   6   1 165.139 12.5922   1
   0   6   2 227.513 15.1605   1
   0   6   2 223.527 15.0452   1
   0   6  -2 233.064 15.6765   1
   0   6  -2 228.884 14.9417   1
   0   6   2 234.051  20.125   1
   0   6  -2 229.054  20.839   1
   0   6   2 230.185 15.1327   1
   0  -6   2 241.214 15.3827   1
   0  -6  -2 223.958 12.9871   1
   0  -6  -2 207.179 20.5269   1
   0  -6   2 219.557 14.8235   1
   0  -6   2 215.248 21.4045   1
   0  -6  -2 216.134 14.5086   1
   0  -6  -3 365.417 18.2976   1
   0  -6   3 362.404 27.9301   1
   0  -6   3 405.191  21.689   1
   0  -6   3 364.524 21.4333   1
   0  -6  -3  379.54 20.9307   1
   0  -6  -3 349.616 27.0992   1
   0   6   3 373.066   20.78   1
   0   6   3 330.031 20.5934   1
   0   6  -3 397.593 20.5726   1
   0   6   3 294.049 28.2517   1
   0   6  -3 384.235 21.8194   1
   0   6  -3 395.485 29.0555   1
   0   6   3 395.053 21.1682   1
   0   6  -3 350.962 21.1951   1
   0   6  -4 500.003 26.4576   1
   0  -6  -4 465.586 31.1635   1
   0  -6  -4 445.368 23.7571   1
   0  -6  -4 421.637  19.454   1
   0  -6   4 467.348 25.1442   1
   0  -6   4 449.923 24.8727   1
   0   6   4 431.501 25.0447   1
   0   6  -4 508.739 34.6632   1
   0   6  -4  446.85 24.1736   1
   0   6   4 469.544 25.2386   1
   0   6  -4 474.029 25.9949   1
   0  -6  -5 176.723 12.7051   1
   0  -6  -5 184.558 19.7186   1
   0   6   5 191.097 13.8628   1
   0  -6   5 192.259 14.8979   1
   0  -6   5 172.243  14.529   1
   0   6  -5 177.554 12.3442   1
   0   6  -5 196.022  23.217   1
   0   6  -5 187.115 14.4841   1
   0  -6  -6 175.603 12.5979   1
   0   6  -6 201.102 15.2236   1
   0   6   6 167.552 13.5884   1
   0  -6   6 185.497 15.3202   1
   0   6  -6 222.918 26.0925   1
   0  -6  -6  181.12 19.8356   1
   0  -6   7  67.593 10.1909   1
   0  -6  -7 69.0348 7.79039   1
   0  -6  -7 53.3201 13.7651   1
   0   6  -7 68.6824 18.9404   1
   0   6   7 75.2425 9.48137   1
   0   6  -7 67.8682 9.91712   1
   0  -6  -8 10.6851 10.4014   1
   0  -6   8 12.7825 7.84077   1
   0   6   8 8.51268  5.3326   1
   0   6  -8 38.0478 20.6278   1
   0   6  -8 8.38779 6.22084   1
   0  -6  -9 56.9169  15.028   1
   0  -6   9 50.4484 10.5877   1
   0   6   9 45.0675 8.29817   1
   0  -6 -10 20.5202 12.8393   1
   0  -7   0-2.34991 3.73816   1
   0  -7   0-1.19487 3.75028   1
   0   7   0 2.38443 4.51132   1
   0   7   0-5.30726 4.14482   1
   0  -7  -1 66.9541 9.29799   1
   0  -7   1 66.9226 8.92353   1
   0  -7   1 82.8903 10.1772   1
   0  -7  -1 46.0879 14.9797   1
   0   7  -1 67.1529 9.92761   1
   0   7  -1 61.1076 8.70549   1
   0   7   1 67.4594  9.0337   1
   0  -7  -1 42.3876 6.78249   1
   0   7   1 66.0849 9.15608   1
   0  -7   2 155.271 13.4876   1
   0  -7   2 178.412 14.1403   1
   0   7  -2 163.581 15.3573   1
   0   7   2 142.808 13.3734   1
   0   7   2 158.785 13.6757   1
   0  -7  -2 144.198 19.5513   1
   0   7  -2 173.792 13.5012   1
   0  -7  -2 153.971 13.2381   1
   0  -7  -3 4.54287 9.62001   1
   0  -7   3  15.213 6.11284   1
   0   7   3 8.36874 5.79896   1
   0   7  -3 8.49751 5.79438   1
   0   7   3  14.878 9.27546   1
   0  -7  -3 8.60576 4.92425   1
   0  -7   3 4.51794   4.986   1
   0   7  -3 16.7752 5.84542   1
   0   7  -4 13.1113 6.44055   1
   0  -7  -4 25.1379 6.07616   1
   0  -7  -4 18.4151 11.5906   1
   0  -7   4 18.0561 6.56974   1
   0   7   4 15.9405 6.51388   1
   0   7  -4 37.4788 7.11845   1
   0  -7  -5 13.7563  10.857   1
   0  -7   5 15.6579 7.21653   1
   0  -7  -5 15.7625  5.6821   1
   0   7  -5 14.9966 6.69217   1
   0   7   5 10.6999 6.08005   1
   0   7  -6  105.98 12.4469   1
   0  -7   6 75.4852 11.3382   1
   0  -7  -6 78.2177 9.64879   1
   0  -7  -6  79.846 16.7826   1
   0   7   6 82.7113 11.1015   1
   0  -7  -7 14.3543 12.9456   1
   0  -7   7 12.6822 7.66784   1
   0   7  -7  8.6323 7.34571   1
   0   7   7 20.2687 6.97248   1
   0  -7  -8  6.7971  12.517   1
   0   7   8-0.46961 6.32633   1
   0  -7   8 6.70258 7.85653   1
   0  -7  -9 34.3931  19.206   1
   0  -8   0 261.051 19.2172   1
   0   8   0 257.786 19.0106   1
   0  -8  -1 21.0579 7.37321   1
   0  -8   1 28.3212 7.31508   1
   0   8  -1 30.7802 8.21578   1
   0   8   1 23.3825 7.47858   1
   0  -8   1 26.8986  7.3815   1
   0  -8  -2 49.9678 8.86853   1
   0  -8   2 46.9664 9.14347   1
   0   8  -2  41.737 8.32654   1
   0   8   2  47.253 9.18571   1
   0  -8  -3 41.8419 8.30224   1
   0  -8   3 57.0338 9.41899   1
   0   8  -3 54.6454 10.1353   1
   0   8   3 61.1261 10.3917   1
   0  -8   4 30.3582 8.96022   1
   0  -8  -4 34.3582 7.84421   1
   0   8  -4 21.2168 10.0665   1
   0   8   4 27.4218 8.08449   1
   0  -8  -5 11.9492  7.7312   1
   0   8   5 14.1626 7.55751   1
   0   8  -5 19.6189 8.98999   1
   0  -8   5  21.194  8.6317   1
   0  -8   6 21.2063 8.63211   1
   0   8  -6 28.9017 9.89429   1
   0   8   6 32.5319 10.0987   1
   0  -8   7 24.3119 9.69411   1
   0   8  -7 8.98895 9.36326   1
   0   9   0 1.17402 6.62911   1
   0  -9  -1 93.1579 13.4728   1
   0   9   1 112.822 14.4633   1
   0   9  -1 106.885 14.2533   1
   0  -9  -2 50.9215 10.3073   1
   0   9   2 32.1554  10.108   1
   0  -9  -3 8.17406 7.17561   1
   0   9   3 24.4761 9.45327   1
   0   9   4 5.00284 8.56361   1
   0  -9   5 14.8586 9.89503   1
   0  10   0 112.971 16.4576   1
   0  10   1 71.6256  13.802   1
  -1   0   0 1460.41 71.2409   1
  -1   0   0 1807.37  70.487   1
  -1   0   0 1849.94 71.6802   1
   1   0   0 1678.41 70.2235   1
  -1   0   0 1654.75 70.2213   1
   1   0   0 1539.72 70.0758   1
  -1   0   0 1729.69  70.695   1
   1   0   0 1784.08 70.4666   1
   1   0   0 1617.01 70.6442   1
   1   0   0 1730.46 71.5032   1
   1   0   0 1605.32 70.5991   1
  -1   0   0 1623.63 70.6289   1
  -1   0   0 1689.59 70.1363   1
   1   0   1 62.0275 4.77218   1
   1   0   1 52.0224 3.51578   1
   1   0   1  54.911 3.47436   1
  -1   0  -1 61.3575 4.85427   1
  -1   0  -1 54.6522 3.43092   1
   1   0   1 52.8543 3.96722   1
  -1   0  -1 56.0299 3.40863   1
   1   0   1 54.6675 3.50703   1
   1   0   1 54.8053 3.38124   1
  -1   0  -1  53.162 3.45971   1
  -1   0  -1 54.7072 3.55723   1
  -1   0  -2 888.737 37.3611   1
   1   0   2 884.684 38.6433   1
  -1   0  -2 907.155 37.8335   1
   1   0   2 817.057 37.0341   1
   1   0   2 859.255 37.0187   1
   1   0   2 915.818 37.4529   1
   1   0   2 833.131 37.5443   1
   1   0   2  853.88 37.6355   1
  -1   0  -2 902.951 39.2562   1
  -1   0  -2 827.799 36.7929   1
   1   0   3 35.1499 4.48642   1
   1   0   3 40.3275 3.32592   1
   1   0   3 33.2437  4.5278   1
  -1   0  -3 39.8752 2.31472   1
   1   0   3 37.3811 3.47214   1
  -1   0  -3 38.4739 3.48208   1
  -1   0  -3 38.4773 5.31869   1
  -1   0  -3 41.5614 2.43498   1
  -1   0  -3 48.5387 3.87723   1
   1   0   3  40.361 3.54647   1
   1   0   3 45.4705 3.60344   1
   1   0   4 120.067  7.5742   1
  -1   0  -4 142.727 10.2657   1
   1   0   4 120.619 8.46213   1
   1   0   4 111.435 8.42856   1
  -1   0  -4 135.852 7.69975   1
  -1   0  -4 131.604 7.36593   1
   1   0   4 133.779 7.26682   1
   1   0   4  134.19 7.11308   1
   1   0   4  137.94 7.56371   1
  -1   0  -5-0.86699 3.13866   1
  -1   0  -5 1.14863 1.60756   1
   1   0   5-0.70631 1.56427   1
  -1   0  -5 0.15635  1.8209   1
   1   0   5-0.17303 1.69877   1
   1   0   5 6.75573 3.30191   1
   1   0   5-1.22094 1.56238   1
   1   0   5-0.24307 1.66715   1
  -1   0  -6 15.7246  5.6128   1
   1   0   6 16.9906 3.36023   1
   1   0   6 14.0739 4.19372   1
   1   0   6 16.9095 2.98109   1
  -1   0  -6 18.1203 2.95777   1
   1   0   6 14.8475 2.79014   1
   1   0   6 19.0695 2.92265   1
  -1   0  -6  16.521 3.13745   1
   1   0   7 103.411 9.12897   1
  -1   0  -7 105.989 11.9029   1
   1   0   7 106.661 7.96156   1
  -1   0  -7  111.26 7.54817   1
   1   0   7  110.58 9.70717   1
  -1   0  -7 91.7962 6.82062   1
   1   0   7 111.538 7.33957   1
   1   0   7 94.2109 6.90442   1
   1   0   8 428.712  21.133   1
   1   0   8 421.091 22.4709   1
   1   0   8 467.398 23.5614   1
   1   0   8 468.906  21.749   1
  -1   0  -8 468.542 21.5148   1
  -1   0  -8 417.642 21.0598   1
  -1   0  -9 10.5193 3.16696   1
  -1   0  -9 0.70266  3.6338   1
  -1   0  -9  6.8641 7.07218   1
   1   0   9 6.73893 4.19708   1
   1   0   9 5.79497 3.58727   1
   1   0  10  44.482  6.1243   1
  -1   0 -10  59.713 5.70826   1
  -1   0 -10   27.19  9.8937   1
  -1   0 -10 48.8943 5.15366   1
  -1   0 -10 47.7407 10.1335   1
   1   0  10  58.422 7.99581   1
   1   0  11 7.13604 5.51048   1
  -1   0 -11 17.7185 9.08146   1
  -1   0 -11 13.5951 3.47398   1
  -1   0 -11 14.6661 9.82545   1
   1   0  11 5.07542 4.78349   1
   1   0  12-1.93423 6.40143   1
  -1   0 -12-0.68516  9.5196   1
  -1   0 -12 3.37787 9.61982   1
  -1  -1   0 131.198 6.63458   1
   1  -1   0 126.842 6.35674   1
   1  -1   0 117.265 6.35091   1
  -1  -1   0 122.282 6.44771   1
   1  -1   0 119.894 6.36111   1
   1  -1   0  129.48  6.5597   1
  -1  -1   0 134.988 6.63649   1
   1  -1   0 113.251 6.80827   1
   1   1   0 121.289 7.96885   1
  -1   1   0 125.887 6.59122   1
   1   1   0 137.772 6.70262   1
  -1   1   0 147.221 8.69401   1
   1   1   0 122.928 6.68125   1
  -1   1   0 121.465 6.49287   1
   1   1   0 141.149 6.84767   1
  -1   1   0  129.85 6.75112   1
  -1   1   0  131.74  6.7017   1
  -1   1   0 113.195 6.99498   1
   1  -1   1 4035.99 166.844   1
  -1  -1  -1 3885.67 166.582   1
   1  -1   1 3749.06 166.174   1
  -1  -1  -1 3995.08 166.031   1
  -1  -1  -1 4047.63 168.427   1
   1  -1   1 3956.09 166.801   1
   1  -1   1 3619.77 166.763   1
   1  -1   1 4178.13 166.242   1
  -1  -1  -1 4147.52 167.431   1
  -1   1  -1 4471.45 166.375   1
   1   1   1 4057.84 165.276   1
  -1   1  -1 3547.29 163.643   1
   1   1   1 3688.89 163.139   1
  -1   1  -1 3868.49 163.705   1
   1   1   1 4086.15 164.388   1
  -1   1  -1 3830.35 163.178   1
   1   1   1 3961.65 163.771   1
  -1   1  -1 3736.88 163.007   1
   1   1   1 3872.15 163.091   1
  -1  -1  -1 3787.84 166.098   1
   1   1   1 3893.52 163.559   1
   1  -1   1 4428.24 169.064   1
  -1  -1  -2 788.131 35.9587   1
  -1  -1  -2 698.725  33.464   1
   1  -1   2 863.077 37.0183   1
   1  -1   2 790.279 34.5754   1
  -1  -1  -2 825.942 34.4715   1
   1  -1   2  823.93 35.0198   1
  -1  -1  -2 802.657 33.8288   1
   1  -1   2 772.109 34.5091   1
   1  -1   2 741.369 34.1869   1
   1   1   2 823.074 35.0348   1
   1   1   2 826.201 34.7907   1
  -1   1  -2 784.866 34.9686   1
   1   1   2 775.953 34.4563   1
  -1   1  -2 785.967 34.6186   1
   1   1   2 777.273 34.5868   1
  -1   1  -2 796.395 34.4161   1
  -1  -1  -2  792.37 34.2216   1
   1  -1   2 792.659 34.0767   1
  -1   1  -2 890.786 37.8333   1
   1   1   2 779.755 35.0504   1
   1   1   2 803.879 36.2799   1
  -1   1  -2 784.904 35.1237   1
   1  -1   3 74.9143 7.54315   1
   1  -1   3 72.7714  4.7406   1
  -1  -1  -3 70.6666 4.84172   1
  -1  -1  -3 69.2013 5.04124   1
  -1  -1  -3 81.0633   7.474   1
   1   1   3 72.1903 4.71358   1
  -1   1  -3 82.7016 8.34107   1
  -1   1  -3 74.8771 5.36412   1
  -1   1  -3 68.0011 4.56529   1
   1   1   3 63.7143 4.61735   1
   1   1   3 69.0956 4.91781   1
   1   1   3 68.8581 4.50695   1
   1   1   3 65.3302  5.2663   1
   1  -1   3 68.8711 5.13381   1
  -1  -1  -3 67.0677 6.53973   1
   1  -1   3 78.8933 5.31093   1
  -1   1  -3 66.9133 5.04289   1
   1  -1   3 69.4786 5.11062   1
   1  -1   4 988.224 43.0175   1
  -1  -1  -4 951.585 42.2904   1
   1  -1   4 934.857 42.4738   1
   1  -1   4 948.568 42.8031   1
  -1  -1  -4 1002.30 43.0343   1
   1  -1   4 923.978 44.9201   1
   1  -1   4 981.455 42.2346   1
  -1  -1  -4 981.401 44.7847   1
  -1  -1  -4 1096.66 44.7238   1
  -1   1  -4  900.55 39.7337   1
  -1   1  -4 917.033 41.2882   1
   1   1   4 957.383 41.2916   1
   1   1   4 949.797 41.5676   1
   1   1   4 926.109 40.6841   1
  -1   1  -4  935.56 39.8721   1
  -1   1  -4 972.141 41.6639   1
  -1   1  -4 1024.46 45.2323   1
   1   1   4 955.519  41.083   1
   1   1   4 918.507 40.5648   1
  -1  -1  -5 134.088 10.2121   1
   1  -1   5 116.681 8.04948   1
   1  -1   5 128.379 7.86403   1
  -1  -1  -5 124.937 7.32254   1
  -1  -1  -5 124.695  9.6009   1
   1  -1   5 142.037 8.23364   1
   1  -1   5 113.975  9.7795   1
   1  -1   5 129.279 7.38443   1
   1   1   5 135.251  7.3863   1
  -1   1  -5  145.79 11.8887   1
   1   1   5 135.212 8.10832   1
   1   1   5 128.449 7.56892   1
  -1   1  -5 124.538 7.84737   1
  -1   1  -5 122.392 8.21611   1
   1   1   5 132.089 7.35816   1
   1   1   6 59.3175 5.91985   1
   1  -1   6  44.444 5.12366   1
   1  -1   6 52.4853 5.31077   1
  -1  -1  -6 47.4679 4.59503   1
  -1  -1  -6 49.0586 4.57188   1
   1  -1   6 49.1761 5.86095   1
   1   1   6 42.0448 4.42762   1
  -1   1  -6 46.3503  8.6886   1
   1   1   6 48.5035 5.50472   1
  -1   1  -6 45.5831 5.02732   1
  -1   1  -6 47.4882 4.68016   1
   1   1   6 40.0762 4.41206   1
   1   1   6 50.6171 4.60859   1
   1  -1   6 44.2546 4.51221   1
  -1  -1  -6 45.1048 6.70762   1
  -1  -1  -6 50.0802 7.66179   1
   1   1   7 55.8005 5.96019   1
   1   1   7 50.0474 5.05506   1
  -1  -1  -7 63.8226 8.91759   1
   1  -1   7 55.6548 7.93735   1
  -1  -1  -7 51.4967 5.27767   1
  -1  -1  -7 63.9717 5.57968   1
   1  -1   7 54.9833 5.78796   1
   1  -1   7 57.3166  5.4937   1
   1  -1   7  66.732 6.36463   1
  -1   1  -7 64.6023 6.37109   1
   1   1   7 46.9514 4.86463   1
  -1   1  -7 55.0477 5.32311   1
   1   1   7 50.7505 6.27878   1
  -1   1  -7 58.6254 10.4833   1
   1  -1   8 51.8165 6.49941   1
   1  -1   8 48.1842 7.67913   1
   1  -1   8 40.5941 5.18561   1
  -1  -1  -8 51.3635 5.06199   1
   1  -1   8 40.7757 5.46204   1
  -1  -1  -8 41.3574 4.62557   1
   1   1   8 37.7164 4.93929   1
   1   1   8 40.2473 4.83935   1
   1   1   8 54.7611 6.38301   1
  -1   1  -8 44.1081 10.8328   1
   1   1   8 50.9404 6.76548   1
  -1   1  -8 34.3373 4.78268   1
  -1   1  -8 44.4548 5.69896   1
  -1  -1  -8 41.0361  8.2699   1
  -1  -1  -8 45.1129 8.09008   1
   1   1   9 203.457 15.2065   1
  -1   1  -9 225.993 12.6781   1
   1   1   9 207.287 12.0071   1
  -1  -1  -9 211.573 11.2623   1
  -1  -1  -9 204.954 16.9358   1
   1  -1   9 199.528 13.3817   1
   1  -1   9  210.41 12.9104   1
  -1  -1  -9 170.744  16.671   1
  -1  -1  -9 218.427 11.2406   1
  -1   1  -9 175.809 18.7942   1
  -1   1  -9 181.885 11.6763   1
   1   1   9 209.938 13.1827   1
  -1  -1 -10 36.7122 10.2027   1
  -1  -1 -10 54.1706 5.16191   1
   1  -1  10 45.0024 6.39376   1
  -1  -1 -10 49.8246 4.88852   1
   1  -1  10 58.5537 7.84544   1
  -1   1 -10 41.6226 13.0551   1
  -1   1 -10 51.6675 6.45369   1
  -1   1 -10 52.3946 5.88452   1
   1   1  10 50.0173 7.47819   1
   1   1  10  56.632 6.56495   1
  -1  -1 -10 18.5809   9.289   1
   1   1  11 4.78196 5.69783   1
   1   1  11-0.60073 3.83565   1
   1  -1  11-1.45742 4.50557   1
  -1  -1 -11  3.4349 8.42065   1
   1  -1  11 2.13038 5.30678   1
  -1  -1 -11-1.88368 7.22559   1
  -1   1 -11 5.39197 9.72021   1
  -1   1 -11-0.74731 4.45224   1
   1  -1  12 6.50281 6.78303   1
  -1   1 -12 10.5998 10.5607   1
  -1   1 -12 10.3868 10.4245   1
  -1  -1 -12 19.4064 10.3388   1
   1   1  12 14.0687 7.11097   1
  -1  -1 -12  3.7621 9.97197   1
   1  -2   0 840.438 36.6443   1
  -1  -2   0 813.215 37.0602   1
  -1  -2   0 842.616 36.9445   1
   1  -2   0 916.059 37.6778   1
   1  -2   0 847.071 36.8423   1
  -1  -2   0 806.901 36.7767   1
  -1   2   0  913.06 39.9605   1
  -1   2   0 847.143 36.9655   1
   1   2   0 796.084 37.0104   1
   1   2   0 844.559 37.2379   1
  -1   2   0 835.825 37.2558   1
   1   2   0 818.956 37.1022   1
  -1   2   0 863.178 36.9899   1
  -1   2   0 845.225 37.1775   1
   1   2   0 884.534 39.8369   1
   1  -2   0 847.692  37.068   1
  -1  -2  -1 3901.83 168.281   1
   1  -2   1 4475.02 172.645   1
   1  -2   1 3715.76 169.171   1
  -1  -2  -1 4236.57 171.911   1
   1  -2   1 3924.39 168.469   1
   1  -2   1 3979.11  169.12   1
   1  -2   1 4080.62  168.58   1
  -1  -2  -1 3906.34  168.16   1
  -1  -2  -1 3889.17 168.892   1
   1  -2   1 4122.44 169.237   1
  -1   2  -1 4071.54 172.184   1
   1   2   1 4185.91 174.441   1
  -1   2  -1 4011.98 171.469   1
   1   2   1 3997.13 171.816   1
  -1   2  -1 4542.91 175.689   1
   1   2   1 4008.55 171.492   1
  -1   2  -1 4022.58 172.036   1
  -1   2  -1 4151.84 171.448   1
   1   2   1 3861.26 171.297   1
   1  -2   2 1905.26 82.8568   1
  -1  -2  -2 1913.60 82.4327   1
   1  -2   2 2118.67 86.2311   1
  -1  -2  -2 1893.27 82.0332   1
   1  -2   2 1859.65 82.3387   1
  -1  -2  -2 1888.19 81.4849   1
   1  -2   2 1907.91 82.8214   1
  -1  -2  -2 1986.77 82.6526   1
   1  -2   2 1965.59 82.3453   1
  -1  -2  -2 2050.22 85.2803   1
   1  -2   2 1835.45 83.2855   1
   1   2   2 1897.34  82.075   1
  -1   2  -2 2043.16 86.4203   1
   1   2   2 1976.69   84.69   1
   1   2   2 1942.30 82.4829   1
   1   2   2 1936.45  82.855   1
   1   2   2 1878.98 82.2268   1
  -1   2  -2 1845.11 82.7554   1
  -1   2  -2 2009.63 82.2063   1
  -1   2  -2 1923.01  82.421   1
   1  -2   3 192.816 11.0656   1
   1  -2   3 195.955 10.9229   1
   1  -2   3  209.22 11.0845   1
  -1  -2  -3 219.057 10.5736   1
   1  -2   3 220.618 14.4027   1
  -1  -2  -3 215.619 13.8803   1
  -1  -2  -3 193.043 8.90257   1
  -1  -2  -3 171.265 8.79122   1
   1  -2   3 207.219 10.5768   1
  -1  -2  -3 212.695 10.6992   1
  -1   2  -3 231.453 15.6091   1
   1   2   3 197.423 10.7186   1
  -1   2  -3 224.568 10.6324   1
  -1   2  -3  197.19 11.2102   1
  -1   2  -3 198.849 10.8376   1
   1   2   3 220.512 11.3557   1
   1   2   3 219.842 12.9095   1
   1   2   3 193.918 10.3987   1
  -1   2  -3 206.785 11.5647   1
   1   2   3 202.542 10.7599   1
  -1  -2  -4 90.6319 6.23891   1
   1  -2   4  102.43 10.2448   1
   1  -2   4 95.5295 6.94471   1
   1  -2   4 85.3715  6.1187   1
   1  -2   4 85.3896 6.66085   1
  -1  -2  -4 92.2883 9.40068   1
  -1  -2  -4 89.2488 6.29648   1
   1  -2   4  94.619 6.85367   1
   1   2   4 93.9051  6.2086   1
  -1   2  -4  100.08 6.23286   1
   1   2   4 85.9374 6.05478   1
   1   2   4  85.837 5.83809   1
   1   2   4 94.5254 6.80034   1
   1   2   4 86.8566 6.29501   1
  -1   2  -4 89.7699 7.09196   1
  -1   2  -4 84.4681 6.49945   1
  -1   2  -4 111.319 11.5861   1
   1   2   5 593.782 26.8221   1
  -1   2  -5 548.686 24.9134   1
   1  -2   5 550.185  26.002   1
   1  -2   5 569.698 26.6605   1
   1  -2   5 561.089 26.4722   1
  -1  -2  -5 551.101 28.8075   1
   1  -2   5 581.355 26.9737   1
   1  -2   5 606.972 30.5105   1
  -1  -2  -5 583.811 26.2948   1
   1  -2   5 531.148 25.9032   1
  -1  -2  -5 570.126 25.8725   1
   1   2   5 561.725 26.1253   1
   1   2   5 565.067 26.2937   1
  -1   2  -5  549.68 26.8739   1
  -1   2  -5 596.797 25.2959   1
  -1   2  -5 600.122 27.5069   1
   1   2   5 590.005 26.9646   1
  -1   2  -5 612.029 32.4497   1
   1   2   5 567.992 25.9774   1
   1  -2   6 403.326 19.6333   1
   1   2   6 367.313 18.0032   1
   1   2   6 366.838 18.1037   1
   1  -2   6 380.139 19.1373   1
  -1  -2  -6  369.09 18.1043   1
   1  -2   6 360.804 18.4464   1
  -1  -2  -6  366.13 21.6394   1
   1  -2   6 380.007 19.1189   1
  -1  -2  -6 359.244 19.0513   1
  -1  -2  -6 402.926 21.2051   1
  -1   2  -6 388.036 19.4217   1
  -1   2  -6 359.571 18.6471   1
  -1   2  -6  377.05 24.6014   1
   1   2   6 356.947 17.6942   1
   1   2   6 380.321 18.6764   1
   1   2   6 389.084 18.8621   1
   1   2   7 288.273 15.7545   1
   1  -2   7 311.693  16.127   1
   1  -2   7 272.437 15.1282   1
  -1  -2  -7 284.656 14.5111   1
  -1  -2  -7 285.915 17.8926   1
   1  -2   7 289.695 15.7533   1
   1   2   7 309.407  15.202   1
  -1   2  -7 286.166 22.3866   1
   1   2   7 291.105 15.9759   1
   1   2   7 298.787 14.8261   1
  -1   2  -7 310.936 16.5467   1
  -1   2  -7 268.177 15.5543   1
  -1  -2  -7 283.237 18.5864   1
   1  -2   8 6.00744 4.10843   1
  -1  -2  -8 4.28053 3.01886   1
   1   2   8 5.78223 2.97495   1
  -1  -2  -8 4.15426 6.09689   1
  -1  -2  -8 5.94187 4.84314   1
  -1   2  -8 7.75762 4.24606   1
   1   2   8 5.90243 3.98144   1
   1   2   8   9.377 3.99715   1
  -1   2  -8 5.23951 8.20606   1
   1   2   8  9.2049 3.63733   1
  -1   2  -8 10.4463 3.62147   1
  -1  -2  -8 5.94328  2.8888   1
   1  -2   8 7.79908 4.07159   1
   1  -2   8 4.06232 3.40484   1
  -1   2  -9 14.1395 9.28074   1
  -1   2  -9 7.49183 4.68897   1
   1   2   9 16.9956 3.99475   1
  -1  -2  -9 14.7581  3.4948   1
   1  -2   9 15.0952 5.17638   1
  -1  -2  -9  3.9624 5.56915   1
  -1  -2  -9 19.5075 7.80212   1
  -1   2  -9 11.8288  4.0967   1
   1   2   9 22.3614 5.34201   1
  -1  -2  -9 12.4266 3.22894   1
   1  -2   9 14.5912 4.73201   1
  -1   2 -10 11.2685 4.54302   1
   1  -2  10 12.3855 5.04303   1
  -1  -2 -10 10.7068 8.44364   1
   1  -2  10 9.51281 5.41913   1
  -1  -2 -10 3.76413 6.59152   1
  -1  -2 -10  9.1552 2.05476   1
   1   2  10 14.3116 5.43317   1
  -1   2 -10 12.1001  5.5169   1
  -1  -2 -10 9.70108 2.32774   1
  -1   2 -10  9.8003 9.75822   1
   1   2  10 12.3616 4.16705   1
   1  -2  11 13.0292 6.02578   1
   1  -2  11 26.8147 7.12752   1
  -1  -2 -11 19.9812  9.4584   1
   1   2  11 14.6621 4.98873   1
  -1   2 -11 15.1543 11.2384   1
  -1   2 -11 18.0198 7.07745   1
  -1  -2 -11 14.5087 9.45395   1
  -1  -2 -12 13.8552 10.7045   1
   1  -2  12 9.87667 6.82997   1
  -1  -2 -12-2.02335 9.31279   1
  -1   2 -12 21.9649 13.7073   1
  -1  -3   0  670.53 30.8064   1
   1  -3   0 685.639 34.2581   1
   1  -3   0  718.07 31.2584   1
   1  -3   0 702.647 30.9121   1
  -1  -3   0 629.204 30.9256   1
  -1  -3   0 672.675 30.8049   1
   1  -3   0 695.741 30.6227   1
  -1   3   0 701.627 32.8503   1
   1   3   0 721.624 32.8405   1
  -1   3   0 760.692 36.7111   1
  -1   3   0 703.981 32.4946   1
   1   3   0 739.901 32.9074   1
  -1   3   0 712.731 32.7929   1
   1   3   0 722.453 32.7283   1
   1   3   0 731.878 36.2201   1
  -1   3   0 718.047   32.56   1
   1  -3   1 188.563 14.0108   1
  -1  -3  -1 167.652 9.51937   1
   1  -3   1 164.385 10.0883   1
  -1  -3  -1 167.537 9.43319   1
  -1  -3  -1 170.184 9.96337   1
   1  -3   1 170.103 9.90739   1
  -1  -3  -1  168.29 13.1446   1
   1  -3   1 163.891 9.81273   1
   1   3   1 156.988 9.77996   1
  -1   3  -1 174.512 10.1468   1
  -1   3  -1 180.839 10.1595   1
  -1   3  -1 176.396 10.4255   1
   1   3   1 168.452 9.91486   1
  -1   3  -1  164.90 9.72598   1
   1   3   1 156.972 9.77103   1
  -1   3  -1 176.903 13.7829   1
   1   3   1 183.689 13.7824   1
  -1  -3  -2 329.299 16.4846   1
  -1  -3  -2 331.853 15.6588   1
  -1  -3  -2 300.997 16.0939   1
  -1  -3  -2 331.267 19.9122   1
  -1  -3  -2 307.137 15.3928   1
   1  -3   2 337.066 16.8853   1
   1  -3   2 371.593 21.4688   1
   1  -3   2 332.514 16.5267   1
   1   3   2 297.516 16.0502   1
  -1   3  -2  341.78 21.0834   1
  -1   3  -2 331.238 16.8048   1
  -1   3  -2  332.81 16.5521   1
  -1   3  -2 337.305  17.161   1
   1   3   2  327.93 16.3697   1
   1   3   2 312.587 16.2532   1
   1   3   2 348.464 19.5543   1
  -1   3  -2 322.203 16.1584   1
   1  -3   3 461.282  22.276   1
  -1  -3  -3 424.822 20.1242   1
   1  -3   3 494.018 26.8477   1
  -1  -3  -3 451.208  21.844   1
  -1   3  -3 462.701 21.7503   1
  -1   3  -3 446.017 22.5196   1
   1   3   3  456.00 22.0212   1
  -1   3  -3 489.803 27.3801   1
   1   3   3 457.809 21.7957   1
   1   3   3 443.779 21.9124   1
   1   3   3  484.45 24.7576   1
  -1   3  -3 470.924 22.2177   1
  -1  -3  -3 464.252 21.5353   1
  -1  -3  -3 444.381 20.4176   1
  -1  -3  -3 448.308 20.2834   1
   1  -3   3  468.73 22.4789   1
   1  -3   3 461.859 22.0128   1
  -1  -3  -3  476.59 25.5894   1
   1  -3   4 22.4523 4.02006   1
   1  -3   4 31.8927 7.93463   1
  -1  -3  -4  24.201 6.88927   1
   1  -3   4 29.4194 4.23543   1
  -1  -3  -4 23.4585 3.80406   1
  -1  -3  -4 25.6775 3.77638   1
   1  -3   4 25.2278 4.16272   1
   1   3   4 18.0058    3.30   1
  -1   3  -4 19.4028 3.11261   1
   1   3   4  20.132 3.32142   1
   1   3   4 28.4714 5.57834   1
   1   3   4 24.5897  4.2123   1
  -1   3  -4 21.9389 3.89446   1
  -1   3  -4 30.2985 8.55716   1
   1   3   4 19.6613 3.33275   1
  -1   3  -4 21.2483 3.78234   1
  -1   3  -4 29.4201 5.07154   1
   1   3   5 297.878 16.3375   1
  -1   3  -5 311.144 17.0537   1
   1  -3   5 294.704  16.092   1
  -1  -3  -5  286.73 15.1571   1
   1  -3   5 292.344 15.6513   1
  -1  -3  -5  297.18 19.5981   1
   1  -3   5 302.565 16.2692   1
  -1  -3  -5 300.533 15.2909   1
   1  -3   5 284.403 20.1523   1
  -1   3  -5 311.851 16.5318   1
  -1   3  -5 346.892 22.9422   1
  -1   3  -5 284.617  14.535   1
   1   3   5 301.564 15.6781   1
   1   3   5  316.11 15.8082   1
   1   3   5 286.893 15.2282   1
  -1  -3  -6  13.175 6.98556   1
   1  -3   6 6.75463 3.34319   1
   1  -3   6 6.13997 2.90116   1
  -1  -3  -6 3.71441 2.75318   1
   1  -3   6 4.08654 3.51045   1
   1   3   6 4.66187 3.27029   1
  -1   3  -6 2.00707  7.7359   1
  -1   3  -6 4.92026 3.78532   1
  -1   3  -6 1.93729 2.52395   1
   1   3   6 5.92365 2.71896   1
  -1   3  -6 2.50496 3.11732   1
   1   3   6 5.37137 3.09081   1
  -1   3  -6 3.76158 1.95164   1
  -1  -3  -7 6.80313 5.08064   1
  -1  -3  -7 21.9302 7.70323   1
  -1  -3  -7 11.8007 3.35066   1
   1  -3   7 7.35312 3.61285   1
   1   3   7   11.30 4.36317   1
   1  -3   7 8.79537 3.84363   1
   1  -3   7 3.96701 3.87075   1
   1   3   7 2.30122 3.53954   1
   1   3   7 10.1892  3.2473   1
  -1   3  -7 6.29353 4.35571   1
  -1   3  -7 14.7734 9.70033   1
  -1   3  -7 18.3362 4.39202   1
  -1  -3  -8 62.7128 9.09193   1
  -1  -3  -8 69.8951 11.5403   1
   1  -3   8  50.187 7.27726   1
  -1   3  -8 66.3384 7.44423   1
  -1   3  -8  67.038  13.516   1
  -1   3  -8 62.4995 7.75528   1
   1   3   8 52.9662 6.09892   1
  -1  -3  -8 58.2748  6.1911   1
   1   3   8 53.6078 7.95909   1
  -1   3  -9 39.4387 7.21103   1
   1  -3   9 30.4874 6.84699   1
   1  -3   9 30.4575 6.51046   1
  -1  -3  -9 29.8052 4.34247   1
  -1  -3  -9 33.7412 4.36021   1
  -1  -3  -9 36.9905 8.32824   1
   1   3   9 27.2429 5.09422   1
  -1   3  -9 28.3012 5.46721   1
  -1   3  -9 35.8313 13.3216   1
  -1  -3  -9 35.0887 10.0522   1
   1  -3  10 14.6394 6.24918   1
   1  -3  10 12.4069 5.84728   1
  -1  -3 -10 5.85378 6.91334   1
  -1  -3 -10 9.44458 9.32972   1
  -1  -3 -10  7.5092 2.54478   1
   1   3  10 4.96761 3.93816   1
  -1   3 -10 14.0735 11.8851   1
  -1   3 -11 -3.0159 12.0631   1
  -1  -3 -11 1.26785 10.0238   1
   1  -3  11 3.90516 5.90914   1
   1   3  11 9.76628 4.91632   1
  -1  -3 -11 1.40009 7.85881   1
  -1  -4   0 228.421 13.8559   1
   1  -4   0 252.949 13.8265   1
   1  -4   0  239.47 13.8824   1
   1  -4   0 257.174 13.4576   1
  -1  -4   0  236.60 13.5132   1
  -1  -4   0 237.933 13.5167   1
   1  -4   0 277.141 18.1643   1
   1   4   0 244.489 13.9695   1
   1   4   0 249.202 14.1659   1
  -1   4   0 251.392 14.0132   1
  -1   4   0 301.548 19.0048   1
  -1   4   0 240.388 14.1988   1
   1   4   0 247.448 14.1248   1
  -1   4   0 234.563 13.8287   1
   1   4   0 241.871 17.6575   1
   1   4   1 105.461   11.58   1
  -1  -4  -1 91.6608 7.13642   1
   1  -4   1 103.449  7.8872   1
  -1  -4  -1 100.665 7.41941   1
   1  -4   1 99.5974 7.90525   1
   1  -4   1 101.014 8.05722   1
  -1  -4  -1 107.283   8.052   1
   1  -4   1 126.975 12.5162   1
  -1  -4  -1 91.1618 11.4441   1
  -1   4  -1  107.05 8.06041   1
   1   4   1 92.6795 7.79379   1
   1   4   1 96.8393 8.01142   1
  -1   4  -1 105.007 8.65137   1
  -1   4  -1 105.476 8.21338   1
  -1   4  -1 114.696 12.7373   1
   1   4   1 114.886 8.19981   1
  -1   4  -1 114.212  8.3942   1
  -1  -4  -2 311.467 15.4625   1
  -1  -4  -2 276.675 15.9599   1
   1  -4   2 324.964 17.0097   1
   1  -4   2 318.043 16.7087   1
   1  -4   2  319.71 16.7468   1
   1  -4   2 305.928 21.1988   1
  -1  -4  -2 295.514 16.3384   1
  -1  -4  -2 327.621   21.20   1
  -1  -4  -2 308.411 15.3894   1
  -1   4  -2 311.239   17.02   1
   1   4   2 298.058 20.1236   1
   1   4   2 287.778 16.4867   1
  -1   4  -2 330.942 17.6067   1
  -1   4  -2 307.199 16.4585   1
   1   4   2 317.842 16.7129   1
  -1   4  -2 331.559 16.9637   1
   1   4   2 320.224 16.7735   1
  -1   4  -2 340.217 22.4946   1
  -1  -4  -3 122.813 8.15931   1
  -1  -4  -3 100.068 12.3038   1
  -1  -4  -3 110.642 7.65529   1
  -1  -4  -3 112.533 8.37846   1
   1  -4   3 122.359 9.20544   1
   1   4   3 122.182 11.8656   1
  -1   4  -3 124.241 9.66103   1
   1   4   3 114.832 8.50526   1
  -1   4  -3 133.963 8.55313   1
  -1   4  -3 127.048 12.9133   1
  -1   4  -3 106.474 8.92232   1
  -1   4  -3 133.026 14.7313   1
   1   4   3 113.534 8.60092   1
   1   4   3  106.11 8.32594   1
   1  -4   3 131.894 14.3773   1
  -1  -4  -3 111.676 6.91815   1
   1  -4   3 115.829 8.77965   1
  -1  -4  -3 102.748 6.71165   1
   1  -4   3 111.778 8.78843   1
   1  -4   4 2.11073 2.96194   1
   1  -4   4  4.2932  2.8158   1
  -1  -4  -4 4.08803 5.41692   1
  -1  -4  -4 7.84524 3.12254   1
  -1  -4  -4 3.50135 3.57397   1
   1  -4   4 2.32247 5.89332   1
   1  -4   4 2.90898 3.29851   1
   1   4   4  1.8841 2.70161   1
  -1   4  -4 10.9144 8.05832   1
   1   4   4 3.32847 2.86271   1
  -1   4  -4 0.08786 2.35817   1
   1   4   4 3.92479 2.51149   1
  -1   4  -4-4.88891 2.36483   1
  -1   4  -4 2.57941 3.07033   1
  -1   4  -5 177.722 11.8333   1
   1  -4   5 177.411 18.6888   1
   1  -4   5 169.972 11.7203   1
   1  -4   5 172.776 12.0557   1
  -1  -4  -5  181.14 15.9865   1
  -1  -4  -5  174.79  11.037   1
   1  -4   5 183.875 12.5354   1
  -1   4  -5 165.799 10.0863   1
   1   4   5 181.811 11.0951   1
   1   4   5 165.753 11.0064   1
   1   4   5 159.031 10.6988   1
  -1   4  -5 198.236 19.1519   1
  -1   4  -5  166.36 12.2681   1
  -1  -4  -6 101.928 13.3631   1
   1  -4   6 98.4553 8.87607   1
   1  -4   6 102.799 9.92527   1
   1  -4   6 97.1956 9.21903   1
  -1  -4  -6 94.4854 7.89474   1
  -1   4  -6 100.159 7.01739   1
  -1   4  -6 118.141 17.4522   1
  -1   4  -6 100.666 9.23548   1
   1   4   6 97.1298 8.72744   1
   1   4   6 90.9991 7.96862   1
  -1   4  -6 99.7205 10.0974   1
   1  -4   7 0.36269 4.02114   1
   1  -4   7 6.45627 4.77271   1
  -1  -4  -7 4.78364 3.40314   1
  -1  -4  -7 7.93833 7.99151   1
  -1   4  -7 5.25906 10.2698   1
   1   4   7 9.73543 3.82456   1
  -1   4  -7 12.1592 5.42966   1
   1  -4   7 5.48054 4.14705   1
  -1   4  -7 7.62887 4.34315   1
   1  -4   8  15.669  5.8891   1
  -1  -4  -8 19.1711 4.42133   1
   1   4   8 13.9076 4.35565   1
  -1   4  -8 19.5403  12.549   1
  -1   4  -8 8.09869 4.52501   1
  -1  -4  -8 22.0492 9.69297   1
  -1  -4  -9 7.32571 6.27568   1
  -1  -4  -9 6.23629 3.72008   1
   1  -4   9 10.8997 6.37494   1
  -1   4  -9 2.87802 12.0095   1
  -1  -4  -9-0.23309 8.80289   1
  -1   4  -9 6.60761  5.1672   1
   1   4   9 5.98948 4.21227   1
  -1   4 -10 72.7596 17.3891   1
  -1  -4 -10 88.9071 7.48507   1
   1  -4  10 71.3126 10.7046   1
  -1  -4 -10 94.1869 13.3846   1
  -1  -4 -10 89.0732 15.2407   1
   1   4  10 54.2846 7.55823   1
  -1  -4 -11-3.87349 7.61977   1
   1  -4  11 1.97427 6.67634   1
  -1  -4 -11 13.5286 11.2371   1
  -1   4 -11-10.7916 14.1143   1
  -1  -5   0 148.711 10.5155   1
   1  -5   0 149.833  10.962   1
   1  -5   0 149.835 10.2999   1
  -1  -5   0  144.01 10.8623   1
   1   5   0  159.31 11.3216   1
  -1   5   0 162.459 11.2483   1
  -1   5   0 143.262  11.316   1
  -1   5   0 161.637 11.2062   1
   1   5   0  162.30 15.2787   1
   1   5   0 168.614 11.4351   1
  -1   5   0 162.759 15.8359   1
   1  -5   0 181.916 16.0977   1
   1   5   0 160.852 11.3195   1
  -1  -5  -1  170.02 17.2294   1
  -1  -5  -1  174.53 12.0751   1
   1  -5   1 189.484 17.3167   1
   1  -5   1 183.292 11.8536   1
  -1  -5  -1 172.316 11.1204   1
   1  -5   1 186.941 12.3351   1
  -1   5  -1 183.373 12.1772   1
  -1   5  -1 179.207 11.9347   1
   1   5   1 179.838  12.054   1
  -1   5  -1 186.684 17.5452   1
   1   5   1 191.616 17.0763   1
  -1   5  -1 171.501 12.1119   1
  -1   5  -1  175.63 12.7532   1
   1   5   1 184.413 12.1894   1
   1   5   1 177.122 12.3016   1
  -1  -5  -2 70.5479 7.73144   1
  -1  -5  -2 64.6535 6.34348   1
  -1  -5  -2 67.1235 11.7901   1
   1  -5   2 81.0155 9.13942   1
   1  -5   2 75.4573 8.45775   1
   1  -5   2 46.1077 9.28673   1
  -1  -5  -2 60.8183 7.51772   1
   1  -5   2 79.4525 8.09807   1
  -1   5  -2 67.8878 7.45169   1
   1   5   2 62.0397 7.32039   1
  -1   5  -2 94.5901 14.5403   1
   1   5   2 69.6293 11.2276   1
  -1   5  -2 73.8342 7.38613   1
   1   5   2 70.8536  8.1847   1
   1   5   2 58.4832 7.05771   1
  -1   5  -2 82.8794 9.04031   1
   1  -5   3 37.6207 6.10882   1
  -1  -5  -3 31.8888 8.96665   1
   1  -5   3 33.6558 6.03786   1
  -1  -5  -3 34.0602 4.10539   1
  -1  -5  -3 39.6796 5.83299   1
   1  -5   3 34.5449 6.00262   1
  -1  -5  -3 32.2681 5.30693   1
  -1   5  -3  45.878  6.6595   1
   1   5   3  38.492 9.25098   1
   1   5   3 32.7555  5.2869   1
  -1   5  -3  27.658 4.83197   1
  -1   5  -3 46.2047 11.1398   1
   1   5   3 33.7842  5.6089   1
   1   5   3 41.3606 6.32074   1
  -1   5  -3 33.5355 6.30036   1
  -1  -5  -4 336.216 23.8077   1
   1  -5   4 328.836  25.541   1
   1  -5   4 330.331 18.7774   1
   1  -5   4 295.161 18.3922   1
  -1  -5  -4 302.562 14.4572   1
   1  -5   4 312.727 18.5474   1
  -1  -5  -4 331.337 18.0443   1
  -1   5  -4 306.952 18.4864   1
   1   5   4 317.399 18.0461   1
  -1   5  -4 320.465 17.2929   1
   1   5   4 284.323 17.5705   1
  -1   5  -4 374.149 27.1761   1
  -1   5  -4 334.479 19.4427   1
  -1   5  -4 310.679 17.1986   1
   1   5   4 315.897 17.8123   1
  -1  -5  -5 52.2858 11.2696   1
   1  -5   5 43.4074  6.7347   1
  -1  -5  -5 49.8407  6.4495   1
   1  -5   5 34.5883 6.13259   1
   1  -5   5  40.525  6.9005   1
  -1   5  -5 43.9409 6.74212   1
  -1   5  -5 30.2677 6.46939   1
  -1   5  -5 41.9256 5.69351   1
  -1   5  -5 43.6703 12.3369   1
   1   5   5 41.3067 6.23143   1
   1  -5   6 2.89373 6.83815   1
   1  -5   6 6.87008 5.19354   1
  -1  -5  -6-3.05223 3.32837   1
  -1  -5  -6 7.13585 7.59317   1
   1  -5   6 0.28305 4.25991   1
  -1   5  -6 6.68089 11.2437   1
   1   5   6 4.86017  3.8762   1
  -1   5  -6 4.63372 4.41576   1
  -1   5  -6 8.20927 5.41743   1
  -1  -5  -7 34.8099  5.7358   1
  -1  -5  -7 32.7294 10.7401   1
   1  -5   7 32.8591 7.12987   1
  -1   5  -7 48.9178 15.6902   1
   1   5   7 22.6701 5.37617   1
  -1   5  -7 27.3618 6.30556   1
  -1   5  -8 48.1369 8.00907   1
  -1   5  -8 47.5352 17.1498   1
  -1  -5  -8  29.602 11.0793   1
   1  -5   8 40.7248 8.38502   1
  -1  -5  -8 36.1676  5.8517   1
   1   5   8  29.304   6.162   1
   1  -5   9 9.47919 6.66005   1
   1   5   9 10.9404 5.41658   1
  -1  -5  -9 7.85902 7.60193   1
  -1   5  -9 6.25893 10.6929   1
  -1   5  -9 6.01619 16.5661   1
  -1   5 -10 15.8971 20.0609   1
  -1  -5 -10 3.27976 10.9373   1
  -1  -5 -10  14.093 8.43988   1
   1   5  10 9.50068  6.8683   1
  -1  -6   0 73.3983 8.32884   1
   1  -6   0 68.9697 13.1687   1
   1  -6   0 75.5936  8.2282   1
   1  -6   0 80.3671 9.14428   1
  -1   6   0  39.833 8.75564   1
  -1   6   0 71.8319 8.87798   1
  -1   6   0 69.1272 8.17473   1
   1   6   0 73.5024 8.83464   1
   1   6   0 62.3259 11.6381   1
   1   6   0 80.5154 9.44761   1
  -1   6   0 60.7139  7.8178   1
  -1  -6   0 64.1697  8.4114   1
   1  -6   1 22.4058 5.07114   1
  -1  -6  -1 4.48139 8.20257   1
  -1  -6  -1 7.89592 3.75061   1
  -1  -6  -1 9.32721 4.38232   1
   1  -6   1  13.422 8.48329   1
   1  -6   1  15.655 5.03289   1
   1   6   1  11.666 5.13433   1
  -1   6  -1 13.7159 4.93591   1
  -1   6  -1 15.8101 4.73701   1
  -1   6  -1 14.9423 5.23482   1
   1   6   1 16.7136  8.1868   1
   1   6   1 13.2767  4.8291   1
  -1   6  -1 16.0211 9.14491   1
   1   6   1 25.1156  5.6783   1
   1  -6   2 263.655 16.5376   1
   1  -6   2 295.797 17.3937   1
  -1  -6  -2 257.344 14.8764   1
  -1  -6  -2 265.221 22.6599   1
   1  -6   2 259.072 23.1957   1
  -1  -6  -2 242.114 16.2603   1
  -1  -6  -2 240.561 16.1529   1
   1   6   2 244.476 16.8127   1
   1   6   2 287.487 17.3097   1
  -1   6  -2 281.825 24.3885   1
  -1   6  -2 267.002 17.9822   1
  -1   6  -2 275.215 16.4663   1
   1   6   2 261.755 22.3406   1
   1   6   2 259.336 16.7185   1
  -1   6  -2 264.074 17.0027   1
  -1  -6  -3 121.098 9.07652   1
   1  -6   3 138.124 12.0639   1
   1  -6   3  140.38 12.1132   1
  -1  -6  -3 135.279 16.9438   1
  -1  -6  -3  149.98 11.5545   1
  -1   6  -3 173.234 20.3243   1
   1   6   3  137.41 11.7135   1
   1   6   3  147.36 24.5503   1
  -1   6  -3 115.613 11.6368   1
   1   6   3 128.464 11.8993   1
   1   6   3 151.307 12.3082   1
  -1   6  -3 146.301 13.2372   1
  -1   6  -3 132.948 10.9675   1
  -1  -6  -4   9.203 8.81466   1
  -1  -6  -4 7.25466 4.29147   1
   1  -6   4 22.9497 6.24355   1
  -1  -6  -4 8.67829 4.55034   1
   1  -6   4 17.8433 5.25429   1
  -1   6  -4 2.45567 10.1497   1
   1   6   4 3.56792 4.95981   1
  -1   6  -4 17.2285 6.84265   1
  -1   6  -4 15.5839 4.95215   1
   1   6   4 15.4321  5.2923   1
  -1   6  -4 19.2203 5.94529   1
  -1  -6  -5 14.1384 9.37768   1
   1  -6   5 14.8417 6.17491   1
  -1  -6  -5 21.9213 5.46313   1
  -1   6  -5 30.4757 14.9438   1
  -1   6  -5 22.3105 6.21202   1
  -1   6  -5 22.6132 6.70828   1
   1   6   5 22.0769 5.67176   1
  -1  -6  -6  165.80 12.6679   1
  -1  -6  -6 146.682 19.3447   1
   1  -6   6 175.436 14.9736   1
   1   6   6 155.196 13.0006   1
  -1   6  -6 170.555 14.3945   1
  -1   6  -6 173.746 24.6892   1
  -1  -6  -7  6.9625 4.94384   1
   1  -6   7 7.18547 6.53372   1
  -1  -6  -7-3.05606  9.5251   1
   1   6   7 8.21991 5.30809   1
  -1   6  -7  1.3411 5.97689   1
   1  -6   8 50.7183 9.62049   1
  -1  -6  -8 54.4517 15.1883   1
  -1   6  -8 51.1913 8.62733   1
   1   6   8  34.622 7.69484   1
   1  -6   9 4.49801 13.6467   1
  -1  -6  -9  13.514  13.012   1
  -1  -7   0 189.908 15.2806   1
  -1  -7   0 199.393 14.6708   1
   1  -7   0 220.896 14.7689   1
   1  -7   0 258.123 16.6219   1
  -1   7   0  237.13 16.1217   1
   1   7   0 222.828 16.2543   1
  -1   7   0 224.802 16.3737   1
  -1   7   0 219.361 16.4613   1
   1   7   0 199.619 15.9328   1
  -1  -7  -1 38.2365 6.56584   1
   1  -7   1 48.4745 7.41864   1
  -1  -7  -1 48.6837 7.96735   1
   1  -7   1 53.5776    8.62   1
  -1   7  -1 49.2076  8.2841   1
   1   7   1  38.268 7.33491   1
  -1   7  -1 31.3983 7.19457   1
   1   7   1 38.9238 7.58001   1
  -1   7  -1 31.3323 6.95851   1
  -1  -7  -2 72.0669 9.67185   1
  -1  -7  -2 52.3662 20.0386   1
   1  -7   2 58.5696 8.90515   1
   1  -7   2 62.6318 9.57564   1
   1   7   2 60.5438 9.22601   1
   1   7   2 62.9822 8.74671   1
  -1   7  -2 79.9951  10.264   1
  -1   7  -2 58.0215 8.90744   1
   1  -7   3  135.86 12.8847   1
   1  -7   3 133.825 12.8644   1
  -1  -7  -3 111.089 11.7598   1
  -1  -7  -3 130.029 22.4685   1
  -1   7  -3 144.018 14.0564   1
  -1   7  -3 117.329  11.394   1
   1   7   3 103.466 11.7508   1
   1  -7   4 167.437 14.8583   1
  -1  -7  -4 149.426 13.4317   1
  -1  -7  -4 174.208 23.9417   1
   1   7   4 168.372 15.2977   1
  -1   7  -4 188.199 15.6523   1
  -1   7  -4 167.745 13.8868   1
  -1  -7  -5 41.5318 7.83715   1
   1  -7   5  48.818 9.00268   1
  -1  -7  -5 36.3693  17.373   1
   1   7   5 41.0615  8.6691   1
  -1   7  -5 44.7747 8.69455   1
  -1  -7  -6 2.45119 4.99309   1
   1  -7   6 0.98837 6.73167   1
   1   7   6-3.71534 5.26921   1
  -1   7  -6 0.20877 6.35815   1
   1  -7   7 17.9794 8.93917   1
  -1   7  -7 31.8258 8.86814   1
   1   7   7 16.1859 7.12614   1
   1  -7   8 130.279 15.6157   1
   1  -8   0 334.991 21.7263   1
  -1  -8   0 287.603  21.172   1
  -1   8   0 329.553 21.9342   1
   1   8   0 333.182 22.2382   1
  -1  -8  -1 49.4402 9.25871   1
   1  -8   1 40.3624 8.94016   1
   1  -8   1 50.9189 10.3548   1
  -1   8  -1  47.099 8.88438   1
   1   8   1 36.7011 8.79608   1
  -1  -8  -2 3.99069 5.53524   1
   1  -8   2 7.55707 6.51703   1
   1   8   2-2.35172 5.49773   1
  -1   8  -2 0.26639 6.32318   1
   1  -8   3 26.5968 7.86348   1
  -1  -8  -3 29.2192 7.62069   1
  -1   8  -3 30.1095 8.83728   1
   1   8   3 31.9297 8.87682   1
  -1  -8  -4 12.9911 6.64554   1
   1  -8   4 10.0995 7.21114   1
   1   8   4 4.07537 6.33142   1
   1  -8   5-3.31738 6.94117   1
   1   8   5 0.84893  6.8877   1
   1  -8   6 0.50188 7.74303   1
  -1   8  -6 9.70608  14.331   1
   1  -8   7 13.4755 9.42634   1
   1   9   0 204.483 19.2796   1
  -1   9   0 242.474 19.5813   1
  -1  -9  -1  129.31 15.7994   1
   1   9   1 138.957 16.5205   1
  -1   9  -1 160.243  16.907   1
  -1  -9  -2 15.6121 8.04654   1
   1   9   2 9.53031 8.09808   1
  -1  -9  -3 168.775 17.3429   1
   1   9   3 205.368 20.7908   1
   1   9   4 44.9026  17.389   1
  -1  10   0 2.02276 9.28929   1
   1  10   0-5.44318 10.9933   1
   1  10   1 15.3381 9.94322   1
   2   0   0 2625.42  115.83   1
   2   0   0 2731.23 113.853   1
   2   0   0 2736.59 114.287   1
  -2   0   0 2644.10 113.517   1
   2   0   0 2596.56 113.468   1
  -2   0   0 2794.11 113.954   1
  -2   0   0 2759.08  114.28   1
  -2   0   0 2691.35 114.416   1
  -2   0   0 2788.83 116.181   1
  -2   0   0 2728.07 115.961   1
   2   0   0 2717.23  113.34   1
  -2   0   0 2745.12 113.389   1
   2   0   0 2626.08 114.245   1
  -2   0  -1 240.316 13.8964   1
   2   0   1 231.919 11.2856   1
   2   0   1 242.445 11.0291   1
   2   0   1 216.827 12.0827   1
  -2   0  -1 250.138 12.4478   1
  -2   0  -1 214.149 11.0151   1
  -2   0  -1 227.778 11.0053   1
   2   0   1 204.077 11.0608   1
   2   0   1 221.161 13.0695   1
  -2   0  -1  196.94 12.8587   1
  -2   0  -1 217.823 11.2369   1
   2   0   1 230.076 11.2153   1
  -2   0  -1 236.743 11.3185   1
   2   0   2 0.46451 1.57832   1
  -2   0  -2 1.73545 2.73801   1
  -2   0  -2-0.12237 1.23468   1
   2   0   2 3.63325 2.01912   1
  -2   0  -2 7.47165 2.08904   1
  -2   0  -2 0.04263 1.71027   1
   2   0   2 3.81273 2.90934   1
  -2   0  -2 -1.7028 1.49903   1
  -2   0  -2-4.33857 3.67853   1
   2   0   2 0.55336 1.56028   1
   2   0   2-1.03671 2.26192   1
  -2   0  -2-0.60462 1.45351   1
   2   0   2 2.74767  1.9341   1
  -2   0  -3 364.546 20.6249   1
   2   0   3 346.919 18.4153   1
  -2   0  -3 375.284 17.8083   1
   2   0   3 347.563 17.3976   1
   2   0   3 339.397 17.0751   1
   2   0   3 357.738 17.3015   1
   2   0   3 375.706 16.9577   1
  -2   0  -3 351.369 16.5259   1
  -2   0  -3 357.153 17.2832   1
   2   0   3 375.719 19.3725   1
   2   0   4 296.343 14.7785   1
   2   0   4 305.821 15.2351   1
   2   0   4 261.697 16.6376   1
  -2   0  -4 298.769 18.4469   1
   2   0   4 320.858 16.6716   1
  -2   0  -4 306.668 13.6942   1
  -2   0  -4 280.295 13.5901   1
   2   0   4 301.088 15.0189   1
  -2   0  -4 278.015 14.7478   1
  -2   0  -4 306.817 15.1842   1
   2   0   4 298.321 14.5453   1
  -2   0  -5 19.9648 3.39936   1
  -2   0  -5 30.5141 4.25282   1
  -2   0  -5 30.6055 6.50529   1
   2   0   5 23.9622 5.05321   1
   2   0   5 23.2832 3.79785   1
   2   0   5 26.0275 3.64046   1
   2   0   5 22.9707  3.8598   1
   2   0   5 21.2439 3.60111   1
   2   0   6 327.404 16.4279   1
   2   0   6 335.048 18.7065   1
   2   0   6 311.103 16.8776   1
  -2   0  -6 334.264 17.1541   1
   2   0   6  306.80 17.2166   1
   2   0   6 337.251 16.9156   1
  -2   0  -6 312.711  16.612   1
  -2   0  -6 347.917 21.9502   1
   2   0   7 29.1212 6.71214   1
  -2   0  -7 33.0307  9.1351   1
  -2   0  -7 32.0303 8.49743   1
  -2   0  -7 44.2883 5.70283   1
  -2   0  -7 31.9319 4.87241   1
   2   0   7 33.3172 4.75069   1
   2   0   7 28.0586 5.21016   1
   2   0   7 31.5003 4.84939   1
  -2   0  -8 1658.32 71.4163   1
  -2   0  -8 1625.24 71.1011   1
  -2   0  -8 1714.95 77.4553   1
   2   0   8 1612.14 71.3946   1
   2   0   8 1523.33 72.3198   1
  -2   0  -9  10.163 8.17408   1
  -2   0  -9 14.9078 4.21363   1
  -2   0  -9 12.2876 9.63536   1
  -2   0  -9 14.7716 5.14554   1
   2   0   9 13.8525 4.48869   1
   2   0   9 12.1443 5.32892   1
   2   0  10 2.93546 4.48359   1
   2   0  10 2.73833 5.24599   1
  -2   0 -10 8.56138 8.83094   1
  -2   0 -10 15.0428 5.47005   1
  -2   0 -10 10.3765 8.80557   1
  -2   0 -11 23.2013 12.2044   1
   2   0  11 21.9231 6.53639   1
   2   0  11  22.122 7.19955   1
  -2   0 -11 23.0028  12.007   1
  -2   0 -11 22.8136  6.2654   1
  -2   1   0 9142.10 389.613   1
   2   1   0 9030.92 392.203   1
  -2   1   0 9237.44 389.726   1
  -2   1   0 9219.00 388.687   1
   2   1   0 9095.68 388.739   1
  -2  -1   0 9081.33 374.782   1
  -2  -1   0 9445.20  377.46   1
  -2  -1   0 8495.33 373.604   1
  -2  -1   0 7850.95 376.769   1
   2  -1   0 8631.22  373.49   1
   2  -1   0 8738.35 374.691   1
  -2  -1   0 9241.32 376.356   1
   2  -1   0 9386.22 374.668   1
   2  -1   0 9382.46 376.198   1
  -2  -1   0 8986.71 373.675   1
  -2  -1   0 9111.93 374.599   1
   2  -1   0 9430.24  373.58   1
  -2   1   0 9113.60 389.896   1
  -2   1   0 9978.88 388.668   1
   2   1   0 9586.71 389.713   1
   2   1   0 9178.21 388.633   1
  -2   1   0 9816.69 392.774   1
   2  -1   1 658.387 28.3737   1
  -2  -1  -1 613.971 28.1405   1
   2  -1   1 609.518 29.0497   1
   2  -1   1 670.435 27.9685   1
  -2  -1  -1  608.98 30.2903   1
  -2  -1  -1 632.474 28.2198   1
  -2  -1  -1 653.799 27.9773   1
  -2  -1  -1 607.054 28.7313   1
   2  -1   1  678.01 31.0947   1
   2   1   1 650.972 28.4515   1
   2   1   1 608.201 28.1962   1
  -2   1  -1 627.397 28.2503   1
   2   1   1 621.808 30.5555   1
  -2   1  -1  669.16 29.3799   1
  -2   1  -1  661.40 28.1156   1
  -2   1  -1 618.775 28.4465   1
  -2   1  -1 625.289 28.6209   1
  -2   1  -1 641.365 31.5104   1
   2   1   1 640.482  28.239   1
   2   1   1 637.101 29.1211   1
  -2  -1  -1 629.734  30.514   1
  -2  -1  -1  618.38  27.857   1
   2   1   1 637.305 28.4882   1
   2  -1   1 631.445 28.2048   1
   2  -1   1 593.524 27.9676   1
   2  -1   2 461.286 20.4632   1
   2  -1   2 451.469 20.9468   1
  -2  -1  -2 485.593 23.8588   1
  -2  -1  -2 410.793 20.0369   1
   2  -1   2 465.775 23.8542   1
   2  -1   2 450.191 20.9104   1
  -2  -1  -2 471.189 20.8801   1
  -2  -1  -2 456.252 22.9827   1
  -2  -1  -2 432.474  20.323   1
   2  -1   2 414.014 20.5453   1
  -2  -1  -2 424.249 20.6365   1
   2  -1   2 430.532   21.76   1
  -2   1  -2  427.48 21.5682   1
   2   1   2 456.653 23.2738   1
  -2   1  -2 449.231 20.3567   1
   2   1   2 463.455 21.0333   1
  -2   1  -2 425.076  20.863   1
  -2   1  -2 469.576 24.7309   1
   2   1   2  461.36 21.7367   1
  -2   1  -2 441.619 20.6165   1
   2   1   2 454.031 20.6979   1
   2   1   2 462.944 20.8831   1
   2   1   2 430.958 20.6179   1
   2  -1   3 1124.55  52.585   1
  -2  -1  -3 1207.46 54.9137   1
   2  -1   3 1188.75 53.5007   1
  -2  -1  -3 1191.90  52.232   1
   2  -1   3 1256.83 55.6502   1
  -2  -1  -3 1140.16 51.1318   1
  -2  -1  -3 1225.54 55.3919   1
   2  -1   3 1258.77 52.6969   1
   2  -1   3 1246.34 52.0027   1
  -2  -1  -3 1147.26 51.6441   1
   2  -1   3 1160.32 52.1193   1
  -2  -1  -3 1275.59 52.7494   1
  -2   1  -3 1330.73 58.6217   1
  -2   1  -3 1224.60 54.1103   1
  -2   1  -3 1307.22 53.3522   1
   2   1   3 1225.10  54.824   1
  -2   1  -3 1191.17 53.3796   1
  -2   1  -3 1224.17 54.3812   1
   2   1   3 1221.40 53.6461   1
   2   1   3 1237.04 53.6272   1
   2   1   3 1234.37 54.3273   1
   2   1   3 1218.86 53.9117   1
  -2  -1  -4 343.852 15.7612   1
  -2  -1  -4 370.037  20.937   1
   2  -1   4 362.469 20.6176   1
  -2  -1  -4 345.224 17.4477   1
   2  -1   4 356.231 17.6213   1
  -2  -1  -4 358.819 17.8339   1
   2  -1   4 383.677 18.1285   1
   2  -1   4 402.041 19.8024   1
   2  -1   4 341.008 17.8364   1
  -2  -1  -4  346.18 15.7509   1
   2  -1   4 345.894  17.205   1
  -2  -1  -4 351.988 20.4384   1
   2   1   4 379.659 19.2591   1
  -2   1  -4 385.415 17.5791   1
  -2   1  -4 350.172 18.2319   1
   2   1   4 374.668 17.9776   1
  -2   1  -4  394.23 23.0438   1
  -2   1  -4 374.137 18.7332   1
   2   1   4 369.983 17.9476   1
   2   1   4 367.326 18.1148   1
   2   1   4 363.751 18.4276   1
  -2  -1  -5  74.123  9.6969   1
  -2  -1  -5 56.6791 5.46953   1
   2  -1   5 46.1997 5.30261   1
   2  -1   5 52.4691 5.05291   1
  -2  -1  -5 41.4437 7.17966   1
   2  -1   5 64.2916 5.93773   1
   2  -1   5 62.4772 5.96186   1
   2  -1   5 68.5977 8.30047   1
   2   1   5 54.9012 5.95211   1
  -2   1  -5 59.3183 9.51655   1
  -2   1  -5 56.2466 4.00047   1
   2   1   5 63.6839 5.65816   1
  -2   1  -5  58.226 4.33559   1
  -2   1  -5 62.5229 6.34269   1
   2   1   5 55.2847 5.37835   1
   2   1   5  66.802 6.83336   1
   2   1   5 55.3174 5.46516   1
  -2   1  -5 57.2676 5.52059   1
   2  -1   6 276.541 14.7381   1
   2  -1   6 304.278  15.545   1
  -2  -1  -6 289.327  14.954   1
   2  -1   6 284.107 15.6676   1
   2  -1   6 316.435 18.0704   1
  -2  -1  -6 231.401 18.2063   1
  -2  -1  -6  290.35 15.1883   1
   2  -1   6  271.45 15.5687   1
  -2  -1  -6 286.761 19.3291   1
   2   1   6 291.548 15.3436   1
   2   1   6  301.23 16.1173   1
   2   1   6 292.705 16.9828   1
   2   1   6 291.346 15.2853   1
  -2   1  -6  272.69 15.4996   1
  -2   1  -6 318.947 21.7956   1
  -2   1  -6 310.858 16.3476   1
   2   1   6 287.477 15.5607   1
   2  -1   7 89.7256 7.55732   1
  -2  -1  -7 101.513 12.5836   1
  -2  -1  -7 98.6993 8.08578   1
   2  -1   7 93.0757 11.7882   1
   2  -1   7 108.972 8.58161   1
   2  -1   7 91.2168  8.3562   1
  -2  -1  -7 90.8507 11.9634   1
  -2  -1  -7 87.3353 7.53069   1
  -2   1  -7 127.501 14.9148   1
   2   1   7 89.1252  7.8129   1
  -2   1  -7 101.048   8.109   1
   2   1   7 103.446 8.63931   1
   2   1   7 100.212 10.0498   1
   2   1   7 91.0098 7.97983   1
  -2   1  -7 107.146 9.03803   1
   2  -1   8 142.798 11.0153   1
  -2  -1  -8 172.388 10.8003   1
  -2  -1  -8 152.868 15.5911   1
  -2  -1  -8 137.185  10.007   1
   2  -1   8 132.215 10.8783   1
  -2   1  -8 164.778  18.067   1
  -2   1  -8  147.24 11.1965   1
   2   1   8  133.20 10.9058   1
   2   1   8 152.277 10.3284   1
  -2   1  -8  136.37 10.1479   1
  -2  -1  -8 165.507 16.3264   1
  -2  -1  -9 154.219 18.3545   1
  -2  -1  -9 210.843  19.482   1
  -2  -1  -9 177.873 11.7844   1
   2  -1   9 218.003   13.65   1
   2  -1   9 178.935 13.4181   1
  -2   1  -9 193.262 20.7414   1
   2   1   9 176.324 12.0443   1
   2   1   9 183.423 13.3377   1
  -2   1  -9 160.233  11.778   1
  -2   1  -9 186.385 13.0928   1
  -2  -1  -9 191.547 12.4746   1
  -2  -1 -10 3.54219 9.33873   1
   2  -1  10 0.01759 5.14995   1
  -2  -1 -10 8.22389 4.94951   1
   2  -1  10 7.32636 5.36639   1
  -2  -1 -10 8.86578 10.1641   1
  -2   1 -10-4.23154 9.73686   1
  -2   1 -10 10.5711 6.15036   1
   2   1  10  1.9882 4.36262   1
   2   1  10 1.73155 5.52394   1
  -2  -1 -11-1.16297 9.32291   1
  -2  -1 -11 14.7964 5.38996   1
  -2  -1 -11 10.9798 10.7779   1
   2  -1  11 11.2057 6.83285   1
  -2   1 -11 5.69507  11.266   1
  -2   1 -11 13.9143 11.2507   1
   2   1  11 11.6891 5.52771   1
   2  -1  11 3.88533 6.44578   1
   2   1  11 11.4724 6.77587   1
   2  -2   0 1085.80 48.5437   1
  -2  -2   0 1116.57  49.122   1
   2  -2   0 1150.84 48.7527   1
   2  -2   0 1109.82 49.0726   1
   2  -2   0 1138.96 50.6848   1
  -2  -2   0 1119.47 48.8043   1
   2  -2   0 1176.09 49.1964   1
  -2  -2   0 1099.96 48.8948   1
  -2   2   0 1160.79 48.8799   1
  -2   2   0 1152.92 49.2312   1
   2   2   0 1101.73 48.9184   1
   2   2   0 1149.01   49.18   1
  -2   2   0 1064.45 49.8033   1
   2   2   0 1125.96 49.0313   1
   2   2   0 1107.68 51.8604   1
  -2   2   0 1063.86 48.6247   1
  -2   2   0 1218.34  52.704   1
  -2  -2  -1 316.731 15.7087   1
   2  -2   1 320.619 15.8549   1
  -2  -2  -1 298.531 15.1348   1
  -2  -2  -1 330.127 15.5838   1
  -2  -2  -1 314.327 15.5515   1
  -2  -2  -1 309.069 16.1562   1
  -2  -2  -1 357.999 19.5731   1
   2  -2   1 326.964 19.1337   1
   2  -2   1 307.595 15.4838   1
   2  -2   1 310.082 16.7249   1
   2  -2   1  306.89 15.4273   1
   2  -2   1 308.465 15.7999   1
   2   2   1 342.079 19.0027   1
  -2   2  -1 301.312 15.9986   1
   2   2   1 321.775 15.9688   1
  -2   2  -1 352.092 15.8795   1
  -2   2  -1 330.169  16.395   1
   2   2   1 346.453 16.0487   1
  -2   2  -1 311.826 15.8631   1
  -2   2  -1 326.786 17.5112   1
  -2   2  -1 315.449  19.645   1
   2   2   1 306.307 15.8481   1
  -2  -2  -2 71.1726 6.05231   1
  -2  -2  -2 71.5823  5.5932   1
  -2  -2  -2 74.4337 5.22435   1
   2  -2   2 78.6603 5.72714   1
   2  -2   2 81.0614 6.28036   1
   2  -2   2 71.7008 6.08014   1
   2  -2   2 78.4523 9.72801   1
   2  -2   2 83.4143 6.23765   1
  -2  -2  -2 80.7584 10.5154   1
   2  -2   2 74.8255  8.1511   1
  -2  -2  -2 75.2707 5.84237   1
  -2  -2  -2 64.4745 5.89752   1
   2   2   2 82.6518 6.71155   1
  -2   2  -2 89.1305 6.33659   1
   2   2   2 77.0326 8.99368   1
   2   2   2 78.0134 5.96843   1
   2   2   2 66.5726 5.63827   1
  -2   2  -2  78.166 5.78255   1
  -2   2  -2 83.9556 10.6004   1
   2   2   2 73.5841 5.92313   1
  -2   2  -2 67.4913 5.79604   1
  -2   2  -2 79.6927 6.42018   1
  -2   2  -3 380.903 17.0987   1
  -2   2  -3 363.103 17.5329   1
   2   2   3 346.381 17.5595   1
   2   2   3 359.014 17.4861   1
   2  -2   3 356.963 17.8428   1
  -2  -2  -3 355.349 17.3265   1
  -2  -2  -3  351.89  17.015   1
   2  -2   3 383.645 19.9102   1
   2  -2   3 374.041 21.5423   1
   2  -2   3 328.126 17.0342   1
  -2  -2  -3 314.743 16.0448   1
  -2  -2  -3  344.24 17.3038   1
   2  -2   3 339.726 17.4801   1
   2  -2   3 358.857 17.7479   1
  -2  -2  -3 355.134 21.0952   1
   2   2   3 355.616 18.4449   1
  -2   2  -3 385.265 22.8828   1
  -2   2  -3 335.068 17.7592   1
   2   2   3 326.094 17.1773   1
   2   2   3 361.014 20.2203   1
   2   2   3 353.873 17.5225   1
  -2  -2  -4  639.65 28.7986   1
  -2  -2  -4 694.677 32.5313   1
   2  -2   4  673.85 31.2508   1
  -2  -2  -4 687.444 34.7063   1
   2  -2   4 746.865 31.9982   1
   2  -2   4 688.369 31.5313   1
  -2  -2  -4 642.851 28.7543   1
   2  -2   4  670.30 33.0076   1
  -2  -2  -4 665.622 30.9042   1
   2  -2   4 688.282 35.0365   1
   2  -2   4 633.983 30.6918   1
   2  -2   4 692.197 30.9461   1
   2   2   4  726.36 32.3431   1
  -2   2  -4 781.363  38.708   1
  -2   2  -4 680.314 32.6125   1
  -2   2  -4 693.518 31.4493   1
   2   2   4 671.064 31.9992   1
  -2   2  -4 711.497 33.1722   1
   2   2   4 697.836 32.6005   1
  -2   2  -4 722.835 32.0634   1
   2   2   4 719.054 33.4673   1
   2   2   4 689.723 32.2374   1
   2  -2   5 249.667 13.5192   1
   2  -2   5 233.523 15.3943   1
  -2  -2  -5 237.695 12.5713   1
  -2  -2  -5 221.881 15.5134   1
   2  -2   5 175.765 18.3903   1
   2  -2   5 233.295 13.1094   1
   2  -2   5 205.093 12.9054   1
  -2  -2  -5 233.748 16.7108   1
   2  -2   5 198.359 12.2107   1
  -2   2  -5 218.737 13.0639   1
  -2   2  -5 266.803  19.507   1
   2   2   5 217.967 12.9819   1
   2   2   5 234.871 14.1339   1
   2   2   5 223.391 12.7939   1
  -2   2  -5 239.473 13.9267   1
   2   2   5 207.181 12.4466   1
   2   2   5 229.788 12.9274   1
  -2   2  -5 243.464  12.911   1
  -2   2  -5  238.20 11.7027   1
   2  -2   6 34.1991 5.21714   1
   2  -2   6  27.713 4.82262   1
  -2  -2  -6 31.0049 7.47267   1
  -2  -2  -6 39.4622 7.99519   1
   2  -2   6 29.9299 4.46932   1
   2  -2   6 36.0875 7.65055   1
   2  -2   6 28.9197 4.88627   1
  -2   2  -6 31.6009 2.95886   1
   2   2   6 35.1206 5.98933   1
   2   2   6 24.3495 4.52422   1
  -2   2  -6 44.4524 10.5645   1
   2   2   6  40.565 5.67847   1
   2   2   6 35.3305 4.91093   1
  -2   2  -6 41.5947  5.9758   1
  -2   2  -6 28.2675 2.87548   1
  -2   2  -6 29.1109 4.74952   1
  -2  -2  -6  28.643 4.54433   1
   2   2   6 34.1173 4.96394   1
   2  -2   7  28.124  5.2662   1
  -2  -2  -7 28.5731  8.3809   1
   2  -2   7  15.904 4.03948   1
  -2  -2  -7 30.7551 4.86285   1
   2  -2   7 35.2775 6.01348   1
  -2   2  -7  30.582 11.2486   1
   2   2   7 24.0708  4.7791   1
  -2   2  -7 21.4497  4.5125   1
   2   2   7  33.209 5.10027   1
   2   2   7 31.4644 5.57232   1
  -2   2  -7 30.1142 5.56855   1
  -2  -2  -7 23.8358   6.796   1
   2   2   7  23.475 5.81773   1
  -2  -2  -8 74.5586 7.44253   1
   2  -2   8 68.1499 8.61953   1
   2   2   8 82.7187 8.84678   1
  -2   2  -8 73.7182 8.53958   1
  -2   2  -8 81.1281 15.6386   1
   2   2   8 77.0534 7.65017   1
  -2   2  -8 69.3308 7.65554   1
   2  -2   8 76.4622 8.30723   1
  -2  -2  -8 80.8593  7.8786   1
  -2  -2  -8 80.8044 12.9797   1
  -2  -2  -9 -2.4595 3.49466   1
  -2  -2  -9 1.65231 6.92991   1
   2  -2   9 5.48787 4.92539   1
  -2  -2  -9-3.46477 7.70663   1
   2  -2   9-1.02932 4.36356   1
  -2  -2  -9 3.19611 4.12323   1
  -2   2  -9 1.20724 3.93411   1
   2   2   9 1.87738 4.89285   1
  -2   2  -9-1.82278 5.34131   1
   2   2   9 4.60873 3.81957   1
  -2   2  -9-0.36286 9.86039   1
  -2  -2 -10-0.12469 4.35083   1
   2  -2  10 -0.8963 5.09654   1
  -2  -2 -10 2.75885 9.29064   1
   2  -2  10-3.92979 4.67823   1
   2   2  10 2.91537 4.30779   1
  -2   2 -10 3.28689 10.9994   1
  -2  -2 -10 2.02416 7.84494   1
   2   2  10 4.92485 5.64885   1
  -2  -2 -11 7.99813 11.1665   1
   2  -2  11 6.02205  6.5332   1
  -2  -2 -11 15.0631 11.5021   1
   2   2  11 4.73623 6.95982   1
   2   2  11 6.03736 6.38692   1
  -2   2 -11 14.4232 12.5803   1
  -2  -3   0 432.022 21.1848   1
   2  -3   0 436.239 20.7672   1
   2  -3   0 429.296   21.01   1
  -2  -3   0 442.022 21.0739   1
   2  -3   0 433.391 21.3043   1
   2  -3   0 443.468 25.2818   1
  -2  -3   0 458.373 21.6493   1
  -2   3   0 470.539 25.5021   1
  -2   3   0 463.176 21.7915   1
   2   3   0 456.351 21.6133   1
  -2   3   0 437.426 21.2153   1
   2   3   0 435.505 25.3704   1
   2   3   0 431.855  21.456   1
  -2   3   0 433.431  23.467   1
  -2   3   0 416.784 21.3361   1
   2   3   0 472.949 21.7659   1
  -2   3   0  417.67 20.9905   1
   2  -3   1 149.228 9.60245   1
  -2  -3  -1  144.59  9.9542   1
  -2  -3  -1 141.139 13.6799   1
  -2  -3  -1 152.356 9.80368   1
  -2  -3  -1 159.981 9.07762   1
   2  -3   1 164.876 13.9161   1
   2  -3   1 152.468 9.69627   1
   2  -3   1 151.808 9.37297   1
  -2  -3  -1 149.402  9.3261   1
   2  -3   1 140.416 9.15911   1
  -2   3  -1 155.246 9.59163   1
  -2   3  -1 136.743  9.0011   1
   2   3   1 141.881 9.47405   1
   2   3   1 154.533 9.60883   1
  -2   3  -1 163.247 14.1661   1
   2   3   1 157.569 9.76621   1
   2   3   1 154.352 13.0438   1
  -2   3  -1  157.22 9.64421   1
  -2   3  -1 148.309 9.86425   1
   2  -3   2 386.792 19.7466   1
  -2  -3  -2 395.785 23.7289   1
  -2  -3  -2 368.657 18.2751   1
   2  -3   2 374.884 19.1871   1
  -2  -3  -2 384.219   18.66   1
   2  -3   2 382.519 19.1351   1
   2  -3   2 394.518 19.6831   1
  -2  -3  -2 394.155 19.0544   1
  -2  -3  -2  372.58 19.2783   1
   2  -3   2 402.308  23.842   1
   2   3   2 388.965 22.6665   1
   2   3   2 387.324 19.6036   1
   2   3   2 358.978 19.2099   1
  -2   3  -2 377.589  19.743   1
  -2   3  -2 395.437 19.2066   1
   2   3   2 368.604 19.2983   1
  -2   3  -2 416.771 20.3476   1
  -2   3  -2 403.023 19.5917   1
  -2   3  -2 445.629 25.1637   1
   2  -3   3 82.0908 7.13283   1
   2  -3   3 78.7229 7.22237   1
   2  -3   3 76.6796 11.5109   1
  -2  -3  -3 89.0299 11.1707   1
  -2  -3  -3 76.5889 5.56253   1
  -2  -3  -3 85.0906 11.2324   1
   2  -3   3 79.6952 7.35895   1
  -2  -3  -3 92.6926 7.22615   1
   2  -3   3 79.3524 6.67257   1
  -2   3  -3   86.33 6.55801   1
  -2   3  -3 89.3943  7.2432   1
  -2   3  -3 78.4468 7.26329   1
  -2   3  -3 83.7006 7.20298   1
  -2   3  -3 84.8636 11.8916   1
   2   3   3 77.7861 9.23808   1
   2   3   3 84.5862 6.88273   1
   2   3   3 81.7197 7.15569   1
   2   3   3  87.756 6.85972   1
   2  -3   3 85.7689 11.2057   1
  -2  -3  -3 78.5709 6.74422   1
   2  -3   4 48.1113 5.67076   1
   2  -3   4 43.2552 5.44465   1
   2  -3   4 43.2472 5.86587   1
  -2  -3  -4 46.9253 3.72026   1
   2  -3   4  42.618 7.80735   1
  -2  -3  -4 47.1939 5.67165   1
   2  -3   4 40.2695 9.14044   1
  -2  -3  -4 41.9682 3.47307   1
   2  -3   4 47.1224 5.97999   1
  -2  -3  -4  55.361 10.0897   1
   2   3   4 46.6007 7.75674   1
  -2   3  -4 41.7088 5.38543   1
   2   3   4 47.0655 5.76831   1
   2   3   4 40.6892 5.37872   1
   2   3   4   45.56 6.20586   1
  -2   3  -4 52.8662  10.528   1
  -2   3  -4 43.2223 5.70546   1
   2   3   4 43.2282 5.22024   1
  -2   3  -4 44.0137 5.00325   1
   2  -3   5 25.2696 4.68672   1
   2  -3   5  14.037 9.24061   1
   2  -3   5 19.3694 4.63014   1
  -2  -3  -5 23.2068 4.49407   1
  -2  -3  -5 13.6735 7.38397   1
   2  -3   5 20.9605  7.0889   1
   2  -3   5 24.8723 5.02519   1
   2  -3   5 16.8055 4.01868   1
   2   3   5 16.2806 4.12207   1
   2   3   5  13.789 3.52141   1
   2   3   5 14.8949 4.42162   1
  -2   3  -5 24.2464 9.23477   1
  -2   3  -5 9.55512 4.18165   1
  -2   3  -5 18.4284 4.38861   1
  -2   3  -5  18.898 3.23404   1
   2   3   5 22.3215 4.16991   1
   2   3   6 4.37673 3.52152   1
  -2  -3  -6 3.76014  5.2208   1
   2  -3   6 2.36316  3.1449   1
   2  -3   6 2.78716 3.31163   1
   2  -3   6 3.67632 3.92379   1
  -2  -3  -6 5.39933 3.39069   1
  -2  -3  -6  5.0814 6.77084   1
   2  -3   6 8.26744   7.113   1
   2  -3   6 3.37924 3.43449   1
  -2   3  -6 4.41449 2.57891   1
  -2   3  -6 8.84915 8.41292   1
  -2   3  -6 3.55928 3.56553   1
   2   3   6 4.65814  3.9198   1
   2   3   6 3.59502 3.05419   1
  -2   3  -6 0.39599 4.01677   1
  -2  -3  -7 85.9674 12.9524   1
  -2   3  -7  93.143 15.7416   1
   2  -3   7 85.0941 8.90173   1
   2  -3   7 76.6231 8.94345   1
  -2  -3  -7 93.4715 11.7656   1
  -2  -3  -7 87.0161 8.01314   1
   2  -3   7 86.3597 9.24188   1
   2  -3   7 76.7819 8.60451   1
   2   3   7 70.2632 11.9408   1
  -2   3  -7 85.2547 8.60466   1
   2   3   7 79.6797 7.78168   1
  -2   3  -7 93.5901 9.86529   1
  -2  -3  -8 2.03739 8.02105   1
   2  -3   8-1.64318 4.32465   1
   2  -3   8 2.07425 4.78838   1
  -2  -3  -8 3.69137 3.69811   1
  -2  -3  -8 6.15301 6.44611   1
  -2   3  -8  2.1657 4.07295   1
  -2   3  -8 1.86739 10.2931   1
   2   3   8-0.50972 3.37762   1
  -2   3  -9-1.68513 10.9854   1
  -2  -3  -9  4.8078 4.30161   1
   2  -3   9 2.51715 5.28609   1
   2  -3   9 1.38782 5.17245   1
  -2  -3  -9 10.5122 7.27342   1
  -2  -3  -9 3.66833 4.43899   1
  -2  -3  -9 2.39731 9.12003   1
  -2   3  -9 1.17653 4.46452   1
   2   3   9 4.56288 4.10956   1
  -2  -3 -10 3.09814  10.574   1
   2  -3  10 1.68425 5.61934   1
  -2  -3 -10 1.42975 4.61057   1
  -2  -3 -10 0.15985 8.09314   1
   2  -3  10  0.4228  5.7494   1
  -2   3 -10 4.23906 12.0147   1
   2   3  10 2.52398 4.50639   1
  -2  -3 -11 22.2644 10.9204   1
  -2  -3 -11 35.2637 13.4658   1
   2  -3  11 38.8362 8.62692   1
  -2   3 -11 33.1053 16.3103   1
  -2  -4   0 71.3491 6.60671   1
   2  -4   0 75.5482  6.5464   1
   2  -4   0  69.827 6.84542   1
  -2  -4   0 73.7296 7.12466   1
  -2  -4   0 71.7054 6.94153   1
   2  -4   0 65.0856 6.67435   1
   2  -4   0 78.8284 10.5598   1
  -2   4   0  76.725 7.03412   1
  -2   4   0 68.7681 6.78341   1
  -2   4   0 68.0675  6.6863   1
  -2   4   0 73.3424  10.878   1
   2   4   0 69.7458 7.26014   1
   2   4   0 67.9692 6.85678   1
   2   4   0 78.8591 7.28568   1
   2   4   0 74.9981 10.8491   1
  -2   4   0 76.2744 7.31634   1
   2   4   1 417.291 20.8444   1
   2   4   1 411.227 20.6544   1
  -2   4  -1 402.804 20.7484   1
   2   4   1 383.996 20.5662   1
   2   4   1 399.237 24.6592   1
  -2   4  -1 398.812 21.2186   1
  -2   4  -1 401.418 20.6123   1
  -2   4  -1 381.515 20.1685   1
   2  -4   1 424.868 20.6471   1
  -2  -4  -1 396.028 20.0233   1
   2  -4   1 434.126 26.0305   1
  -2  -4  -1 386.295 25.1586   1
   2  -4   1 387.482 20.0833   1
   2  -4   1 397.209 20.7542   1
  -2  -4  -1 395.641 19.8796   1
  -2  -4  -1  376.90 20.5275   1
  -2   4  -1 422.618 25.8201   1
  -2  -4  -2 41.3706 5.52301   1
  -2  -4  -2  23.558 4.05381   1
   2  -4   2 34.2103   8.569   1
  -2  -4  -2 18.6593 4.19082   1
   2  -4   2 21.5155 4.36096   1
  -2  -4  -2 37.7085 8.94287   1
   2  -4   2 39.2222 5.44267   1
   2  -4   2 20.5381 4.39176   1
   2   4   2 22.9064 4.42896   1
  -2   4  -2 29.8474 4.50774   1
   2   4   2 29.1443 4.86767   1
  -2   4  -2 31.0306 5.15469   1
  -2   4  -2 27.3359 8.58523   1
   2   4   2 35.8722 5.06283   1
   2   4   2  39.874 8.72864   1
  -2   4  -2  25.863 4.83824   1
  -2   4  -2 25.7064 4.65152   1
  -2  -4  -3 22.2294 4.64088   1
   2  -4   3 28.9465 4.90776   1
  -2  -4  -3 29.4531 9.08406   1
   2  -4   3 20.3424 7.64828   1
   2  -4   3 24.6006 4.75424   1
   2  -4   3 26.5898 4.89078   1
  -2  -4  -3 29.3368 4.98606   1
  -2   4  -3 22.1429 4.78761   1
  -2   4  -3 43.5585  11.126   1
  -2   4  -3 20.1227 4.92099   1
  -2   4  -3 28.2674 4.63362   1
   2   4   3 22.6262  6.8573   1
   2   4   3 28.3819 4.59353   1
   2   4   3 29.6064 5.08283   1
   2   4   3 24.5195 4.69077   1
  -2  -4  -4 36.3095  9.9709   1
   2  -4   4 49.9346 6.46699   1
   2  -4   4 53.1429 6.42617   1
   2  -4   4 47.7881 6.41903   1
  -2  -4  -4 57.1105 6.93296   1
   2  -4   4   53.69 11.6067   1
  -2  -4  -4 48.8999 4.45077   1
   2   4   4   41.28  6.2599   1
   2   4   4 48.4648 6.05996   1
  -2   4  -4 44.4211 5.71564   1
   2   4   4 45.5616 5.85893   1
  -2   4  -4 57.1274 11.4928   1
  -2   4  -4  32.473 5.63504   1
  -2   4  -4 22.0987 5.34984   1
   2  -4   5 39.6826 5.72439   1
   2  -4   5 31.1143 5.46815   1
  -2  -4  -5 40.0231  5.8546   1
   2  -4   5 10.1803 10.4001   1
  -2  -4  -5  44.692  11.221   1
   2  -4   5 43.8564 6.51758   1
  -2   4  -5 67.4759 13.1851   1
  -2   4  -5 44.8377 5.36203   1
   2   4   5 45.6648 6.48401   1
  -2   4  -5 55.4078 7.62213   1
  -2   4  -5 46.8473 6.64309   1
  -2  -4  -6 143.837 16.8815   1
   2  -4   6  134.93 11.3159   1
   2  -4   6  131.93 10.8933   1
  -2  -4  -6 134.328 10.4212   1
   2   4   6 135.518 11.2928   1
  -2   4  -6 116.636 8.76452   1
   2   4   6 124.618 10.1245   1
   2  -4   6 145.844 11.9044   1
  -2   4  -6 136.275 12.1815   1
  -2   4  -6 141.308 11.1662   1
  -2   4  -6 173.814 20.3819   1
   2  -4   7 4.02938  4.8665   1
  -2  -4  -7-1.46712 3.53557   1
  -2  -4  -7-3.30517 5.88098   1
   2   4   7 0.98086 3.54528   1
  -2   4  -7 9.80743 11.4771   1
  -2   4  -7 1.96486 4.12069   1
  -2  -4  -7 8.37948 9.33122   1
  -2  -4  -8 58.3502 11.2149   1
  -2  -4  -8 47.6405 12.8057   1
   2  -4   8 77.0563 9.85435   1
  -2  -4  -8 61.5893 7.19315   1
   2   4   8 63.7584 7.88521   1
  -2   4  -8 50.7316 7.73427   1
  -2   4  -8 87.9788 19.4377   1
   2  -4   9  9.1126 6.33589   1
  -2  -4  -9  15.633 8.86505   1
   2   4   9 13.2648 5.37696   1
  -2  -4  -9 16.3834  12.463   1
  -2   4  -9 15.6697 13.9748   1
   2  -4   9 21.1703 7.53958   1
  -2   4  -9 20.1182  7.5264   1
  -2  -4 -10 35.5881 7.39496   1
  -2  -4 -10 20.4639 12.9372   1
   2  -4  10  18.638 7.34673   1
  -2  -4 -10 26.3333  9.5917   1
   2   4  10 16.7421  6.8047   1
  -2   4 -10 30.1136 17.6952   1
   2  -5   0 46.1649 6.21189   1
  -2  -5   0 39.2583 6.20584   1
   2  -5   0 54.9922  6.8043   1
   2  -5   0 46.4356  9.5436   1
  -2  -5   0 49.5329 6.40222   1
   2   5   0 49.5061 6.96127   1
  -2   5   0 53.4904 7.18852   1
   2   5   0  33.068 9.03791   1
  -2   5   0 41.4331 5.92703   1
   2   5   0 42.8923 6.26539   1
  -2   5   0  63.121  11.653   1
   2   5   0 49.3736 6.54211   1
  -2   5   0 60.8933 7.02139   1
  -2   5   0 46.2822 6.22169   1
  -2  -5  -1 100.831  14.311   1
  -2  -5  -1 106.354  8.6354   1
   2  -5   1 108.124 14.4025   1
   2  -5   1 91.1362 8.76984   1
  -2  -5  -1 94.4101 8.94883   1
   2  -5   1 110.563 9.44072   1
  -2   5  -1 100.398  9.8556   1
   2   5   1 98.8547 13.7671   1
  -2   5  -1 108.573 14.8807   1
  -2   5  -1 137.255 15.4601   1
   2   5   1 118.585 9.91289   1
   2   5   1 96.8891 9.14717   1
  -2   5  -1 112.456 9.21016   1
  -2   5  -1 106.087 9.33767   1
   2   5   1 103.069 9.48628   1
  -2  -5  -2 96.3992 14.2966   1
  -2  -5  -2 87.9493 7.74003   1
  -2  -5  -2 116.874   9.231   1
   2  -5   2 89.5629 13.9597   1
   2  -5   2 96.0121 9.12029   1
  -2  -5  -2 66.5033 8.23438   1
   2  -5   2 90.4893 8.71613   1
  -2   5  -2 114.655 9.68169   1
   2   5   2  102.92 9.41084   1
   2   5   2 106.887 9.31482   1
  -2   5  -2 95.5951 8.68694   1
   2   5   2 94.0591 9.53168   1
  -2   5  -2 113.131 10.4235   1
   2   5   2 92.5606 13.3172   1
  -2   5  -2 105.547 15.2237   1
   2   5   3 162.324 16.7296   1
   2  -5   3 171.892 17.9802   1
   2  -5   3 177.331 12.7415   1
  -2  -5  -3 146.397 11.4771   1
  -2  -5  -3 176.744 17.9506   1
  -2  -5  -3 166.295  11.977   1
   2  -5   3 178.605 12.4753   1
   2   5   3 155.126 12.0591   1
  -2   5  -3 174.994 11.8592   1
  -2   5  -3 162.541 13.3252   1
   2   5   3 189.957 12.8815   1
  -2   5  -3 196.482 19.8611   1
  -2   5  -3 193.589 13.0843   1
   2   5   3 160.777 12.1654   1
   2  -5   4 71.1674 8.54342   1
   2  -5   4 46.2493 10.9514   1
  -2  -5  -4 69.2815 5.80506   1
  -2  -5  -4 73.2113 13.1544   1
  -2  -5  -4 64.4588 7.59153   1
   2  -5   4 61.4101 8.04801   1
  -2   5  -4 65.6733 6.93008   1
  -2   5  -4 51.1504  7.8324   1
  -2   5  -4 49.7688 7.02571   1
  -2   5  -4 65.9649 13.4379   1
   2   5   4 53.9824 7.31659   1
   2   5   4 67.4812 8.02309   1
   2   5   4 56.5347 7.53206   1
  -2  -5  -5 78.1269 13.5859   1
   2  -5   5 81.2767 9.59112   1
  -2  -5  -5 99.0275 9.19303   1
   2  -5   5 72.2157 9.07819   1
  -2   5  -5 100.191 17.9428   1
  -2   5  -5  69.054 8.61181   1
   2   5   5 66.0878  7.9954   1
   2   5   5 71.9891 8.98256   1
  -2   5  -5 71.5774 7.71027   1
  -2  -5  -6 10.8417 9.31684   1
   2  -5   6  9.0772 5.68289   1
  -2  -5  -6 12.4664 4.69962   1
   2   5   6 5.60759 4.09416   1
  -2   5  -6 4.61427 12.0307   1
  -2   5  -6 7.98416 5.19333   1
  -2  -5  -7 13.7369 10.4941   1
  -2  -5  -7  19.982 5.43441   1
  -2   5  -7 24.2108 15.3919   1
   2   5   7 14.7026  5.1995   1
  -2   5  -7 25.1672  6.4452   1
   2  -5   7 29.0578 7.71691   1
   2  -5   8 24.4802 8.05324   1
  -2  -5  -8 11.1726 10.9555   1
  -2  -5  -8 7.01486 8.06158   1
   2   5   8 21.4941 6.16907   1
  -2   5  -8 0.75901 5.28928   1
  -2   5  -8 27.5579 18.1717   1
   2  -5   9 30.4488 9.29089   1
  -2  -5  -9 32.8851 10.3605   1
   2   5   9  15.701 6.32236   1
  -2  -5  -9 26.9855 13.5076   1
   2  -5  10 17.7676 8.38397   1
  -2  -5 -10 25.9975  14.866   1
  -2  -5 -10 31.1209 11.7505   1
   2  -6   0 170.033 17.9807   1
  -2  -6   0 140.107  11.408   1
   2  -6   0 149.212 11.2098   1
   2  -6   0 158.457 12.1231   1
  -2  -6   0 126.556 11.9011   1
  -2   6   0 157.716 13.2398   1
   2   6   0 172.236 12.7544   1
   2   6   0 138.017 17.5165   1
  -2   6   0 154.661  18.692   1
  -2   6   0  152.82 12.1999   1
   2   6   0 152.094 12.4125   1
  -2   6   0 144.901 11.7602   1
   2  -6   1 186.755 12.9685   1
  -2  -6  -1 184.342  12.428   1
  -2  -6  -1 148.612 12.8974   1
  -2  -6  -1 165.177 18.7209   1
   2  -6   1 177.742 19.3878   1
   2  -6   1 183.093 13.4843   1
  -2   6  -1 174.484 12.9001   1
   2   6   1 177.501 18.6993   1
   2   6   1 168.844 13.4383   1
   2   6   1  159.76 12.9641   1
  -2   6  -1 164.798 19.7648   1
  -2   6  -1 181.101 13.4851   1
  -2   6  -1 182.927 14.3947   1
   2  -6   2 170.915 12.8658   1
  -2  -6  -2 157.022 18.9237   1
   2  -6   2 177.438 13.3949   1
  -2  -6  -2 160.056 11.2967   1
   2  -6   2 143.833 20.2209   1
  -2  -6  -2 155.982 12.9575   1
   2   6   2 164.226  12.791   1
   2   6   2  168.32 13.6931   1
  -2   6  -2 158.063 12.4238   1
   2   6   2 163.989 13.1382   1
  -2   6  -2 161.155 12.9407   1
  -2   6  -2 176.817 20.9395   1
   2   6   2 150.048 18.0964   1
  -2   6  -2 165.801 14.2688   1
   2  -6   3 152.891 13.1416   1
  -2  -6  -3 160.064  12.896   1
  -2  -6  -3 163.298 19.0942   1
   2  -6   3 163.555 13.4044   1
   2   6   3 184.809 14.3008   1
   2   6   3 153.395 13.2321   1
  -2   6  -3 195.583 22.9016   1
  -2   6  -3 160.802 14.6609   1
  -2   6  -3 165.464 13.5729   1
   2   6   3 152.015 13.0866   1
  -2   6  -3 175.198  12.666   1
   2  -6   4 237.153 16.5235   1
   2  -6   4 217.439 16.0284   1
  -2  -6  -4 199.728 22.1499   1
  -2  -6  -4 239.345 15.8946   1
  -2   6  -4 203.825 14.7026   1
   2   6   4 221.595 15.9309   1
  -2   6  -4 248.838 25.8788   1
  -2   6  -4 237.206 16.4719   1
  -2  -6  -5 171.422 13.7939   1
  -2  -6  -5 186.778  21.633   1
   2  -6   5 184.598 15.1805   1
   2   6   5 137.879 13.1236   1
  -2   6  -5 177.455 14.4106   1
  -2  -6  -6 72.6809 9.30728   1
  -2  -6  -6 84.2051 16.0571   1
   2  -6   6 76.2179 10.4942   1
  -2   6  -6 76.5335 10.3792   1
   2   6   6  71.165 9.52238   1
   2  -6   7 7.99746 6.89618   1
  -2  -6  -7 2.09319 11.1385   1
  -2   6  -7-4.30468 5.69499   1
   2   6   7 3.65451 5.38481   1
   2  -6   8 26.5588 9.69895   1
  -2  -6  -8 21.8387  18.994   1
  -2   6  -8 30.6222 10.2698   1
   2   6   8 15.9313 6.90379   1
  -2  -6  -9 0.59702 9.14782   1
  -2  -7   0 12.1332 5.78773   1
   2  -7   0 27.7014 6.07665   1
  -2  -7   0 21.8763 5.86708   1
   2  -7   0 39.1589 7.45504   1
   2   7   0 26.3558 6.67208   1
  -2   7   0 28.0301 6.85308   1
   2   7   0 31.5922 7.04233   1
  -2   7   0 21.2299 7.04783   1
  -2   7   0 32.7681  7.0516   1
   2  -7   1 21.1395  5.9318   1
   2  -7   1 13.5521 5.98902   1
  -2  -7  -1 10.1328 5.30652   1
  -2  -7  -1  7.8438 4.81506   1
  -2   7  -1  8.4846 5.50185   1
  -2   7  -1 6.56212 5.95683   1
  -2   7  -1 10.2387 5.70314   1
   2   7   1 13.6701 5.66009   1
   2   7   1 10.6006 5.43685   1
  -2  -7  -2 194.234 16.1018   1
   2  -7   2 227.683 16.9769   1
   2  -7   2  232.07 16.2982   1
  -2   7  -2 190.746 16.0683   1
  -2   7  -2  215.46 15.5686   1
   2   7   2  199.47 16.0664   1
   2   7   2  220.81 19.0225   1
   2  -7   3 5.06319 5.56219   1
  -2  -7  -3 0.36533 4.71645   1
  -2   7  -3 2.60299 4.75665   1
   2   7   3 7.45572 5.70304   1
  -2   7  -3 8.22097 5.91767   1
  -2  -7  -4  69.685 9.76277   1
   2  -7   4 75.2076 10.5399   1
   2   7   4 58.5229 9.85241   1
  -2   7  -4  79.155 11.1814   1
  -2  -7  -5 124.303 13.1793   1
   2  -7   5 138.507 14.0914   1
  -2   7  -5 121.772 13.3711   1
   2   7   5 105.561 12.9555   1
   2  -7   6 110.009 13.9282   1
  -2   7  -6  85.099 11.8296   1
   2   7   6 105.645 12.7657   1
   2  -7   7 152.949 17.1233   1
  -2   7  -7 128.887 14.3334   1
   2  -8   0 122.834 13.7606   1
  -2  -8   0 102.252 12.7235   1
   2   8   0 119.201 13.7622   1
  -2   8   0 134.413 13.6408   1
  -2  -8  -1 4.87037 5.62089   1
   2  -8   1 12.4812 6.71027   1
  -2   8  -1  12.727 7.05304   1
   2   8   1   3.242 6.16781   1
  -2  -8  -2 49.3205 9.41127   1
   2  -8   2 57.3521 9.70924   1
  -2   8  -2 48.9593 9.70742   1
   2   8   2 48.2712 9.68195   1
   2  -8   3 0.40855 6.68103   1
  -2  -8  -3-2.03095 5.50637   1
   2   8   3-0.75301 5.65355   1
   2  -8   4 19.6075 8.53086   1
  -2  -8  -4 21.7922 7.74491   1
   2   8   4 9.15522 7.67381   1
   2  -8   5 16.6603 8.82155   1
   2   8   5 11.6428 8.56858   1
   2  -8   6 3.32864 9.10575   1
  -2   9   0 13.8355 8.26937   1
   2   9   0 25.2715 9.16642   1
   2   9   1 53.6069 11.4568   1
  -2   9  -1 72.6889 11.5017   1
  -2  -9  -2 32.4548 10.0551   1
   2   9   2 24.6506 9.26432   1
   2   9   3 59.0828 12.6341   1
  -3   0   0 522.351 26.6984   1
  -3   0   0 505.257 26.5233   1
  -3   0   0 517.826 23.4101   1
   3   0   0 537.947  23.202   1
   3   0   0 526.783  23.615   1
   3   0   0 502.624 23.3717   1
   3   0   0 502.029 24.3148   1
   3   0   0 495.597 23.2799   1
  -3   0   0 491.814 23.0672   1
  -3   0   0 507.418 23.5686   1
  -3   0   0 511.579 23.4073   1
  -3   0   0 492.131 24.5931   1
  -3   0  -1 52.8892 5.06478   1
  -3   0  -1 53.0511 4.75059   1
  -3   0  -1 47.8143  4.8135   1
   3   0   1 60.4019 4.79384   1
   3   0   1 43.7047 6.48084   1
  -3   0  -1 54.6632 8.19222   1
   3   0   1 58.4524 5.15345   1
  -3   0  -1 60.3469 4.95331   1
  -3   0  -1 45.7202 5.92551   1
   3   0   1 60.5636 5.22281   1
   3   0   1 59.3255 4.91343   1
   3   0   1 51.3408  6.0397   1
   3   0   2 303.899 17.2919   1
   3   0   2 332.904 16.2255   1
  -3   0  -2 320.764 19.9915   1
  -3   0  -2 339.389 17.5677   1
  -3   0  -2 312.782 16.0627   1
   3   0   2 306.156 15.9613   1
  -3   0  -2 335.061 15.7545   1
   3   0   2 317.022 16.0162   1
   3   0   2 292.376  18.303   1
  -3   0  -2 324.945  19.673   1
  -3   0  -2 318.926 16.1138   1
   3   0   2 309.662 15.6075   1
  -3   0  -2 311.278 15.6366   1
  -3   0  -3 95.6445 7.30415   1
   3   0   3 93.9003 7.07574   1
  -3   0  -3 107.334 8.36975   1
   3   0   3 89.4974 9.38359   1
  -3   0  -3 83.3988 10.8489   1
   3   0   3 103.778 7.44858   1
   3   0   3  100.39 7.33028   1
   3   0   3 105.105  7.0857   1
   3   0   3 107.653 8.94224   1
  -3   0  -3 106.218 10.9147   1
  -3   0  -3 100.142 6.87691   1
  -3   0  -3  98.776 6.89154   1
   3   0   4 12.0201 4.30733   1
   3   0   4 12.2514 3.32172   1
   3   0   4 15.3173 3.18573   1
   3   0   4 7.07606 2.98408   1
  -3   0  -4 8.58703 6.47749   1
   3   0   4  8.8325 4.71631   1
  -3   0  -4 9.47551 2.78506   1
  -3   0  -4 8.51653 3.30918   1
  -3   0  -4 2.47367 2.47545   1
   3   0   4  12.259  3.3681   1
  -3   0  -4 10.9579 5.61138   1
   3   0   5 388.926 21.4104   1
  -3   0  -5  415.71  21.287   1
  -3   0  -5 408.506 19.4833   1
   3   0   5 433.683 20.9854   1
   3   0   5 431.292 21.4203   1
  -3   0  -5 465.055 21.3847   1
  -3   0  -5 432.653 26.6359   1
  -3   0  -5 421.271 26.1999   1
   3   0   5 420.166 23.3567   1
   3   0   5 410.331 21.4159   1
  -3   0  -5 441.439 21.8326   1
  -3   0  -6 11.7071 4.26705   1
   3   0   6 4.10958 3.42587   1
   3   0   6  4.7213 3.36574   1
   3   0   6 6.20041 3.42373   1
   3   0   6 7.83061 3.88375   1
  -3   0  -6 10.2705  7.2545   1
   3   0   6 9.23848 5.33553   1
  -3   0  -6  8.9721 3.63363   1
  -3   0  -6 5.54294 6.05592   1
  -3   0  -7 69.8478  7.7837   1
   3   0   7 61.9568 7.16207   1
   3   0   7 62.9782 7.56599   1
  -3   0  -7 62.7346  11.701   1
   3   0   7 42.6454 6.28182   1
  -3   0  -7 42.6385 6.19855   1
  -3   0  -7 68.0363 13.0172   1
  -3   0  -8 8.34443 8.01647   1
  -3   0  -8 13.5482 5.25972   1
   3   0   8 4.90861 4.34365   1
  -3   0  -8 9.98585 4.54237   1
  -3   0  -8 3.39675 8.74245   1
   3   0   8 8.36652 4.90505   1
   3   0   9 102.924 10.5868   1
   3   0   9 68.4132 8.60835   1
  -3   0  -9 47.9733 13.3154   1
  -3   0  -9 96.5693 9.57711   1
  -3   0  -9 110.666 16.9376   1
  -3   0 -10 189.525 22.6961   1
   3   0  10 179.215 13.8394   1
  -3   0 -10 142.935 20.9119   1
   3   0  10  152.48 14.1608   1
  -3   0 -11 0.34347 14.3043   1
   3   0  11-1.69928 6.57037   1
  -3   0 -11-6.49109 10.1059   1
  -3  -1   0 635.758 28.9111   1
  -3  -1   0 590.881 29.6378   1
  -3  -1   0 648.159 28.7852   1
   3  -1   0  639.81 28.8532   1
   3  -1   0 634.305 28.5267   1
  -3  -1   0 638.546 31.9984   1
   3  -1   0  674.80 28.4347   1
  -3  -1   0 627.157 28.5831   1
   3  -1   0 614.792 28.4757   1
  -3  -1   0 626.497 31.4695   1
  -3  -1   0 650.924  28.717   1
   3  -1   0 616.764 28.2882   1
   3   1   0 625.905 29.2872   1
   3   1   0  674.31 29.0768   1
  -3   1   0 636.074 29.1849   1
  -3   1   0 648.732 29.4511   1
  -3   1   0 661.824 33.0206   1
  -3   1   0 611.859 29.3952   1
  -3   1   0 688.336  29.361   1
  -3   1   0  614.75 28.8363   1
   3   1   0  668.49  29.424   1
   3   1   0 659.009 32.3929   1
   3   1   0 636.877 29.2193   1
  -3   1   0 637.234  30.575   1
   3  -1   1 788.725 37.4644   1
   3  -1   1  744.59 33.8032   1
   3  -1   1 730.972 34.9508   1
  -3  -1  -1 761.249  33.432   1
  -3  -1  -1 748.306 36.7148   1
   3  -1   1 763.998 33.6621   1
  -3  -1  -1 720.889  33.583   1
  -3  -1  -1 715.164 33.3626   1
  -3  -1  -1 711.154 33.6603   1
   3  -1   1 740.923 33.4683   1
   3  -1   1 773.615  33.326   1
  -3  -1  -1 753.809 34.7899   1
   3   1   1 804.952 33.8303   1
   3   1   1 721.708 33.7618   1
   3   1   1 770.231  34.106   1
  -3   1  -1 703.496 33.9689   1
   3   1   1 718.995 34.8387   1
  -3   1  -1 773.479 38.3072   1
  -3   1  -1  774.16 33.5332   1
  -3   1  -1  757.53 33.8067   1
   3   1   1 777.441 34.0894   1
  -3   1  -1 722.808 35.1358   1
   3   1   1  762.87 37.1936   1
  -3   1  -1 749.004 34.2335   1
  -3  -1  -2 548.919 25.1554   1
  -3  -1  -2 509.483 28.4868   1
  -3  -1  -2 537.429 25.1114   1
   3  -1   2  510.85 24.9714   1
  -3  -1  -2 538.393 28.4125   1
  -3  -1  -2 519.484  25.823   1
  -3  -1  -2 558.615 24.6854   1
   3  -1   2 550.136 25.3026   1
   3  -1   2 531.156 24.9406   1
   3  -1   2 501.167 26.3697   1
  -3  -1  -2 510.553 24.3938   1
   3  -1   2 537.542 28.6717   1
   3  -1   2 554.476 24.7271   1
  -3   1  -2 513.749 25.6848   1
   3   1   2 548.726  26.952   1
   3   1   2 542.281 25.5907   1
  -3   1  -2 559.267 26.1081   1
  -3   1  -2 550.971 25.4609   1
   3   1   2 534.651 25.3823   1
  -3   1  -2 579.704 27.3389   1
  -3   1  -2 551.531 30.4209   1
  -3   1  -2 547.844 25.1249   1
   3   1   2  525.39 25.7213   1
   3   1   2 572.266 25.8184   1
  -3  -1  -3 385.849 18.8168   1
  -3  -1  -3 385.689   19.03   1
  -3  -1  -3 405.324 20.2752   1
  -3  -1  -3 403.674 23.2413   1
   3  -1   3 396.169 23.2283   1
  -3  -1  -3 390.922 19.7028   1
   3  -1   3 364.708 19.5701   1
   3  -1   3 413.633 21.7123   1
   3  -1   3 413.819 19.4538   1
   3  -1   3 400.149 19.9288   1
  -3  -1  -3 391.997 23.6734   1
   3  -1   3  399.33 19.7413   1
   3   1   3 401.969 19.3977   1
  -3   1  -3  412.25 19.1052   1
   3   1   3 406.607 19.8952   1
  -3   1  -3 387.012 19.6778   1
   3   1   3 387.127 20.9551   1
   3   1   3 377.461 19.4774   1
   3   1   3  372.88 19.4178   1
  -3   1  -3 386.576 24.6141   1
  -3   1  -3 419.788 19.3693   1
  -3  -1  -4 122.849 8.98885   1
   3  -1   4 129.266 8.64244   1
   3  -1   4 137.478 9.25991   1
  -3  -1  -4 124.883 7.78145   1
   3  -1   4 141.269 9.43303   1
  -3  -1  -4  122.32 9.28379   1
  -3  -1  -4 121.015 12.1888   1
   3  -1   4 136.684  9.1089   1
   3  -1   4 122.579 11.9466   1
  -3  -1  -4 124.163 7.79742   1
  -3  -1  -4 137.944 13.6622   1
   3  -1   4 141.441 11.5091   1
   3   1   4 135.782 9.24928   1
  -3   1  -4 122.458 14.0666   1
   3   1   4 142.747 9.43014   1
  -3   1  -4  130.82 9.34141   1
  -3   1  -4 143.235 8.60185   1
   3   1   4 149.159  11.105   1
   3   1   4 130.006 9.05108   1
  -3   1  -4 152.207 10.1152   1
   3   1   4 143.096 9.53715   1
   3  -1   5 1.63214 2.98146   1
  -3  -1  -5 3.58026 2.05813   1
  -3  -1  -5  1.9491 1.95934   1
  -3  -1  -5 0.83364 4.61367   1
   3  -1   5 5.56407 5.09728   1
   3  -1   5 1.03929 2.40313   1
  -3  -1  -5 2.74808 2.94038   1
   3  -1   5-1.98876 2.27129   1
  -3  -1  -5 3.14936 5.60704   1
   3  -1   5 0.57062 2.42855   1
   3   1   5-0.57678 2.41058   1
  -3   1  -5 5.10395 2.92799   1
   3   1   5 2.52324 3.77922   1
   3   1   5 1.33802 2.74575   1
   3   1   5-0.11735  2.8012   1
   3   1   5 4.46811 3.19589   1
  -3   1  -5 1.73676 6.04312   1
  -3   1  -5 3.65254 2.50607   1
  -3   1  -5  4.2583 3.41947   1
   3  -1   6 20.7077 4.12156   1
  -3  -1  -6 14.6347 6.50181   1
   3  -1   6 22.5134 4.77519   1
  -3  -1  -6 27.2624 5.16061   1
   3  -1   6 21.4485 4.68248   1
   3  -1   6 28.4516 7.43925   1
  -3  -1  -6 21.9457 7.71193   1
   3  -1   6 13.2291 4.13326   1
  -3  -1  -6 22.5849 4.64903   1
  -3   1  -6  27.732 5.18993   1
  -3   1  -6 15.6484 2.60792   1
  -3   1  -6 11.8405 8.21122   1
   3   1   6 27.7704 4.88762   1
   3   1   6 33.5949  5.5892   1
  -3   1  -6 20.2419 4.50272   1
   3   1   6 33.0116 6.67022   1
   3   1   6 26.6745 5.01768   1
   3  -1   7  311.99 20.4858   1
  -3  -1  -7 322.729 18.8202   1
  -3  -1  -7 355.741 25.1295   1
  -3  -1  -7 367.659 19.5279   1
   3  -1   7 337.557 19.7414   1
   3  -1   7 377.936 19.9306   1
  -3  -1  -7  388.68 25.5607   1
  -3   1  -7 409.534 28.1914   1
  -3   1  -7 368.184 20.5246   1
   3   1   7 349.773 19.6882   1
   3   1   7 367.313 20.4201   1
  -3   1  -7 339.837 19.6742   1
  -3  -1  -8 54.4857 11.6107   1
  -3  -1  -8  75.223 13.1456   1
  -3  -1  -8 91.9401 8.95241   1
   3  -1   8 82.9516 9.50558   1
  -3  -1  -8 108.293 9.93428   1
   3   1   8  106.30 10.3223   1
  -3   1  -8  90.697 9.72251   1
  -3   1  -8 90.8255  15.124   1
   3   1   8 99.1905 9.45438   1
   3  -1   8 69.8487 8.66151   1
  -3   1  -8 90.4383 9.28206   1
  -3  -1  -9 267.603 25.1514   1
  -3  -1  -9 295.051 24.9887   1
  -3  -1  -9 265.823 16.5548   1
   3  -1   9 242.541 17.5766   1
   3  -1   9 281.995  17.828   1
  -3   1  -9 315.992 26.7259   1
  -3   1  -9 293.125 27.4483   1
   3   1   9 277.505 18.5424   1
  -3   1  -9 276.813 17.6838   1
   3   1   9 296.411 18.0449   1
   3   1  10-3.24952  5.6042   1
  -3  -1 -10 8.86147 11.2094   1
   3  -1  10 9.65429 6.05011   1
  -3  -1 -10 0.50121 10.9557   1
   3  -1  10-3.01727 5.73189   1
  -3   1 -10-5.96182  11.079   1
   3   1  10-3.62214 4.65504   1
  -3   1 -10 7.88645  10.757   1
   3  -1  11 3.83928 6.68601   1
  -3  -1 -11-1.44312 12.0601   1
  -3  -1 -11-4.22593 10.4715   1
  -3   1 -11 5.80005 12.7201   1
   3   1  11-5.73907 6.77634   1
   3  -2   0  189.86 10.3408   1
  -3  -2   0 176.918 10.6422   1
   3  -2   0  185.41 10.1319   1
  -3  -2   0 190.245 10.6092   1
   3  -2   0  180.00 10.6052   1
  -3  -2   0 182.698 10.8006   1
   3  -2   0 189.034 10.3001   1
  -3  -2   0 173.698 11.5207   1
  -3  -2   0 187.595 10.4901   1
   3   2   0 184.842 10.7552   1
  -3   2   0  213.12 15.1073   1
  -3   2   0 192.189 10.6732   1
  -3   2   0 196.704 11.1225   1
   3   2   0 212.298  14.855   1
   3   2   0 175.014 10.4043   1
  -3   2   0 187.161 10.3748   1
   3   2   0  166.52 10.5779   1
  -3   2   0 156.821 12.5133   1
  -3   2   0 187.864 10.7767   1
  -3  -2  -1 415.362 24.6059   1
   3  -2   1 432.654 21.1879   1
  -3  -2  -1 443.326 25.3507   1
   3  -2   1 454.136 21.7412   1
   3  -2   1 459.161 25.7056   1
   3  -2   1 435.429 21.2357   1
  -3  -2  -1 454.752 21.0953   1
   3  -2   1 446.619 21.1618   1
  -3  -2  -1 413.332 21.3651   1
  -3  -2  -1 447.916 21.3481   1
  -3  -2  -1 428.394 22.3436   1
  -3  -2  -1 460.148 21.4351   1
  -3   2  -1 463.697 26.2605   1
  -3   2  -1 448.301 22.0756   1
   3   2   1 474.975 21.8068   1
  -3   2  -1 457.978 21.5734   1
  -3   2  -1  447.15 21.2552   1
   3   2   1  443.40 21.4792   1
  -3   2  -1 431.015 21.6787   1
   3   2   1 403.648 24.5277   1
  -3  -2  -2 87.2121 6.70154   1
   3  -2   2  87.205 6.58501   1
  -3  -2  -2 61.8738 6.99047   1
   3  -2   2 90.4113  10.814   1
   3  -2   2 81.4242 6.56209   1
  -3  -2  -2  87.769 6.34027   1
  -3  -2  -2  81.811 6.88425   1
   3  -2   2 84.3587 6.94322   1
  -3  -2  -2 78.1715 11.0205   1
   3  -2   2 89.1538 7.11081   1
  -3  -2  -2 84.2877  9.9005   1
   3   2   2 82.6285 9.50882   1
  -3   2  -2 85.1057 7.46129   1
   3   2   2 87.0153 6.90714   1
  -3   2  -2 83.8448 6.92576   1
   3   2   2  75.308 6.73211   1
   3   2   2 85.6592 6.96418   1
  -3   2  -2 122.732 11.5902   1
  -3   2  -2 87.5082 11.4756   1
  -3   2  -2 90.7027 7.09463   1
  -3   2  -2  87.765 6.59674   1
   3   2   2 88.5041 7.85216   1
   3  -2   3 173.595 11.1149   1
   3  -2   3 180.688 11.3913   1
   3  -2   3 176.883 11.0771   1
  -3  -2  -3 185.948 11.1897   1
  -3  -2  -3 183.909 10.1506   1
   3  -2   3 182.274 15.2498   1
  -3  -2  -3 183.187 10.3893   1
  -3  -2  -3 189.964 14.5673   1
  -3  -2  -3 172.209 11.5527   1
   3  -2   3 158.248 14.4873   1
   3  -2   3 181.301 10.6998   1
   3  -2   3 193.763 10.8607   1
  -3  -2  -3 170.919  15.139   1
   3   2   3 180.463 12.3199   1
  -3   2  -3 204.204 10.7339   1
   3   2   3 177.068 11.1433   1
  -3   2  -3 177.219 11.2784   1
   3   2   3 184.732  11.115   1
   3   2   3 180.186 11.1784   1
  -3   2  -3 197.164 16.6568   1
  -3   2  -3 178.725 10.9815   1
   3   2   3  182.88 11.0951   1
   3   2   3 182.202 14.1616   1
  -3  -2  -4 116.668 9.17093   1
   3  -2   4  128.09 9.19687   1
  -3  -2  -4 112.784 13.0321   1
  -3  -2  -4 118.148 8.71116   1
   3  -2   4  104.30 8.13212   1
   3  -2   4 115.829 8.96462   1
  -3  -2  -4 114.233 11.8686   1
   3  -2   4 116.163 8.54352   1
   3  -2   4 117.282 13.3746   1
  -3  -2  -4 80.5104 8.06836   1
   3  -2   4 107.215 11.7905   1
  -3  -2  -4 117.636 7.38257   1
   3   2   4 124.858 9.02145   1
   3   2   4 125.524 8.94007   1
  -3   2  -4 117.225 14.5783   1
  -3   2  -4 119.462 8.06532   1
   3   2   4 115.059 8.79836   1
   3   2   4 108.603 8.53611   1
  -3   2  -4 123.942 9.51307   1
  -3   2  -4 114.306 8.90786   1
   3   2   4 122.726 10.2692   1
  -3  -2  -5 94.1814 11.8436   1
   3  -2   5 87.7072 8.37288   1
  -3  -2  -5 90.9529 7.89815   1
   3  -2   5 82.8905 7.33291   1
  -3  -2  -5 67.1747 11.1864   1
  -3  -2  -5 78.5065 4.69852   1
   3  -2   5 93.9395 8.65554   1
   3  -2   5 83.6329 7.84329   1
  -3  -2  -5 84.8424 4.81597   1
   3  -2   5  66.519 9.76239   1
   3   2   5 92.1297 7.96721   1
   3   2   5  99.213 9.59809   1
   3   2   5 87.4654 8.07911   1
  -3   2  -5 88.5564 8.23944   1
   3   2   5 88.0042 9.59805   1
  -3   2  -5 123.492 16.3892   1
   3   2   5 84.8922  7.6931   1
  -3   2  -5 94.0516 8.92511   1
   3  -2   6 14.0809 3.82051   1
   3  -2   6 12.8917 4.85461   1
  -3  -2  -6 17.7583 4.45616   1
  -3  -2  -6 20.5341 8.46617   1
  -3  -2  -6 25.5362 7.26012   1
   3  -2   6 13.7597 3.92633   1
   3  -2   6 22.2206 5.16323   1
  -3   2  -6 17.0894 3.47633   1
  -3   2  -6 15.2615 9.42337   1
   3   2   6 18.9648 4.93178   1
   3   2   6 17.2383 4.44132   1
   3   2   6 14.9173 5.90918   1
   3   2   6 21.8053 5.16199   1
  -3   2  -6 16.1324 5.08643   1
  -3   2  -6 18.3952  4.3243   1
  -3  -2  -7 26.5452 5.16988   1
   3  -2   7 15.6656  4.9285   1
   3  -2   7 13.7201 5.16155   1
  -3  -2  -7 24.8167  7.9932   1
  -3  -2  -7 21.9655 9.41436   1
  -3   2  -7   15.36  10.946   1
  -3   2  -7 19.3169 5.83477   1
   3   2   7 24.8938 5.83543   1
  -3   2  -7 21.6046 5.27306   1
   3   2   7 8.55075 4.09924   1
   3  -2   8   34.17 6.83386   1
  -3  -2  -8 42.0099  6.8095   1
  -3  -2  -8 20.4266 8.93399   1
   3  -2   8 43.9848 7.46406   1
  -3  -2  -8 52.8579 12.4965   1
   3   2   8 39.7273 6.47494   1
   3   2   8 54.9066 8.29326   1
  -3   2  -8 42.3337 14.9756   1
  -3   2  -8 38.2507 6.75946   1
  -3  -2  -8   49.05 6.70668   1
  -3  -2  -9 96.7274 16.1506   1
   3  -2   9 99.7054 11.4417   1
   3   2   9 103.095 11.1211   1
  -3   2  -9 90.4322   10.54   1
   3  -2   9 108.617 11.4097   1
   3   2   9 102.796 10.5091   1
  -3   2  -9 104.602 19.4596   1
  -3   2 -10 17.9559 14.6542   1
  -3  -2 -10 1.55381 10.2103   1
  -3  -2 -10 2.83272  11.368   1
   3  -2  10 6.50623 7.00287   1
   3  -2  10 10.6825 6.54154   1
   3   2  10 11.5535 7.12434   1
   3   2  10 8.73586 5.71167   1
  -3  -2 -11-1.09128 12.0489   1
   3  -2  11 12.1503 7.61077   1
  -3  -2 -11 5.10142 13.5724   1
  -3   2 -11 3.15552 14.2764   1
   3   2  11 1.34531 7.51149   1
   3  -3   0 563.724 26.4123   1
  -3  -3   0 550.391 26.0016   1
  -3  -3   0 539.071 26.2532   1
  -3  -3   0 553.531 26.4823   1
   3  -3   0 550.185 26.3499   1
   3  -3   0 460.447 29.1838   1
   3  -3   0 561.482 25.7457   1
   3  -3   0 575.132 25.9707   1
  -3  -3   0 568.691 27.4501   1
   3   3   0 589.063 27.3516   1
   3   3   0 549.543 31.0855   1
   3   3   0 538.144 27.0433   1
  -3   3   0 575.813 27.0709   1
  -3   3   0 507.537 26.4269   1
   3   3   0  554.08 27.2124   1
  -3   3   0 667.599 29.9763   1
  -3   3   0 609.035 32.0531   1
  -3   3   0 578.023 27.3394   1
  -3   3   0  556.14 27.4442   1
  -3  -3  -1 816.634 42.7409   1
  -3  -3  -1 803.734 37.1501   1
  -3  -3  -1 838.775 37.6286   1
   3  -3   1 828.278 42.5503   1
  -3  -3  -1 822.972 37.9454   1
   3  -3   1  844.50  38.143   1
  -3  -3  -1 792.821  38.501   1
   3  -3   1 848.505 38.1986   1
   3  -3   1 863.103 37.6371   1
   3  -3   1 769.863 37.2512   1
   3   3   1 877.762 39.0528   1
  -3   3  -1 854.315 38.7756   1
  -3   3  -1  888.70 44.2846   1
  -3   3  -1 848.322 40.8759   1
   3   3   1 861.121 38.8907   1
   3   3   1 822.937 42.7598   1
  -3   3  -1 832.093 38.8786   1
  -3   3  -1 850.558 38.3825   1
  -3   3  -1  808.74 39.1688   1
   3   3   1 832.602 38.7849   1
  -3  -3  -2 188.695 11.7686   1
  -3  -3  -2 176.029 10.7682   1
   3  -3   2 196.139 11.6762   1
   3  -3   2 187.068 11.8911   1
   3  -3   2 174.464 11.5857   1
   3  -3   2  176.18 11.1904   1
  -3  -3  -2 182.701 16.7088   1
   3  -3   2 163.172 15.7082   1
  -3  -3  -2 199.092 11.2855   1
  -3   3  -2 199.728 12.3776   1
  -3   3  -2  191.88 11.7595   1
   3   3   2 197.784 12.0378   1
   3   3   2 170.552 14.6239   1
  -3   3  -2 194.186 11.2433   1
  -3   3  -2 190.067 11.8204   1
   3   3   2 166.806 11.4418   1
   3   3   2 184.379 11.6781   1
  -3   3  -2  198.77 17.2611   1
   3  -3   3 34.0548 5.54071   1
   3  -3   3 34.4154 5.12198   1
  -3  -3  -3 39.8352 4.98862   1
   3  -3   3 41.4868 5.71129   1
  -3  -3  -3 42.3576 5.66191   1
  -3  -3  -3 40.8465 9.32081   1
   3  -3   3 41.1169 5.98942   1
   3  -3   3  34.457 8.41981   1
  -3  -3  -3 39.0659 5.75799   1
   3   3   3 39.9854 5.63783   1
   3   3   3 41.4767 7.89617   1
  -3   3  -3 48.9662 6.74876   1
   3   3   3 47.2221  5.7371   1
  -3   3  -3 36.6895 5.33563   1
   3   3   3 35.6517 5.27846   1
  -3   3  -3 41.1617 5.08362   1
   3  -3   4 7.19306 6.86235   1
  -3  -3  -4 9.05549 7.74303   1
   3  -3   4 9.99918  3.8363   1
  -3  -3  -4 6.44031   2.735   1
   3  -3   4 8.05734 3.47081   1
  -3  -3  -4 12.4718  7.0841   1
   3  -3   4 14.9253 4.28402   1
  -3  -3  -4  8.1717 3.64921   1
   3  -3   4 15.7485 4.40122   1
   3  -3   4 4.57117 3.27243   1
  -3   3  -4 8.02555  3.2109   1
   3   3   4 3.15995   3.412   1
  -3   3  -4 4.08108   8.017   1
   3   3   4 9.30608 3.80741   1
   3   3   4 14.4059 4.54324   1
  -3   3  -4 6.39227 3.53283   1
   3   3   4 7.56665 5.57452   1
   3   3   4 8.40777 3.41375   1
   3  -3   5  146.41 10.5021   1
  -3  -3  -5  141.40 10.5707   1
   3  -3   5 149.968 10.6428   1
  -3  -3  -5 107.143 6.23907   1
   3  -3   5 147.383 11.3695   1
   3  -3   5 152.582 11.3654   1
  -3  -3  -5 135.375 16.0342   1
  -3  -3  -5  179.25 15.5938   1
  -3   3  -5 152.726 9.57953   1
   3   3   5 133.749 11.7638   1
   3   3   5  144.53 10.5346   1
  -3   3  -5 149.954 11.9045   1
   3   3   5 147.212 11.3473   1
  -3   3  -5 148.614 11.0555   1
  -3   3  -5  126.50 18.0494   1
   3   3   5 145.415 11.2703   1
  -3  -3  -6 5.18561 6.50012   1
  -3  -3  -6 3.66725 3.83439   1
  -3  -3  -6  5.5384 8.21947   1
   3  -3   6 1.11622 4.21589   1
   3  -3   6 4.04501 3.71803   1
   3  -3   6-0.40407 3.34671   1
  -3   3  -6 0.06721 3.54033   1
   3   3   6-2.60688 4.02843   1
   3   3   6 5.06445 3.58479   1
  -3   3  -6 10.9954 10.4308   1
  -3   3  -6 3.82667  4.8901   1
  -3   3  -6 5.73591 4.72429   1
   3  -3   7 72.3487 9.32513   1
  -3  -3  -7 72.4723 8.34702   1
  -3  -3  -7 75.2341 14.3703   1
  -3  -3  -7 76.5857 12.7084   1
   3  -3   7 76.9574 9.66433   1
  -3   3  -7 99.8348 17.8377   1
   3   3   7 75.1595 8.38888   1
  -3   3  -7 53.5038 7.84612   1
  -3   3  -8 71.3912 15.6398   1
  -3  -3  -8 60.7287 11.6105   1
   3  -3   8 92.8059 10.2749   1
  -3  -3  -8 74.9492 14.7968   1
  -3  -3  -8 70.8754 8.41864   1
   3  -3   8 57.6398 8.63945   1
   3   3   8 62.6326 8.05337   1
  -3   3  -8  68.471 8.88867   1
   3  -3   9 16.6523 7.03447   1
  -3  -3  -9 27.2265  12.594   1
  -3  -3  -9 27.7975 10.8041   1
   3   3   9 24.1797 6.26501   1
  -3   3  -9 29.7408 14.4796   1
   3  -3   9 28.2445 7.57368   1
  -3  -3 -10 35.5544 14.7371   1
  -3  -3 -10 6.17054 10.5755   1
   3  -3  10 32.2752 8.18535   1
  -3   3 -10 39.3068 16.7669   1
  -3  -4   0 382.252 19.8808   1
  -3  -4   0 338.406 19.6044   1
   3  -4   0 380.506  20.078   1
  -3  -4   0 390.629 20.3373   1
   3  -4   0  383.46 23.3021   1
   3  -4   0 400.543 25.2813   1
   3  -4   0 374.132  19.239   1
  -3   4   0 384.076  20.794   1
   3   4   0  396.77 20.9646   1
   3   4   0 394.876 20.9734   1
  -3   4   0 393.306 20.4497   1
  -3   4   0 409.835  20.876   1
  -3   4   0 403.852 25.8748   1
   3   4   0 460.087 21.3038   1
   3   4   0 381.555  25.366   1
  -3   4   0 381.296  21.045   1
  -3  -4  -1 213.066  12.922   1
   3  -4   1  186.44 12.4384   1
   3  -4   1 211.633 17.7123   1
  -3  -4  -1 208.742 13.3548   1
   3  -4   1 205.066 13.2085   1
   3  -4   1 239.861 16.8806   1
  -3  -4  -1 208.757 18.3012   1
  -3  -4  -1 199.453 13.7644   1
   3  -4   1 207.045 13.1815   1
   3   4   1 201.079 13.0709   1
   3   4   1 220.612 17.7253   1
   3   4   1 191.921 12.8704   1
  -3   4  -1  208.98 13.6617   1
  -3   4  -1 197.624 12.4868   1
  -3   4  -1 212.299 18.2964   1
  -3   4  -1 223.565 13.3487   1
  -3   4  -1 206.676 13.1409   1
   3   4   1 201.787  12.881   1
   3  -4   2 151.877 10.9658   1
  -3  -4  -2 150.467  16.861   1
   3  -4   2 136.915 15.4903   1
  -3  -4  -2  156.47 11.2699   1
   3  -4   2  158.77 11.4613   1
   3  -4   2 168.862 11.2302   1
  -3  -4  -2 165.259 10.6498   1
   3  -4   2 139.651 10.9865   1
  -3   4  -2  163.80 11.9676   1
  -3   4  -2 153.772 11.1008   1
   3   4   2 147.831   10.79   1
  -3   4  -2  162.65 10.7036   1
   3   4   2 159.452 11.2732   1
  -3   4  -2  145.63 16.8657   1
   3   4   2 154.203  11.212   1
   3   4   2 143.841  14.842   1
  -3  -4  -3 43.4147 5.30525   1
  -3  -4  -3 44.3977 6.26106   1
   3  -4   3 51.6864 7.03289   1
   3  -4   3 32.3273 5.56957   1
   3  -4   3 23.3084 8.16531   1
   3  -4   3 53.0599 6.86586   1
   3  -4   3  55.811 7.14557   1
  -3  -4  -3 51.6152 11.8056   1
  -3  -4  -3 39.4073 6.40015   1
  -3   4  -3 68.1712 13.5926   1
   3   4   3 47.1715 6.36809   1
   3   4   3 58.5661 7.13093   1
   3   4   3 38.5869 6.03941   1
  -3   4  -3 42.6029 6.45451   1
  -3   4  -3 50.9952 6.89688   1
  -3   4  -3 46.9313 5.60992   1
   3   4   3 42.8514 10.1112   1
   3  -4   4  60.556 7.41358   1
  -3  -4  -4 68.3891 7.87708   1
   3  -4   4 28.7881 9.67942   1
   3  -4   4 48.3797 7.58022   1
   3  -4   4 50.8278 7.24789   1
  -3  -4  -4 72.9178 6.16667   1
   3  -4   4 74.6036 8.36109   1
  -3  -4  -4 56.7835 12.5749   1
  -3   4  -4 76.4987  7.4265   1
  -3   4  -4 74.7986 8.61379   1
   3   4   4 60.8917  7.8636   1
  -3   4  -4 90.8534 15.9814   1
   3   4   4 71.0873 8.04027   1
   3   4   4 74.0536 8.26444   1
  -3   4  -4 65.9665 8.48116   1
  -3  -4  -5 46.6645 7.14234   1
  -3  -4  -5 49.6776 11.7457   1
   3  -4   5 51.4748  7.4907   1
  -3  -4  -5 40.9994 9.84215   1
   3  -4   5 46.2883 7.44069   1
   3  -4   5 52.7356 7.71164   1
  -3  -4  -5 43.7827 3.55553   1
   3   4   5 38.7375 6.79845   1
  -3   4  -5 50.3513 7.22262   1
  -3   4  -5 50.3946 13.6195   1
   3   4   5 48.5002 7.25415   1
  -3   4  -5 29.3334 6.33678   1
  -3   4  -5 41.4522 5.58472   1
   3  -4   6 22.5424 6.06231   1
  -3  -4  -6 17.9218 10.5336   1
  -3  -4  -6  25.726 9.06956   1
   3  -4   6 24.3485 6.17854   1
  -3  -4  -6 35.7636 6.46488   1
  -3   4  -6 42.8092 14.3591   1
  -3   4  -6 36.6779 6.72607   1
   3   4   6 28.5449 6.15459   1
  -3  -4  -7-0.73141 4.52544   1
   3  -4   7-2.37128 5.41365   1
   3  -4   7 9.66233 5.19452   1
  -3  -4  -7 7.71335 10.6821   1
  -3  -4  -7 2.55347 7.41762   1
  -3   4  -7 8.71184 13.0586   1
   3   4   7 5.65802 4.51765   1
  -3   4  -7 6.14902 5.25464   1
   3  -4   8 2.65871 5.39542   1
   3  -4   8 0.36315 6.16103   1
  -3  -4  -8  7.6434 8.52326   1
  -3  -4  -8-4.16245 11.5117   1
  -3   4  -8 7.43265 13.3194   1
   3   4   8 1.80844 4.61609   1
  -3   4  -8 2.52948 5.48117   1
   3   4   9 4.29351 5.84406   1
   3  -4   9-4.50826 6.60289   1
  -3  -4  -9  9.8682 13.6907   1
   3  -4   9 0.51904 5.99897   1
  -3  -4  -9 3.35432  8.8091   1
  -3  -4 -10 -1.0319 10.0581   1
   3  -4  10 2.51149 7.16664   1
  -3  -4 -10  1.6039  21.717   1
   3  -5   0 362.845 19.6511   1
   3  -5   0 343.598 18.4456   1
  -3  -5   0 340.328 19.1395   1
  -3  -5   0 301.044 19.0139   1
   3  -5   0 353.821 25.5087   1
  -3   5   0 380.825 20.4352   1
   3   5   0 341.014 25.2211   1
  -3   5   0 346.798 19.5583   1
  -3   5   0 372.729 26.3861   1
  -3   5   0  351.44 20.6808   1
   3   5   0 359.993 20.4201   1
  -3   5   0 366.487 20.1827   1
   3   5   0 358.207 20.2583   1
  -3  -5  -1 41.4458 10.4621   1
  -3  -5  -1 51.1756 7.37862   1
   3  -5   1 51.0184 6.89325   1
   3  -5   1 34.0258 9.74991   1
  -3  -5  -1 48.0123 7.91519   1
  -3  -5  -1 42.1485 6.15941   1
   3  -5   1 64.2075 7.90148   1
  -3   5  -1 55.4577 7.41888   1
  -3   5  -1 55.2906 12.5288   1
   3   5   1 55.1484 11.6491   1
  -3   5  -1 44.2061 6.07533   1
   3   5   1 59.2181 7.54284   1
   3   5   1 53.7803  7.7499   1
   3   5   1 45.1856  7.1461   1
  -3   5  -1 53.4031 8.01499   1
   3  -5   2 168.072 12.6033   1
  -3  -5  -2 181.147 11.7734   1
  -3  -5  -2 148.612 18.1377   1
   3  -5   2 191.817 13.2714   1
  -3  -5  -2 159.473 12.6433   1
   3  -5   2 177.145 18.4957   1
   3   5   2 159.307  12.745   1
  -3   5  -2 178.259 14.0618   1
  -3   5  -2  197.41 12.6191   1
   3   5   2 164.155 13.1581   1
  -3   5  -2 187.588 20.0637   1
  -3   5  -2 185.208 12.5936   1
  -3   5  -2 170.136 12.9395   1
   3   5   2 180.023 18.0952   1
   3   5   2 184.956  12.789   1
   3  -5   3 191.459 20.4676   1
   3  -5   3 217.994 14.8102   1
   3  -5   3 206.975 14.7223   1
  -3  -5  -3 204.225 14.4472   1
  -3  -5  -3  224.89 13.0546   1
  -3  -5  -3 224.245  21.199   1
   3   5   3 219.363 20.1434   1
  -3   5  -3 232.376  16.599   1
  -3   5  -3 245.307 23.4232   1
   3   5   3 206.621 15.1516   1
  -3   5  -3 221.568 15.1293   1
  -3   5  -3 218.835 14.1394   1
   3   5   3 212.942 14.9366   1
   3   5   3 217.052 14.7969   1
   3  -5   4 99.5474 10.6702   1
  -3  -5  -4 94.2739 9.91376   1
   3  -5   4 87.7278 9.97467   1
  -3  -5  -4 95.2945 16.3049   1
  -3   5  -4 77.8401 9.28233   1
  -3   5  -4 136.833 21.3215   1
   3   5   4 94.0902 10.2851   1
  -3   5  -4 90.7077 11.5163   1
   3   5   4 88.7469 10.0017   1
  -3   5  -4  101.26 9.39586   1
  -3  -5  -5 9.15816 4.94442   1
   3  -5   5 0.32144 5.00034   1
  -3  -5  -5 -2.3746 9.40405   1
  -3   5  -5 7.10805 12.0874   1
  -3   5  -5 2.08446 4.59689   1
   3   5   5 7.41736 4.54011   1
   3  -5   6  7.0745 5.94425   1
  -3  -5  -6 3.74581  10.686   1
  -3  -5  -6 9.91291 5.16407   1
  -3   5  -6 10.5025 20.9238   1
  -3   5  -6-0.10939 4.99486   1
   3   5   6 14.1136 5.77157   1
   3  -5   7 6.47339 6.63299   1
  -3  -5  -7 6.37039 5.41054   1
  -3  -5  -7 9.51334 11.9779   1
  -3  -5  -7-0.20506 8.12818   1
   3   5   7 9.65127 5.59002   1
  -3   5  -7 8.39628 6.18176   1
  -3  -5  -8 1.22555 16.1897   1
   3  -5   8 16.3884 8.24872   1
   3  -5   8 10.6914   7.542   1
  -3  -5  -8  15.198 10.1751   1
  -3   5  -8  18.285 7.69048   1
   3   5   8 13.6815 6.16404   1
  -3  -5  -9 7.99195 11.0326   1
   3  -5   9 8.98907 7.63378   1
   3  -6   0 375.563 29.7676   1
  -3  -6   0 377.771 22.8543   1
   3  -6   0 439.281  22.203   1
  -3  -6   0 394.242 22.4593   1
   3  -6   0 431.032 23.3006   1
   3   6   0 386.513 30.2618   1
   3   6   0  412.58 24.0245   1
  -3   6   0 434.999 31.7602   1
  -3   6   0 456.288 24.3164   1
   3   6   0 425.236 24.3902   1
  -3   6   0 459.446 25.0867   1
  -3   6   0 432.524 23.6088   1
  -3  -6  -1 63.3668 14.0925   1
   3  -6   1 52.2229 7.33669   1
   3  -6   1 32.8319 15.7917   1
   3  -6   1 68.7639 9.03216   1
  -3  -6  -1 44.5916 7.01821   1
  -3  -6  -1 45.4881 8.47752   1
  -3  -6  -1 53.4071 7.84576   1
  -3   6  -1 40.3617 7.73608   1
  -3   6  -1 47.1326 7.74107   1
   3   6   1 41.7335 7.19121   1
  -3   6  -1  83.617 17.6038   1
   3   6   1  60.258  8.4925   1
  -3   6  -1 52.2534 8.06328   1
   3   6   1 60.7915 14.8063   1
  -3  -6  -2 111.325 10.0561   1
  -3  -6  -2 103.068 17.7369   1
  -3  -6  -2 115.648 11.3061   1
   3  -6   2 123.727 11.6776   1
   3  -6   2 116.604 11.2291   1
   3   6   2 119.344  11.615   1
  -3   6  -2 120.489 10.9895   1
  -3   6  -2 123.464 12.9987   1
   3   6   2 109.698 11.4595   1
  -3   6  -2 118.881 11.7863   1
   3  -6   3 10.1794 5.51122   1
  -3  -6  -3 16.7273 5.39448   1
   3  -6   3 19.1998 6.40337   1
  -3  -6  -3  10.522  10.273   1
   3   6   3 15.5367 5.94068   1
  -3   6  -3 17.2143 6.11603   1
  -3   6  -3 11.5764 5.30454   1
  -3  -6  -4 59.7463  18.594   1
  -3  -6  -4 34.6389 7.17412   1
   3  -6   4   39.73 8.35659   1
  -3   6  -4 27.0226 5.95258   1
   3   6   4 19.5528 6.50701   1
  -3   6  -4 34.5209 7.66457   1
   3  -6   5 7.61604 6.28894   1
  -3  -6  -5 12.7668 5.78649   1
  -3   6  -5 13.0204 6.23256   1
   3   6   5-0.60123 5.29562   1
   3  -6   6 19.1585 7.58777   1
  -3  -6  -6 20.9425 6.67857   1
  -3   6  -6 19.0853 7.64855   1
   3  -6   7 6.91344 7.67102   1
  -3  -6  -7 9.93722 10.0598   1
   3   6   7 3.66053 6.34769   1
  -3   6  -7 9.44867 6.89905   1
   3  -6   8 21.0105 12.8731   1
  -3  -6  -8 4.59982 10.3531   1
   3  -6   8 14.7061 8.46276   1
  -3  -7   0 103.671 12.1719   1
   3  -7   0  110.97 11.4741   1
  -3  -7   0 119.377 11.9986   1
   3  -7   0 121.958 12.4766   1
   3   7   0 124.977 13.7596   1
  -3   7   0 96.8543 12.0897   1
  -3   7   0 128.789 12.1662   1
   3  -7   1 78.1026 10.8233   1
  -3  -7  -1 43.6962 8.34717   1
   3   7   1 49.5385 8.82807   1
   3   7   1 36.2524 8.16647   1
  -3   7  -1 73.8196 9.98611   1
   3  -7   1 59.2295  8.7863   1
   3  -7   2 28.5814 7.17619   1
   3  -7   2 9.53584 6.30082   1
  -3  -7  -2 20.8109 6.82941   1
  -3   7  -2 33.7784 12.2387   1
   3   7   2 11.6197 6.39763   1
  -3   7  -2 22.9379 6.55952   1
   3  -7   3 17.4591  7.1211   1
  -3  -7  -3 7.32612 5.87509   1
   3   7   3  12.605 6.81584   1
  -3   7  -3 11.2382 8.56866   1
  -3   7  -3 10.4321 5.99142   1
  -3   7  -3 7.32364 6.09872   1
   3  -7   4  82.019 11.4334   1
  -3  -7  -4 81.1579 10.9722   1
  -3   7  -4 101.133 14.5656   1
   3   7   4 87.7586 12.1361   1
  -3  -7  -5 10.6564 6.81957   1
   3  -7   5 8.55563 7.24854   1
  -3   7  -5 9.09766  8.1196   1
   3   7   5 9.31914 6.82299   1
   3  -7   6 53.8234 10.8644   1
  -3   7  -6 44.2226 11.2961   1
   3   7   6 45.3369 10.2654   1
   3  -7   7 45.3729 11.2364   1
  -3   7  -7-7.57218 14.2945   1
   3  -8   0 125.731 14.2304   1
  -3  -8   0 112.393  14.241   1
   3   8   0  135.47 14.5652   1
  -3   8   0 121.594 13.0598   1
  -3  -8  -1 2.87625  6.2438   1
  -3   8  -1 5.22967 6.92978   1
   3   8   1 3.40784 6.19852   1
  -3  -8  -2 7.08389 6.62066   1
  -3   8  -2-1.37559 6.34194   1
   3   8   2 8.34327 7.30185   1
  -3  -8  -3 70.2407 11.2451   1
   3   8   3 76.2716  12.247   1
  -3  -8  -4 4.91347  12.468   1
   3  -8   4 12.7656 9.19251   1
   3   8   4 4.47504 7.55847   1
   3  -8   5 45.0889 11.8202   1
  -3   9   0 7.91022 8.31249   1
   3   9   0 13.8145 9.03564   1
   3   9   1 25.2705 9.80304   1
  -3   9  -1 16.5878 9.48521   1
   3   9   2 30.1912 11.1362   1
   3   9   3 6.34052 10.9916   1
  -4   0   0 58.3052 5.46359   1
  -4   0   0 56.0625 5.61707   1
  -4   0   0  55.901 5.50252   1
  -4   0   0 47.1128 7.54288   1
   4   0   0 65.9464  5.8396   1
   4   0   0 61.7417 5.32517   1
   4   0   0 65.4011 5.66811   1
  -4   0   0   54.66 6.97637   1
  -4   0   0 68.9295 9.60033   1
   4   0   0 72.7493 8.30038   1
   4   0   0  65.371 5.79714   1
  -4   0   0 55.3735 5.54568   1
  -4   0  -1 158.565 14.2178   1
   4   0   1 176.866 10.3792   1
  -4   0  -1 178.303  12.396   1
   4   0   1 160.476 10.1402   1
  -4   0  -1 165.219 9.98547   1
  -4   0  -1 171.653 10.0757   1
  -4   0  -1 158.258 10.1659   1
   4   0   1 140.279 12.6741   1
   4   0   1 160.169 9.79127   1
   4   0   1 157.811 9.99151   1
  -4   0  -2 71.5938   10.65   1
  -4   0  -2 66.5829 6.25731   1
   4   0   2 66.1305 6.31523   1
  -4   0  -2 72.6887 6.40538   1
  -4   0  -2 52.6079 7.53261   1
   4   0   2   73.67 6.22567   1
   4   0   2 70.6586 6.47654   1
   4   0   2 72.3035 6.67965   1
  -4   0  -2 45.4273 8.11678   1
  -4   0  -2 68.1351 6.38771   1
   4   0   2 60.1572  8.8647   1
   4   0   3 297.953 14.9605   1
   4   0   3 264.008 15.1172   1
  -4   0  -3 270.188  19.996   1
  -4   0  -3 272.154 20.0738   1
   4   0   3 250.049 18.1273   1
  -4   0  -3 271.042 14.5969   1
   4   0   3  272.91 15.2745   1
  -4   0  -3 248.072 14.9524   1
   4   0   3 267.207 15.1568   1
   4   0   4 414.304 22.4515   1
  -4   0  -4  425.91 27.8964   1
   4   0   4 430.326 22.5002   1
  -4   0  -4 443.851 22.8315   1
  -4   0  -4  451.21 23.5749   1
   4   0   4 456.547 22.0699   1
   4   0   4 469.393 25.1684   1
  -4   0  -4 438.447 22.5179   1
   4   0   4 383.234 25.7243   1
   4   0   4 429.521 22.4981   1
  -4   0  -4 443.058 21.4945   1
  -4   0  -4 440.398 28.0017   1
   4   0   5 21.4476 5.16519   1
  -4   0  -5 19.6351 4.70461   1
   4   0   5 19.6879 4.49791   1
   4   0   5 15.4523 4.30186   1
  -4   0  -5 16.9292   3.913   1
   4   0   5   25.60 5.21744   1
  -4   0  -5 20.2405 8.13369   1
  -4   0  -5  13.372  4.7637   1
  -4   0  -5 15.1339 7.30083   1
   4   0   5 22.8284   6.643   1
  -4   0  -6 62.2548 8.05575   1
  -4   0  -6 55.9177 6.10096   1
  -4   0  -6 58.9173 12.0555   1
  -4   0  -6 72.4443 8.11495   1
   4   0   6  60.369 7.42358   1
  -4   0  -6 66.8783 14.1291   1
   4   0   6 66.5441 8.43979   1
   4   0   6  68.434  8.2895   1
   4   0   7 52.6982 7.72645   1
  -4   0  -7 47.0627 7.13884   1
  -4   0  -7 48.2208 13.4002   1
   4   0   7 56.6256 8.06839   1
  -4   0  -7 51.8918 11.7846   1
   4   0   8 70.0447 8.95657   1
  -4   0  -8  69.672 15.1374   1
  -4   0  -8 65.7443 8.53808   1
  -4   0  -8 45.6375 13.6111   1
   4   0   8 68.0819 9.61215   1
   4   0   9 47.6313 8.43875   1
   4   0   9 54.2089  8.8895   1
  -4   0 -10-6.32308 10.4175   1
   4   0  10 12.1264 7.78717   1
   4  -1   0 171.791 9.83307   1
  -4  -1   0 172.451 10.3256   1
   4  -1   0 162.149 10.2505   1
  -4  -1   0 164.071 10.3955   1
   4  -1   0 171.588 10.1522   1
   4  -1   0 158.809 9.74795   1
   4  -1   0  177.06 9.91188   1
  -4  -1   0 195.211 14.1591   1
  -4  -1   0 155.739 13.6557   1
  -4  -1   0 172.094 12.0022   1
  -4  -1   0 161.883 10.0948   1
  -4   1   0  173.21 12.7556   1
   4   1   0 174.813  13.855   1
  -4   1   0 156.339 9.82375   1
   4   1   0 172.244 10.5464   1
  -4   1   0 170.156 10.3966   1
   4   1   0 175.292 10.5076   1
   4   1   0 171.904 10.3657   1
  -4   1   0 206.531 15.5713   1
   4   1   0 169.297 9.98471   1
  -4   1   0  172.40 10.3095   1
  -4   1   0 180.098 14.1127   1
  -4   1   0 168.594 10.4694   1
   4  -1   1  135.02 8.96756   1
  -4  -1  -1 143.992  11.124   1
  -4  -1  -1 145.758 12.9625   1
  -4  -1  -1 142.902 9.42135   1
   4  -1   1 143.153 9.44322   1
  -4  -1  -1 140.668 9.12709   1
   4  -1   1 136.077 9.38208   1
  -4  -1  -1 140.335 9.48644   1
   4  -1   1 146.418 13.1609   1
   4  -1   1 145.458  8.9475   1
   4   1   1 139.822  9.3343   1
   4   1   1 140.033 9.46744   1
  -4   1  -1 134.009 13.9475   1
   4   1   1  143.55 9.44564   1
  -4   1  -1 144.232 9.45331   1
  -4   1  -1 139.345 13.2346   1
  -4   1  -1 148.147 9.89292   1
  -4   1  -1 142.173 9.49827   1
  -4   1  -1 152.116 8.99477   1
   4   1   1 150.797 9.22546   1
  -4   1  -1  155.51  12.497   1
   4   1   1 138.602 12.5246   1
   4  -1   2 127.586 9.05255   1
  -4  -1  -2 117.662 12.3336   1
  -4  -1  -2 121.952 8.36544   1
  -4  -1  -2  125.27 13.6084   1
  -4  -1  -2  111.44 10.2481   1
   4  -1   2 125.015 9.02853   1
   4  -1   2 144.993 8.76691   1
   4  -1   2 111.839 8.50874   1
   4  -1   2 119.844 12.3068   1
  -4  -1  -2 112.501 8.53289   1
  -4  -1  -2 136.545 9.24263   1
  -4   1  -2 97.4877 10.9988   1
   4   1   2 120.157 8.73482   1
  -4   1  -2 127.243 9.00685   1
  -4   1  -2 121.253 8.37122   1
   4   1   2 117.752 8.41646   1
  -4   1  -2 120.789 8.69468   1
  -4   1  -2 121.171 9.14674   1
  -4   1  -2 127.675 13.9661   1
   4   1   2 120.131 8.78965   1
   4   1   2 136.074 8.95087   1
  -4  -1  -3 363.698 18.0994   1
   4  -1   3 360.091 18.9212   1
   4  -1   3  353.66 18.2351   1
  -4  -1  -3 343.694 23.8449   1
  -4  -1  -3 363.083 18.8604   1
   4  -1   3 359.312 18.7769   1
   4  -1   3 326.307 22.2107   1
  -4  -1  -3 361.561 23.5689   1
   4  -1   3 329.219  18.447   1
   4   1   3 337.453 18.1317   1
  -4   1  -3 292.349 23.3848   1
   4   1   3 365.891 18.2582   1
  -4   1  -3 338.506 19.9941   1
  -4   1  -3 354.802 17.5016   1
  -4   1  -3 283.319 17.7792   1
   4   1   3 344.796 17.6608   1
   4   1   3 352.322 21.0343   1
   4   1   3 343.623 18.0988   1
  -4   1  -3 332.597 18.1493   1
   4  -1   4 169.485 11.3845   1
   4  -1   4 166.027 11.5026   1
  -4  -1  -4 161.087 10.1172   1
  -4  -1  -4 167.927 17.0915   1
   4  -1   4 154.409  14.503   1
   4  -1   4 148.861 10.6945   1
   4  -1   4 137.673 10.3105   1
  -4  -1  -4 165.823 12.7481   1
  -4  -1  -4 154.164 11.1707   1
  -4  -1  -4 165.338 16.1733   1
  -4   1  -4 160.568 10.2725   1
  -4   1  -4 158.513  11.178   1
   4   1   4 171.042 11.4154   1
   4   1   4 150.479 11.0598   1
  -4   1  -4 126.399 16.6533   1
   4   1   4 180.486 13.5532   1
  -4   1  -4 165.611 11.6392   1
   4   1   4  164.35 11.2629   1
   4   1   4 154.873 10.7108   1
   4  -1   5 25.9913 5.06252   1
  -4  -1  -5  20.744 8.00939   1
  -4  -1  -5 30.6574 9.91309   1
   4  -1   5 36.2395 6.04642   1
  -4  -1  -5 32.2236 5.52529   1
   4  -1   5 28.2379 5.15941   1
   4  -1   5 26.5786 5.18142   1
  -4  -1  -5 33.5415 4.53386   1
   4   1   5 29.4893 5.27727   1
  -4   1  -5 17.0567 4.56459   1
   4   1   5 26.6321 5.28166   1
   4   1   5 27.5903 5.39198   1
   4   1   5 30.8918 5.40032   1
  -4   1  -5 32.9555 11.2012   1
  -4   1  -5 24.1078 5.43345   1
   4   1   5 30.2544 7.31182   1
   4  -1   6 69.2899 8.10691   1
  -4  -1  -6 76.4877 8.04201   1
  -4  -1  -6 74.7292 13.1638   1
  -4  -1  -6 73.5001 8.45877   1
  -4  -1  -6 45.0467 4.36738   1
   4  -1   6 69.0821 8.43867   1
   4  -1   6 53.1594 6.69687   1
  -4   1  -6 54.2406 13.8419   1
  -4   1  -6 65.2405 8.12349   1
   4   1   6 53.9488 7.13532   1
   4   1   6 51.2878 7.40795   1
  -4   1  -6  66.776 7.80377   1
  -4   1  -6 65.2958 13.1023   1
   4   1   6 79.3224 8.76524   1
  -4  -1  -7  0.1543 8.33337   1
   4  -1   7 4.08588 4.61018   1
  -4  -1  -7 1.89476 9.18908   1
   4  -1   7 1.84656 4.31401   1
  -4  -1  -7 1.71179 4.28448   1
   4   1   7-0.24519 4.41666   1
  -4   1  -7-2.62501 9.21482   1
  -4   1  -7-3.58773 8.13721   1
  -4   1  -7 1.95295 4.29817   1
   4   1   7 1.51625 4.47407   1
  -4  -1  -8 324.274  27.744   1
  -4  -1  -8 333.453 19.4654   1
   4  -1   8 321.035 20.1308   1
   4  -1   8 313.141 19.9052   1
  -4  -1  -8 279.888 26.8937   1
  -4   1  -8 355.077 29.8153   1
   4   1   8 321.712 20.3605   1
   4   1   8 342.845  20.203   1
  -4   1  -8 309.079 19.6675   1
  -4   1  -8 279.665 27.8889   1
   4  -1   9 8.22831  6.3046   1
  -4  -1  -9 10.1868   16.46   1
   4  -1   9 32.4534 8.07512   1
  -4  -1  -9 29.3648 14.6298   1
   4   1   9 37.7935 8.32045   1
   4   1   9 16.2122 6.36574   1
  -4   1  -9 26.4113 14.8176   1
   4  -1  10 32.1395 8.46185   1
  -4  -1 -10 1.48259 14.7011   1
  -4   1 -10 24.2625  17.409   1
   4   1  10 28.2679 8.67585   1
  -4  -2   0 898.849 43.6742   1
  -4  -2   0 1019.99  48.004   1
  -4  -2   0 991.807  43.639   1
   4  -2   0 992.578 43.3847   1
   4  -2   0 952.379 43.9648   1
   4  -2   0 935.228 43.3119   1
  -4  -2   0  948.94  45.031   1
   4  -2   0 952.545  43.304   1
  -4  -2   0 1043.28 43.8568   1
  -4  -2   0 959.292 48.4006   1
  -4   2   0 998.497 43.9124   1
  -4   2   0 998.205 44.1994   1
   4   2   0 974.813 43.9791   1
  -4   2   0 950.424 43.3956   1
  -4   2   0 946.799  45.824   1
  -4   2   0 942.649 48.5672   1
   4   2   0 959.119 48.0267   1
  -4   2   0 968.433 44.3068   1
   4   2   0 1038.80 44.3245   1
   4   2   0 956.547  43.575   1
   4  -2   1 373.759   19.63   1
  -4  -2  -1 375.526 21.4251   1
  -4  -2  -1 409.864 20.3655   1
   4  -2   1 394.346 19.7195   1
  -4  -2  -1 397.309 19.7516   1
   4  -2   1 416.891 24.8784   1
  -4  -2  -1 395.764 23.7115   1
  -4  -2  -1 371.171 19.8745   1
   4  -2   1 392.147 20.4222   1
   4  -2   1  408.29 19.9763   1
   4   2   1 399.574 20.4032   1
  -4   2  -1 379.865 19.7318   1
  -4   2  -1 412.445 20.4141   1
  -4   2  -1 416.042 20.7106   1
   4   2   1 392.166  20.364   1
   4   2   1 392.198 20.0767   1
  -4   2  -1 396.609 25.3829   1
  -4   2  -1 413.794 21.0697   1
  -4   2  -1 376.983 22.4146   1
   4   2   1 417.662 24.5524   1
  -4  -2  -2 4.87449 3.26492   1
  -4  -2  -2 3.62899 6.08712   1
   4  -2   2 9.40824 3.56587   1
   4  -2   2 7.89248 2.87268   1
  -4  -2  -2 7.55176 3.33908   1
   4  -2   2 14.1726 3.63148   1
  -4  -2  -2 6.14742 5.50854   1
   4  -2   2 7.22837  3.4134   1
  -4  -2  -2 3.28295 4.01635   1
   4  -2   2   6.796 6.55445   1
  -4   2  -2 4.94892 3.23201   1
   4   2   2 6.84496 5.45734   1
  -4   2  -2 9.08628 3.73666   1
  -4   2  -2 10.1036 6.18954   1
   4   2   2 5.56426 3.27333   1
  -4   2  -2 8.45433 7.32254   1
   4   2   2 3.90646 2.98209   1
  -4   2  -2 10.6179 3.12094   1
   4   2   2 6.39103  3.5193   1
   4   2   2 13.4607 3.61016   1
   4  -2   3 44.0645 5.87236   1
  -4  -2  -3 44.1192  6.6719   1
  -4  -2  -3 33.1233 8.30942   1
  -4  -2  -3 51.9585 5.99696   1
   4  -2   3 51.3024  5.9047   1
   4  -2   3 26.2812 4.54532   1
   4  -2   3 47.8549 6.13479   1
   4  -2   3 64.3342 7.35352   1
  -4  -2  -3 48.5916 9.03171   1
  -4  -2  -3 53.3208 6.40818   1
   4  -2   3 34.2192 8.88024   1
  -4   2  -3 39.1275 5.64393   1
   4   2   3 43.4314 6.26803   1
   4   2   3 49.9864 6.28548   1
  -4   2  -3 41.9519 6.41905   1
   4   2   3 42.5038 5.81563   1
  -4   2  -3 53.8407 8.80759   1
  -4   2  -3 53.7366  5.6577   1
   4   2   3 53.5746 6.42836   1
  -4   2  -3 36.4241 9.66578   1
  -4  -2  -4 40.2983 5.86341   1
  -4  -2  -4  57.965 11.9522   1
   4  -2   4 28.9753 8.84627   1
  -4  -2  -4 36.9051 6.60509   1
   4  -2   4 38.6245  6.0667   1
  -4  -2  -4 62.0564 11.6413   1
   4  -2   4 41.8974 6.04876   1
   4  -2   4 40.0798 6.22381   1
   4  -2   4 38.8747 5.99391   1
   4   2   4 35.6828 7.41906   1
   4   2   4 27.7258 4.95116   1
  -4   2  -4 44.9257 6.22949   1
   4   2   4 43.1765 6.21901   1
   4   2   4 36.0875 5.79192   1
   4   2   4 47.9008 6.32678   1
  -4   2  -4 45.8532 11.3022   1
  -4   2  -4 43.8411 5.47778   1
   4  -2   5 3.07817 4.12573   1
  -4  -2  -5 3.06927 3.08315   1
  -4  -2  -5 1.04371 3.62711   1
   4  -2   5 4.68255 3.49642   1
   4  -2   5 0.14132 3.64831   1
  -4  -2  -5 7.37849 8.29341   1
  -4  -2  -5 7.29001 6.11457   1
   4  -2   5 4.82707 4.04616   1
   4   2   5-1.20166 3.79996   1
   4   2   5 3.61365 4.00634   1
  -4   2  -5   0.409 8.74846   1
   4   2   5 4.96037 4.43798   1
  -4   2  -5-0.35345 2.90766   1
   4   2   5 2.85593 4.32599   1
  -4   2  -5 3.88775 4.32473   1
  -4   2  -5 5.40289 3.90402   1
  -4  -2  -6 42.5271 6.47652   1
   4  -2   6  22.262 5.22072   1
   4  -2   6 17.2467 4.92952   1
   4  -2   6 34.0726 6.69595   1
  -4  -2  -6 21.3504  8.1062   1
  -4  -2  -6 35.0283 10.6661   1
  -4   2  -6 21.2382  10.576   1
  -4   2  -6 38.3104 6.52262   1
  -4   2  -6 39.0611  10.995   1
   4   2   6 44.4526 7.07585   1
   4   2   6 36.3229 6.69531   1
  -4  -2  -7 38.7368 12.5433   1
   4  -2   7 40.9265  7.3894   1
  -4  -2  -7 14.0771 8.97106   1
  -4  -2  -7 35.4235 6.57448   1
   4  -2   7 45.2815 7.52304   1
  -4   2  -7  24.147 6.04273   1
   4   2   7 36.2516 6.43886   1
   4   2   7 19.2637 6.66966   1
  -4   2  -7  35.571  14.695   1
  -4  -2  -8 90.5213 17.5789   1
   4  -2   8 72.3567 10.0045   1
   4  -2   8 84.0514 10.7423   1
  -4  -2  -8 82.5967 9.77828   1
   4   2   8 80.0134 10.0266   1
  -4   2  -8 75.9349 9.48169   1
  -4   2  -8 92.7746 19.2887   1
   4   2   8 67.3911 9.85818   1
  -4  -2  -9 12.5424 11.9202   1
   4  -2   9   14.37 7.20944   1
   4  -2   9 7.70042 7.00654   1
   4   2   9 14.9834  7.1678   1
   4   2   9  12.551 6.20265   1
  -4   2  -9 10.4614 15.3528   1
   4  -2  10 13.4141 8.08704   1
  -4  -2 -10 7.35134  13.245   1
   4   2  10 37.8745 9.68459   1
   4  -3   0 621.594 30.0001   1
  -4  -3   0 632.903 30.4241   1
   4  -3   0 625.949 29.7112   1
   4  -3   0 606.574 30.4267   1
  -4  -3   0 613.026 30.5042   1
   4  -3   0 605.282 29.5987   1
  -4  -3   0  669.90 32.0515   1
  -4  -3   0 649.706  30.198   1
  -4  -3   0 672.331 36.6143   1
   4   3   0 611.767 30.8287   1
  -4   3   0 638.342 33.4178   1
   4   3   0 658.684 36.1887   1
   4   3   0 679.543 31.6154   1
  -4   3   0 651.667  31.771   1
   4   3   0 657.733 31.4752   1
  -4   3   0 668.886 31.2384   1
  -4   3   0 631.888 31.2651   1
  -4   3   0 668.855 36.8207   1
  -4   3   0 681.099 30.8669   1
   4  -3   1 20.9196 4.34076   1
  -4  -3  -1 24.1422 8.32364   1
   4  -3   1 12.7712 3.76574   1
  -4  -3  -1 14.5368 6.60566   1
  -4  -3  -1 18.1417 4.62728   1
  -4  -3  -1  17.943 5.47817   1
  -4  -3  -1  18.058  4.4124   1
   4  -3   1 10.3047 3.45316   1
   4  -3   1 11.0881  3.5996   1
   4  -3   1 9.50544 7.18062   1
   4   3   1 13.6556 3.53743   1
   4   3   1 17.8075  7.2847   1
  -4   3  -1   13.82 3.60368   1
  -4   3  -1  8.5036 4.07688   1
  -4   3  -1 14.7769  7.0825   1
   4   3   1 12.6011 3.85725   1
   4   3   1 15.1726 3.93986   1
  -4   3  -1 10.9508 3.67544   1
  -4   3  -1 15.4388 7.64033   1
  -4   3  -1 11.2619 3.90493   1
  -4  -3  -2 48.4114 9.93231   1
   4  -3   2 46.0543 6.42382   1
  -4  -3  -2 50.5347 6.14977   1
  -4  -3  -2 50.7716  6.4733   1
  -4  -3  -2 37.5181 9.91114   1
   4  -3   2 32.7666 5.52246   1
   4  -3   2 46.8854 6.25036   1
   4  -3   2 43.4828 10.3777   1
  -4  -3  -2 31.4604 6.40004   1
   4  -3   2 43.1456 5.87127   1
   4   3   2 42.0244 8.43781   1
  -4   3  -2 41.9067 6.20376   1
  -4   3  -2 46.9559 6.32695   1
   4   3   2 46.4733 6.82424   1
  -4   3  -2 51.5504 6.15628   1
  -4   3  -2 39.8305 10.1901   1
   4   3   2 47.5275 6.35872   1
   4  -3   3  21.442 6.38431   1
   4  -3   3 16.7347 4.61821   1
   4  -3   3 6.74344 3.44696   1
   4  -3   3 9.21358 4.28097   1
  -4  -3  -3 8.54475  5.0205   1
   4  -3   3  15.444  8.4654   1
  -4  -3  -3 16.1612 4.40715   1
  -4  -3  -3 16.2752 7.43325   1
  -4  -3  -3 10.7093 8.74474   1
  -4  -3  -3 6.13578 3.54214   1
   4   3   3 4.78716 3.15694   1
  -4   3  -3 15.2205 4.22009   1
  -4   3  -3  17.694 5.03842   1
   4   3   3 9.57806 6.21029   1
   4   3   3 12.3383 4.31791   1
   4   3   3 14.6746 4.45865   1
  -4   3  -3 10.0529 3.58843   1
  -4   3  -3 10.4592 8.44709   1
   4  -3   4 144.199 17.9187   1
  -4  -3  -4 190.789 17.3659   1
   4  -3   4 233.398 14.0808   1
   4  -3   4 189.789 13.0114   1
  -4  -3  -4  179.36 12.9579   1
  -4  -3  -4 189.559 19.3556   1
   4  -3   4 200.508  13.845   1
   4   3   4 179.206 12.7784   1
  -4   3  -4 138.722 19.4198   1
  -4   3  -4 202.191 13.3291   1
   4   3   4 180.577 13.1039   1
   4   3   4 182.708  16.914   1
   4   3   4  193.08 12.9597   1
  -4   3  -4 178.836 11.5098   1
  -4   3  -4 176.254 13.3901   1
  -4  -3  -5 17.9825 9.81951   1
  -4  -3  -5 20.8055 9.11598   1
  -4  -3  -5 16.2537 5.20058   1
   4  -3   5 20.3109 5.84313   1
   4  -3   5  6.0437 4.10381   1
   4  -3   5 17.7528 5.66263   1
  -4   3  -5 19.2356 5.36066   1
  -4   3  -5 10.9574 4.18278   1
  -4   3  -5 16.6909 5.37004   1
   4   3   5 16.5393 5.29329   1
  -4   3  -5 4.90061 9.18466   1
   4   3   5 8.60433 5.04764   1
   4  -3   6 28.5444 6.72845   1
  -4  -3  -6 25.9184 9.31171   1
   4  -3   6  27.055 6.42115   1
  -4  -3  -6 36.9778 12.0843   1
  -4  -3  -6 23.8008 6.04657   1
   4   3   6  23.154 5.96587   1
  -4   3  -6 25.6289  12.328   1
  -4   3  -6 27.4016 6.26183   1
  -4  -3  -7 19.4945 5.99764   1
   4  -3   7  22.633 6.87401   1
   4  -3   7 16.1154 6.60769   1
  -4  -3  -7 26.3136 10.2401   1
  -4  -3  -7 30.4939  12.561   1
  -4   3  -7 9.69079 11.6296   1
  -4   3  -7 31.6575 6.98177   1
   4   3   7 23.0101 6.19643   1
  -4  -3  -8  57.305  16.719   1
   4  -3   8 57.5241 9.28766   1
  -4  -3  -8 60.2223 13.2794   1
   4  -3   8 82.3782 10.5503   1
   4   3   8 56.9566 8.70083   1
  -4   3  -8 68.4359 9.36402   1
   4  -3   9 11.3759 7.01166   1
  -4  -3  -9 5.79454 11.6411   1
  -4  -4   0 98.1042 9.33137   1
  -4  -4   0 112.918 14.5921   1
   4  -4   0 98.6566 9.12611   1
  -4  -4   0 103.396 9.42681   1
  -4  -4   0 108.713 10.7098   1
   4  -4   0 95.5571 8.32006   1
   4  -4   0 94.6995 12.9837   1
   4  -4   0  90.611 8.86285   1
   4   4   0  92.364 8.89776   1
   4   4   0 99.2497 13.6064   1
  -4   4   0 93.7324 8.62144   1
   4   4   0 98.8238 9.27253   1
   4   4   0 84.2277 12.9961   1
  -4   4   0  108.49   9.429   1
  -4   4   0 116.349 8.81946   1
  -4   4   0 98.7884 9.32083   1
  -4   4   0 98.1655 14.0045   1
   4  -4   1 13.2202 4.33191   1
   4  -4   1 4.00796 6.41746   1
   4  -4   1 11.8197 4.31049   1
  -4  -4  -1  9.2794 5.32435   1
  -4  -4  -1 5.65292 3.92587   1
   4  -4   1 6.98329 3.87281   1
  -4  -4  -1 7.61652 4.07648   1
  -4  -4  -1 15.5783 8.32724   1
  -4   4  -1 1.37137 3.30575   1
  -4   4  -1 7.62322 8.27594   1
   4   4   1-0.29096  3.2517   1
   4   4   1 4.78751 6.19936   1
   4   4   1 10.5566 4.10646   1
  -4   4  -1 9.26337 4.03254   1
  -4   4  -1 3.24527 4.09435   1
   4   4   1 13.5187 5.05481   1
   4  -4   2 17.0263 4.78494   1
  -4  -4  -2 23.2971 4.89674   1
   4  -4   2 7.92825 7.53633   1
  -4  -4  -2 19.5149 4.95728   1
   4  -4   2 20.6413 5.24369   1
   4  -4   2 24.9709 5.46631   1
  -4  -4  -2 20.7509 6.14724   1
  -4  -4  -2 9.80624 8.94718   1
   4  -4   2  20.079 4.90901   1
   4   4   2 27.2301 5.68857   1
   4   4   2 21.7073 8.32165   1
  -4   4  -2 22.0292 5.37692   1
  -4   4  -2 16.4933  9.9708   1
   4   4   2 12.4861 5.20767   1
  -4   4  -2 16.9673 4.46133   1
   4   4   2 20.5378 4.90806   1
  -4   4  -2 14.1711 4.35292   1
  -4  -4  -3 271.355 23.0543   1
  -4  -4  -3  305.38 16.9132   1
   4  -4   3 234.737 22.7654   1
   4  -4   3 305.851 18.6177   1
   4  -4   3 323.699 18.6257   1
   4  -4   3 331.883 18.4339   1
  -4  -4  -3 303.394 18.2041   1
  -4  -4  -3 299.215 25.3142   1
   4  -4   3 292.173 17.8009   1
  -4  -4  -3  309.11 21.9987   1
  -4   4  -3 328.374 19.8562   1
  -4   4  -3 322.543 26.3815   1
  -4   4  -3 297.626 17.5479   1
   4   4   3 325.418 18.5738   1
   4   4   3 274.737 22.3959   1
   4   4   3 299.431 18.4764   1
  -4   4  -3 312.268 18.6898   1
   4   4   3 342.774 19.3051   1
  -4  -4  -4 4.16956 4.51576   1
   4  -4   4 15.2138 5.59139   1
   4  -4   4 10.4377 5.22656   1
  -4  -4  -4  6.0341 8.17643   1
   4  -4   4 9.88411 5.11516   1
  -4  -4  -4 6.42415 10.7036   1
   4   4   4   16.83  6.0798   1
  -4   4  -4 12.6078 11.4702   1
   4   4   4 9.41517 4.88021   1
  -4   4  -4 8.26263 4.53847   1
  -4   4  -4 12.7544 6.05793   1
  -4   4  -4 8.15881 4.13132   1
   4  -4   5 89.4842  10.339   1
  -4  -4  -5 106.541 15.6847   1
  -4  -4  -5   92.62 10.2338   1
   4  -4   5 74.8517 10.3448   1
   4  -4   5 82.1628 9.82154   1
  -4  -4  -5 74.7691 15.0407   1
  -4   4  -5 99.8785 10.6979   1
  -4   4  -5 121.998 20.0615   1
   4   4   5 61.1745  9.0632   1
  -4  -4  -6  2.2572 8.08707   1
  -4  -4  -6 10.2983 11.5421   1
   4  -4   6 9.06722 6.24696   1
  -4  -4  -6 6.01253 5.26368   1
   4  -4   6 2.27057  4.4673   1
   4   4   6 4.31571 4.79335   1
  -4   4  -6-0.27777 5.10185   1
  -4   4  -6 1.41131 12.5568   1
   4  -4   7 23.8099 7.73893   1
  -4  -4  -7 44.7693 12.3997   1
  -4  -4  -7 24.0219 6.85782   1
  -4  -4  -7 13.4069 18.0808   1
   4  -4   7 40.1698 7.82769   1
   4   4   7 31.3951 7.17661   1
  -4   4  -7 20.6671  7.2198   1
   4  -4   8 7.08811 7.47072   1
   4  -4   8 3.88787 6.24631   1
  -4  -4  -8 1.92495 10.2098   1
   4   4   8 5.93934 5.95199   1
  -4   4  -8 1.68782 8.04316   1
   4  -4   9 48.0057 9.27939   1
  -4  -4  -9 45.9214 15.1478   1
   4  -5   0 291.776 17.9244   1
  -4  -5   0 284.777 23.8946   1
   4  -5   0 299.171 24.0132   1
  -4  -5   0  303.45 19.8124   1
   4  -5   0 288.604 16.8889   1
  -4  -5   0 306.468 18.4727   1
  -4  -5   0 274.558 17.9344   1
   4   5   0 292.326 18.0838   1
  -4   5   0 308.025 17.6562   1
  -4   5   0 301.161 18.1616   1
  -4   5   0 292.076 18.5907   1
  -4   5   0 304.185 24.8297   1
   4   5   0 306.055 24.3429   1
   4   5   0 293.673 18.3676   1
   4  -5   1 918.451 43.9275   1
   4  -5   1 950.725 43.0735   1
  -4  -5  -1 888.622 44.6529   1
  -4  -5  -1 908.666 43.1741   1
  -4  -5  -1  899.37 43.9356   1
   4  -5   1 894.262  50.461   1
  -4  -5  -1 907.557 51.1177   1
  -4   5  -1 884.268 42.7138   1
   4   5   1 875.842 49.6859   1
  -4   5  -1 908.591 43.6255   1
  -4   5  -1 945.289 42.9682   1
  -4   5  -1 966.599 44.7857   1
   4   5   1 837.494 43.2491   1
   4   5   1 917.601 43.9397   1
  -4   5  -1 926.004 51.6903   1
  -4  -5  -2 349.061 19.8406   1
   4  -5   2 352.549 21.1243   1
   4  -5   2  348.46 20.6051   1
  -4  -5  -2 356.641 21.0802   1
  -4  -5  -2 357.763 28.6214   1
   4   5   2 370.428 28.2388   1
   4   5   2 385.639  22.114   1
  -4   5  -2 369.378 21.7468   1
   4   5   2 340.172 21.4131   1
  -4   5  -2 366.627 22.7707   1
  -4   5  -2 387.102 30.1879   1
  -4   5  -2 409.458 21.2946   1
  -4  -5  -3 69.3743 9.26315   1
  -4  -5  -3 63.8457 14.9693   1
   4  -5   3 60.2961 8.52099   1
   4  -5   3 61.9115  8.2828   1
  -4   5  -3 36.4969  17.292   1
   4   5   3 66.2914 8.71308   1
  -4   5  -3 56.3846 7.59068   1
  -4   5  -3 65.7657 9.08038   1
   4   5   3 56.2826 8.24005   1
  -4  -5  -4 113.402  11.864   1
   4  -5   4 112.269 11.9537   1
  -4  -5  -4 121.337 19.6968   1
  -4   5  -4 88.5709 9.37144   1
  -4   5  -4 106.176 11.5173   1
   4   5   4 107.238 11.4247   1
  -4  -5  -5 40.3699 7.78337   1
   4  -5   5 41.1393 8.17008   1
   4  -5   5 37.1863  8.3784   1
  -4  -5  -5 44.8235 13.3986   1
  -4   5  -5 45.0299 7.80361   1
   4   5   5 31.9713 7.42895   1
   4  -5   6 63.3496 10.0658   1
  -4  -5  -6 58.3175  14.227   1
  -4  -5  -6 31.9565 7.75036   1
   4  -5   6 50.4855 9.03537   1
  -4   5  -6 64.2076 9.91749   1
   4   5   6 44.0774 8.41309   1
   4  -5   7 1.54036 5.95563   1
  -4  -5  -7 9.26234 10.2549   1
   4  -5   7-2.18418 7.09266   1
   4   5   7-2.63572  5.9866   1
  -4   5  -7-3.61836 6.14467   1
   4  -5   8 2.52366 7.03016   1
  -4  -5  -8 7.81509 13.3016   1
   4  -6   0 33.6458 7.05301   1
  -4  -6   0  32.207 7.01435   1
  -4  -6   0 29.7043 6.76536   1
   4  -6   0 28.1125 5.92355   1
  -4  -6   0 43.3809 9.37656   1
  -4   6   0 31.3507 6.68059   1
   4   6   0 29.7858 6.67732   1
   4   6   0 47.4005 7.77205   1
  -4   6   0 35.9792 8.27795   1
  -4   6   0 47.7864 7.32964   1
   4  -6   1 66.1585 9.41739   1
   4  -6   1  57.271 7.99035   1
  -4  -6  -1 35.3977 7.50549   1
  -4  -6  -1 52.2455 7.87791   1
  -4   6  -1 51.6247 9.16925   1
  -4   6  -1 59.0129 7.92982   1
  -4   6  -1 49.9197  8.6315   1
   4   6   1 38.9761 7.89079   1
   4   6   1 47.2523  7.8772   1
  -4  -6  -2 17.1565 5.91666   1
   4  -6   2 9.63375 5.30675   1
   4  -6   2 11.3458 5.90118   1
   4   6   2 7.39506 5.08637   1
  -4   6  -2 30.1582 7.04873   1
   4   6   2 10.9985 5.82006   1
  -4   6  -2  3.9469 5.13401   1
   4  -6   3 8.82718 5.95222   1
  -4  -6  -3 1.17483  4.9999   1
   4   6   3 15.1513 6.44024   1
  -4   6  -3 11.4874 6.29348   1
  -4   6  -3 1.26889 4.69151   1
   4  -6   4 30.8154 8.30907   1
  -4  -6  -4 24.3532 7.12007   1
   4   6   4 25.9266  7.3002   1
  -4   6  -4 29.3814 7.89651   1
   4  -6   5 14.0836 7.69617   1
  -4  -6  -5 12.1467 6.60405   1
  -4   6  -5 26.9999  8.2607   1
   4   6   5 23.0573 8.22295   1
   4  -6   6 23.4219 8.96124   1
   4  -6   6   46.15 10.0307   1
  -4   6  -6  16.429  7.7203   1
   4   6   6 22.8174 7.92586   1
   4  -6   7 8.98021 8.50592   1
   4  -6   7 5.46497 8.62366   1
  -4   6  -7 3.02424 8.58729   1
  -4  -7   0 38.8478 8.47097   1
   4  -7   0 72.8622 10.0712   1
  -4  -7   0 42.9072 8.28824   1
   4   7   0  46.923 8.99461   1
  -4   7   0 61.9112 9.44584   1
  -4  -7  -1 25.6812  6.9945   1
   4  -7   1 31.8202 7.81098   1
  -4   7  -1 34.8245 7.75015   1
   4   7   1  32.217 7.50872   1
  -4  -7  -2 43.7442 8.65433   1
   4  -7   2 51.8717 9.39222   1
   4   7   2 52.9997 9.99663   1
  -4   7  -2 62.7006 10.1885   1
  -4  -7  -3 20.8012 7.54713   1
   4  -7   3 25.2337   8.468   1
   4   7   3 20.8846 8.06635   1
  -4  -7  -4 19.0497 7.39569   1
   4  -7   4 14.4117 8.10449   1
   4   7   4 19.4149 8.15002   1
   4  -7   5 142.234 15.9958   1
   4   7   5 130.601 15.0451   1
   4  -7   6 26.0685 10.7289   1
   4  -8   0 15.0273 8.12798   1
  -4   8   0  10.826 7.60596   1
   4   8   0 11.0375 7.62854   1
  -4  -8  -1-0.31036 8.18458   1
  -4   8  -1 0.28474 6.92266   1
   4   8   1 0.46291 6.51292   1
  -4  -8  -2 90.6356 12.9318   1
   4   8   2 100.022 13.2534   1
  -4  -8  -3 11.0894 8.36765   1
   4   8   3 26.8811 9.55496   1
  -4   9   0 51.2143 11.2774   1
   4   9   1 64.3371 12.7619   1
   5   0   0 60.2728 6.82049   1
  -5   0   0 62.5285  6.4329   1
   5   0   0 44.0098 5.48108   1
  -5   0   0 68.6853 10.8561   1
  -5   0   0  55.285 10.4646   1
   5   0   0 58.2753  6.5642   1
  -5   0   0  57.574 8.13824   1
  -5   0   0 70.2764 6.63496   1
  -5   0   0 63.9748 7.02792   1
   5   0   0 84.9338 10.0166   1
   5   0   0 67.3731 6.62783   1
   5   0   1 118.737 9.22114   1
  -5   0  -1 125.387  14.055   1
  -5   0  -1 128.137 11.8265   1
  -5   0  -1 108.299 8.86124   1
  -5   0  -1 117.949 9.26361   1
  -5   0  -1 128.444 14.1638   1
   5   0   1 124.911 9.30729   1
   5   0   1 117.078 8.79725   1
   5   0   1 118.571 9.27109   1
   5   0   1 131.689 12.9912   1
  -5   0  -2 55.5052 8.47672   1
  -5   0  -2 42.4387 6.13768   1
  -5   0  -2 69.4759  12.605   1
   5   0   2 35.5216 7.31662   1
   5   0   2 54.2795 6.65739   1
   5   0   2  56.549  7.1423   1
   5   0   2 49.9032 5.67201   1
  -5   0  -2 55.2323 6.27895   1
  -5   0  -2 38.5333 8.34311   1
   5   0   2 52.8635 6.45439   1
   5   0   3 187.572 12.7102   1
   5   0   3  176.80 12.3571   1
   5   0   3 162.406 16.1518   1
  -5   0  -3 200.503 12.9466   1
  -5   0  -3 196.028 12.2234   1
  -5   0  -3 171.529 14.9989   1
   5   0   3 190.348 12.8267   1
  -5   0  -3 176.483 17.9167   1
  -5   0  -3 181.008 18.4669   1
   5   0   3 187.671 12.3977   1
   5   0   4 132.828 10.8958   1
  -5   0  -4 137.613 16.7076   1
  -5   0  -4 131.839 10.1428   1
  -5   0  -4 123.622 16.9101   1
   5   0   4 151.052 11.5564   1
  -5   0  -4 125.296 10.8154   1
   5   0   4 125.666 10.6926   1
  -5   0  -4 131.814 17.0025   1
   5   0   4 148.483 11.4068   1
  -5   0  -5 4.24481 7.96261   1
  -5   0  -5 3.53628 4.14023   1
   5   0   5 5.19732 4.88823   1
  -5   0  -5 10.4592 5.48661   1
  -5   0  -5 0.66842 8.36619   1
   5   0   5 7.66252 4.83034   1
   5   0   5 5.32751 4.29948   1
  -5   0  -6 2.71651 8.03236   1
   5   0   6  0.6585 4.72504   1
  -5   0  -6 2.90324 4.54773   1
  -5   0  -6-0.34063 10.1775   1
   5   0   6-3.57793 4.71089   1
   5   0   7 27.7787 6.80928   1
  -5   0  -7  2.8446  10.679   1
  -5   0  -7 35.2555 7.35444   1
   5   0   7 41.8611 7.87304   1
  -5   0  -8 2.08192 18.5843   1
   5   0   8  37.044 8.22889   1
   5   0   8 34.8036 8.07066   1
   5   0   9 13.7179  7.9079   1
   5  -1   0 369.547 18.7863   1
  -5  -1   0 328.068 23.3568   1
   5  -1   0 357.219 19.0826   1
  -5  -1   0 356.528 19.3087   1
   5  -1   0 384.223 18.9965   1
  -5  -1   0 373.317 21.1809   1
  -5  -1   0 360.222 18.9256   1
  -5  -1   0 353.931 23.8688   1
   5  -1   0 349.208 18.4222   1
  -5  -1   0 378.618 19.1241   1
   5  -1   0 359.639 18.4564   1
  -5   1   0 359.586 21.1783   1
   5   1   0 369.527 23.4005   1
   5   1   0 363.602 18.9777   1
  -5   1   0 367.589 23.6719   1
  -5   1   0 340.676 18.0748   1
  -5   1   0 391.069 19.1462   1
  -5   1   0 346.745 18.9275   1
   5   1   0 344.936 18.1285   1
  -5   1   0 315.671 23.7715   1
   5   1   0 365.856 18.8996   1
   5   1   0 344.388 18.7354   1
  -5  -1  -1 39.4414 8.52088   1
   5  -1   1 12.6384 3.74539   1
   5  -1   1 20.4135 4.48534   1
  -5  -1  -1 17.1516 4.29301   1
  -5  -1  -1 17.8078  5.6555   1
  -5  -1  -1  12.621 3.99516   1
   5  -1   1 18.8695 4.53192   1
  -5  -1  -1 21.3614  7.5349   1
   5  -1   1 15.1399 3.73874   1
   5  -1   1 28.6705 8.46544   1
   5   1   1 13.2614  3.5857   1
   5   1   1 14.1423 4.07549   1
   5   1   1 22.0315 4.19533   1
  -5   1  -1 19.8356 3.94194   1
   5   1   1 22.6456 4.62856   1
  -5   1  -1  14.182 3.97087   1
  -5   1  -1 15.0655 6.96922   1
  -5   1  -1 12.6349 4.03007   1
  -5   1  -1 16.7826  8.0863   1
  -5   1  -1 19.0765 6.33084   1
  -5  -1  -2 83.7511 10.3792   1
   5  -1   2 74.2318 7.93566   1
   5  -1   2 83.4435 7.96213   1
  -5  -1  -2 48.0593  9.9203   1
  -5  -1  -2 89.8156 13.1135   1
   5  -1   2 54.5958 6.53042   1
  -5  -1  -2 75.4457 7.80462   1
   5  -1   2 48.1734 9.14283   1
  -5  -1  -2 82.3213 7.71736   1
   5  -1   2 50.7405 6.13549   1
  -5   1  -2 80.9259 8.43128   1
   5   1   2 74.8492 7.54344   1
   5   1   2  63.383 7.46603   1
  -5   1  -2 56.7493 12.1744   1
   5   1   2 75.9623 7.72766   1
  -5   1  -2  81.335 7.69306   1
  -5   1  -2 76.1513  7.9762   1
   5   1   2  81.161 8.17292   1
  -5   1  -2 77.6676 10.1431   1
   5  -1   3 15.9065 4.76349   1
  -5  -1  -3 12.1603   4.445   1
  -5  -1  -3 1.47894 3.20431   1
  -5  -1  -3 16.4738 6.04832   1
   5  -1   3 13.2385 4.26438   1
   5  -1   3 10.1758 6.47148   1
   5  -1   3 5.50343 3.53803   1
  -5  -1  -3 12.8903 8.98314   1
   5  -1   3 15.7789 4.07158   1
  -5  -1  -3 11.4987 7.24268   1
  -5   1  -3  8.1708 4.15808   1
   5   1   3 9.45754 3.93124   1
  -5   1  -3 7.39878 8.20831   1
   5   1   3 10.5978 4.23071   1
  -5   1  -3 6.99885 3.61914   1
   5   1   3 7.82487 3.66887   1
  -5   1  -3 9.28629 7.48119   1
   5   1   3  13.325 4.37093   1
  -5   1  -3 16.3815 7.42553   1
  -5   1  -3 18.7676 4.81457   1
  -5  -1  -4 5.00718 7.96948   1
  -5  -1  -4 7.47079 4.50547   1
   5  -1   4 17.5892 5.11804   1
   5  -1   4 5.38703 6.23427   1
   5  -1   4 10.7689 4.46003   1
  -5  -1  -4 13.6951 4.39399   1
   5  -1   4  8.3715 4.20788   1
   5  -1   4 10.0933 4.18752   1
  -5  -1  -4 11.7736 9.24738   1
   5   1   4 8.43623 4.23303   1
   5   1   4 13.9161 4.81243   1
   5   1   4  10.188 4.67334   1
  -5   1  -4 13.4666 4.87446   1
  -5   1  -4-5.21958 8.88345   1
   5   1   4   15.79 4.75544   1
  -5   1  -4  8.4915 4.10572   1
  -5   1  -4 19.7157 9.05174   1
   5  -1   5 107.767 10.4887   1
  -5  -1  -5 81.7278 9.27892   1
   5  -1   5  51.063 7.32309   1
   5  -1   5 68.2192 9.38107   1
   5  -1   5 64.1688 11.9038   1
  -5  -1  -5  67.491 13.4611   1
  -5   1  -5 78.6026 13.7147   1
   5   1   5 86.8454 9.56143   1
   5   1   5  63.473 8.31884   1
   5   1   5 79.6389 8.74728   1
  -5   1  -5 67.1875 8.31993   1
  -5  -1  -6 4.89179 4.75189   1
  -5  -1  -6-0.31239 7.57264   1
  -5  -1  -6 3.16008 9.60527   1
   5  -1   6-1.14328 4.85035   1
   5  -1   6 4.40663 4.97207   1
  -5   1  -6 4.77571 4.89448   1
  -5   1  -6 -0.9509 8.94134   1
   5   1   6 1.45918 4.65887   1
   5   1   6  4.1306 4.90695   1
  -5  -1  -7 32.7741 7.25706   1
  -5  -1  -7 17.6799 11.7308   1
   5  -1   7 41.1966 8.24503   1
   5  -1   7  29.856 7.67248   1
   5   1   7 26.7764 7.01005   1
   5   1   7 40.2909 8.13145   1
  -5   1  -7 30.4378 7.44978   1
  -5   1  -7 24.0518 12.3152   1
   5  -1   8 88.8411 11.1661   1
   5  -1   8 54.9757 9.61533   1
  -5  -1  -8 86.6533 20.1035   1
   5   1   8 77.1892 10.4724   1
   5   1   8  57.056 9.90934   1
   5  -1   9 32.0426 9.02995   1
   5   1   9 18.7645 8.41513   1
  -5  -2   0 373.399 25.8895   1
   5  -2   0 385.479 19.5506   1
  -5  -2   0 383.937 20.0774   1
  -5  -2   0 394.682  21.252   1
  -5  -2   0 344.357 19.8931   1
  -5  -2   0 374.555 24.5641   1
  -5  -2   0 398.913 22.2494   1
   5  -2   0 356.019 20.0087   1
   5  -2   0 386.564  19.751   1
  -5   2   0 401.006 20.2171   1
  -5   2   0 371.882 20.2347   1
   5   2   0 383.333 20.3513   1
   5   2   0 368.002 24.7128   1
  -5   2   0 377.744 22.6311   1
   5   2   0 392.808 20.3237   1
  -5   2   0 359.163 24.9708   1
  -5   2   0 374.073  19.468   1
  -5   2   0 377.098 20.5764   1
   5   2   0 373.818 20.1841   1
  -5  -2  -1 56.2395 6.77847   1
   5  -2   1 65.4582 7.12364   1
   5  -2   1 53.6149  6.8094   1
   5  -2   1 52.1153 10.7357   1
  -5  -2  -1 52.7089 6.95718   1
  -5  -2  -1 61.6602 8.53857   1
   5  -2   1 55.4664 6.47435   1
  -5  -2  -1 59.8372 10.7683   1
   5   2   1 72.7088 8.10489   1
   5   2   1 58.5379 6.72413   1
  -5   2  -1 66.8053 7.96218   1
  -5   2  -1 45.3722 10.3516   1
  -5   2  -1 67.7504 7.62074   1
  -5   2  -1 75.6498 7.06268   1
  -5   2  -1 66.6286 9.93444   1
   5   2   1 56.6178 7.12957   1
   5   2   1 63.6195 10.7109   1
  -5  -2  -2 14.1468 5.90121   1
  -5  -2  -2 12.6613 7.34443   1
  -5  -2  -2 6.52367  3.8561   1
   5  -2   2 13.2513 4.44534   1
  -5  -2  -2 11.6851 7.31207   1
   5  -2   2 16.3063 4.49686   1
   5  -2   2 7.55781 3.60561   1
   5  -2   2 11.4621 7.32432   1
  -5  -2  -2 8.20349 4.23189   1
  -5   2  -2 7.92444  3.4728   1
   5   2   2 10.8489  6.5749   1
   5   2   2 11.2074 4.22217   1
  -5   2  -2 12.3457 4.27944   1
  -5   2  -2 6.93191 7.00783   1
  -5   2  -2 10.6027 4.50197   1
   5   2   2 17.0724 5.15478   1
   5   2   2 12.8759  4.2666   1
  -5   2  -2  4.9531 7.19021   1
   5   2   2 12.7119 4.33267   1
   5  -2   3 20.7879 5.23085   1
  -5  -2  -3 27.2257 5.25387   1
  -5  -2  -3 21.7189 9.76318   1
   5  -2   3 30.6559 5.76381   1
   5  -2   3 16.2533 4.71968   1
  -5  -2  -3 26.0892 5.32507   1
  -5  -2  -3 17.7053 7.93575   1
   5  -2   3 25.4321 9.29081   1
  -5   2  -3  15.797 8.88953   1
  -5   2  -3 18.7991 4.98796   1
   5   2   3 26.0225 5.76738   1
  -5   2  -3  24.129 5.53902   1
   5   2   3 17.9862 4.53647   1
   5   2   3 25.2237 5.37258   1
  -5   2  -3 22.2483 4.99398   1
  -5   2  -3 25.6756 8.85839   1
   5   2   3 33.8662 6.18845   1
   5  -2   4 77.2515  8.7456   1
  -5  -2  -4 72.6868 8.20548   1
  -5  -2  -4 74.4788 7.67543   1
   5  -2   4 55.1004 11.8466   1
  -5  -2  -4 46.1888 9.77515   1
  -5  -2  -4 57.5974 11.6732   1
   5  -2   4 56.3064 8.07236   1
   5  -2   4 55.4629 7.23612   1
  -5   2  -4 80.6331 9.41066   1
  -5   2  -4 66.7308 7.54295   1
   5   2   4 87.4931   9.891   1
  -5   2  -4 78.9049  14.707   1
   5   2   4 76.0302 8.92474   1
   5   2   4 91.8553 9.61007   1
  -5   2  -4  69.519 8.82857   1
   5   2   4 55.2697 7.72268   1
   5  -2   5 18.9514 5.91184   1
   5  -2   5 13.0604 5.32004   1
  -5  -2  -5 10.0124 9.61871   1
  -5  -2  -5 12.3375 8.27444   1
  -5  -2  -5 11.3192 5.07546   1
   5  -2   5 13.0336 5.57063   1
  -5   2  -5 8.67369  10.614   1
  -5   2  -5 10.9443 4.99369   1
   5   2   5 9.11497 7.46707   1
   5   2   5 21.5418 6.45856   1
   5   2   5 5.98204 5.07679   1
   5  -2   6 34.6356 7.50069   1
  -5  -2  -6 46.4871 14.3016   1
   5  -2   6 42.5354 8.23631   1
  -5  -2  -6 39.0338 15.2722   1
  -5  -2  -6 50.1287   7.873   1
  -5   2  -6 24.6335   13.30   1
   5   2   6 36.1999 7.13291   1
  -5   2  -6 35.8985 7.02594   1
   5   2   6 44.7309 8.22135   1
  -5  -2  -7-0.65943 9.78052   1
  -5  -2  -7 0.27194 5.66535   1
   5  -2   7 5.08156 6.23069   1
   5  -2   7  3.1083 5.23809   1
  -5   2  -7 1.87515 5.56374   1
   5   2   7 5.68158 6.26991   1
   5   2   7 12.3077 6.34943   1
   5  -2   8 50.4228  10.044   1
  -5  -2  -8 58.4317 22.0026   1
   5  -2   8 60.8654 9.89219   1
   5   2   8  45.036 8.86532   1
   5   2   8 57.3668 9.75421   1
   5  -2   9 56.6918 11.0301   1
   5   2   9 31.1326 9.55005   1
  -5  -3   0 562.336 30.5586   1
   5  -3   0 441.625 23.4257   1
   5  -3   0 482.887 23.9723   1
  -5  -3   0 440.872 24.4174   1
  -5  -3   0 475.924  26.286   1
   5  -3   0 429.248 24.2707   1
  -5  -3   0 463.956 24.5767   1
  -5  -3   0 488.313 31.3736   1
   5   3   0 436.492 28.6602   1
  -5   3   0  459.10 23.8561   1
   5   3   0 468.978 24.0096   1
  -5   3   0  394.87 29.1524   1
  -5   3   0 475.694 27.0353   1
  -5   3   0 496.182 24.4641   1
  -5   3   0  445.98 23.0554   1
  -5   3   0 460.152 24.3648   1
   5   3   0 448.169 23.8398   1
   5  -3   1 244.084 14.7729   1
  -5  -3  -1 236.584 15.1629   1
  -5  -3  -1 235.154   16.81   1
  -5  -3  -1 260.396 15.2668   1
   5  -3   1 224.847 14.9104   1
   5  -3   1 211.144 19.6458   1
   5  -3   1  234.55  14.191   1
  -5  -3  -1 218.187   19.00   1
  -5   3  -1 260.791 15.5964   1
  -5   3  -1 260.975 16.3016   1
  -5   3  -1 187.904 20.3966   1
   5   3   1 256.531 15.6367   1
  -5   3  -1 234.332 19.5925   1
   5   3   1 235.625 15.0281   1
   5   3   1 218.265 19.5555   1
  -5   3  -1 282.145 15.1114   1
   5  -3   2 47.8196 6.79661   1
  -5  -3  -2 60.5573 7.69964   1
  -5  -3  -2 65.0535 9.26598   1
  -5  -3  -2 53.4971 7.72467   1
  -5  -3  -2 65.1448 11.6825   1
  -5  -3  -2 47.6423 11.6588   1
   5  -3   2 38.7736  10.933   1
   5  -3   2 62.0061 7.61447   1
   5  -3   2 63.8162 8.23302   1
  -5   3  -2 85.1558 9.20553   1
   5   3   2  41.524   9.653   1
  -5   3  -2 39.5795   11.39   1
  -5   3  -2 58.1475 11.1653   1
   5   3   2 72.9906 8.58504   1
  -5   3  -2 48.0741 7.07393   1
   5   3   2 41.6814 6.25725   1
  -5   3  -2 59.2144 6.84803   1
  -5  -3  -3  155.59 17.3438   1
  -5  -3  -3 145.319 11.3616   1
   5  -3   3 150.906 12.2851   1
   5  -3   3 168.676 12.9415   1
  -5  -3  -3 156.399 12.3585   1
   5  -3   3 126.239 11.2638   1
  -5  -3  -3 141.648 18.9177   1
  -5   3  -3 174.098 13.4486   1
  -5   3  -3 132.357 10.7842   1
   5   3   3 155.148 12.0248   1
   5   3   3 116.473 17.2211   1
   5   3   3 137.655  15.977   1
   5   3   3 150.832  12.364   1
  -5   3  -3 155.288 12.3994   1
  -5  -3  -4  72.784 14.1055   1
   5  -3   4 67.7796 8.52784   1
  -5  -3  -4 62.5327 14.8478   1
   5  -3   4 45.7817 7.44314   1
   5  -3   4  56.407 8.30069   1
  -5  -3  -4 65.9211  8.7565   1
  -5   3  -4 34.2138 12.6133   1
   5   3   4 65.1813 10.3181   1
   5   3   4 46.7279 10.8589   1
  -5   3  -4 54.9459 7.22271   1
   5   3   4 73.7174 9.50727   1
  -5   3  -4  60.805  8.4466   1
  -5  -3  -5-2.35577 9.97231   1
  -5  -3  -5 4.88263 5.04456   1
   5  -3   5 7.86652 5.12126   1
  -5  -3  -5 4.50382 8.75706   1
   5  -3   5 8.45702 5.74894   1
   5   3   5  9.0734  5.4167   1
  -5   3  -5 6.23813 5.18682   1
  -5   3  -5 10.1837  15.368   1
   5  -3   6 22.8048  6.8227   1
  -5  -3  -6 17.4685 11.4558   1
   5  -3   6 24.0936 7.18828   1
  -5  -3  -6  10.548 5.97165   1
  -5   3  -6 25.4341   7.261   1
   5   3   6 13.4232 6.49496   1
  -5  -3  -7 29.6953 13.2739   1
  -5  -3  -7 40.3315 9.27261   1
   5  -3   7 62.3552 9.03015   1
   5  -3   7 63.0787 10.2158   1
   5   3   7 68.9649 10.4895   1
  -5   3  -7 72.1007 10.7298   1
   5  -3   8 2.94348 6.90027   1
   5  -3   8 13.1988 8.16761   1
  -5  -4   0  165.49 13.0889   1
  -5  -4   0 171.229 14.7073   1
  -5  -4   0 170.186 13.2737   1
   5  -4   0  184.14 12.0527   1
   5  -4   0 195.128 13.2141   1
  -5  -4   0 175.625 18.6032   1
  -5  -4   0 137.967 19.0984   1
   5  -4   0 184.153 12.2492   1
   5   4   0 161.896 18.6484   1
  -5   4   0 195.445 13.2867   1
  -5   4   0 190.071 19.6816   1
  -5   4   0 243.127 19.7312   1
   5   4   0 169.061  13.373   1
   5   4   0 185.112 13.2602   1
  -5   4   0 161.278 13.3259   1
  -5   4   0  193.45 12.7799   1
   5  -4   1  262.56 23.8229   1
   5  -4   1 328.124 18.4743   1
  -5  -4  -1 328.612 18.9637   1
  -5  -4  -1 289.367 24.4471   1
  -5  -4  -1 318.116 19.3235   1
  -5  -4  -1 321.206 20.8646   1
   5  -4   1 325.782 19.3151   1
   5  -4   1 328.558 18.2272   1
  -5   4  -1 313.482 19.9607   1
  -5   4  -1 340.653 18.8118   1
   5   4   1 316.971 19.2306   1
   5   4   1 339.315 19.8001   1
  -5   4  -1 322.611 26.6156   1
  -5   4  -1 324.416 19.3582   1
   5   4   1 289.767 23.9934   1
  -5   4  -1 343.467  24.936   1
   5  -4   2 264.034 16.6727   1
  -5  -4  -2 265.398 21.8343   1
   5  -4   2 277.707 17.0224   1
  -5  -4  -2  262.67 16.6432   1
  -5  -4  -2 226.308 24.8318   1
   5  -4   2 271.278 17.7501   1
  -5  -4  -2 270.397 23.3243   1
  -5  -4  -2 274.344 17.6524   1
   5   4   2 261.058 25.3754   1
  -5   4  -2 291.616 17.9522   1
  -5   4  -2 279.733 25.8692   1
   5   4   2  253.99 17.1325   1
   5   4   2  298.21 18.1896   1
  -5   4  -2 281.298 16.8678   1
  -5   4  -2 247.496 18.2442   1
   5  -4   3 114.414 11.6551   1
  -5  -4  -3 76.1351  15.942   1
   5  -4   3 112.029 11.6002   1
   5  -4   3 105.761 10.8924   1
  -5  -4  -3 86.6165 9.97479   1
  -5  -4  -3 119.613 13.4412   1
  -5  -4  -3 117.395  17.334   1
  -5   4  -3 45.8724 19.7968   1
   5   4   3 102.448 10.5882   1
  -5   4  -3 123.336 10.3656   1
   5   4   3 94.1533 11.1001   1
  -5   4  -3 129.475 11.6912   1
   5  -4   4 93.0196 10.8471   1
  -5  -4  -4  95.049 15.0778   1
  -5  -4  -4 85.5703 10.5171   1
   5  -4   4 75.7329 10.2652   1
   5  -4   4 77.4176 11.4512   1
  -5   4  -4 89.3046 10.7709   1
  -5   4  -4 66.9595 8.65009   1
   5   4   4 71.3705 9.84284   1
  -5  -4  -5 11.9227 11.4231   1
   5  -4   5 14.7727 6.71889   1
   5  -4   5 15.3323 6.06639   1
  -5  -4  -5 14.5802 6.14918   1
   5   4   5 9.46328 6.10279   1
  -5   4  -5 16.0774 7.07009   1
  -5  -4  -6 16.8824  13.432   1
  -5  -4  -6 13.0692 6.70419   1
   5  -4   6 17.7047 7.20933   1
   5  -4   6 22.1558 7.71631   1
   5   4   6 14.0088 7.05494   1
  -5   4  -6 26.2434 7.66175   1
   5  -4   7 12.1603 7.95989   1
   5  -4   7 3.76448 6.24274   1
   5   4   7 5.64474  6.4797   1
  -5   4  -7 3.69888 6.68428   1
   5  -4   8   3.783 6.83517   1
   5  -5   0 6.28317 11.7293   1
  -5  -5   0 5.65542 6.33887   1
   5  -5   0 1.75613 4.19339   1
  -5  -5   0 1.89896 4.68481   1
   5  -5   0 3.79944 4.14914   1
   5  -5   0 5.20267 4.39786   1
  -5  -5   0 4.70129 4.83999   1
   5  -5   0  6.0327 4.64511   1
  -5   5   0-2.14484 9.06527   1
   5   5   0 2.74442 4.41452   1
  -5   5   0 2.95895 4.13818   1
  -5   5   0 9.64666 4.81021   1
   5   5   0 7.69676  5.0208   1
  -5   5   0-2.39651 4.56464   1
  -5  -5  -1 199.816 15.7562   1
  -5  -5  -1 215.988 15.4813   1
   5  -5   1 211.059 14.7429   1
   5  -5   1 227.387 15.9907   1
   5  -5   1 193.939 14.4532   1
  -5  -5  -1 215.417 23.9802   1
  -5   5  -1  217.57 15.7452   1
   5   5   1  220.66 16.0584   1
  -5   5  -1 209.769 16.6464   1
  -5   5  -1 222.152 14.9924   1
   5   5   1 210.412 15.7146   1
  -5  -5  -2 115.594 13.2422   1
  -5  -5  -2  116.13 12.4078   1
  -5  -5  -2 107.539 18.1424   1
   5  -5   2 111.032 11.0081   1
   5  -5   2 112.191 11.6167   1
   5   5   2 106.543 11.7025   1
  -5   5  -2 123.556  11.386   1
  -5   5  -2 94.4496  10.787   1
   5  -5   3  29.473 7.65804   1
  -5  -5  -3 14.5198 11.4842   1
  -5  -5  -3 20.7138  6.7358   1
   5  -5   3 34.7168 7.54144   1
   5   5   3 23.2951  6.8322   1
  -5   5  -3 18.5097 7.12898   1
  -5   5  -3 27.9291 6.47572   1
   5  -5   4 44.5948 8.25367   1
  -5  -5  -4 32.9221 7.77606   1
   5  -5   4 36.3187 8.38705   1
  -5   5  -4 41.9591 8.43935   1
   5   5   4  40.336 8.68241   1
  -5  -5  -5 10.3496 6.50211   1
   5  -5   5 10.0727  7.0621   1
   5  -5   5-0.91523 6.55826   1
  -5   5  -5 5.37636 6.50329   1
   5   5   5 -0.0926 5.86067   1
   5  -5   6 5.76149 6.53813   1
   5  -5   6  17.027 8.25159   1
   5   5   6 13.8662 7.82955   1
  -5   5  -6  8.0303 7.63418   1
   5  -5   7  2.7589 7.00411   1
   5  -5   7 0.67318  8.3021   1
  -5   5  -7 3.73428 10.9513   1
   5  -6   0 375.148 22.3133   1
   5  -6   0  368.02 21.3212   1
  -5  -6   0 336.715 22.0333   1
   5  -6   0 352.907 22.4411   1
  -5   6   0 349.376 21.4462   1
  -5   6   0 355.727 21.6102   1
   5   6   0 372.232 23.0951   1
   5  -6   1  85.705 10.0496   1
  -5  -6  -1 71.5664 10.4843   1
   5  -6   1 92.1141  11.183   1
   5  -6   1 103.405 11.2317   1
  -5   6  -1 83.7429 10.0458   1
   5   6   1 111.226 12.5624   1
  -5  -6  -2 12.6105 6.97734   1
   5  -6   2 28.6199 7.44348   1
   5  -6   2 23.8614 7.24291   1
   5   6   2 13.6441 6.58104   1
  -5   6  -2 27.3932 7.13757   1
  -5  -6  -3 26.9932 7.77874   1
   5  -6   3  23.494 7.78403   1
   5  -6   3 41.3497 8.56705   1
   5   6   3 22.8736 7.26407   1
  -5  -6  -4 -4.1156 6.19192   1
   5  -6   4 2.29624 6.39757   1
   5  -6   4-6.36304 6.32315   1
   5   6   4 10.5056  7.2318   1
   5  -6   5-0.84798  6.6423   1
   5  -6   5 12.6786 8.19941   1
   5   6   5  3.2183 7.08151   1
   5  -6   6 38.6941 10.5463   1
   5  -6   6 44.3389 10.8479   1
   5  -7   0 19.1049 7.80658   1
  -5   7   0 28.2404 8.07014   1
   5   7   0 22.9345 7.40883   1
  -5  -7  -1 46.1752 9.77012   1
   5   7   1 43.5437 9.44093   1
  -5   7  -1 68.3314 10.2496   1
  -5  -7  -2 79.9414 11.9915   1
  -5   7  -2 81.4724 11.6249   1
   5   7   2 78.2678 12.0799   1
  -5  -7  -3 176.249 17.7563   1
   5  -7   3 189.865 16.9544   1
   5   7   3 177.677  18.227   1
   5  -7   4 8.54267 8.61804   1
   5   7   4 8.32796   7.979   1
   5  -7   5  30.476 10.0968   1
   5  -7   5 9.83418 12.9146   1
  -5   8   0 3.41918 7.64318   1
   5   8   0 3.68256  7.1179   1
   5   8   1-0.17742 7.89383   1
  -5   8  -1-0.42021 8.03119   1
   5   8   2 35.6168  11.081   1
   5   8   3 12.5593 9.20112   1
   6   0   0 3.10214 6.28374   1
   6   0   0 7.63213 4.00758   1
   6   0   0 0.47458 3.13119   1
  -6   0   0 0.54243 4.85349   1
  -6   0   0 7.37635 7.12754   1
  -6   0   0-2.23061  6.0932   1
  -6   0   0 2.17554 3.55611   1
  -6   0   0-0.27881 3.13994   1
   6   0   0  9.9594 4.17639   1
  -6   0  -1 2.80157 6.25562   1
  -6   0  -1  6.5957 6.32326   1
  -6   0  -1  1.2252 3.47948   1
   6   0   1 7.40803 4.09362   1
  -6   0  -1 0.71524 7.40343   1
   6   0   1 1.87006 3.78884   1
   6   0   1-3.86077 4.95356   1
   6   0   1 0.14312 3.59334   1
  -6   0  -1-0.07724 3.40297   1
  -6   0  -2 19.7208 5.14239   1
  -6   0  -2 19.0484 9.58197   1
   6   0   2 13.4935 8.36237   1
  -6   0  -2 20.4948 8.13136   1
   6   0   2 17.9837 4.97539   1
  -6   0  -2 25.2401  5.4188   1
   6   0   2 32.2981 6.31964   1
   6   0   2 27.9061 5.74458   1
   6   0   3 40.2456 6.85716   1
  -6   0  -3 19.0759 5.61169   1
   6   0   3 10.8205 10.5598   1
  -6   0  -3 27.3778 11.5181   1
  -6   0  -3 15.7311 11.2969   1
   6   0   3 22.8782  5.6875   1
  -6   0  -3 27.8191 6.08151   1
  -6   0  -3   32.55 10.6446   1
   6   0   3 19.1057 5.02446   1
  -6   0  -4-0.52384 4.33818   1
   6   0   4 4.00237 4.88161   1
   6   0   4 1.98477  4.3482   1
   6   0   4  2.3023 4.62348   1
  -6   0  -4 0.71092 8.72211   1
  -6   0  -5 2.90079 5.10452   1
   6   0   5 0.64618 4.30208   1
   6   0   5  1.7635 5.21144   1
   6   0   6 6.18621 6.23623   1
   6   0   6  -0.386 5.07016   1
  -6   0  -6 3.95569 5.73814   1
   6   0   7 9.01093 6.54302   1
  -6   0  -7 9.76796  7.5731   1
   6   0   7 20.8993 8.03213   1
   6   0   8-2.89714 6.22036   1
  -6  -1   0 39.5182 8.04547   1
   6  -1   0 42.4094 6.00367   1
   6  -1   0  39.491 9.16686   1
   6  -1   0  33.722 5.64099   1
  -6  -1   0 41.6945 6.31564   1
  -6  -1   0 21.7962 8.53511   1
  -6  -1   0 36.6873 6.22926   1
   6  -1   0 40.7148  5.9692   1
  -6  -1   0 31.7636 9.98366   1
  -6   1   0  30.916 10.1658   1
  -6   1   0 42.5179 6.22992   1
  -6   1   0 37.0589 8.26261   1
  -6   1   0 32.9026 6.04901   1
  -6   1   0 28.6402 10.0468   1
   6   1   0  41.025 6.48555   1
   6   1   0 42.1415 6.34983   1
  -6   1   0 41.9853 6.60186   1
   6   1   0 41.0905 6.14163   1
  -6  -1  -1 143.898 11.1981   1
   6  -1   1  132.42 11.1101   1
  -6  -1  -1 117.065 16.3665   1
   6  -1   1 144.016 11.3241   1
  -6  -1  -1 140.008 16.8746   1
   6  -1   1 134.432 10.7488   1
  -6  -1  -1 132.474 11.1705   1
  -6  -1  -1  155.08 14.0827   1
   6  -1   1 126.596 15.2343   1
  -6   1  -1  127.64 14.7239   1
  -6   1  -1 139.301 10.7545   1
   6   1   1 136.825 11.1174   1
  -6   1  -1 133.916  11.413   1
   6   1   1 141.199 11.2896   1
   6   1   1 129.095 10.7318   1
  -6   1  -1  132.13 11.1173   1
  -6   1  -1 125.303 16.8052   1
  -6  -1  -2 48.2247 7.16586   1
  -6  -1  -2 20.2377 9.51908   1
   6  -1   2  33.543 6.04532   1
  -6  -1  -2 46.5177 6.95839   1
  -6  -1  -2 55.0769 9.66184   1
   6  -1   2 27.0608 8.04871   1
   6  -1   2 66.5241 8.19948   1
   6  -1   2 47.8305 6.96128   1
  -6   1  -2  47.216 7.54512   1
  -6   1  -2 58.6395 12.9044   1
  -6   1  -2 51.7699 7.04722   1
  -6   1  -2 29.1021 11.4639   1
   6   1   2 59.9281 8.02795   1
   6   1   2 63.2849 8.23866   1
   6   1   2 63.7253 8.25278   1
  -6   1  -2 64.6963 8.00083   1
  -6   1  -2 64.2711 10.7128   1
  -6  -1  -3 11.6626 9.81887   1
   6  -1   3 51.1444 7.74284   1
   6  -1   3 28.2034 6.43207   1
   6  -1   3 36.5436 6.47667   1
  -6  -1  -3 21.1322 10.1659   1
  -6  -1  -3 36.9664 6.16495   1
  -6  -1  -3 35.0321 6.81252   1
   6   1   3 26.1047 5.97135   1
  -6   1  -3 43.5305 7.28769   1
   6   1   3 46.2547 7.51291   1
   6   1   3 44.7374 7.75436   1
  -6   1  -3  26.599  6.4826   1
  -6   1  -3-0.43425 10.4751   1
  -6   1  -3 33.2565 12.3726   1
  -6   1  -3 30.9102 6.12467   1
  -6  -1  -4 208.578 23.1554   1
   6  -1   4 236.984 16.7557   1
   6  -1   4 250.452 16.6216   1
  -6  -1  -4 223.633 16.4504   1
   6  -1   4 254.651 17.1779   1
   6   1   4 262.722 17.1877   1
   6   1   4 228.311 16.2155   1
  -6   1  -4 235.509 16.4577   1
   6   1   4 216.876  16.568   1
   6  -1   5 18.6736 6.65459   1
   6  -1   5 10.9969 6.58165   1
  -6  -1  -5 15.3543 6.15823   1
  -6  -1  -5 9.02872 18.2098   1
   6   1   5 15.0568 6.46628   1
   6   1   5 12.5228 5.70859   1
  -6   1  -5 14.7112 6.20534   1
   6  -1   6  23.411 7.40016   1
   6  -1   6 13.0196  5.9647   1
  -6  -1  -6 33.7239 7.84599   1
  -6   1  -6 18.0306 6.94685   1
   6   1   6 21.6673 6.79927   1
   6   1   6 16.7652 7.29812   1
   6  -1   7 19.1948 8.45089   1
   6  -1   7 17.6786 6.63958   1
  -6   1  -7 9.49196 7.04083   1
   6   1   7 22.5491 7.75885   1
   6   1   7 12.8099 7.53482   1
   6  -1   8 5.87544 6.85619   1
   6   1   8-2.69701 6.68218   1
   6  -2   0 127.278 9.67762   1
   6  -2   0 114.606 10.0067   1
  -6  -2   0 107.027 16.4138   1
  -6  -2   0 121.679  15.007   1
  -6  -2   0 121.689  13.045   1
   6  -2   0 99.7941 9.92239   1
  -6  -2   0 99.5544 9.97243   1
  -6  -2   0  117.50 10.3613   1
  -6   2   0 140.161 11.5409   1
  -6   2   0 137.328 16.4189   1
  -6   2   0 107.988 14.8901   1
  -6   2   0 102.242 10.2497   1
   6   2   0 137.409  11.212   1
  -6   2   0 132.522 14.8401   1
   6   2   0 121.059 15.1602   1
   6   2   0 111.544 10.2667   1
  -6   2   0  133.90 10.1434   1
   6  -2   1 193.387 14.2041   1
  -6  -2  -1 233.344 14.4705   1
  -6  -2  -1 209.987 16.9089   1
  -6  -2  -1 205.927 21.1864   1
   6  -2   1 211.292  14.156   1
  -6  -2  -1 190.902 19.4523   1
  -6  -2  -1 222.174 14.4618   1
   6  -2   1 189.223  19.633   1
   6  -2   1 197.046 13.6668   1
   6   2   1 204.232  19.277   1
   6   2   1 200.871 14.3957   1
  -6   2  -1 205.495 19.7172   1
  -6   2  -1 189.514 20.0762   1
  -6   2  -1 190.779 18.3549   1
  -6   2  -1 216.658 13.3251   1
  -6   2  -1 199.477 14.8184   1
  -6   2  -1 179.354 13.8883   1
   6  -2   2 13.5007 4.98177   1
  -6  -2  -2 17.6187 5.77339   1
  -6  -2  -2 24.0926 10.7189   1
   6  -2   2 29.5401 5.79791   1
   6  -2   2 33.1323 15.1986   1
  -6  -2  -2 21.9183 5.50552   1
   6  -2   2 26.6932  6.4545   1
  -6  -2  -2  17.925 9.23989   1
  -6  -2  -2 24.5119 7.62116   1
  -6   2  -2 16.8803 10.0834   1
  -6   2  -2 19.1911 5.01902   1
  -6   2  -2  22.681  6.4497   1
  -6   2  -2 24.0553 9.40135   1
  -6   2  -2 34.1211 6.66666   1
   6   2   2 24.2535 5.97051   1
  -6   2  -2 18.3169 9.13148   1
   6   2   2 31.4443 6.04959   1
   6  -2   3 72.8251 9.71857   1
  -6  -2  -3 83.9932 9.11813   1
   6  -2   3  76.484 9.75308   1
  -6  -2  -3 60.9045 8.45281   1
   6  -2   3 81.7015 9.65022   1
  -6  -2  -3  76.736 15.5129   1
  -6   2  -3 76.2212 8.51432   1
   6   2   3 83.6762 9.81852   1
  -6   2  -3 69.8283 15.3389   1
   6   2   3 72.8026  9.4931   1
  -6   2  -3 70.2645 8.60603   1
   6   2   3 85.8549  10.679   1
   6  -2   4 22.9032 6.58357   1
  -6  -2  -4 21.4366 10.7833   1
   6  -2   4 17.1238  6.5673   1
   6  -2   4 7.77678 5.51785   1
  -6  -2  -4 30.8906 6.71486   1
  -6   2  -4 16.8421 5.87387   1
   6   2   4 19.4678 6.28111   1
   6   2   4 17.9768 6.37669   1
   6  -2   5-4.05354 4.78111   1
   6  -2   5 2.61083  5.6991   1
  -6  -2  -5-4.17889 4.77467   1
  -6   2  -5 8.08427 6.07755   1
   6   2   5 0.66556 5.28241   1
   6   2   5 7.36836 6.26135   1
   6  -2   6 101.291 12.4421   1
  -6  -2  -6 136.357 13.9011   1
   6  -2   6  114.16 13.0271   1
  -6   2  -6 91.5535 11.0597   1
   6   2   6 101.609 12.1616   1
   6   2   6 96.4659 11.9991   1
   6  -2   7 5.25467 6.69926   1
   6  -2   7 3.69953 7.15116   1
   6   2   7 6.27987 7.45705   1
  -6   2  -7 6.90121 7.36684   1
   6   2   7 13.0234 7.90784   1
   6  -2   8 136.064 15.3984   1
   6   2   8 144.444 16.3427   1
   6  -3   0 207.246 15.1873   1
  -6  -3   0 217.989 23.2035   1
   6  -3   0 235.907 14.7293   1
  -6  -3   0  230.65  15.935   1
   6  -3   0 248.818 15.2552   1
  -6  -3   0 234.932 21.0796   1
  -6  -3   0 244.261 18.2509   1
  -6  -3   0 234.339 15.9301   1
   6   3   0 243.924 15.6617   1
   6   3   0 234.715 15.9738   1
   6   3   0 240.647 21.0574   1
  -6   3   0 178.013 21.8077   1
  -6   3   0 251.792 20.4055   1
  -6   3   0 221.372 14.7069   1
  -6   3   0  246.20 15.9671   1
  -6   3   0 240.471  16.577   1
  -6  -3  -1 155.016 12.6249   1
  -6  -3  -1 131.891 12.2308   1
   6  -3   1 144.018 11.4161   1
  -6  -3  -1 144.201 15.0357   1
   6  -3   1 155.819 12.4943   1
   6  -3   1 132.966 12.1244   1
  -6  -3  -1 157.785 18.4292   1
  -6  -3  -1 121.799 17.9374   1
  -6   3  -1  144.52 13.4646   1
   6   3   1 145.722 18.5953   1
   6   3   1 167.213 13.2149   1
  -6   3  -1  149.87 12.7718   1
  -6   3  -1 181.448 18.6152   1
  -6   3  -1  142.01  11.797   1
   6  -3   2-0.25493 4.13304   1
  -6  -3  -2-0.60697 8.13108   1
  -6  -3  -2-2.02442 4.16546   1
   6  -3   2 0.49187 4.17054   1
   6  -3   2-0.01756 4.67022   1
  -6  -3  -2 3.31416 4.64312   1
  -6   3  -2 2.44651 4.10045   1
   6   3   2-2.80806 4.68767   1
  -6   3  -2 0.55111 4.61752   1
   6   3   2-2.08995 4.11882   1
  -6   3  -2-0.34156 5.39474   1
  -6   3  -2   10.55 9.72058   1
   6  -3   3 55.2371 8.30009   1
   6  -3   3 50.3949 8.24812   1
  -6  -3  -3 60.7527 15.2476   1
  -6  -3  -3 62.1467 8.92758   1
   6   3   3 63.1989 9.22241   1
  -6   3  -3 62.5452 9.10804   1
  -6   3  -3 54.0627 7.42999   1
   6   3   3 37.4348 6.92946   1
   6  -3   4 55.2262 8.91422   1
  -6  -3  -4 62.4597 9.03384   1
   6   3   4 58.1819 9.11773   1
  -6   3  -4 24.9292 7.13017   1
   6  -3   5 10.9822 6.99858   1
  -6  -3  -5 2.37049 5.81004   1
   6  -3   5 3.66949 5.81497   1
  -6   3  -5 7.64347 6.54805   1
   6   3   5 7.70314 6.58634   1
   6  -3   6 18.9404 8.44596   1
   6  -3   6 11.1164 6.66365   1
  -6  -3  -6 24.6757 7.97249   1
   6   3   6 32.3717 8.71001   1
  -6   3  -6 10.8852 6.83083   1
   6  -3   7 13.7381 8.50815   1
   6  -3   7 20.9728 9.84092   1
  -6  -4   0 9.47416 5.52728   1
   6  -4   0 15.1016  5.0882   1
   6  -4   0 15.1055  5.3584   1
  -6  -4   0 21.0743 7.86028   1
  -6  -4   0 11.8167 5.94007   1
  -6  -4   0 13.2012 12.6436   1
   6  -4   0 9.83358 7.31351   1
  -6   4   0 21.2879 5.59629   1
  -6   4   0 4.53853 8.92478   1
   6   4   0 8.85992 4.97203   1
   6   4   0 12.4656 5.73555   1
  -6   4   0 17.1795 5.63029   1
  -6   4   0 8.74966 5.60956   1
   6  -4   1  108.99 10.4591   1
   6  -4   1 89.8905 9.99445   1
  -6  -4  -1 93.9438 10.7673   1
  -6  -4  -1 105.793 15.8212   1
  -6  -4  -1 102.058 11.0795   1
  -6   4  -1 115.978 10.6855   1
  -6   4  -1  70.698 10.5976   1
   6   4   1 93.9143 10.8462   1
  -6   4  -1 108.671 11.6369   1
  -6   4  -1 102.216 14.9309   1
   6   4   1 67.9323 9.21053   1
  -6  -4  -2  561.52 31.5494   1
  -6  -4  -2 646.936 32.9988   1
   6  -4   2 557.879 30.7547   1
   6  -4   2 593.926 31.2291   1
  -6   4  -2  572.29 31.9438   1
   6   4   2 588.411  32.086   1
  -6   4  -2 624.532 30.8539   1
  -6   4  -2  578.71 36.7416   1
   6  -4   3 12.1139 6.16145   1
   6  -4   3 22.2961 7.10669   1
  -6  -4  -3 18.7023 6.89591   1
   6   4   3 12.1585 6.44876   1
  -6   4  -3 19.2792 6.18774   1
  -6   4  -3 13.8799 6.54799   1
   6  -4   4  173.22 15.1156   1
   6  -4   4 161.282 15.5731   1
  -6  -4  -4 159.151 15.7066   1
  -6   4  -4 173.873 15.6989   1
   6   4   4 157.639  15.855   1
  -6  -4  -5 10.9692 7.40301   1
   6  -4   5 5.85974 6.50945   1
   6  -4   5 19.3864 8.24621   1
  -6   4  -5 14.1059 7.22378   1
   6   4   5 12.4525 7.86085   1
   6  -4   6 6.58308 7.73164   1
   6  -4   6 -6.6005 6.56613   1
  -6   4  -6 10.1004 7.81187   1
   6   4   6  1.2687 7.56481   1
   6  -4   7 1.23435 14.9695   1
   6  -4   7 7.81871 8.16603   1
   6  -5   0 75.2798 9.14779   1
   6  -5   0 72.9738 9.04325   1
  -6  -5   0 90.7527 15.2477   1
  -6  -5   0 72.1629  9.7538   1
  -6  -5   0 71.8071  10.374   1
  -6   5   0 90.5344  15.045   1
   6   5   0 70.2398 10.0251   1
  -6   5   0 78.9259 10.0399   1
  -6  -5  -1 15.5966 6.45861   1
   6  -5   1 16.3952   6.194   1
  -6  -5  -1 14.2168 6.74333   1
  -6   5  -1 8.45535 5.90435   1
   6   5   1  13.185 6.20882   1
   6  -5   2 12.5938 6.13377   1
  -6  -5  -2 16.2624 6.86286   1
   6  -5   2 2.01031 5.83587   1
   6   5   2 13.0842 6.86677   1
  -6   5  -2 11.9396 5.93357   1
  -6  -5  -3 6.46276 6.45889   1
   6  -5   3 16.8646 7.54315   1
   6  -5   3 11.2822  6.7196   1
   6   5   3 1.80422 6.17422   1
  -6  -5  -4 25.6725  8.3681   1
   6  -5   4 32.6832 8.62158   1
   6  -5   4 23.5302 8.27345   1
   6   5   4 17.1694  7.6694   1
  -6  -5  -5 5.32672 8.54724   1
   6  -5   5  10.835 8.39056   1
   6  -5   5  28.015 9.58025   1
   6   5   5 17.7615 8.52473   1
   6  -5   6 16.6517   9.365   1
   6  -5   6 7.57182 8.88968   1
   6  -6   0-4.00647 5.02179   1
  -6  -6   0-1.91587 11.5702   1
  -6   6   0-1.24327 5.05712   1
   6   6   0 3.36767 6.67228   1
   6  -6   1 96.2489 11.3622   1
  -6  -6  -1 69.0198 11.0456   1
   6   6   1   71.40 10.7778   1
  -6   6  -1 76.1832 10.1151   1
  -6  -6  -2 0.79259 7.24532   1
   6  -6   2 4.22202 6.43139   1
  -6   6  -2 2.60784 6.68112   1
   6   6   2 3.75025 6.83992   1
  -6  -6  -3 29.4853 9.25963   1
   6  -6   3 50.2596 9.97573   1
   6   6   3 47.0727 10.1787   1
   6  -6   4 26.5416 10.5789   1
  -6  -6  -4 14.7946 8.55947   1
   6  -6   4 31.6715 9.17749   1
   6   6   4 29.0196 8.92739   1
   6  -6   5 42.0897 11.4625   1
   6  -6   5 43.5037 10.3121   1
   6  -7   0 19.4204 7.58996   1
  -6   7   0 13.5585  7.4436   1
   6   7   0 15.6999 8.09641   1
   6  -7   1 46.2971 10.0756   1
   6   7   1 25.7072 9.51338   1
  -6   7  -1 39.4112 9.17892   1
   6  -7   2 8.76103 8.16447   1
   6   7   2 15.6998  8.5335   1
   6  -7   3 9.94486 8.33031   1
   6   7   3 18.5379 9.67349   1
   6  -8   0 30.3408 9.82921   1
  -6   8   0 13.6779 8.66076   1
   6  -8   1 17.2059 9.54354   1
   6   8   1 9.04661 14.2911   1
   7   0   0 0.08731 4.09375   1
  -7   0   0-0.44225 4.03218   1
   7   0   0 3.47242 9.29751   1
  -7   0   0-4.76101 8.27211   1
   7   0   0 1.46438  3.9103   1
   7   0   0 0.82214 4.38192   1
  -7   0   0 3.06353 8.23792   1
  -7   0   0 0.69847 6.71271   1
  -7   0   0 0.82999 4.15334   1
  -7   0  -1 7.68616 7.99318   1
   7   0   1 20.1282 6.14159   1
  -7   0  -1 21.3536 6.00485   1
   7   0   1  15.221 5.34445   1
   7   0   1  19.576 6.01016   1
  -7   0  -1  15.767 5.95393   1
  -7   0  -2 51.0219 8.64707   1
   7   0   2 61.8203 11.2791   1
   7   0   2  57.316  8.3754   1
  -7   0  -2 73.4957 8.93788   1
  -7   0  -2  49.469 12.5124   1
   7   0   2 58.4158  8.7573   1
   7   0   3 16.2445 6.84947   1
   7   0   3 10.8883 6.24478   1
  -7   0  -3 13.9472 6.36925   1
  -7   0  -4 8.35666  6.3177   1
   7   0   4 17.1369 7.19446   1
   7   0   4  15.324 6.39351   1
   7   0   5-2.65289 6.07867   1
   7   0   5 8.66548 6.45145   1
  -7   0  -5 1.70254 6.09097   1
   7   0   6 13.8967 7.20111   1
  -7   0  -6 19.3082 8.38244   1
   7   0   6  21.104 8.91198   1
   7   0   7 14.0976 8.22005   1
  -7  -1   0 27.9958 8.64098   1
  -7  -1   0 26.2446 5.87376   1
   7  -1   0 32.9258 6.29785   1
   7  -1   0 30.1468 14.3677   1
   7  -1   0 34.7722 6.49227   1
   7  -1   0 31.2732 6.49989   1
  -7  -1   0 36.7021 7.05528   1
  -7  -1   0 4.70339 11.1493   1
  -7   1   0 42.1319 10.1342   1
   7   1   0 39.5596 7.13022   1
  -7   1   0 31.6047  6.7798   1
  -7   1   0 4.04479 11.7155   1
   7   1   0 29.1373 6.64422   1
  -7   1   0 30.5966 6.16161   1
   7   1   0 41.6927 7.60623   1
  -7   1   0 34.3512 6.57784   1
   7  -1   1 45.7088 7.40605   1
   7  -1   1 40.4837 7.25647   1
   7  -1   1 17.9076 5.69135   1
  -7  -1  -1 32.6647 6.54113   1
  -7  -1  -1 36.8173 7.34349   1
  -7  -1  -1 34.3981  9.1618   1
   7   1   1 38.7802 7.53047   1
   7   1   1 23.9253 6.11506   1
  -7   1  -1 31.1304 6.89147   1
  -7   1  -1 42.1143 7.03729   1
   7   1   1 36.5013 7.04001   1
  -7   1  -1  16.856 8.81531   1
  -7   1  -1 37.7873 7.15744   1
  -7  -1  -2 39.3437 7.53989   1
   7  -1   2 38.6943 7.60517   1
  -7  -1  -2 40.1327 8.04815   1
   7  -1   2 38.1977 7.53763   1
   7   1   2 43.4784 8.23652   1
  -7   1  -2 35.3023 11.3565   1
  -7   1  -2  48.263 7.86819   1
   7   1   2 36.0524 7.34609   1
  -7   1  -2 28.0411  6.7667   1
   7   1   2  19.879 8.09716   1
   7  -1   3 21.0238 6.72738   1
   7  -1   3 27.9787 7.31733   1
  -7  -1  -3 11.2083 6.13153   1
  -7   1  -3 21.9333 6.81957   1
  -7   1  -3 14.0496  8.5121   1
   7   1   3 20.4563 6.92511   1
   7   1   3 9.48974 6.12219   1
   7  -1   4 38.6781 7.67881   1
  -7  -1  -4 35.8491 8.14392   1
   7  -1   4 46.6349 9.07422   1
  -7   1  -4 17.7067 7.29241   1
   7   1   4 42.2802 8.69195   1
   7   1   4 41.4618  8.8106   1
   7  -1   5 12.2045  7.4125   1
   7  -1   5 2.23028 5.35784   1
  -7  -1  -5  3.1453 6.35268   1
  -7   1  -5-4.99059 5.95165   1
   7   1   5 4.13312 7.10795   1
   7   1   5 1.06107 5.57882   1
   7  -1   6 6.72206 7.26738   1
  -7  -1  -6 4.93984 7.48234   1
   7  -1   6 16.8741 8.70408   1
   7   1   6 8.80418 6.53529   1
   7   1   6 17.3449 8.71673   1
  -7   1  -6  16.537  7.8993   1
   7  -1   7 8.37046 7.35467   1
   7   1   7 20.3504 8.70931   1
   7  -2   0 222.599 15.2461   1
   7  -2   0 232.845 19.2919   1
  -7  -2   0 216.712 15.9392   1
  -7  -2   0 224.196 19.2364   1
   7  -2   0 246.439 15.6924   1
   7   2   0 249.849 16.7407   1
  -7   2   0 240.206 20.8347   1
  -7   2   0 228.784 16.4219   1
  -7   2   0 253.699 17.5357   1
   7   2   0  216.60 16.0225   1
   7  -2   1 65.4244 8.64085   1
  -7  -2  -1 32.4246 9.50827   1
  -7  -2  -1   65.39 9.01811   1
   7  -2   1 40.1315 7.39225   1
  -7  -2  -1 44.9288 7.81569   1
  -7   2  -1 52.8446 7.82407   1
  -7   2  -1 46.0401 7.67516   1
   7   2   1 55.9088 8.62683   1
  -7   2  -1 47.2894 11.3949   1
   7   2   1 38.7414 8.74078   1
  -7  -2  -2 4.28669 5.37653   1
   7  -2   2 6.66828 5.46761   1
  -7  -2  -2  1.7045 5.10119   1
   7  -2   2-0.26757 4.95601   1
   7   2   2 0.84757 5.27924   1
  -7   2  -2 10.1621 5.63722   1
  -7   2  -2 0.91819 5.13461   1
  -7   2  -2  21.884 11.5991   1
   7  -2   3 83.3558 10.9953   1
   7  -2   3 90.2606 11.2096   1
  -7  -2  -3 82.4591 10.8101   1
  -7   2  -3 68.2718 10.3229   1
   7   2   3 77.5304 10.5521   1
   7  -2   4 6.45761 6.68056   1
   7  -2   4-2.24757 6.03376   1
  -7  -2  -4 1.85475 5.80854   1
  -7   2  -4-1.79978 6.05798   1
   7   2   4-1.99174 5.88355   1
   7   2   4 0.78851 6.09139   1
  -7  -2  -5  5.0348 6.84093   1
   7  -2   5 9.03897 7.54716   1
   7  -2   5  7.2132 7.15761   1
   7   2   5 9.42879 7.33897   1
   7   2   5 7.86164 6.89129   1
  -7   2  -5 8.52615  7.1327   1
   7  -2   6 1.01174 7.96032   1
   7  -2   6 4.76372 8.29548   1
   7   2   6 18.4351 9.08612   1
   7   2   6  5.6347 7.41522   1
  -7   2  -6 11.1674 8.06916   1
  -7  -3   0 262.888 18.7565   1
  -7  -3   0 292.716 22.2791   1
  -7  -3   0 279.357 18.9188   1
   7  -3   0 287.681 18.0245   1
   7  -3   0  295.15 17.8597   1
   7   3   0 304.721 19.6629   1
  -7   3   0 294.883 18.5947   1
  -7   3   0 309.917 24.1234   1
  -7   3   0  292.53 19.4524   1
  -7   3   0 289.731 20.7088   1
  -7  -3  -1 60.5384 9.17994   1
   7  -3   1 77.6335 9.62183   1
  -7  -3  -1 65.1348 9.38133   1
   7  -3   1   84.16 10.1525   1
  -7   3  -1 94.4329 14.7671   1
  -7   3  -1 79.2185 10.7022   1
   7   3   1 91.1448 10.9779   1
  -7   3  -1 79.6387 9.75047   1
   7  -3   2 107.666 11.6205   1
  -7  -3  -2 69.6584 10.0677   1
   7  -3   2 109.053 11.6678   1
  -7   3  -2 131.091 12.0367   1
   7   3   2 120.159 12.9562   1
  -7   3  -2 82.6674 11.2719   1
  -7  -3  -3 44.6865 8.72072   1
   7  -3   3 52.4089 9.69748   1
   7  -3   3 58.6144 9.62454   1
   7   3   3 57.4591 9.97055   1
  -7   3  -3 36.4694 8.75788   1
   7  -3   4 19.4149 8.58983   1
   7  -3   4 37.6904  8.8515   1
  -7  -3  -4 17.9614 7.99436   1
   7   3   4 29.9726 8.64454   1
  -7   3  -4 25.0965 8.50524   1
   7  -3   5 31.4421 9.57274   1
   7  -3   5 23.9308 8.97831   1
  -7  -3  -5  13.478 8.01191   1
  -7   3  -5  1.6914 9.50217   1
   7   3   5 28.8309 8.65612   1
   7  -3   6 65.7276 12.5167   1
   7  -3   6 33.3863 10.2158   1
  -7  -4   0 31.3658 16.3629   1
  -7  -4   0 40.4145 8.03582   1
  -7  -4   0 41.4275 8.71121   1
   7  -4   0 39.5362  7.6527   1
   7  -4   0 50.8282 9.17127   1
   7   4   0 42.1049 8.52774   1
  -7   4   0 42.6514  12.773   1
  -7   4   0 41.8081 7.72139   1
   7  -4   1 78.2268 10.0441   1
  -7  -4  -1  57.888 10.0416   1
  -7  -4  -1 82.0434 11.5784   1
   7  -4   1 68.6997 9.69792   1
  -7   4  -1 92.9011 15.8126   1
   7   4   1 81.7127 11.3635   1
  -7   4  -1 80.8171 9.78518   1
   7  -4   2  91.716 11.4734   1
   7  -4   2 100.271 11.7499   1
  -7  -4  -2 89.9216 12.3139   1
   7   4   2 86.1194 12.0006   1
  -7   4  -2 103.726 11.0188   1
   7  -4   3 4.37634 6.87741   1
   7  -4   3 5.23959 6.76137   1
  -7  -4  -3 1.11989 6.89914   1
   7   4   3 9.53146 6.90102   1
  -7  -4  -4 18.9819 8.21233   1
   7  -4   4 36.8275 9.09856   1
   7  -4   4 23.4036 9.01116   1
   7   4   4 21.5585 8.83765   1
   7  -4   5 1.13074 8.09375   1
   7  -4   5-4.17507 8.01892   1
   7   4   5-2.08878 7.94498   1
  -7  -5   0 38.1517 9.72935   1
   7  -5   0 38.4522 7.96461   1
  -7   5   0  54.118 8.96531   1
   7   5   0 37.6407 8.62997   1
  -7   5   0 57.9658 14.8199   1
   7  -5   1 19.0993 7.45608   1
  -7   5  -1 13.9122 6.78261   1
   7   5   1 13.5824 7.44803   1
   7  -5   2 74.9458  11.132   1
  -7  -5  -2 41.3329 10.7039   1
   7   5   2 79.7457  12.534   1
   7  -5   3 12.2456 8.26288   1
  -7  -5  -3 4.66736 7.96689   1
   7   5   3 12.6798 8.12952   1
  -7  -5  -4 9.25439 8.73468   1
   7  -5   4 6.95295  13.813   1
   7  -5   4 6.05193 8.36868   1
   7   5   4-1.33408 7.75845   1
   7  -6   0 42.9487 9.22184   1
   7   6   0 29.7898 9.29097   1
  -7   6   0 44.0691 9.42154   1
   7  -6   1 10.8097 7.86182   1
   7   6   1 14.2266 7.90801   1
  -7   6  -1 8.23188 7.88056   1
   7  -6   2 5.95983  8.1418   1
   7   6   2 7.58757 8.67902   1
   7  -6   3 28.1731  9.7536   1
   7   6   3 54.4909 12.0495   1
   7  -7   0 10.4498 7.81257   1
  -7   7   0 21.4625 8.90182   1
   7  -7   1 29.6108 9.60108   1
  -8   0   0 85.9606 10.9382   1
  -8   0   0 74.3696 13.0363   1
   8   0   0 88.1866 10.6933   1
   8   0   0 93.1795 10.8371   1
  -8   0   0 70.6511 15.8711   1
   8   0   1 221.188 16.6212   1
  -8   0  -1 194.167 15.7209   1
   8   0   1 193.485 15.6259   1
  -8   0  -1 168.055 22.9643   1
   8   0   2 44.0357 8.45689   1
  -8   0  -2 58.5466 14.0405   1
   8   0   2 52.7578 9.41649   1
  -8   0  -3 74.4492   16.99   1
   8   0   3 57.1314 9.73289   1
   8   0   3 75.8465 11.1598   1
   8   0   4 28.3726 8.90236   1
   8   0   4  21.037 8.76562   1
   8   0   5  4.2057  6.6606   1
   8   0   5 6.57746 8.64126   1
   8  -1   0 17.5554 6.48818   1
   8  -1   0 11.6815 5.99142   1
  -8  -1   0 17.4045 9.21562   1
  -8  -1   0 17.1428 9.05735   1
  -8  -1   0 5.85792 5.48355   1
   8   1   0 16.1559 6.78543   1
  -8   1   0 10.2552 6.37461   1
  -8   1   0 22.6762 10.3335   1
   8  -1   1 19.6564 7.26929   1
  -8  -1  -1 9.29189 5.75525   1
  -8  -1  -1  30.896 9.17306   1
   8  -1   1 21.9423 6.85657   1
   8   1   1 23.3706 7.44436   1
  -8   1  -1 19.4342 7.25036   1
  -8   1  -1  19.215 14.2136   1
   8   1   1 24.4329  7.3541   1
   8  -1   2-2.41478 5.83117   1
   8  -1   2  1.9376 6.29336   1
  -8  -1  -2 5.21526 6.93152   1
   8   1   2 2.17827 6.07411   1
  -8   1  -2 5.21484 10.1678   1
  -8  -1  -3 -7.3915 6.24999   1
   8  -1   3 1.43149 6.51284   1
   8  -1   3  7.1439 6.85915   1
   8   1   3 5.02796 7.04442   1
   8   1   3 3.95396 6.76373   1
   8  -1   4 25.7411 8.37705   1
  -8  -1  -4  26.154  9.9616   1
   8  -1   4  23.732 8.74866   1
   8   1   4 20.3571 9.15646   1
   8   1   4 17.8823 8.02015   1
   8  -1   5 0.42246 8.64223   1
  -8  -1  -5 4.70296 8.86449   1
   8  -1   5-1.02111 6.06624   1
   8   1   5 7.56644 7.65445   1
   8   1   5 2.63966 8.57847   1
  -8  -2   0 82.7284 10.4244   1
   8  -2   0 104.113 11.5919   1
  -8  -2   0 102.625 14.5159   1
   8  -2   0 86.8788  10.354   1
   8   2   0 103.892 11.8821   1
  -8   2   0 98.3595 11.2702   1
  -8   2   0 118.193 15.7213   1
   8  -2   1 96.3594 11.4052   1
  -8  -2  -1 71.3385 10.5241   1
   8  -2   1 78.3598  10.674   1
  -8   2  -1 66.7777  10.647   1
  -8   2  -1 91.3135 21.3699   1
   8   2   1 94.8637 11.4007   1
   8  -2   2   1.256 6.60718   1
   8  -2   2 4.02975 6.10185   1
   8   2   2-3.14285 6.20155   1
   8  -2   3 36.9185 9.63505   1
   8  -2   3  32.704 9.03334   1
  -8  -2  -3  18.371 11.4264   1
   8   2   3 28.7605 8.90322   1
  -8  -2  -4 14.0147  11.007   1
   8  -2   4  10.798 8.54648   1
   8  -2   4  32.191 8.84776   1
   8   2   4 29.5207 9.69979   1
   8  -2   5 0.62611 8.77116   1
   8  -2   5 2.86092 7.84096   1
   8   2   5 8.65403 9.48841   1
  -8  -3   0-2.91264 5.98429   1
   8  -3   0-2.38216 5.86993   1
  -8   3   0-3.93637 4.93907   1
  -8   3   0-3.52902 9.58057   1
   8   3   0 4.66548 6.17288   1
   8  -3   1 70.2292 10.1239   1
  -8   3  -1 53.5047 8.82014   1
   8   3   1 56.0344 10.1919   1
   8  -3   2 92.9999 12.3958   1
   8  -3   2 116.989 16.3832   1
   8   3   2 93.8481 13.1904   1
   8  -3   3 65.6494 11.6016   1
   8  -3   3 55.4552 11.1873   1
   8   3   3 57.9775 11.1401   1
   8  -3   4-3.44533 7.73573   1
   8  -3   4 3.77059 8.36091   1
   8   3   4 7.41717 8.94687   1
   8  -4   0 7.92488 6.90987   1
   8   4   0  3.1242 7.19137   1
  -8   4   0-1.39335 6.18958   1
  -8   4   0-0.91404  11.442   1
   8  -4   1 47.0706 9.63201   1
   8   4   1 38.6568 9.47104   1
  -8   4  -1 50.0502 8.72302   1
   8  -4   2 46.2573 9.66323   1
   8   4   2 47.2946  10.563   1
   8  -4   3 19.6886  8.7897   1
   8   4   3 4.12246 8.50808   1
   8  -4   4 40.6226 10.5897   1
   8   4   4 20.6552 10.4051   1
   8  -5   0-1.33194 6.81409   1
  -8   5   0 9.99944 7.44915   1
  -8   5   0 14.1852 19.9539   1
   8  -5   1  7.2941 7.87793   1
   8   5   1 12.1636 9.09163   1
   8  -5   2 39.6864  10.279   1
   8   5   2 33.1136  10.373   1
   8   5   3 13.6066 10.1159   1
   8  -6   0 92.4775 12.6589   1
  -8   6   0 78.7909 11.9462   1
   8  -6   1 13.4684 9.07204   1
  -9   0   0-1.38327 5.71821   1
   9   0   0  1.5151 6.75997   1
   9   0   1-5.40064 6.55083   1
   9   0   2 26.7147 10.0946   1
   9   0   3 4.97851 10.8885   1
   9   0   3-1.46081 8.54736   1
   9  -1   0 37.1725 9.07748   1
  -9  -1   0 34.5155 8.09935   1
  -9   1   0 41.8095 8.36477   1
   9  -1   1 88.7427 12.6924   1
   9  -1   2  115.07 14.4977   1
   9   1   2 110.281  15.968   1
   9  -1   3 49.6138 11.8393   1
   9   1   3 31.4487 10.6434   1
   9   1   3 44.6927 10.2115   1
  -9  -2   0 28.2644 10.0814   1
   9  -2   0 52.9625 9.65611   1
  -9   2   0 46.3044 9.85845   1
   9  -2   1 27.1485 8.69396   1
   9  -2   2 119.202 15.4207   1
   9   2   2 98.2523 17.3815   1
   9  -2   3 10.0152 8.05281   1
   9   2   3 8.76805 9.70248   1
  -9   3   0 44.7859 10.3039   1
   9  -3   0 39.8698 9.61745   1
   9  -3   1 65.3619 11.2453   1
   9  -3   2 32.3115 9.84359   1
   9  -4   0 13.5745 8.75531   1
  -9   4   0 22.2507 9.22555   1
   9  -4   1 20.0915 8.98525   1
   9  -5   0 48.9998 11.0273   1
  10   0   1 3.32276 8.56544   1
  10  -1   0-8.21257 7.43708   1
  10  -1   1 3.83595  8.9761   1
  10  -2   0 24.4289 9.52502   1
   0   0   0    0.00    0.00   1
;
_shelx_hkl_checksum              47674
loop_
_space_group_symop_operation_xyz
'x, y, z'
'-x, y+1/2, -z'
loop_
_atom_site_label
_atom_site_type_symbol
_atom_site_fract_x
_atom_site_fract_y
_atom_site_fract_z
_atom_site_U_iso_or_equiv
_atom_site_adp_type
_atom_site_occupancy
_atom_site_site_symmetry_order
_atom_site_calc_flag
_atom_site_refinement_flags_posn
_atom_site_refinement_flags_adp
_atom_site_refinement_flags_occupancy
_atom_site_disorder_assembly
_atom_site_disorder_group
O1 O 0.4446(2) 0.8708(2) 0.11510(17) 0.0237(5) Uani 1 1 d . . . . .
H1O H 0.372(3) 0.931(4) 0.045(2) 0.036 Uiso 1 1 calc R U . . .
C1 C 0.5457(3) 0.7600(3) 0.0635(2) 0.0189(6) Uani 1 1 d . . . . .
H1 H 0.4725 0.7027 -0.0196 0.023 Uiso 1 1 calc R U . . .
C2 C 0.6230(3) 0.6221(3) 0.1663(2) 0.0187(6) Uani 1 1 d . . . . .
O3 O 0.7041(2) 0.5035(2) 0.13696(16) 0.0212(4) Uani 1 1 d . . . . .
N4 N 0.5980(3) 0.6395(3) 0.28622(19) 0.0199(5) Uani 1 1 d . . . . .
H4 H 0.535(4) 0.730(5) 0.294(3) 0.039(9) Uiso 1 1 d . . . . .
C5 C 0.6498(3) 0.5301(4) 0.3997(2) 0.0192(6) Uani 1 1 d . . . . .
C6 C 0.7098(3) 0.3636(4) 0.3943(2) 0.0196(6) Uani 1 1 d . . . . .
H6 H 0.7176 0.3189 0.3122 0.023 Uiso 1 1 calc R U . . .
C7 C 0.7584(3) 0.2633(3) 0.5104(2) 0.0210(6) Uani 1 1 d . . . . .
C8 C 0.7467(3) 0.3269(4) 0.6312(2) 0.0237(6) Uani 1 1 d . . . . .
H8 H 0.7802 0.2582 0.7102 0.028 Uiso 1 1 calc R U . . .
C9 C 0.6851(3) 0.4925(4) 0.6346(2) 0.0248(6) Uani 1 1 d . . . . .
H9 H 0.6759 0.5368 0.7165 0.03 Uiso 1 1 calc R U . . .
C10 C 0.6372(3) 0.5934(3) 0.5206(2) 0.0223(6) Uani 1 1 d . . . . .
H10 H 0.5956 0.7064 0.5244 0.027 Uiso 1 1 calc R U . . .
C11 C 0.8212(3) 0.0901(4) 0.5043(2) 0.0224(6) Uani 1 1 d . . . . .
C12 C 0.8722(3) -0.0496(4) 0.4999(3) 0.0291(7) Uani 1 1 d . . . . .
H12 H 0.9135 -0.1628 0.4963 0.035 Uiso 1 1 calc R U . . .
C13 C 0.6812(3) 0.8583(3) 0.0279(2) 0.0188(6) Uani 1 1 d . . . . .
C14 C 0.7917(3) 0.9632(4) 0.1230(3) 0.0263(7) Uani 1 1 d . . . . .
H14 H 0.7827 0.9727 0.2108 0.032 Uiso 1 1 calc R U . . .
C15 C 0.9145(4) 1.0536(4) 0.0898(3) 0.0351(8) Uani 1 1 d . . . . .
H15 H 0.9891 1.1249 0.1553 0.042 Uiso 1 1 calc R U . . .
C16 C 0.9302(3) 1.0417(4) -0.0368(3) 0.0366(8) Uani 1 1 d . . . . .
H16 H 1.015 1.1042 -0.0585 0.044 Uiso 1 1 calc R U . . .
C17 C 0.8210(4) 0.9376(4) -0.1320(3) 0.0321(7) Uani 1 1 d . . . . .
H17 H 0.8315 0.9276 -0.2193 0.039 Uiso 1 1 calc R U . . .
C18 C 0.6960(3) 0.8478(4) -0.0999(2) 0.0234(6) Uani 1 1 d . . . . .
H18 H 0.6201 0.7786 -0.1661 0.028 Uiso 1 1 calc R U . . .
loop_
_atom_site_aniso_label
_atom_site_aniso_U_11
_atom_site_aniso_U_22
_atom_site_aniso_U_33
_atom_site_aniso_U_23
_atom_site_aniso_U_13
_atom_site_aniso_U_12
O1 0.0285(10) 0.0221(11) 0.0235(8) 0.0033(8) 0.0123(7) 0.0076(9)
C1 0.0234(14) 0.0184(15) 0.0164(12) -0.0004(11) 0.0083(10) 0.0006(11)
C2 0.0228(13) 0.0110(14) 0.0223(13) -0.0002(11) 0.0070(11) -0.0053(11)
O3 0.0280(10) 0.0137(10) 0.0232(8) -0.0011(8) 0.0097(7) 0.0017(8)
N4 0.0289(13) 0.0132(12) 0.0191(10) 0.0017(10) 0.0098(9) 0.0032(11)
C5 0.0203(13) 0.0166(14) 0.0207(12) 0.0032(11) 0.0063(10) -0.0016(12)
C6 0.0246(13) 0.0191(15) 0.0168(11) -0.0025(11) 0.0092(10) -0.0021(12)
C7 0.0211(13) 0.0157(15) 0.0267(14) 0.0011(11) 0.0083(11) -0.0018(11)
C8 0.0297(15) 0.0191(16) 0.0218(13) 0.0048(12) 0.0073(11) -0.0012(13)
C9 0.0326(15) 0.0225(17) 0.0205(12) 0.0009(11) 0.0101(11) -0.0026(13)
C10 0.0282(15) 0.0160(15) 0.0248(13) -0.0016(11) 0.0112(11) -0.0008(12)
C11 0.0273(14) 0.0207(16) 0.0204(12) 0.0039(11) 0.0092(11) -0.0042(12)
C12 0.0312(15) 0.0280(18) 0.0291(14) 0.0023(13) 0.0107(12) 0.0037(14)
C13 0.0239(13) 0.0105(14) 0.0223(12) 0.0027(11) 0.0075(10) 0.0037(12)
C14 0.0331(16) 0.0206(17) 0.0248(13) 0.0044(12) 0.0083(11) -0.0026(13)
C15 0.0318(16) 0.0259(18) 0.0415(17) 0.0074(14) 0.0026(13) -0.0081(13)
C16 0.0277(16) 0.0298(19) 0.0561(19) 0.0207(16) 0.0186(14) 0.0014(14)
C17 0.0393(17) 0.0269(17) 0.0386(15) 0.0146(14) 0.0245(14) 0.0123(15)
C18 0.0332(15) 0.0156(14) 0.0245(13) 0.0046(12) 0.0136(11) 0.0068(13)
loop_
_atom_type_symbol
_atom_type_description
_atom_type_scat_dispersion_real
_atom_type_scat_dispersion_imag
_atom_type_scat_source
C C 0.0033 0.0016 'International Tables Vol C Tables 4.2.6.8 and 6.1.1.4'
H H 0 0 'International Tables Vol C Tables 4.2.6.8 and 6.1.1.4'
N N 0.0061 0.0033 'International Tables Vol C Tables 4.2.6.8 and 6.1.1.4'
O O 0.0106 0.006 'International Tables Vol C Tables 4.2.6.8 and 6.1.1.4'
loop_
_geom_angle_atom_site_label_1
_geom_angle_atom_site_label_2
_geom_angle_atom_site_label_3
_geom_angle
_geom_angle_site_symmetry_1
_geom_angle_site_symmetry_3
_geom_angle_publ_flag
C1 O1 H1O 109.5 . . ?
O1 C1 C2 109.25(19) . . ?
O1 C1 C13 112.2(2) . . ?
C2 C1 C13 109.9(2) . . ?
O1 C1 H1 108.5 . . ?
C2 C1 H1 108.5 . . ?
C13 C1 H1 108.5 . . ?
O3 C2 N4 124.5(2) . . ?
O3 C2 C1 119.7(2) . . ?
N4 C2 C1 115.8(2) . . ?
C2 N4 C5 129.0(2) . . ?
C2 N4 H4 115.9(19) . . ?
C5 N4 H4 115.1(19) . . ?
C10 C5 C6 119.6(2) . . ?
C10 C5 N4 117.5(2) . . ?
C6 C5 N4 122.8(2) . . ?
C7 C6 C5 119.5(2) . . ?
C7 C6 H6 120.2 . . ?
C5 C6 H6 120.2 . . ?
C8 C7 C6 120.8(2) . . ?
C8 C7 C11 120.0(2) . . ?
C6 C7 C11 119.3(2) . . ?
C9 C8 C7 119.0(2) . . ?
C9 C8 H8 120.5 . . ?
C7 C8 H8 120.5 . . ?
C10 C9 C8 120.8(2) . . ?
C10 C9 H9 119.6 . . ?
C8 C9 H9 119.6 . . ?
C9 C10 C5 120.2(3) . . ?
C9 C10 H10 119.9 . . ?
C5 C10 H10 119.9 . . ?
C12 C11 C7 179.7(3) . . ?
C11 C12 H12 180 . . ?
C18 C13 C14 118.9(2) . . ?
C18 C13 C1 120.8(2) . . ?
C14 C13 C1 120.3(2) . . ?
C15 C14 C13 120.1(3) . . ?
C15 C14 H14 119.9 . . ?
C13 C14 H14 119.9 . . ?
C16 C15 C14 121.0(3) . . ?
C16 C15 H15 119.5 . . ?
C14 C15 H15 119.5 . . ?
C15 C16 C17 119.3(3) . . ?
C15 C16 H16 120.3 . . ?
C17 C16 H16 120.3 . . ?
C16 C17 C18 120.0(3) . . ?
C16 C17 H17 120 . . ?
C18 C17 H17 120 . . ?
C13 C18 C17 120.7(3) . . ?
C13 C18 H18 119.7 . . ?
C17 C18 H18 119.7 . . ?
loop_
_geom_bond_atom_site_label_1
_geom_bond_atom_site_label_2
_geom_bond_distance
_geom_bond_site_symmetry_2
_geom_bond_publ_flag
O1 C1 1.432(3) . ?
O1 H1O 0.93(3) . ?
C1 C2 1.514(4) . ?
C1 C13 1.516(4) . ?
C1 H1 1 . ?
C2 O3 1.242(3) . ?
C2 N4 1.346(3) . ?
N4 C5 1.414(3) . ?
N4 H4 0.90(3) . ?
C5 C10 1.395(3) . ?
C5 C6 1.395(4) . ?
C6 C7 1.393(3) . ?
C6 H6 0.95 . ?
C7 C8 1.392(3) . ?
C7 C11 1.452(4) . ?
C8 C9 1.390(4) . ?
C8 H8 0.95 . ?
C9 C10 1.379(3) . ?
C9 H9 0.95 . ?
C10 H10 0.95 . ?
C11 C12 1.172(4) . ?
C12 H12 0.95 . ?
C13 C18 1.387(3) . ?
C13 C14 1.394(4) . ?
C14 C15 1.383(4) . ?
C14 H14 0.95 . ?
C15 C16 1.378(4) . ?
C15 H15 0.95 . ?
C16 C17 1.386(4) . ?
C16 H16 0.95 . ?
C17 C18 1.391(4) . ?
C17 H17 0.95 . ?
C18 H18 0.95 . ?
loop_
_geom_hbond_atom_site_label_D
_geom_hbond_atom_site_label_H
_geom_hbond_atom_site_label_A
_geom_hbond_distance_DH
_geom_hbond_distance_HA
_geom_hbond_distance_DA
_geom_hbond_angle_DHA
_geom_hbond_site_symmetry_A
O1 H1O O3 0.93 1.9 2.746(2) 151.4 2_655
N4 H4 O1 0.90(3) 2.10(3) 2.580(3) 112(2) .
loop_
_geom_torsion_atom_site_label_1
_geom_torsion_atom_site_label_2
_geom_torsion_atom_site_label_3
_geom_torsion_atom_site_label_4
_geom_torsion
_geom_torsion_site_symmetry_1
_geom_torsion_site_symmetry_2
_geom_torsion_site_symmetry_3
_geom_torsion_site_symmetry_4
_geom_torsion_publ_flag
O1 C1 C2 O3 173.8(2) . . . . ?
C13 C1 C2 O3 -62.7(3) . . . . ?
O1 C1 C2 N4 -6.5(3) . . . . ?
C13 C1 C2 N4 116.9(2) . . . . ?
O3 C2 N4 C5 -2.4(4) . . . . ?
C1 C2 N4 C5 178.0(2) . . . . ?
C2 N4 C5 C10 167.5(2) . . . . ?
C2 N4 C5 C6 -13.2(4) . . . . ?
C10 C5 C6 C7 -0.7(4) . . . . ?
N4 C5 C6 C7 -180.0(2) . . . . ?
C5 C6 C7 C8 0.4(4) . . . . ?
C5 C6 C7 C11 -179.8(2) . . . . ?
C6 C7 C8 C9 0.2(4) . . . . ?
C11 C7 C8 C9 -179.6(2) . . . . ?
C7 C8 C9 C10 -0.4(4) . . . . ?
C8 C9 C10 C5 0.1(4) . . . . ?
C6 C5 C10 C9 0.5(4) . . . . ?
N4 C5 C10 C9 179.7(2) . . . . ?
O1 C1 C13 C18 -124.7(2) . . . . ?
C2 C1 C13 C18 113.6(3) . . . . ?
O1 C1 C13 C14 54.3(3) . . . . ?
C2 C1 C13 C14 -67.5(3) . . . . ?
C18 C13 C14 C15 -0.6(4) . . . . ?
C1 C13 C14 C15 -179.5(2) . . . . ?
C13 C14 C15 C16 -0.1(4) . . . . ?
C14 C15 C16 C17 0.0(4) . . . . ?
C15 C16 C17 C18 0.7(4) . . . . ?
C14 C13 C18 C17 1.3(4) . . . . ?
C1 C13 C18 C17 -179.7(2) . . . . ?
C16 C17 C18 C13 -1.3(4) . . . . ?
