#------------------------------------------------------------------------------
#$Date: 2020-01-31 02:29:29 +0200 (Fri, 31 Jan 2020) $
#$Revision: 247395 $
#$URL: file:///home/coder/svn-repositories/cod/cif/1/55/71/1557195.cif $
#------------------------------------------------------------------------------
#
# This file is available in the Crystallography Open Database (COD),
# http://www.crystallography.net/
#
# All data on this site have been placed in the public domain by the
# contributors.
#
data_1557195
loop_
_publ_author_name
'Shibuya, Yusuke'
'Aonuma, Kazuhiro'
'Kimura, Tomohiro'
'Kaneko, Takuro'
'Fujiwara, Wataru'
'Yamaguchi, Yuji'
'Kumaki, Daisuke'
'Tokito, Shizuo'
'Katagiri, Hiroshi'
_publ_section_title
;
 Linear Biazulene Isomers: Effects of Molecular and Packing Structure on
 Optoelectronic and Charge-Transport Properties
;
_journal_name_full               'The Journal of Physical Chemistry C'
_journal_paper_doi               10.1021/acs.jpcc.9b11214
_journal_year                    2020
_chemical_formula_moiety         'C20 H14'
_chemical_formula_sum            'C20 H14'
_chemical_formula_weight         254.31
_space_group_crystal_system      triclinic
_space_group_IT_number           2
_space_group_name_Hall           '-P 1'
_space_group_name_H-M_alt        'P -1'
_atom_sites_solution_hydrogens   geom
_atom_sites_solution_primary     direct
_atom_sites_solution_secondary   difmap
_audit_creation_method           SHELXL-2014/7
_cell_angle_alpha                86.684(5)
_cell_angle_beta                 87.090(5)
_cell_angle_gamma                88.848(5)
_cell_formula_units_Z            2
_cell_length_a                   5.9457(3)
_cell_length_b                   7.8815(5)
_cell_length_c                   14.0822(8)
_cell_measurement_reflns_used    3019
_cell_measurement_temperature    296
_cell_measurement_theta_max      30.0640
_cell_measurement_theta_min      2.5950
_cell_volume                     657.85(7)
_computing_cell_refinement       'CrysAlisPro 1.171.38.43 (Rigaku OD, 2015)'
_computing_data_collection       'CrysAlisPro 1.171.38.43 (Rigaku OD, 2015)'
_computing_data_reduction        'CrysAlisPro 1.171.38.43 (Rigaku OD, 2015)'
_computing_molecular_graphics    'ORTEP-3 for Windows (Farrugia, 2012)'
_computing_publication_material  'Yadokari-XG (Wakita, Nemoto et al., 2009)'
_computing_structure_refinement  'SHELXL-2014/7 (Sheldrick, 2014)'
_computing_structure_solution    'SHELXT (Sheldrick, 2015)'
_diffrn_ambient_temperature      296
_diffrn_detector_area_resol_mean 28.5714
_diffrn_measured_fraction_theta_full 0.993
_diffrn_measured_fraction_theta_max 0.989
_diffrn_measurement_device_type  'Rigaku Saturn 70 CCD area detector'
_diffrn_measurement_method       \w
_diffrn_radiation_type           MoK\a
_diffrn_radiation_wavelength     0.71073
_diffrn_reflns_av_R_equivalents  0.0551
_diffrn_reflns_av_unetI/netI     0.0662
_diffrn_reflns_Laue_measured_fraction_full 0.993
_diffrn_reflns_Laue_measured_fraction_max 0.989
_diffrn_reflns_limit_h_max       7
_diffrn_reflns_limit_h_min       -7
_diffrn_reflns_limit_k_max       10
_diffrn_reflns_limit_k_min       -10
_diffrn_reflns_limit_l_max       18
_diffrn_reflns_limit_l_min       -18
_diffrn_reflns_number            8859
_diffrn_reflns_point_group_measured_fraction_full 0.993
_diffrn_reflns_point_group_measured_fraction_max 0.989
_diffrn_reflns_theta_full        25.242
_diffrn_reflns_theta_max         27.496
_diffrn_reflns_theta_min         2.895
_diffrn_source                   'Rotating Anode'
_exptl_absorpt_coefficient_mu    0.073
_exptl_absorpt_correction_T_max  1.00000
_exptl_absorpt_correction_T_min  0.79727
_exptl_absorpt_correction_type   multi-scan
_exptl_absorpt_process_details
;
CrysAlisPro 1.171.38.41 (Rigaku Oxford Diffraction, 2015)
Empirical absorption correction using spherical harmonics,
 implemented in SCALE3 ABSPACK scaling algorithm.
;
_exptl_crystal_colour            Blue
_exptl_crystal_density_diffrn    1.284
_exptl_crystal_description       Platelet
_exptl_crystal_F_000             268
_exptl_crystal_size_max          0.160
_exptl_crystal_size_mid          0.080
_exptl_crystal_size_min          0.030
_refine_diff_density_max         0.161
_refine_diff_density_min         -0.152
_refine_diff_density_rms         0.034
_refine_ls_extinction_method     none
_refine_ls_goodness_of_fit_ref   1.054
_refine_ls_hydrogen_treatment    constr
_refine_ls_matrix_type           full
_refine_ls_number_parameters     181
_refine_ls_number_reflns         2996
_refine_ls_number_restraints     0
_refine_ls_restrained_S_all      1.054
_refine_ls_R_factor_all          0.1123
_refine_ls_R_factor_gt           0.0583
_refine_ls_shift/su_max          0.000
_refine_ls_shift/su_mean         0.000
_refine_ls_structure_factor_coef Fsqd
_refine_ls_weighting_details
'w=1/[\s^2^(Fo^2^)+(0.0670P)^2^+0.0136P] where P=(Fo^2^+2Fc^2^)/3'
_refine_ls_weighting_scheme      calc
_refine_ls_wR_factor_gt          0.1269
_refine_ls_wR_factor_ref         0.1522
_reflns_Friedel_coverage         0.000
_reflns_number_gt                1753
_reflns_number_total             2996
_reflns_threshold_expression     'I > 2\s(I)'
_cod_data_source_file            jp9b11214_si_003.cif
_cod_data_source_block           BiAz2_rt_20180921
_cod_database_code               1557195
_shelx_shelxl_version_number     2014/7
_shelx_space_group_comment
;
The symmetry employed for this shelxl refinement is uniquely defined
by the following loop, which should always be used as a source of
symmetry information in preference to the above space-group names.
They are only intended as comments.
;
_shelx_estimated_absorpt_t_min   0.988
_shelx_estimated_absorpt_t_max   0.998
_oxdiff_exptl_absorpt_empirical_full_min 0.899
_oxdiff_exptl_absorpt_empirical_full_max 1.693
_oxdiff_exptl_absorpt_empirical_details
;
Empirical correction (ABSPACK) includes:
- Absorption correction using spherical harmonics
- Frame scaling
- Detector area scaling
;
_shelx_res_file
;

    BiAz2_rt.res created by SHELXL-2014/7

TITL BiAz2_rt_a.res in P-1
REM  Yadorkari-X generated
CELL 0.71073 5.9457 7.8815 14.0822 86.6840 87.0900 88.8480
ZERR 2.0 0.0003 0.0005 0.0008 0.0050 0.0050 0.0050
LATT 1
REM  SPGR P-1 triclinic
SFAC C H
UNIT 40 28
SIZE 0.16 0.08 0.03
TEMP 23.0
L.S. 50
FMAP 2
PLAN -20
ACTA
CONF
LIST 4
BOND $H
OMIT -10.000000 55.000000
OMIT    0    0    1
OMIT    0    0    2
OMIT    0   -1    1
OMIT    0    1    0
OMIT    0   -2    1
OMIT    0    2    0
OMIT   -1    1    4
OMIT   -1    1    1

WGHT    0.067000    0.013600
FVAR       4.00150
C1    1    0.003379    0.024431    0.548360    11.00000    0.04730    0.03995 =
         0.05590    0.00342   -0.00521    0.00074
C2    1   -0.161617   -0.008612    0.621862    11.00000    0.04299    0.04583 =
         0.06637    0.00184   -0.00597   -0.00383
AFIX  43
H2    2   -0.295506   -0.064763    0.615205    11.00000   -1.20000
AFIX   0
C3    1   -0.095955    0.054278    0.705018    11.00000    0.04313    0.03965 =
         0.05876    0.00301   -0.00360    0.00354
C4    1   -0.209440    0.041519    0.793176    11.00000    0.04908    0.05037 =
         0.06309    0.00348    0.00062    0.00193
AFIX  43
H4    2   -0.347719   -0.011882    0.794491    11.00000   -1.20000
AFIX   0
C5    1   -0.148974    0.095829    0.879381    11.00000    0.06325    0.06475 =
         0.05808    0.00370    0.00593    0.00388
AFIX  43
H5    2   -0.249934    0.072058    0.930824    11.00000   -1.20000
AFIX   0
C6    1    0.043675    0.181668    0.899419    11.00000    0.07246    0.06216 =
         0.05832   -0.00464   -0.00800    0.00960
AFIX  43
H6    2    0.053029    0.207633    0.962669    11.00000   -1.20000
AFIX   0
C7    1    0.222430    0.233915    0.839720    11.00000    0.06327    0.05429 =
         0.06354   -0.00615   -0.01354   -0.00008
AFIX  43
H7    2    0.333832    0.291555    0.868107    11.00000   -1.20000
AFIX   0
C8    1    0.259351    0.212687    0.743648    11.00000    0.04985    0.04743 =
         0.06581   -0.00048   -0.00482   -0.00351
AFIX  43
H8    2    0.392842    0.257276    0.716454    11.00000   -1.20000
AFIX   0
C9    1    0.126007    0.134451    0.681906    11.00000    0.04475    0.03845 =
         0.05688    0.00033   -0.00524    0.00141
C10   1    0.175672    0.113279    0.586803    11.00000    0.04402    0.04673 =
         0.06041    0.00176   -0.00202   -0.00563
AFIX  43
H10   2    0.304698    0.152238    0.552999    11.00000   -1.20000
AFIX   0
C11   1    0.504890    0.524368    0.548420    11.00000    0.04789    0.04102 =
         0.05617    0.00607    0.00001   -0.00162
C12   1    0.338340    0.618045    0.598460    11.00000    0.04828    0.04683 =
         0.06225    0.00416   -0.00578    0.00545
AFIX  43
H12   2    0.205618    0.661243    0.573577    11.00000   -1.20000
AFIX   0
C13   1    0.402447    0.635881    0.690165    11.00000    0.04363    0.04094 =
         0.05654    0.00319    0.00004   -0.00118
C14   1    0.277718    0.715771    0.761147    11.00000    0.05170    0.04511 =
         0.06995   -0.00341    0.00517    0.00052
AFIX  43
H14   2    0.142245    0.765572    0.742981    11.00000   -1.20000
AFIX   0
C15   1    0.326378    0.731625    0.854610    11.00000    0.06779    0.05334 =
         0.06648   -0.00844    0.00909   -0.00158
AFIX  43
H15   2    0.219818    0.791214    0.890817    11.00000   -1.20000
AFIX   0
C16   1    0.512214    0.671028    0.902124    11.00000    0.07760    0.06144 =
         0.06008   -0.00465   -0.00010   -0.00531
AFIX  43
H16   2    0.510491    0.693071    0.966328    11.00000   -1.20000
AFIX   0
C17   1    0.700404    0.582481    0.868435    11.00000    0.07192    0.05877 =
         0.06381    0.00149   -0.01829   -0.00433
AFIX  43
H17   2    0.807423    0.554351    0.912903    11.00000   -1.20000
AFIX   0
C18   1    0.750487    0.530490    0.778085    11.00000    0.05053    0.05166 =
         0.06518    0.00230   -0.00894   -0.00117
AFIX  43
H18   2    0.888560    0.474392    0.769724    11.00000   -1.20000
AFIX   0
C19   1    0.625403    0.549499    0.697875    11.00000    0.04557    0.04010 =
         0.05842    0.00271   -0.00243   -0.00377
C20   1    0.679878    0.486067    0.609830    11.00000    0.04320    0.04731 =
         0.06159    0.00266    0.00030    0.00109
AFIX  43
H20   2    0.812171    0.427103    0.593823    11.00000   -1.20000

AFIX   0
HKLF 4 1 1 0 0 0 1 0 0 0 1

REM  BiAz2_rt_a.res in P-1
REM R1 =  0.0583 for    1753 Fo > 4sig(Fo)  and  0.1123 for all    2996 data
REM    181 parameters refined using      0 restraints

END

WGHT      0.0670      0.0136

REM Highest difference peak  0.161,  deepest hole -0.152,  1-sigma level  0.034
Q1    1   0.3936  0.4943  0.6022  11.00000  0.05    0.16
Q2    1   0.4545  0.2758  0.8560  11.00000  0.05    0.14
Q3    1   0.1524  0.6946  0.9024  11.00000  0.05    0.14
Q4    1   0.7227  0.5832  0.7142  11.00000  0.05    0.13
Q5    1   0.0069  0.1197  0.6995  11.00000  0.05    0.13
Q6    1   0.6213  0.4952  0.7467  11.00000  0.05    0.13
Q7    1   0.7738  0.5470  0.7027  11.00000  0.05    0.13
Q8    1   0.0756  0.7132  0.7417  11.00000  0.05    0.13
Q9    1   0.3845  0.1569  0.9040  11.00000  0.05    0.13
Q10   1  -0.1600  0.0847  0.7241  11.00000  0.05    0.12
Q11   1   0.1963  0.1103  0.7219  11.00000  0.05    0.12
Q12   1   0.9439  0.5786  0.8763  11.00000  0.05    0.12
Q13   1   0.4609  0.5366  0.4068  11.00000  0.05    0.12
Q14   1   0.4556  0.8452  0.6200  11.00000  0.05    0.12
Q15   1   0.4017  0.7228  0.7340  11.00000  0.05    0.12
Q16   1   0.0290  0.0799  0.7161  11.00000  0.05    0.11
Q17   1   0.4219  0.2560  0.6796  11.00000  0.05    0.11
Q18   1  -0.0785  0.1191  0.9795  11.00000  0.05    0.11
Q19   1   0.1209  0.2056  0.7209  11.00000  0.05    0.11
Q20   1   0.3609  0.4628  0.4397  11.00000  0.05    0.11
;
_shelx_res_checksum              87219
_shelx_hkl_file
;
   0   0  -1-5.96021 3.71516   1
   0   0   1 0.60449 3.76733   3
   0   0   2-8.77074 5.68941   2
   0   0  -2-11.7269 6.05385   4
   0   0  -3 3236.25 66.9652   4
   0   0  -3 3117.69 60.5362   2
   0   0   3 3239.96 66.8128   4
   0   0  -3 3075.45 74.3700   3
   0   0   3 3200.78 73.0200   1
   0   0   3 3246.38 61.5643   2
   0   0   4 17200.4 193.923   1
   0   0  -4 16936.0 162.037   2
   0   0  -4 17294.6 174.447   4
   0   0  -4 17235.9 199.710   3
   0   0   4 17035.4 160.961   2
   0   0  -5 1699.92 63.3915   4
   0   0   5 1650.11 70.6588   1
   0   0  -5 1626.01 72.7072   3
   0   0   5 1647.00 58.1615   2
   0   0   6 9806.35 152.895   2
   0   0  -6 9720.65 162.862   4
   0   0  -6 9601.74 187.247   3
   0   0   6 9746.20 185.312   1
   0   0   7 7740.63 146.498   2
   0   0  -7 7624.40 180.638   3
   0   0   7 7960.44 182.238   1
   0   0  -7 7582.22 155.644   4
   0   0  -8 69.6470 23.0127   4
   0   0   8 90.5175 24.2376   2
   0   0   8 59.0331 28.6094   1
   0   0  -8 102.477 33.5310   3
   0   0   9 1170.96 66.4814   2
   0   0  -9 1023.86 80.1503   3
   0   0   9 1151.65 83.2425   1
   0   0  -9 1226.83 72.5578   4
   0   0  10 1388.71 79.0994   2
   0   0  10 1315.08 92.8916   1
   0   0 -10 1157.71 89.9169   3
   0   0 -10 1315.17 80.3179   4
   0   0 -11 875.911 70.2247   4
   0   0  11 700.916 75.0757   1
   0   0  11 843.615 65.7037   2
   0   0 -11 796.994 83.9237   3
   0   0  12 580.246 72.3292   1
   0   0  12 726.857 64.5838   2
   0   0 -12 528.563 72.4880   3
   0   0 -12 602.429 62.1085   4
   0   0 -13 1002.96 100.226   3
   0   0  13 1113.58 81.7595   2
   0   0 -13 966.975 82.5015   4
   0   0  13 1109.76 103.633   1
   0   0  14 294.924 48.2555   2
   0   0  14 175.160 50.7362   1
   0   0 -14 203.026 57.8474   3
   0   0 -14 244.071 47.8047   4
   0   0  15 46.1471 48.9198   1
   0   0 -15 40.5630 36.5725   3
   0   0 -15 27.4074 29.7024   4
   0   0  16-29.5972 45.1413   1
   0   0 -16 45.8396 44.7344   3
   0   0  17 9.66397 44.2507   1
   0   0 -17 53.2295 52.7033   3
   0   0 -18 41.3510 55.5827   3
   0   0  18 37.9682 45.8702   1
   0   0 -19 57.2675 60.7001   3
   0   0  19-118.903 68.3683   1
   0   1 -18-7.58502 48.1506   3
   0  -1  18-13.0570 46.1388   1
   0   1 -17 3.17324 44.0082   3
   0  -1  17 65.7079 56.1409   1
   0   1 -16 22.7664 40.5794   3
   0   1 -16-41.7420 37.7809   4
   0  -1  16 6.18473 39.0636   1
   0   1 -15 19.0026 36.3574   4
   0  -1  15-54.7262 46.5831   1
   0   1 -15-99.4402 53.7657   3
   0   1 -14 143.622 53.0138   3
   0   1 -14 128.419 47.3395   4
   0  -1  14 19.6054 37.9638   1
   0  -1  13 637.013 82.4905   1
   0   1 -13 468.587 66.6487   4
   0   1 -13 499.118 75.1505   3
   0   1 -12 411.132 64.2380   3
   0  -1  12 454.239 46.5452   2
   0   1 -12 463.450 59.6820   4
   0  -1  12 412.780 68.2944   1
   0   1 -11 635.987 72.3050   3
   0  -1  11 730.861 79.6207   1
   0   1 -11 589.076 65.4888   4
   0  -1  11 671.268 51.7224   2
   0   1 -10 45.1512 26.2077   4
   0  -1  10 78.5920 35.0440   1
   0   1 -10 91.3057 33.6766   3
   0  -1  10 103.424 24.4807   2
   0  -1   9 95.9921 34.8577   1
   0   1  -9 79.0975 31.6415   3
   0   1  -9 93.6328 28.8666   4
   0  -1   9 99.8326 20.5703   2
   0  -1   8 300.940 42.7887   1
   0   1  -8 308.148 41.5932   4
   0   1  -8 304.264 44.1429   3
   0  -1   8 356.185 31.1679   2
   0  -1   7 515.800 51.8754   1
   0  -1   7 544.875 35.0039   2
   0   1  -7 628.100 56.3921   3
   0   1  -7 498.282 47.8544   4
   0  -1   6 637.108 33.5430   2
   0   1  -6 616.669 32.0856   2
   0   1  -6 628.176 50.7846   4
   0  -1   6 598.427 51.2147   1
   0   1  -6 733.358 54.4420   3
   0   1  -5 59.3548 22.2783   4
   0   1  -5 15.1679 8.58429   2
   0   1  -5-2.39976 19.2381   3
   0  -1   5 53.3556 21.5226   1
   0  -1   5 25.0406 9.90857   2
   0   1  -4-6.07059 18.2495   3
   0  -1   4 7.61737 7.77562   2
   0   1  -4-6.57670 7.36820   2
   0   1  -4 21.8687 16.2926   4
   0  -1   4-22.2714 20.0290   1
   0   1  -3 10.7083 15.8739   4
   0  -1   3-2.30308 15.7165   1
   0   1  -3 20.3980 15.5603   3
   0   1  -2 105.523 17.8285   4
   0  -1   2 78.9912 18.3923   4
   0   1  -2 101.238 17.0668   1
   0   1  -2 106.449 17.1857   3
   0  -1   2 93.5407 16.8134   3
   0  -1   2 110.520 18.1733   1
   0   1  -1 9.16719 9.07384   1
   0   1  -1 25.1355 9.41144   3
   0  -1   1 19.4971 10.9042   4
   0  -1   1-8.36810 5.48978   1
   0  -1   1 22.5228 10.7050   3
   0   1  -1 2.67768 8.42721   4
   0  -1   0 38.0334 8.01225   2
   0   1   0 41.9087 8.29191   4
   0   1   0 18.8732 8.12595   3
   0  -1   0 26.3317 8.59865   3
   0  -1   0 17.8199 7.02995   4
   0   1   0 39.5234 7.84931   2
   0  -1  -1 8.87536 6.74091   3
   0  -1  -1 77.3751 10.1786   1
   0   1   1 68.1514 12.3527   3
   0  -1  -1 63.4201 12.1816   2
   0   1   1-24.2723 9.57403   2
   0   1   1 64.4736 10.2579   1
   0   1   2-1.64973 12.6451   3
   0  -1  -2 6.76843 11.0638   1
   0   1   2 14.8748 11.9596   2
   0  -1  -2 37.6852 15.2638   3
   0  -1  -2 8.10926 12.7133   2
   0   1   2 5.79134 11.9058   1
   0   1   3-10.6863 13.9282   1
   0  -1  -3 16.1228 7.58848   4
   0   1   3-5.03665 14.3073   2
   0   1   3 0.75914 7.19350   4
   0  -1  -3 4.00754 16.4696   3
   0   1   4-1.40210 16.6214   1
   0   1   4 8.47380 9.16421   4
   0  -1  -4 12.0570 10.9764   4
   0  -1  -4-22.2275 20.7659   3
   0   1   4 16.9742 15.8905   2
   0   1   5 9.31308 17.0047   1
   0  -1  -5-21.2181 20.8638   3
   0   1   5-6.20111 11.0527   4
   0  -1  -5 6.19668 10.9902   4
   0   1   5 24.8143 18.8185   2
   0   1   6-7.11047 18.4589   2
   0  -1  -6-4.85392 23.7549   3
   0   1   6 7.71934 19.5431   1
   0  -1  -6-19.7226 15.1359   4
   0  -1  -7 25.6593 15.2104   4
   0   1   7 14.5275 19.0096   2
   0  -1  -7 40.4123 28.3835   3
   0  -1  -8 25.6077 15.0883   4
   0   1   8-5.93650 20.6129   2
   0  -1  -8-11.9332 32.7536   3
   0   1   8 22.5641 26.2606   1
   0  -1  -9 23.6988 14.6651   4
   0  -1  -9 2.43210 30.5536   3
   0   1   9 43.2237 24.2021   2
   0   1   9 41.6795 23.3107   1
   0   1  10 65.3670 30.8966   1
   0   1  10 90.0183 27.6488   2
   0  -1 -10 96.2630 35.1490   3
   0  -1 -10 83.1176 22.6220   4
   0   1  11 201.577 41.1483   2
   0   1  11 176.278 41.4653   1
   0  -1 -11 284.018 58.4345   3
   0  -1 -11 257.644 35.9819   4
   0   1  12 216.909 45.0940   2
   0  -1 -12 187.518 34.3381   4
   0  -1 -12 163.378 51.2693   3
   0   1  12 108.034 38.2628   1
   0  -1 -13 46.3379 40.5348   3
   0  -1 -13 127.473 35.8532   4
   0   1  13 57.2056 35.5340   1
   0   1  13 114.631 41.4510   2
   0   1  14 35.7628 42.3996   1
   0  -1 -14 23.9903 38.0550   3
   0  -1 -14-0.96286 23.5826   4
   0   1  14 10.5499 27.9585   2
   0   1  15 63.4837 39.1840   1
   0   1  15-20.8828 34.4341   2
   0  -1 -15-0.26039 41.2104   3
   0   1  16-28.2284 38.9731   1
   0  -1 -16 20.7036 44.9444   3
   0  -1 -17-61.7893 53.8841   3
   0   1  17 48.9070 46.6192   1
   0   1  18 73.7817 57.4797   1
   0  -1 -18 34.4737 52.2035   3
   0   1  19 134.207 64.9897   1
   0  -1 -19 47.4389 58.8522   3
   0   2 -18 114.371 60.5365   3
   0  -2  18 19.8763 43.6194   1
   0  -2  18 162.553 67.7351   4
   0  -2  17 0.64025 44.2533   1
   0   2 -17-16.6615 40.8473   3
   0   2 -16 71.5358 44.7572   3
   0  -2  16 135.519 61.9322   1
   0   2 -16 81.6496 44.5192   4
   0   2 -15 125.079 50.3101   4
   0   2 -15 110.489 49.1510   3
   0  -2  15 171.201 57.8105   1
   0  -2  14-51.8903 38.6698   1
   0   2 -14 32.2920 35.1801   4
   0   2 -14 6.68586 37.7241   3
   0   2 -13 99.7711 46.6420   4
   0   2 -13 76.9168 35.3363   3
   0  -2  13 67.5385 42.4091   1
   0   2 -12 1647.42 120.017   3
   0   2 -12 1705.55 119.687   4
   0  -2  12 1605.29 119.443   1
   0   2 -11 366.463 57.8431   3
   0   2 -11 448.260 61.1446   4
   0  -2  11 475.059 67.0466   1
   0   2 -10 75.2782 16.3384   2
   0  -2  10 95.5361 37.4987   1
   0   2 -10 130.065 39.7613   3
   0   2 -10 89.3352 31.6988   4
   0   2  -9 2513.92 124.504   4
   0   2  -9 2483.83 122.779   3
   0  -2   9 2611.78 124.920   1
   0   2  -9 2666.35 69.7011   2
   0   2  -8 1145.48 81.2556   3
   0   2  -8 1333.43 44.0638   2
   0  -2   8 1401.84 87.9701   1
   0   2  -8 1246.04 40.5487   2
   0   2  -8 1209.74 84.0035   4
   0   2  -7-3.90738 24.1160   4
   0   2  -7 14.7226 6.62809   2
   0   2  -7 2.86100 6.48755   2
   0  -2   7-14.5053 20.8577   1
   0   2  -7 5.20768 20.9767   3
   0   2  -6 5890.76 153.274   3
   0  -2   6 6208.80 154.037   1
   0   2  -6 5841.11 160.790   4
   0  -2   5 2406.71 91.8465   1
   0   2  -5 2211.33 94.4455   4
   0   2  -5 2484.76 94.2608   3
   0   2  -4 1342.71 69.7110   4
   0  -2   4 1581.13 69.5406   1
   0   2  -4 1465.71 67.3772   3
   0   2  -3 962.159 51.1758   3
   0  -2   3 1045.98 51.8018   1
   0   2  -3 872.546 53.5127   4
   0   2  -2 1047.47 48.4885   3
   0   2  -2 966.215 50.4829   4
   0  -2   2 1057.61 46.5938   1
   0  -2   2 1034.34 25.4449   2
   0   2  -2 962.318 25.3119   2
   0  -2   1 21.2530 19.1419   1
   0   2   0 13677.7 138.408   2
   0  -2   0 13933.4 142.310   1
   0   2   0 13899.0 149.645   4
   0  -2   0 14091.2 140.912   2
   0  -2   0 13976.2 145.224   4
   0   2   0 13708.2 160.523   3
   0  -2  -1 12238.2 133.080   1
   0   2   1 12170.1 132.917   1
   0   2   1 12242.7 148.282   2
   0   2   1 12360.1 154.380   3
   0  -2  -1 12455.9 114.924   4
   0  -2  -2 1607.90 60.9402   3
   0  -2  -2 1633.65 34.6485   4
   0   2   2 1681.76 56.4805   1
   0  -2  -2 1585.99 52.5471   1
   0   2   2 1609.93 60.2077   2
   0  -2  -2 1621.81 35.0061   4
   0   2   3 14342.4 170.149   1
   0  -2  -3 14297.0 188.616   3
   0   2   3 14327.3 193.662   2
   0   2   4 1062.04 60.8016   2
   0   2   4 1148.81 55.0922   1
   0  -2  -4 1122.14 61.0043   3
   0   2   5 5688.26 68.9779   4
   0  -2  -5 5566.67 68.2035   4
   0   2   5 5824.37 132.718   1
   0  -2  -5 5945.60 141.953   3
   0   2   5 6012.80 143.906   2
   0  -2  -6 11323.4 115.579   4
   0  -2  -6 11719.4 215.974   3
   0   2   6 11458.4 116.766   4
   0   2   6 11535.1 213.128   2
   0   2   6 11525.0 201.781   1
   0  -2  -7 1054.00 41.6809   4
   0   2   7 1064.50 42.2460   4
   0   2   7 1071.96 71.0022   2
   0   2   7 991.372 69.5603   1
   0  -2  -7 1164.48 76.5070   3
   0   2   8 1276.24 82.0437   1
   0   2   8 1227.29 79.1593   2
   0  -2  -8 1173.39 48.9710   4
   0  -2  -8 1121.62 80.8283   3
   0   2   9 562.046 60.0155   1
   0  -2  -9 514.375 61.5926   3
   0   2   9 574.427 60.7176   2
   0  -2  -9 588.260 39.7371   4
   0  -2 -10 5641.05 127.390   4
   0  -2 -10 5575.37 196.074   3
   0   2  10 5062.19 182.528   1
   0   2  10 5667.71 180.845   2
   0   2  11 424.791 59.2004   1
   0   2  11 486.545 62.0184   2
   0  -2 -11 453.831 42.1300   4
   0  -2 -11 424.454 68.9080   3
   0  -2 -12 4085.05 126.189   4
   0  -2 -12 4079.67 190.553   3
   0   2  12 4291.72 174.191   2
   0   2  12 3761.78 176.050   1
   0  -2 -13 435.604 74.6088   3
   0   2  13 442.220 64.7002   2
   0   2  13 451.086 73.6469   1
   0  -2 -14 49.5829 49.4952   3
   0   2  14 65.4406 37.7976   1
   0   2  14 80.8253 42.4486   2
   0   2  15-86.5559 44.3308   2
   0   2  15-33.4542 36.0907   1
   0   2  16 42.9351 43.1627   2
   0   2  16 24.0578 34.3650   1
   0  -2 -16-66.8609 44.9653   3
   0   2  17-34.5129 40.5511   2
   0  -2 -17-11.7455 52.8789   3
   0   2  17 94.6792 56.5123   1
   0   2  18-33.3615 46.4323   1
   0  -2 -18 87.0913 58.0418   3
   0   2  19 235.541 76.0519   1
   0  -3  19-8.57920 50.3224   4
   0   3 -18-2.26424 49.9417   3
   0  -3  18-54.3130 49.6302   4
   0  -3  18-57.1963 63.9193   1
   0  -3  17 79.4120 55.0240   4
   0  -3  17-1.98533 46.6666   1
   0   3 -17-55.9078 50.6376   3
   0   3 -16 37.6341 42.1108   4
   0  -3  16 87.0839 57.6347   1
   0   3 -16 107.403 56.7288   3
   0   3 -15-10.4695 40.0665   4
   0   3 -15-49.6826 41.8211   3
   0  -3  15 2.88833 44.8591   1
   0   3 -14 177.414 54.8769   3
   0   3 -14 132.729 50.7359   4
   0  -3  14 198.762 57.9334   1
   0  -3  13-17.7952 39.0334   1
   0   3 -13 88.1879 44.5718   4
   0   3 -13 62.2592 38.2597   3
   0   3 -12 208.882 54.6343   4
   0   3 -12 134.082 41.9951   3
   0  -3  12 51.6653 39.6720   1
   0   3 -11 72.7467 41.2633   3
   0   3 -11 5.87836 33.8403   4
   0  -3  11 16.1770 34.0077   1
   0   3 -10 91.4104 38.2731   3
   0   3 -10 64.1677 33.1597   4
   0  -3  10 80.2047 38.2193   1
   0   3  -9 9.76441 24.7826   3
   0   3  -9-17.9932 28.7812   4
   0  -3   9 31.0980 31.8815   1
   0  -3   8 107.237 33.0190   1
   0   3  -8 64.0362 33.1071   4
   0   3  -8 126.899 35.6764   3
   0  -3   7 48.0021 26.7896   1
   0   3  -7 34.3088 25.0673   4
   0   3  -7-3.24195 23.1311   3
   0   3  -6 19.7797 24.3202   4
   0  -3   6 24.1166 22.6666   1
   0   3  -6 86.7341 30.7586   3
   0   3  -5-7.09882 19.8467   3
   0  -3   5 42.6920 26.2993   1
   0   3  -5 19.5040 24.1848   4
   0   3  -4-4.21561 22.5834   4
   0   3  -4-12.7047 19.7107   3
   0  -3   4 11.7298 19.5043   1
   0   3  -3 20.4365 19.6875   4
   0   3  -3 18.7289 7.50948   2
   0  -3   3 21.6360 18.8530   1
   0   3  -3 24.4059 18.3228   3
   0  -3   3 25.0743 7.06312   2
   0  -3   2-8.41564 9.50798   2
   0  -3   2-1.25579 11.9988   1
   0   3  -2-11.5038 15.7454   3
   0   3  -2 3.75147 9.50373   2
   0   3  -2-1.56321 18.6264   4
   0   3  -1 11.0098 12.5629   2
   0   3  -1 18.9975 17.6246   3
   0   3  -1 13.6184 17.5685   4
   0  -3   1-4.10062 11.4054   1
   0   3   0 56.2974 16.8407   4
   0   3   0 56.7227 17.3009   2
   0   3   0 43.5058 18.4400   3
   0  -3  -1 35.6356 15.8379   4
   0   3   1-19.3833 17.7896   3
   0   3   1 18.0411 16.4376   2
   0  -3  -2 15.6832 10.2260   4
   0   3   2-6.89310 15.2677   1
   0  -3  -2 2.46471 10.5512   4
   0  -3  -2-5.70061 17.7395   3
   0   3   2-10.5699 16.7762   2
   0   3   3 52.5987 22.7704   2
   0  -3  -3 68.0599 11.3050   4
   0   3   3 55.6803 18.3307   1
   0  -3  -3 58.2113 10.2359   4
   0  -3  -3 70.3889 22.5410   3
   0  -3  -4 331.203 16.2319   4
   0   3   4 428.409 44.2770   2
   0  -3  -4 330.394 14.6626   4
   0  -3  -4 364.098 40.5647   3
   0   3   4 403.837 37.7537   1
   0   3   5 591.316 54.5884   2
   0  -3  -5 641.923 55.7111   3
   0   3   5 588.949 46.7629   1
   0   3   6 232.679 39.6704   2
   0  -3  -6 171.612 36.0387   3
   0   3   6 191.396 31.2815   1
   0  -3  -7 228.339 41.3175   3
   0   3   7 167.721 38.7783   2
   0   3   7 199.809 34.4021   1
   0  -3  -8 159.388 40.9673   3
   0  -3  -8 135.115 12.5095   4
   0   3   8 124.151 12.3048   4
   0   3   8 176.519 35.8210   1
   0   3   8 128.046 34.4664   2
   0  -3  -9 117.691 14.7912   4
   0   3   9 172.196 43.3180   2
   0  -3  -9 130.903 41.1819   3
   0   3   9 179.800 39.7001   1
   0  -3 -10 288.411 52.7094   3
   0   3  10 255.444 50.0193   2
   0  -3 -10 310.631 25.2166   4
   0   3  10 346.043 51.6707   1
   0   3  11 78.6690 31.8155   1
   0   3  11 22.8011 31.6918   2
   0   3  12 31.4526 29.3242   1
   0   3  12 19.7666 33.0664   2
   0  -3 -13 42.3191 46.1935   3
   0   3  13 40.6010 37.9848   2
   0   3  13-28.7020 30.8584   1
   0   3  14-5.93554 33.6469   1
   0  -3 -14 32.2401 44.5627   3
   0   3  14 3.62373 36.1601   2
   0   3  15-35.6427 35.9362   2
   0  -3 -15 40.7211 45.5707   3
   0   3  15 9.88441 35.2247   1
   0   3  16-16.5583 41.3966   2
   0  -3 -16 88.6736 65.0325   3
   0   3  16 47.9601 42.3389   1
   0   3  17 102.207 50.9723   2
   0  -3 -17 14.1062 52.0516   3
   0   3  17-48.4083 40.1744   1
   0   3  18-31.2141 44.8332   2
   0  -3 -18-27.4965 52.6835   3
   0   3  18 44.3420 42.9168   1
   0  -4  17 120.813 57.1662   4
   0  -4  17 33.8108 45.3931   1
   0   4 -17 73.9402 45.1362   3
   0  -4  16 47.4430 42.7415   1
   0   4 -16-33.5520 43.6839   3
   0  -4  15 46.3485 45.8087   1
   0   4 -15-32.6530 39.2896   3
   0   4 -15-10.1818 41.7499   4
   0   4 -14 72.2298 45.9989   3
   0   4 -14 74.8996 50.8442   4
   0  -4  14-45.5938 44.0942   1
   0   4 -13 2541.66 173.573   4
   0   4 -13 2557.24 162.077   3
   0  -4  13 2610.68 163.909   1
   0   4 -12 132.927 51.6464   4
   0  -4  12 179.292 53.1700   1
   0   4 -12 124.962 43.6326   3
   0   4 -11 44.0175 39.7262   4
   0  -4  11-19.2877 37.3671   1
   0   4 -11-3.99993 31.0832   3
   0  -4  10 2580.57 138.945   1
   0   4 -10 2612.93 144.785   3
   0   4 -10 2540.10 157.227   4
   0  -4   9 0.62436 26.5515   1
   0   4  -9-4.13155 27.7855   3
   0   4  -9-13.3698 40.1248   4
   0   4  -8 229.150 44.9263   3
   0   4  -8 151.906 41.1507   4
   0  -4   8 230.008 45.0730   1
   0   4  -7 2942.52 146.985   4
   0  -4   7 3103.59 130.787   1
   0   4  -7 3171.01 135.652   3
   0   4  -6 674.284 62.9041   3
   0   4  -6 562.960 64.6663   4
   0  -4   6 557.257 55.5852   1
   0   4  -5 1526.80 97.1595   4
   0   4  -5 1786.21 93.8732   3
   0  -4   5 1691.07 88.6539   1
   0   4  -4 4307.81 136.960   3
   0  -4   4 3780.78 60.8442   2
   0  -4   4 3508.10 61.4387   2
   0  -4   4 4361.10 130.135   1
   0   4  -4 4030.52 149.040   4
   0   4  -3 1756.12 94.4638   4
   0   4  -3 2004.38 92.4080   3
   0  -4   3 1769.07 52.9501   2
   0  -4   3 1795.21 78.9812   1
   0   4  -3 1865.67 54.3414   2
   0   4  -2 163.138 21.8598   2
   0  -4   2 144.951 23.9446   1
   0   4  -2 118.367 28.4924   3
   0   4  -2 113.668 31.4118   4
   0   4  -1 576.546 49.9718   3
   0   4  -1 606.670 51.2579   4
   0   4  -1 642.105 42.0236   2
   0  -4   1 585.983 42.8998   1
   0   4   0 3886.77 106.819   2
   0   4   0 4053.99 122.845   3
   0   4   1 103.311 27.8162   3
   0  -4  -1 94.3073 22.3231   4
   0   4   1 108.080 27.6558   2
   0   4   2 3429.30 104.856   1
   0  -4  -2 3182.48 112.863   3
   0  -4  -2 3232.52 85.7946   4
   0   4   2 2950.35 107.366   2
   0   4   3 4794.27 143.523   2
   0  -4  -3 5000.32 143.402   3
   0  -4  -3 5054.03 94.9781   4
   0   4   3 5234.36 129.507   1
   0  -4  -4 543.324 27.8162   4
   0   4   4 705.122 60.5153   2
   0  -4  -4 519.485 27.3487   4
   0   4   4 615.150 48.4751   1
   0  -4  -4 624.132 55.5469   3
   0   4   5 3356.13 116.878   1
   0   4   5 3104.81 126.941   2
   0  -4  -5 2633.67 43.6417   4
   0  -4  -5 3163.89 122.884   3
   0  -4  -5 2633.59 45.5672   4
   0   4   6 894.160 64.6708   1
   0  -4  -6 992.918 75.3824   3
   0   4   6 818.204 74.8691   2
   0   4   7 477.211 51.0579   1
   0   4   7 489.829 61.4687   2
   0  -4  -7 503.189 56.3411   3
   0   4   8 562.309 58.5987   1
   0  -4  -8 713.773 70.4823   3
   0   4   8 564.621 67.1601   2
   0   4   9 689.228 75.9531   2
   0   4   9 640.947 65.2301   1
   0  -4  -9 769.715 76.3986   3
   0  -4 -10 648.349 77.5364   3
   0   4  10 598.952 76.1189   2
   0   4  10 556.134 65.2383   1
   0   4  11 1746.48 125.436   2
   0  -4 -11 1883.38 130.711   3
   0   4  11 1609.07 112.878   1
   0   4  12 374.470 69.4557   2
   0   4  12 340.594 56.9142   1
   0   4  13 178.135 55.6378   2
   0  -4 -13 68.0447 53.6438   3
   0   4  13 110.352 40.7913   1
   0   4  14-0.55860 37.0354   1
   0  -4 -14 93.1778 55.8809   3
   0   4  14 73.5614 46.8656   2
   0   4  15 43.8273 41.1016   1
   0   4  15 11.7657 42.6851   2
   0  -4 -15-37.1966 48.8170   3
   0   4  16 53.7411 41.7903   1
   0  -4 -16-34.7215 52.6964   3
   0   4  16-1.07742 38.0481   2
   0  -4 -17 237.397 82.8631   3
   0   4  17 119.252 55.8244   2
   0   4  17 89.7081 52.5199   1
   0   4  18 296.220 76.1159   2
   0   4  18 304.106 75.8810   1
   0  -4 -18 379.636 94.4295   3
   0   4  19-74.0466 57.1566   2
   0   5 -17 42.4737 47.9080   3
   0  -5  16-54.4894 57.8300   4
   0   5 -16-20.0471 41.0777   3
   0  -5  16 25.0019 48.3519   1
   0   5 -15-14.5370 41.2751   3
   0  -5  15 46.2713 51.9921   1
   0  -5  15 56.2938 53.5276   4
   0   5 -14-32.0383 51.2136   4
   0   5 -14-93.9383 49.3736   3
   0  -5  14 6.90288 45.3692   1
   0   5 -13-48.5127 42.4265   3
   0   5 -13 39.1752 42.6967   4
   0  -5  13-46.8824 45.7573   1
   0  -5  12 47.9334 41.2278   1
   0   5 -12 66.3525 41.0700   3
   0   5 -12 30.0281 43.1296   4
   0   5 -11-29.9030 40.8415   4
   0  -5  11 5.53142 30.2653   1
   0   5 -10 94.8104 36.3120   3
   0   5 -10 141.603 46.0242   4
   0  -5  10 94.5004 38.9997   1
   0  -5   9-76.7117 34.9661   1
   0   5  -9-29.6303 33.9584   3
   0   5  -9 6.90390 38.7178   4
   0   5  -8 80.1427 43.3731   4
   0  -5   8 53.8008 30.8202   1
   0   5  -8 8.07048 25.0060   3
   0   5  -7 27.6736 26.3831   3
   0  -5   7-15.2407 25.3891   1
   0   5  -7 14.8104 32.2385   4
   0   5  -6-17.0098 30.0997   4
   0  -5   6-3.60502 23.1134   1
   0   5  -6-35.8033 27.4522   3
   0   5  -5 51.3466 32.6931   4
   0  -5   5 78.5733 28.1496   1
   0   5  -5 64.8402 27.8276   3
   0   5  -4 16.1761 27.2396   4
   0  -5   4 1.39835 9.54944   2
   0  -5   4-12.5571 19.1602   1
   0   5  -3 40.6110 13.9016   2
   0   5  -3 29.0129 26.1212   3
   0   5  -3 27.3054 27.8274   4
   0  -5   3 46.9846 18.7294   1
   0   5  -2 17.2569 21.4642   3
   0   5  -2-1.91455 14.7157   2
   0   5  -2-3.41024 21.6276   4
   0  -5   2 21.3942 15.7456   1
   0   5  -1-5.67317 21.3003   3
   0   5  -1-22.8435 19.4309   2
   0  -5   1-23.3584 17.3049   1
   0   5   0 45.8026 25.9848   3
   0   5   0 19.1392 17.7163   2
   0  -5   0 46.7062 17.7027   4
   0   5   1-18.9436 29.1641   1
   0   5   1 5.71463 19.6751   3
   0  -5  -1 47.8579 20.4271   4
   0   5   1-0.70135 21.5742   2
   0   5   2-31.8249 29.4827   1
   0  -5  -2 27.2547 22.3390   3
   0  -5  -2 55.3210 18.8835   4
   0   5   2 7.72361 23.5038   2
   0  -5  -3-18.6310 13.9668   4
   0   5   3 8.66402 19.2415   1
   0  -5  -3 11.7053 20.7826   3
   0   5   3 18.9458 23.3754   2
   0   5   4 57.7951 24.6163   1
   0  -5  -4 42.8534 26.7456   3
   0   5   4 75.8927 31.2237   2
   0  -5  -4 56.6163 14.2666   4
   0   5   5 5.79208 24.8552   2
   0   5   5-12.2805 19.9661   1
   0  -5  -5 3.30173 6.90047   4
   0  -5  -5-11.1131 24.3987   3
   0   5   6 199.174 37.2521   1
   0   5   6 176.865 44.6335   2
   0  -5  -6 206.008 41.5028   3
   0  -5  -7 45.4083 33.2581   3
   0   5   7 7.12455 29.1880   2
   0   5   7 41.3489 24.1445   1
   0   5   8 137.408 44.9621   2
   0   5   8 212.348 40.9547   1
   0  -5  -8 121.097 40.4024   3
   0   5   9 789.995 90.1226   2
   0   5   9 610.207 64.7992   1
   0  -5  -9 652.511 75.5068   3
   0  -5 -10 321.015 59.1809   3
   0   5  10 359.593 67.1183   2
   0   5  10 344.243 56.8360   1
   0   5  11 367.469 59.5816   1
   0   5  11 471.822 77.3200   2
   0  -5 -11 446.636 73.4880   3
   0   5  12 0.25124 36.4589   2
   0  -5 -12-5.53487 38.9806   3
   0   5  12-2.88476 29.2831   1
   0   5  13 20.2278 30.7130   1
   0  -5 -13 0.67189 48.4277   3
   0   5  13 59.3486 52.7235   2
   0   5  14 34.5201 48.3887   2
   0   5  14 54.6243 40.2747   1
   0  -5 -14 13.5699 47.4525   3
   0  -5 -15-38.5509 49.5884   3
   0   5  15 37.8026 36.8423   1
   0   5  15-83.4021 50.1421   2
   0  -5 -16-77.1963 63.7006   3
   0   5  16 44.8577 52.3815   2
   0   5  16-49.4308 36.8319   1
   0   5  17 16.6358 38.6334   1
   0   5  17-6.44741 50.2022   2
   0   5  18 3.99729 52.4519   2
   0   5  18 1.58627 40.9211   1
   0  -6  16 80.1879 52.9417   1
   0   6 -16 10.9750 48.1208   3
   0  -6  15-26.3410 51.3445   1
   0  -6  15 46.7440 56.9070   4
   0   6 -15 3.62593 40.0660   3
   0   6 -14 500.017 89.8578   3
   0  -6  14 379.542 89.2236   4
   0  -6  14 436.448 83.1032   1
   0  -6  13 689.509 107.534   4
   0   6 -13 558.031 88.7626   3
   0  -6  13 545.141 86.0163   1
   0   6 -12 350.362 69.8516   3
   0  -6  12 137.233 53.2193   1
   0   6 -11 401.145 80.6621   4
   0   6 -11 398.043 71.3915   3
   0  -6  11 325.225 62.0558   1
   0  -6  10 128.337 42.8352   1
   0   6 -10 132.752 45.5794   3
   0   6 -10 200.954 60.2159   4
   0  -6   9 0.06072 30.9327   1
   0   6  -9 79.6597 35.0322   3
   0   6  -8 149.411 44.4324   3
   0  -6   8 128.749 39.6340   1
   0   6  -8 76.9124 41.9174   4
   0   6  -7 1319.37 117.688   4
   0  -6   7 1312.20 97.1632   1
   0   6  -7 1420.46 105.622   3
   0  -6   6 1.26348 24.6404   1
   0   6  -6 74.5758 36.0735   4
   0   6  -6 19.2677 29.8108   3
   0  -6   5 867.623 73.0531   1
   0   6  -5 899.370 80.1173   3
   0   6  -5 858.085 88.3948   4
   0  -6   4 270.929 41.5716   1
   0   6  -4 273.115 46.6576   3
   0   6  -4 299.008 55.8742   4
   0  -6   3 3525.44 127.020   1
   0   6  -3 3493.01 147.948   3
   0  -6   2 274.746 37.7205   1
   0   6  -2 249.323 45.0945   3
   0  -6   2 224.990 41.8286   4
   0   6  -2 242.583 32.9416   2
   0  -6   1 3995.77 148.446   4
   0   6  -1 3935.56 128.561   2
   0   6  -1 3808.63 150.513   3
   0  -6   1 4222.18 133.297   1
   0   6   0 97.7586 30.8990   3
   0  -6   0 85.4174 24.9813   1
   0   6   0 33.4117 20.2997   2
   0  -6   0 64.2230 25.6711   4
   0  -6  -1 49.7348 19.0651   4
   0   6   1 71.8432 29.5668   2
   0  -6  -2 3998.74 152.083   3
   0   6   2 3848.66 150.577   2
   0  -6  -2 4116.15 126.075   4
   0  -6  -3 460.452 40.9125   4
   0   6   3 426.876 56.5238   2
   0  -6  -3 433.941 54.7854   3
   0  -6  -4 205.329 27.3940   4
   0  -6  -4 198.922 43.4582   3
   0   6   4 116.491 33.6968   2
   0   6   4 199.168 38.2643   1
   0   6   5 1770.18 98.7935   1
   0   6   5 1451.51 108.281   2
   0  -6  -5 1730.99 106.801   3
   0  -6  -6 1150.66 93.0831   3
   0   6   6 1022.59 93.3709   2
   0   6   6 1209.00 84.6615   1
   0  -6  -7 406.281 61.0051   3
   0   6   7 370.103 62.8610   2
   0   6   7 434.601 54.5999   1
   0   6   8 497.811 61.9698   1
   0  -6  -8 737.514 80.4142   3
   0   6   8 556.603 79.9605   2
   0   6   9 759.019 92.6696   2
   0  -6  -9 973.515 93.9760   3
   0   6   9 868.948 81.6564   1
   0   6  10 92.3109 51.3110   2
   0   6  10 101.008 39.3225   1
   0  -6 -10-40.6461 43.8172   3
   0  -6 -11 119.511 49.2807   3
   0   6  11 172.523 58.2623   2
   0   6  11 121.008 45.9536   1
   0  -6 -12 21.2914 42.8415   3
   0   6  12-0.07628 31.1744   1
   0   6  12 59.1696 49.5245   2
   0   6  13-21.4937 39.9019   1
   0  -6 -13-20.9794 42.3163   3
   0  -6 -14 22.8342 58.7826   3
   0   6  14-24.8845 36.6211   1
   0   6  14 50.3565 54.2860   2
   0   6  15-40.3420 44.9399   1
   0  -6 -15-18.1004 53.7469   3
   0   6  16-83.8608 67.4080   2
   0   6  16-38.8751 45.0870   1
   0   6  17 194.586 65.5083   1
   0  -7  14 77.8553 52.2428   1
   0   7 -14 66.3110 48.1310   3
   0   7 -13 1.54870 36.6121   3
   0  -7  13-67.4094 42.7456   1
   0  -7  13-46.0549 67.1230   4
   0  -7  12 48.0531 45.2731   1
   0   7 -12-11.6832 38.3030   3
   0  -7  12-39.0420 52.9687   4
   0  -7  11 169.414 65.0897   4
   0  -7  11 133.614 49.8363   1
   0   7 -11 43.5568 39.9728   3
   0  -7  10 28.5781 45.6649   4
   0   7 -10-36.2447 34.1922   3
   0  -7  10 4.61266 34.2543   1
   0  -7   9-28.7916 44.6110   4
   0  -7   9 50.4786 36.6902   1
   0   7  -9 68.7053 42.6356   3
   0  -7   8 19.6588 28.6370   1
   0   7  -8 25.6498 31.2282   3
   0  -7   8 29.4465 42.8913   4
   0  -7   7-37.1746 40.4378   4
   0   7  -7 10.6543 30.6898   3
   0  -7   7 29.8633 34.5150   1
   0  -7   6 1.52275 27.3766   1
   0   7  -6-33.7122 28.8312   3
   0  -7   6-20.3788 41.7397   4
   0  -7   5 24.7252 33.6624   4
   0  -7   5-12.8546 23.8046   1
   0   7  -5-19.6411 26.9743   3
   0   7  -4 29.1446 28.9607   3
   0  -7   4-25.7966 34.7005   4
   0  -7   4 24.7270 26.7264   1
   0  -7   3 6.91345 20.2519   1
   0   7  -3 40.0857 34.6308   3
   0  -7   3 25.2300 26.4773   4
   0   7  -2 29.3580 22.1880   2
   0   7  -2 11.2737 27.9729   3
   0  -7   2-37.0439 35.1417   4
   0  -7   2 36.6828 20.9209   1
   0  -7   1 18.4601 26.9354   4
   0   7  -1-39.0010 26.3086   2
   0   7  -1 0.32769 26.7863   3
   0  -7   1 49.8801 24.7848   1
   0   7   0 41.6342 32.2530   3
   0   7   0 38.2520 26.8294   2
   0  -7   0-1.79897 21.4168   1
   0  -7   0 40.4801 24.3724   4
   0  -7  -1-10.6425 23.9032   3
   0   7   1-14.4243 26.0094   2
   0  -7  -1-6.80413 18.3247   4
   0  -7  -1 1.53915 18.1237   1
   0   7   2-20.4781 31.6741   2
   0  -7  -2 4.79608 28.0872   3
   0  -7  -2 5.31483 19.3217   4
   0  -7  -3-7.48354 29.6781   3
   0  -7  -3-10.9091 18.2436   4
   0   7   3-30.6147 33.6926   2
   0  -7  -4 129.814 43.4053   3
   0   7   4 100.707 43.9388   2
   0  -7  -5 46.4084 34.9377   3
   0   7   5-61.4824 41.9408   2
   0  -7  -6 164.431 46.2980   3
   0   7   6 137.930 38.8112   1
   0   7   6 90.0504 40.2387   2
   0   7   7-12.2091 25.8571   1
   0  -7  -7-48.1936 37.9909   3
   0   7   7 34.1663 38.5851   2
   0  -7  -8 5.37860 35.4091   3
   0   7   8 37.6981 30.8112   1
   0   7   8 121.930 49.5703   2
   0   7   9 97.6939 39.0073   1
   0  -7  -9 147.682 46.8320   3
   0   7   9 131.713 50.2495   2
   0   7  10 169.918 44.6224   1
   0   7  10 70.1990 39.4791   2
   0  -7 -10 145.135 50.7872   3
   0   7  11 26.4024 31.6406   1
   0  -7 -11-0.83685 41.2375   3
   0   7  11 58.0470 42.6331   2
   0  -7 -12-22.5218 43.5829   3
   0   7  12 11.7798 47.8546   2
   0   7  13-82.3067 61.1204   2
   0  -7 -13 39.4132 48.9910   3
   0   7  14-5.68541 46.8356   2
   0  -7 -14-7.43180 52.0510   3
   0   7  15 3.91013 50.1148   2
   0  -7 -15 37.8653 55.6090   3
   0  -8  11 169.593 63.4512   4
   0   8 -10-18.4723 36.5819   3
   0  -8  10 43.2967 49.0606   4
   0  -8   9 116.324 61.1724   4
   0   8  -9 101.311 49.8845   3
   0   8  -8 284.999 62.1403   3
   0  -8   8 275.338 73.0318   4
   0  -8   7 495.217 87.1615   4
   0   8  -7 646.088 83.2848   3
   0  -8   6 150.629 55.2245   4
   0   8  -6 186.324 55.6381   3
   0   8  -5 32.6107 31.8072   3
   0  -8   5 57.7317 36.0427   4
   0  -8   4 459.680 73.4926   4
   0   8  -4 491.310 73.8692   3
   0  -8   3 118.560 43.7697   4
   0   8  -3 61.1840 35.3159   3
   0  -8   2 385.191 62.4737   4
   0   8  -2 320.345 57.1042   3
   0   8  -1 490.933 66.9313   3
   0  -8   1 569.855 68.6142   4
   0   8   0 307.700 51.0419   2
   0  -8   0 207.639 45.0068   4
   0  -8  -1 551.414 69.7498   3
   0   8   1 685.670 72.8885   2
   0  -8  -1 610.520 64.0876   4
   0   8   2 1.53740 28.9307   2
   0  -8  -2-1.90326 26.3253   3
   0   8   3-0.26476 31.3201   2
   0  -8  -3-49.8620 37.9205   3
   0   8   4-6.32723 34.0456   2
   0  -8  -4 80.6920 40.0832   3
   0   8   5 1105.82 106.484   2
   0  -8  -5 1226.32 104.976   3
   0  -8  -6-1.46460 33.5573   3
   0   8   6 4.06722 34.3706   2
   0   8   7 800.357 99.4104   2
   0  -8  -7 864.207 94.6257   3
   0  -8  -8 429.733 72.1081   3
   0   8   8 497.885 85.1817   2
   0   8   9 617.736 96.4303   2
   0  -8  -9 575.140 83.6296   3
   0  -8 -10 1.63981 38.3291   3
   0   8  10 4.36429 41.5228   2
   0   8  11-60.7624 60.2986   2
   0  -8 -11-27.1529 47.5862   3
   0   8  12 103.814 56.6071   2
   0  -8 -12 88.1056 59.2754   3
   0  -8 -13 8.66145 49.4077   3
   0   8  13 3.22577 46.7155   2
   0  -8 -14 96.4650 56.9803   3
   0  -9   9-6.00199 44.8957   4
   0  -9   8 87.0402 57.4368   4
   0  -9   7 29.3989 43.4487   4
   0  -9   6 18.2442 41.0228   4
   0  -9   5 23.3279 45.0676   4
   0   9  -4 2.01881 33.0266   3
   0  -9   4-20.2977 36.8214   4
   0   9  -3-34.2193 36.0328   3
   0  -9   3-1.73605 30.8929   4
   0  -9   2 0.07274 29.0679   4
   0   9  -2-13.4189 30.3470   3
   0  -9   1-23.4866 28.2713   4
   0  -9   0 28.3260 31.7147   3
   0  -9  -1-4.10869 27.4177   3
   0  -9  -2 19.6355 34.6354   3
   0   9   2-4.87229 31.3898   2
   0   9   3 16.1588 33.5379   2
   0  -9  -3 8.02888 30.5338   3
   0  -9  -4 33.5375 31.6835   3
   0   9   4 72.0979 47.5730   2
   0   9   5 76.4858 48.1435   2
   0  -9  -5 71.8504 45.8501   3
   0  -9  -6 19.7032 38.0667   3
   0   9   6 37.1472 41.2981   2
   0   9   7 66.2899 41.0995   2
   0  -9  -7 4.40984 38.3195   3
   0   9   8 71.7957 52.6903   2
   0  -9  -8 10.0270 39.1649   3
   0  -9  -9 36.3672 47.0114   3
   0   9   9 40.3162 55.2244   2
   0  -9 -10 13.0592 52.6421   3
   0   9  10-42.4069 55.6861   2
   0   9  11-18.2173 53.3468   2
   0  -9 -11-17.5507 47.2900   3
   0  -9 -12-27.8074 47.6110   3
   0 -10   7 126.892 56.8511   4
   0 -10   6 69.2404 47.7871   4
   0 -10   5-9.99186 41.3008   4
   0 -10   4 20.7389 42.6288   4
   0  10   4 235.265 62.7768   2
   0  10   5 227.023 59.1715   2
   0  10   6 311.257 74.7988   2
   0  10   7-25.4875 48.6629   2
   0  10   8 71.4873 51.8264   2
   0  10   9-15.7650 45.1501   2
   1 -10  -8-50.0949 53.8210   2
   1 -10  -7 94.5289 52.6423   2
   1 -10  -6-26.1087 40.3291   2
   1 -10  -5 87.8457 49.2394   2
   1 -10  -4 16.3131 37.5273   2
   1 -10   5 24.0648 39.2788   4
   1 -10   6-32.8054 48.5888   4
   1 -10   7 34.3718 45.7621   4
   1  -9 -10 5.16411 48.2498   2
   1  -9  -7 81.5111 53.8193   2
   1  -9  -6 130.796 56.5381   2
   1  -9  -5 188.039 56.8461   2
   1  -9  -4-76.0648 45.5046   2
   1  -9  -3-71.3827 42.4393   2
   1  -9  -2 12.6454 32.2537   2
   1  -9   2 111.399 42.9164   4
   1  -9   3 46.4409 34.4974   4
   1  -9   4 19.1192 32.7818   4
   1  -9   5 72.5412 48.1698   4
   1  -9   6 125.429 53.1239   4
   1  -9   7 131.607 58.4483   4
   1  -9   8-26.9932 47.5098   4
   1  -9   9 60.0560 55.1239   4
   1  -8 -14-34.5840 54.4963   3
   1  -8 -13-32.0953 54.9429   3
  -1   8  12 100.791 62.0857   2
   1  -8 -12 33.4070 47.6052   3
   1  -8 -11-14.9368 45.7113   3
  -1   8  11 0.11107 49.0573   2
   1  -8 -10 44.0718 43.4243   3
  -1   8  10-52.2284 51.4150   2
   1  -8  -9 100.672 44.1039   3
  -1   8   9 182.628 59.8045   2
   1  -8  -8 65.8446 37.1141   3
  -1   8   8 11.6760 37.8528   2
  -1   8   8 15.0906 34.0117   1
  -1   8   7 150.448 55.7243   2
   1  -8  -7 149.866 48.1727   3
  -1   8   7 69.2450 42.3728   1
  -1   8   6 579.466 84.2686   2
   1  -8  -6 556.698 71.3749   3
   1  -8  -5 30.6274 30.8877   3
  -1   8   5-26.6716 36.6295   2
  -1   8   4 34.5116 43.8151   1
   1  -8  -4 501.016 65.8039   3
   1  -8  -3 111.295 41.5376   2
   1  -8  -3 110.916 33.2990   3
   1  -8  -2 383.926 60.4644   2
   1  -8  -2 429.579 59.0220   3
   1  -8  -1 325.298 48.9903   3
   1  -8  -1 242.005 47.1925   2
   1  -8   0 399.700 55.3617   2
   1  -8   0 430.076 60.3407   1
   1  -8   0 413.971 56.5534   4
   1  -8   1 149.431 41.1178   4
   1  -8   1 119.363 38.2790   1
   1  -8   2 379.135 58.8606   1
  -1   8  -3 63.3736 37.5993   4
   1  -8   3 131.895 39.6975   1
   1  -8   4 117.988 38.2838   1
  -1   8  -4 148.398 52.3255   4
   1  -8   5 192.421 48.6331   1
  -1   8  -5 134.999 49.0075   4
  -1   8  -6 52.9302 36.6598   4
   1  -8   6 72.6423 40.2073   1
  -1   8  -7 74.3777 48.4070   4
   1  -8   7 177.031 52.8229   1
   1  -8   8 91.1363 41.9838   1
  -1   8  -8 180.638 63.9088   4
  -1   8  -9 241.123 71.7324   4
   1  -8   9 48.4626 37.2073   1
  -1   8 -10 26.5714 46.2360   4
   1  -8  10 99.9835 50.0738   1
   1  -8  11 19.9627 40.1604   1
  -1   8 -11 3.68716 50.6278   4
   1  -8  12 56.1439 49.7842   1
   1  -7 -15-12.8770 53.0193   3
  -1   7  15 80.1787 50.6845   1
  -1   7  14-87.7619 48.4772   1
   1  -7 -14-45.6673 56.0193   3
   1  -7 -13-44.1456 51.0071   3
  -1   7  13-19.1878 41.4203   1
  -1   7  13 35.7452 56.6792   2
   1  -7 -12 192.400 60.2809   3
  -1   7  12 49.8759 39.2134   1
  -1   7  12 129.586 59.8196   2
  -1   7  11 20.5793 31.8885   1
   1  -7 -11 47.2184 45.5550   3
  -1   7  11-85.3912 54.6689   2
   1  -7 -10 9.27177 35.9273   3
  -1   7  10 59.1347 41.7295   1
  -1   7  10 81.1857 43.3914   2
  -1   7   9 26.8544 29.2285   1
   1  -7  -9 4.03443 34.3786   3
  -1   7   9 28.5997 42.0217   2
   1  -7  -8 26.3996 34.9136   3
  -1   7   8 1.91889 34.9676   2
  -1   7   8 52.6550 37.3738   1
   1  -7  -7-8.42783 34.1468   3
  -1   7   7 47.1336 36.5362   1
  -1   7   7-3.75595 36.0160   2
   1  -7  -6 600.343 69.7560   3
  -1   7   6 645.156 75.5977   1
  -1   7   6 501.291 73.5696   2
  -1   7   5 128.487 47.9202   2
   1  -7  -5 91.2492 36.5301   3
   1  -7  -4-17.0234 28.5276   3
  -1   7   4 34.9042 31.2580   2
   1  -7  -3 225.192 41.7014   3
  -1   7   3 217.103 47.0963   2
   1  -7  -2 53.5681 25.8917   4
   1  -7  -2 101.280 31.0748   3
   1  -7  -1 50.7247 27.7662   2
   1  -7  -1 126.860 32.3890   4
   1  -7  -1 58.0680 25.6362   3
   1  -7   0 203.960 36.3548   3
   1  -7   0 264.162 45.6749   2
  -1   7   0 260.386 45.2491   4
  -1   7  -1 426.226 59.7436   4
   1  -7   1 435.653 50.8818   2
  -1   7  -1 346.933 49.9089   3
   1  -7   1 393.992 56.6348   1
   1  -7   2 1.19217 20.5462   2
  -1   7  -2 6.52556 25.6467   4
   1  -7   2 85.7217 34.6484   1
  -1   7  -2 57.9407 28.6693   3
  -1   7  -3 6.91830 24.2957   3
   1  -7   3 53.3290 31.4762   1
  -1   7  -3-45.7583 33.3950   4
   1  -7   4 69.5107 34.0184   1
  -1   7  -4 86.4081 31.3369   3
  -1   7  -4 50.6206 35.7821   4
  -1   7  -5 260.563 48.0513   3
  -1   7  -5 225.823 54.4415   4
   1  -7   5 231.577 47.0415   1
   1  -7   6 306.477 56.7564   1
  -1   7  -6 297.179 64.8732   4
  -1   7  -6 272.555 49.8688   3
   1  -7   7 153.098 50.5336   1
  -1   7  -7 154.495 43.0762   3
  -1   7  -7 138.394 55.0767   4
  -1   7  -8 23.7718 40.5366   4
  -1   7  -8 61.3271 35.8511   3
   1  -7   8 58.6633 40.4693   1
   1  -7   9 77.3640 42.0790   1
  -1   7  -9 20.7803 37.3801   4
   1  -7  10 83.6631 47.4779   1
  -1   7 -10 153.747 58.7254   4
   1  -7  11 93.3325 47.8945   1
  -1   7 -11-3.09946 40.8033   4
   1  -7  12 34.3624 41.5621   1
  -1   7 -12 106.849 65.4891   4
   1  -7  13 199.965 59.7022   1
  -1   7 -13 95.4143 49.3674   4
   1  -7  14 321.114 83.0456   1
  -1   6  17 71.9389 58.3608   1
  -1   6  16-2.60877 43.5223   1
   1  -6 -16 146.930 69.8173   3
   1  -6 -16 98.2608 65.8159   2
  -1   6  15 65.1884 51.3834   1
   1  -6 -15 74.4062 56.4403   3
  -1   6  14 3.11561 52.3034   2
   1  -6 -14-40.9162 52.7550   3
  -1   6  14-56.6781 47.5649   1
  -1   6  13 24.2571 36.5872   1
  -1   6  13-11.1401 42.8963   2
  -1   6  12 11.2436 36.3714   1
   1  -6 -12 75.5132 49.9161   3
  -1   6  12 4.67099 38.8975   2
   1  -6 -11 157.250 56.0399   3
  -1   6  11 76.7044 39.1477   1
  -1   6  11 124.480 49.9847   2
   1  -6 -10 2069.75 137.064   3
  -1   6  10 1850.22 127.517   1
  -1   6  10 1888.90 144.546   2
   1  -6  -9 60.4740 36.7303   3
  -1   6   9 28.3280 28.2962   1
  -1   6   9 109.761 55.4516   2
   1  -6  -8 1786.07 116.801   3
  -1   6   8 1893.36 137.123   2
  -1   6   8 1940.38 124.180   1
  -1   6   7 85.9452 41.2436   2
   1  -6  -7 87.4100 33.4546   3
  -1   6   7 146.590 38.1252   1
  -1   6   6 462.715 59.8877   1
  -1   6   6 456.454 66.2861   2
   1  -6  -6 602.572 67.3231   3
   1  -6  -5 94.3876 35.4920   3
  -1   6   5 70.2289 32.4930   2
  -1   6   5 14.7317 24.1651   1
  -1   6   4 631.937 70.4461   2
   1  -6  -4 734.433 64.7611   3
  -1   6   4 836.480 79.8488   1
  -1   6   3 188.629 40.5915   2
   1  -6  -3 254.824 40.2125   3
   1  -6  -3 228.365 31.3726   4
  -1   6   2 72.8318 29.1246   2
   1  -6  -2 101.446 27.9860   3
  -1   6   1 971.081 68.2992   4
   1  -6  -1 1018.83 68.7662   3
   1  -6  -1 1008.46 76.4389   2
   1  -6   0 526.923 51.5394   3
  -1   6   0 587.104 57.8776   4
   1  -6   0 383.563 47.4198   2
   1  -6   1 27.7560 19.4579   2
  -1   6  -1-29.1839 26.1232   3
   1  -6   1 37.8466 26.6263   1
  -1   6  -1 27.9721 26.2087   4
  -1   6  -2 484.310 52.2228   3
   1  -6   2 427.498 53.7887   1
  -1   6  -2 359.604 50.0424   4
   1  -6   2 432.814 44.0808   2
  -1   6  -3 503.063 56.2207   3
   1  -6   3 510.207 43.8226   2
   1  -6   3 461.624 57.0657   1
  -1   6  -3 472.635 62.6498   4
   1  -6   4 302.948 47.6317   1
  -1   6  -4 356.509 57.3949   4
  -1   6  -4 373.493 47.3498   3
   1  -6   5 65.2724 33.9532   1
  -1   6  -5 0.83435 28.8352   4
  -1   6  -5 31.7182 23.6208   3
  -1   6  -6 895.910 75.1461   3
   1  -6   6 835.022 80.3094   1
  -1   6  -6 727.755 86.1835   4
  -1   6  -7 16.1304 32.4999   4
   1  -6   7 118.217 46.1256   1
  -1   6  -7 104.413 34.2120   3
  -1   6  -8 440.658 75.9685   4
   1  -6   8 417.700 66.8331   1
  -1   6  -8 444.488 62.9623   3
  -1   6  -9 96.8117 36.9199   3
  -1   6  -9 116.882 54.4270   4
   1  -6   9 64.1218 42.8860   1
   1  -6  10 190.592 55.7171   1
  -1   6 -10 94.3326 39.7525   3
  -1   6 -11 222.612 53.0230   3
   1  -6  11 108.812 47.0030   1
  -1   6 -11 151.890 61.4548   4
  -1   6 -12 173.799 59.9247   4
   1  -6  12 217.508 65.1851   1
  -1   6 -12 61.7595 33.4389   3
  -1   6 -13-18.7174 39.1558   3
   1  -6  13 15.0961 40.7845   1
  -1   6 -13 71.5356 53.7661   4
  -1   6 -14 59.4879 54.5820   4
   1  -6  14 19.5645 41.3616   1
   1  -6  15 8.58672 44.7083   1
  -1   6 -15 32.4361 56.9045   4
   1  -5 -17-1.83860 53.9033   2
   1  -5 -17 71.2716 59.6002   3
  -1   5  17-15.8557 45.9035   1
  -1   5  16 5.66522 42.1769   1
   1  -5 -16-1.49591 50.8466   3
   1  -5 -16 44.4624 48.7420   2
  -1   5  15-9.89789 41.6478   1
   1  -5 -15-0.30017 49.6722   3
  -1   5  14-125.707 55.9954   1
   1  -5 -14 17.9303 49.1700   3
  -1   5  14 7.23670 40.5484   2
  -1   5  13 113.592 41.0922   1
   1  -5 -13 187.842 66.2630   3
  -1   5  13 109.995 50.4240   2
  -1   5  12 27.5899 35.4701   1
   1  -5 -12-44.7238 45.8048   3
   1  -5 -11 156.831 52.3100   3
  -1   5  11 97.8154 45.5651   1
  -1   5  11 84.2841 49.0503   2
  -1   5  10 49.9843 37.7178   1
   1  -5 -10 42.1026 34.6325   3
  -1   5  10 43.1517 37.9367   2
  -1   5   9 135.606 40.8828   1
  -1   5   9 184.198 46.9075   2
   1  -5  -9 220.377 49.8807   3
  -1   5   8 92.6959 35.9837   1
  -1   5   8 140.841 49.6324   2
   1  -5  -8 55.4056 31.3444   3
   1  -5  -7 607.288 63.7550   3
  -1   5   7 632.571 75.4501   2
  -1   5   7 485.729 58.8955   1
  -1   5   6 397.061 58.8109   2
   1  -5  -6 400.630 52.7734   3
  -1   5   6 401.869 53.2547   1
  -1   5   5 20.1156 28.3060   2
  -1   5   5-5.66606 26.2816   1
   1  -5  -5 5.69249 24.9084   3
  -1   5   4 1334.00 88.8042   1
   1  -5  -4 1156.55 44.7216   4
  -1   5   4 1131.29 85.3110   2
   1  -5  -4 1264.08 77.4898   3
  -1   5   3 560.788 37.8699   4
   1  -5  -3 536.134 50.1479   3
  -1   5   3 475.329 56.4075   1
  -1   5   3 390.189 50.6250   2
  -1   5   2 206.892 28.8381   4
   1  -5  -2 282.396 35.9921   3
  -1   5   2 222.340 36.5989   2
  -1   5   1 28.9409 17.5292   4
  -1   5   1-23.0453 29.0125   1
   1  -5  -1 35.0159 16.8562   3
   1  -5   0 669.786 54.8090   2
  -1   5   0 668.523 54.2907   4
  -1   5  -1 7.50520 19.4228   4
  -1   5  -1-20.9410 17.8463   3
   1  -5   1 6.53452 15.5888   2
  -1   5  -2 668.080 61.6809   4
  -1   5  -2 795.076 58.9995   3
   1  -5   2 682.038 48.6687   2
   1  -5   2 699.856 61.9880   1
   1  -5   3 24.3219 12.9790   2
  -1   5  -3 4.83613 20.8357   4
  -1   5  -3 22.5094 17.2473   3
   1  -5   3 55.8595 23.1755   1
   1  -5   4 620.180 39.6598   2
  -1   5  -4 595.685 64.1590   4
   1  -5   4 694.752 67.5584   1
  -1   5  -4 731.231 59.8179   3
   1  -5   5 112.488 32.0485   1
   1  -5   5 101.359 15.6867   2
  -1   5  -5 110.720 30.0011   3
  -1   5  -5 120.805 36.4188   4
  -1   5  -6 49.5066 24.4632   3
  -1   5  -6 87.5422 40.4855   4
   1  -5   6 137.215 37.7508   1
  -1   5  -7 738.402 83.7812   4
  -1   5  -7 905.920 72.9846   3
   1  -5   7 931.610 89.2131   1
  -1   5  -8 10.4240 28.0234   3
  -1   5  -8-7.28629 31.0284   4
   1  -5   8-38.4172 32.5878   1
   1  -5   9 98.7815 37.7342   1
  -1   5  -9 114.113 35.4815   3
  -1   5  -9 166.332 52.2989   4
  -1   5 -10 159.825 42.6633   3
   1  -5  10 204.609 54.1269   1
  -1   5 -10 159.321 56.6099   4
   1  -5  11 547.439 76.7099   1
  -1   5 -11 579.566 71.5295   3
  -1   5 -11 515.509 84.8888   4
  -1   5 -12 80.1513 41.6093   3
   1  -5  12 73.1306 43.9091   1
  -1   5 -12-21.4525 44.5770   4
   1  -5  13 912.256 105.100   1
  -1   5 -13 1106.63 107.222   3
  -1   5 -13 1240.92 129.972   4
  -1   5 -14 31.0375 43.4758   4
  -1   5 -14 38.7323 37.2664   3
  -1   5 -15 163.500 66.3981   4
  -1   5 -15 155.613 54.9492   3
   1  -5  15 141.295 60.7823   1
   1  -5  16 111.405 59.1237   1
  -1   5 -16 63.1805 46.6705   3
  -1   5 -16 138.169 72.0454   4
  -1   5 -17 56.6867 47.5087   3
  -1   4  18-58.5711 45.9859   1
   1  -4 -18 110.025 68.6582   2
  -1   4  17 76.2884 53.7663   1
   1  -4 -17-6.70777 50.0530   2
   1  -4 -17-56.5048 54.1780   3
   1  -4 -16-30.4847 45.0916   2
  -1   4  16-47.3390 48.5431   1
   1  -4 -16 30.5255 50.6342   3
   1  -4 -15 16.2395 48.7144   3
  -1   4  15 43.8383 38.3184   1
  -1   4  14-65.8384 42.7699   1
   1  -4 -14 56.2736 48.4689   3
  -1   4  14 27.4948 40.7929   2
   1  -4 -13 36.0863 47.2993   3
  -1   4  13 26.8047 41.5666   2
  -1   4  13 5.54622 29.5288   1
  -1   4  12 26.6706 39.3249   1
  -1   4  12-0.90829 33.0638   2
   1  -4 -12 13.0638 43.9168   3
   1  -4 -11 1669.92 123.188   3
  -1   4  11 1847.25 132.222   2
  -1   4  11 1545.84 114.794   1
  -1   4  10 74.7748 42.8466   2
   1  -4 -10 76.6152 41.9206   3
  -1   4  10 65.1690 34.7410   1
  -1   4   9 3752.46 174.183   2
  -1   4   9 3282.79 152.293   1
   1  -4  -9 3530.02 152.978   3
  -1   4   8 11.3374 30.2088   2
   1  -4  -8-21.9100 32.7023   3
  -1   4   8 34.1368 29.1993   1
  -1   4   7 430.921 60.7944   2
   1  -4  -7 492.925 54.9602   3
  -1   4   7 496.783 60.0111   1
  -1   4   6 1229.17 92.3254   2
  -1   4   6 1243.31 84.7779   1
   1  -4  -6 1253.94 78.7448   3
  -1   4   5 1994.12 101.278   1
   1  -4  -5 2035.63 92.0330   3
  -1   4   5 1968.02 107.911   2
   1  -4  -4 530.373 46.5185   3
  -1   4   4 450.637 50.7957   1
   1  -4  -4 400.021 20.3229   4
  -1   4   4 504.252 54.1500   2
   1  -4  -4 405.597 21.1590   4
  -1   4   3 2799.77 117.686   2
   1  -4  -3 2692.73 68.4042   4
   1  -4  -3 2909.44 98.9326   3
  -1   4   3 2818.08 68.0983   4
  -1   4   3 2950.37 118.507   1
   1  -4  -2 953.864 55.3559   3
  -1   4   2 1055.18 73.6028   1
  -1   4   2 875.287 63.6933   2
  -1   4   2 1043.55 49.0582   4
   1  -4  -1 14.4327 15.6370   3
  -1   4   1 18.3333 15.1810   4
   1  -4   0 10997.9 193.367   2
  -1   4   0 10976.0 190.132   4
  -1   4   0 10999.3 175.591   3
  -1   4  -1 6072.93 131.691   3
   1  -4   1 6199.60 135.671   2
  -1   4  -1 6182.52 153.516   4
  -1   4  -2 31692.8 370.739   4
   1  -4   2 31418.0 284.351   2
   1  -4   2 31551.7 379.348   1
  -1   4  -2 31703.5 302.204   3
  -1   4  -3 158.325 25.3162   3
  -1   4  -3 161.663 35.9370   4
   1  -4   3 128.607 29.2503   1
   1  -4   3 142.827 20.1064   2
  -1   4  -4 384.388 38.9289   3
   1  -4   4 371.123 27.2674   2
   1  -4   4 384.812 48.0468   1
  -1   4  -4 316.302 49.3837   4
  -1   4  -5 201.607 42.2992   4
  -1   4  -5 270.217 36.2825   3
   1  -4   5 223.071 18.4095   2
   1  -4   5 194.245 16.1961   2
   1  -4   5 222.848 38.8934   1
   1  -4   6 1424.65 93.4796   1
  -1   4  -6 1653.29 86.9539   3
  -1   4  -6 1324.54 95.9465   4
  -1   4  -7 92.6208 34.3524   4
   1  -4   7 157.348 42.2970   1
  -1   4  -7 118.294 29.9864   3
   1  -4   8 37.8023 31.1214   1
  -1   4  -8 58.5176 36.5593   4
  -1   4  -8 38.4874 24.7700   3
   1  -4   9 403.117 59.9460   1
  -1   4  -9 276.128 53.7342   4
  -1   4  -9 385.063 54.2703   3
   1  -4  10-6.49198 31.6069   1
  -1   4 -10 12.0852 25.8803   3
  -1   4 -10-35.6838 37.6458   4
  -1   4 -11 83.4887 35.6526   3
  -1   4 -11 91.7115 48.6418   4
   1  -4  11 66.2152 38.7946   1
  -1   4 -12 358.913 69.0532   4
   1  -4  12 288.323 61.9687   1
  -1   4 -12 347.556 61.4095   3
  -1   4 -13 5.91014 34.3464   4
   1  -4  13-16.0356 43.5913   1
  -1   4 -13-23.1827 33.0929   3
   1  -4  14 51.7745 41.9322   1
  -1   4 -14 15.4389 48.9402   4
  -1   4 -14 67.7361 38.3203   3
   1  -4  15 36.3031 42.0561   1
  -1   4 -15 20.9091 35.3333   3
  -1   4 -15-47.5716 44.7121   4
  -1   4 -16-17.6107 40.2513   3
  -1   4 -16-9.44532 50.7499   4
   1  -4  16 2.26373 47.5678   1
   1  -4  17 44.6900 45.2907   1
  -1   4 -17-53.2358 53.4187   4
  -1   4 -17-45.6943 46.6602   3
  -1   4 -18-2.54182 46.3767   3
   1  -3 -18-13.0468 55.5574   3
   1  -3 -18-73.5375 54.7566   2
  -1   3  18 76.7294 51.5449   1
  -1   3  17 36.3112 46.6430   1
   1  -3 -17 7.32801 44.2722   2
  -1   3  16 110.584 55.8342   1
   1  -3 -16 74.6914 47.6855   2
   1  -3 -16-22.1341 46.9053   3
   1  -3 -15 40.3990 40.3085   2
  -1   3  15-11.2221 34.8419   1
   1  -3 -15-28.3525 47.5992   3
   1  -3 -14 92.7274 47.1724   3
  -1   3  14-9.92905 40.1728   1
  -1   3  14 150.268 50.7626   2
   1  -3 -13 24.0977 43.6656   3
  -1   3  13 105.434 47.5713   2
  -1   3  13 14.7418 33.4687   1
   1  -3 -12 76.6623 46.1843   3
  -1   3  12 62.6133 41.9399   2
  -1   3  12 81.8071 39.7637   1
   1  -3 -11 131.170 50.6213   3
  -1   3  11 45.8737 27.2777   1
  -1   3  11 97.9110 41.6741   2
  -1   3  10 1157.32 93.3136   2
  -1   3  10 971.399 85.7905   1
   1  -3 -10 1264.86 99.3427   3
  -1   3   9 185.140 39.6095   1
   1  -3  -9 252.813 49.3089   3
  -1   3   9 278.967 53.5391   2
  -1   3   8-32.8225 29.6886   2
   1  -3  -8 27.0370 30.2022   3
  -1   3   8 27.2836 23.4107   1
   1  -3  -7 1362.05 85.5359   3
  -1   3   7 1266.71 91.7538   2
  -1   3   7 1229.41 82.0564   1
  -1   3   6 1315.69 81.3304   1
   1  -3  -6 1313.98 77.5037   3
  -1   3   6 1324.72 88.5577   2
  -1   3   5 1838.44 93.6613   1
   1  -3  -5 1682.04 80.5219   3
  -1   3   5 1690.48 95.0830   2
  -1   3   4 3056.45 115.816   2
  -1   3   4 3139.28 112.971   1
   1  -3  -4 2921.80 97.1836   3
  -1   3   3 181.752 32.0193   2
  -1   3   3 134.129 14.1558   4
   1  -3  -3 136.229 14.0992   4
   1  -3  -3 108.816 24.2003   3
  -1   3   3 129.260 28.2714   1
  -1   3   2 899.276 60.2401   1
  -1   3   2 879.228 56.8591   2
  -1   3   2 838.063 37.7326   4
   1  -3  -2 897.570 39.3449   4
   1  -3  -2 812.509 43.7801   3
  -1   3   1 641.620 38.6164   4
  -1   3   1 679.800 58.7199   1
   1  -3  -1 628.942 36.5381   3
   1  -3  -1 624.900 45.9737   2
  -1   3   0 277.001 30.1196   4
   1  -3   0 292.098 31.8259   2
  -1   3   0 258.703 24.2394   3
  -1   3  -1 27636.6 232.616   3
  -1   3  -1 27959.2 290.150   4
   1  -3   1 27467.4 254.565   2
  -1   3  -2 6016.50 147.855   4
   1  -3   2 6039.36 151.111   1
  -1   3  -2 5949.24 109.506   3
   1  -3   2 5652.82 108.199   2
   1  -3   3 252.236 23.0504   2
   1  -3   3 273.852 38.2343   1
  -1   3  -3 269.407 27.3023   3
  -1   3  -3 351.226 44.7233   4
  -1   3  -4 180.291 36.4900   4
   1  -3   4 249.510 37.2897   1
   1  -3   4 200.952 18.2962   2
   1  -3   4 236.951 20.2839   2
  -1   3  -4 232.857 29.5080   3
  -1   3  -5 556.083 45.9202   3
   1  -3   5 532.818 26.0250   2
   1  -3   5 636.204 57.2499   1
  -1   3  -5 662.856 64.1276   4
  -1   3  -5 544.837 26.9647   2
  -1   3  -6 2243.95 47.3736   2
   1  -3   6 2479.89 115.301   1
   1  -3   6 2350.87 46.2253   2
  -1   3  -6 2579.54 100.659   3
  -1   3  -6 2261.12 117.064   4
   1  -3   7 133.759 10.8732   2
   1  -3   7 194.664 40.2103   1
  -1   3  -7 222.754 37.2254   3
  -1   3  -7 117.640 10.9848   2
  -1   3  -7 111.889 36.6112   4
   1  -3   8 91.1966 35.8367   1
  -1   3  -8 56.9156 33.4853   4
  -1   3  -8 53.4304 7.44543   2
   1  -3   8 58.9456 7.53662   2
  -1   3  -8 81.9719 27.6642   3
  -1   3  -9 703.665 79.5921   4
  -1   3  -9 820.654 71.1707   3
   1  -3   9 790.993 77.5355   1
   1  -3  10 1226.13 101.725   1
  -1   3 -10 1154.37 88.8142   3
  -1   3 -10 1217.74 102.733   4
  -1   3 -11 57.8420 36.1022   4
   1  -3  11 21.9240 31.1039   1
  -1   3 -11 53.2167 33.0904   3
   1  -3  12 941.399 95.4599   1
  -1   3 -12 1084.21 94.7016   3
  -1   3 -12 964.442 99.3134   4
  -1   3 -13 413.552 68.4349   3
   1  -3  13 415.348 70.2046   1
  -1   3 -13 344.853 71.2089   4
  -1   3 -14 200.535 55.7724   4
   1  -3  14 194.899 58.1045   1
  -1   3 -14 86.1954 45.0782   3
   1  -3  15 36.8011 37.7465   1
  -1   3 -15-4.54566 34.8300   3
  -1   3 -15 118.977 53.2561   4
  -1   3 -16-14.4489 44.9147   3
  -1   3 -16 63.0578 47.8554   4
   1  -3  16 76.0141 46.7618   1
  -1   3 -17 31.7439 43.5745   4
  -1   3 -17-1.64739 44.3698   3
  -1   3 -18 87.9867 58.5650   3
  -1   3 -18-23.1682 49.6555   4
   1  -2 -18 157.976 68.6909   3
  -1   2  18-7.93355 42.9410   1
   1  -2 -17-37.3178 39.9582   2
   1  -2 -17-46.6754 51.6436   3
  -1   2  17 72.2301 52.8539   1
   1  -2 -16 31.1099 42.6243   2
  -1   2  16-2.62422 39.3733   1
   1  -2 -16 36.2666 42.4215   3
   1  -2 -15-53.0437 42.1972   3
  -1   2  15 84.7646 39.9853   1
   1  -2 -15 31.9816 46.1535   2
   1  -2 -14-2.03992 40.6080   3
  -1   2  14 21.0586 31.4296   1
   1  -2 -14-26.2983 39.8973   2
   1  -2 -13 55.6478 46.0799   3
  -1   2  13-11.8452 35.0697   1
  -1   2  12 21.3527 31.6139   2
  -1   2  12 44.1093 34.3056   1
   1  -2 -12-28.7014 41.8051   3
   1  -2 -11-10.3802 36.0100   3
  -1   2  11-36.3142 31.5252   2
  -1   2  11-23.2642 35.5487   1
  -1   2  11-1.33419 15.1554   4
   1  -2 -10 18.4223 34.4488   3
  -1   2  10-21.6078 29.2093   1
  -1   2  10 75.3003 18.3834   4
   1  -2  -9-0.04814 29.2821   3
  -1   2   9 12.3823 14.1631   4
  -1   2   9-12.7920 23.9686   1
  -1   2   9 32.8464 26.3610   2
  -1   2   8-0.83838 22.7961   2
   1  -2  -8 21.5102 25.5201   3
  -1   2   8 7.05791 10.5849   4
  -1   2   8-6.82849 22.4011   1
  -1   2   7 468.733 53.5542   2
  -1   2   7 410.490 52.5507   1
   1  -2  -7 403.886 48.1544   3
  -1   2   7 458.767 27.3534   4
  -1   2   7 422.908 26.5188   4
  -1   2   6 494.597 52.2050   2
  -1   2   6 477.664 24.0345   4
  -1   2   6 470.744 24.6942   4
   1  -2  -6 512.055 50.2263   3
  -1   2   6 563.617 51.6348   1
   1  -2  -5 1014.60 60.3215   3
  -1   2   5 932.994 27.7461   4
  -1   2   5 970.451 67.5356   2
  -1   2   5 958.732 61.5284   1
  -1   2   5 932.251 28.7201   4
   1  -2  -4 1876.41 37.9195   4
  -1   2   4 2027.67 84.7342   1
  -1   2   4 1823.32 36.9121   4
   1  -2  -4 2075.76 78.0078   3
  -1   2   4 2043.64 85.8999   2
  -1   2   3 572.334 22.8340   4
  -1   2   3 648.299 48.6368   1
  -1   2   3 598.419 46.1898   2
   1  -2  -3 632.980 24.2033   4
   1  -2  -3 601.349 38.8205   3
   1  -2  -2 1586.28 51.8890   3
  -1   2   2 1581.69 53.5144   3
   1  -2  -2 1584.35 71.0939   2
   1  -2  -2 1745.43 45.5510   4
  -1   2   2 1620.32 42.0460   4
  -1   2   2 1625.26 69.3834   1
  -1   2   1 28771.3 283.446   1
  -1   2   1 28969.3 191.818   3
   1  -2  -1 29145.6 266.531   2
   1  -2   0 7964.58 130.471   2
  -1   2   0 7863.59 119.565   4
   1  -2   0 7763.93 83.6066   3
   1  -2   0 7898.16 84.4658   3
  -1   2  -2 2804.99 68.5506   2
   1  -2   2 2648.49 65.7693   2
  -1   2  -2 2735.90 87.8944   4
  -1   2  -2 2690.83 59.0970   3
   1  -2   2 2782.65 92.4439   1
   1  -2   2 2800.83 59.0333   3
  -1   2  -3 6476.78 95.8915   2
  -1   2  -3 6303.32 105.562   3
   1  -2   3 6414.61 144.803   1
  -1   2  -3 6318.26 144.985   4
   1  -2   3 6292.55 95.5244   2
  -1   2  -4 1271.55 41.9265   2
   1  -2   4 1101.83 66.9139   1
  -1   2  -4 1219.72 70.3166   4
   1  -2   4 1205.32 40.9199   2
  -1   2  -4 1193.71 53.2688   3
  -1   2  -5 2786.39 62.0114   2
   1  -2   5 2651.39 105.457   1
   1  -2   5 2768.63 60.5800   2
  -1   2  -5 2774.73 112.738   4
  -1   2  -5 2773.68 91.3372   3
  -1   2  -6 1045.52 63.6185   3
  -1   2  -6 1006.90 39.7773   2
   1  -2   6 960.567 70.1868   1
   1  -2   6 1022.93 38.5226   2
  -1   2  -6 947.692 72.2838   4
   1  -2   7 2278.09 60.5161   2
  -1   2  -7 2335.44 115.643   4
  -1   2  -7 2380.40 99.8125   3
   1  -2   7 2345.08 112.359   1
  -1   2  -8 177.308 41.3090   4
   1  -2   8 187.660 21.6249   2
   1  -2   8 231.385 41.0764   1
  -1   2  -8 180.773 37.4519   3
   1  -2   9 1229.99 51.8423   2
   1  -2   9 1161.80 89.2961   1
  -1   2  -9 1132.36 89.5013   4
  -1   2  -9 1112.79 79.9895   3
  -1   2 -10 21.2296 26.3954   4
   1  -2  10 76.7292 18.1920   2
  -1   2 -10 24.4716 29.5823   3
   1  -2  10 80.9470 35.4373   1
   1  -2  11 411.719 62.8185   1
  -1   2 -11 433.610 63.4071   4
  -1   2 -11 308.361 51.4894   3
  -1   2 -12 1341.14 107.369   3
   1  -2  12 1217.82 106.967   1
  -1   2 -12 1334.23 108.713   4
   1  -2  13 264.966 59.3052   1
  -1   2 -13 277.918 55.6174   4
  -1   2 -13 198.876 53.5478   3
  -1   2 -14 197.173 54.9254   3
   1  -2  14 169.850 49.4104   1
  -1   2 -14 244.816 59.0592   4
  -1   2 -15 1.28785 37.7393   3
   1  -2  15-49.9373 54.5776   1
  -1   2 -15-8.20214 38.4255   4
  -1   2 -16 30.9011 38.6427   3
   1  -2  16 115.781 57.3991   1
  -1   2 -16 63.6321 46.6095   4
   1  -2  17 58.3014 50.5043   1
  -1   2 -17-5.49167 40.2721   4
  -1   2 -17-10.6354 44.2016   3
  -1   2 -18 5.22251 43.6433   4
  -1   2 -18-38.7879 49.7145   3
   1  -2  18-45.3727 58.2724   1
  -1   2 -19-97.6210 62.9715   3
  -1   2 -19-52.7243 54.8850   4
  -1   1  18 90.0463 54.4455   1
   1  -1 -18-14.0703 44.8951   3
   1  -1 -17 55.8218 51.3139   3
  -1   1  17-3.27492 49.2244   1
   1  -1 -16 50.3159 49.9168   3
  -1   1  16-0.67476 40.0203   1
   1  -1 -15 113.242 50.0176   3
   1  -1 -15 130.947 44.7555   2
  -1   1  15 127.017 50.9274   1
  -1   1  14 88.6090 44.0438   1
   1  -1 -14 46.3800 32.9024   2
   1  -1 -14-17.2538 37.6093   3
  -1   1  13 147.302 46.9197   1
   1  -1 -13 83.6805 37.2269   3
   1  -1 -13 174.651 48.1612   2
  -1   1  13 87.6070 30.6114   4
   1  -1 -12 21.4675 36.1856   3
   1  -1 -12 77.5591 37.0025   2
  -1   1  12 17.1709 24.2665   4
  -1   1  12 16.2580 31.7105   1
   1  -1 -11 1307.62 94.1780   2
   1  -1 -11 1262.93 102.088   3
  -1   1  11 1201.80 98.7340   1
  -1   1  11 1297.61 78.7983   4
   1  -1 -10 240.845 51.4126   3
  -1   1  10 205.313 47.6145   1
  -1   1  10 193.001 31.8144   4
  -1   1   9 100.261 30.1688   2
  -1   1   9 84.5889 22.2784   4
  -1   1   9 87.8280 33.8789   1
   1  -1  -9 49.5233 33.3928   3
   1  -1  -8 2071.64 106.226   3
  -1   1   8 2322.61 83.9482   4
  -1   1   8 1954.95 104.265   1
  -1   1   8 2234.92 98.7506   2
  -1   1   7 3183.97 113.203   2
  -1   1   7 3184.32 122.026   1
  -1   1   7 3347.32 91.9647   4
   1  -1  -7 3237.65 122.853   3
  -1   1   6 955.021 46.2556   4
  -1   1   6 1050.11 63.9766   2
  -1   1   6 1026.61 66.4489   1
   1  -1  -6 942.310 63.4725   3
   1  -1  -5 8246.94 162.699   3
  -1   1   5 8610.47 171.481   1
  -1   1   5 8396.91 119.514   4
  -1   1   5 8483.78 117.443   4
  -1   1   4 157.230 30.6988   1
   1  -1  -4 201.628 29.6165   3
  -1   1   4 168.600 20.3189   4
   1  -1  -4 130.922 17.2390   4
   1  -1  -4 197.328 31.3412   2
  -1   1   3 8450.42 144.795   1
   1  -1  -3 8091.44 148.621   2
   1  -1  -3 8446.21 96.6877   4
  -1   1   3 8245.74 97.8544   4
   1  -1  -3 8161.38 129.637   3
  -1   1   2 2822.31 80.1081   1
   1  -1  -2 2734.41 62.0642   3
  -1   1   2 2535.29 61.0575   3
   1  -1  -2 2720.10 78.0994   2
   1  -1  -2 2700.86 55.8299   4
  -1   1   2 2687.66 55.1265   4
  -1   1   1 1896.19 67.5876   1
   1  -1  -1 1957.04 42.0160   3
  -1   1   1 1534.26 50.3964   4
  -1   1   1 1814.35 40.2520   3
   1  -1  -1 1910.66 62.4148   2
   1  -1  -1 1657.86 49.3248   4
  -1   1  -2 1051.29 39.6395   2
  -1   1  -2 1084.22 50.4776   4
   1  -1   2 1073.09 32.7219   3
  -1   1  -2 1054.38 31.6602   3
   1  -1   2 1070.27 51.9681   1
   1  -1   2 998.587 40.4145   2
  -1   1  -3 2124.71 57.2326   2
   1  -1   3 2049.92 56.9942   3
  -1   1  -3 1998.84 55.4069   3
   1  -1   3 2069.16 74.1053   1
   1  -1   3 2033.70 54.8057   2
  -1   1  -3 1943.71 72.8416   4
  -1   1  -4 7400.17 124.580   3
  -1   1  -4 7489.40 107.850   2
   1  -1   4 7431.81 149.050   1
   1  -1   4 7021.20 106.311   2
  -1   1  -4 7179.23 147.118   4
   1  -1   5 1666.10 83.1247   1
   1  -1   5 1714.50 55.8137   2
  -1   1  -5 1680.32 80.7256   4
  -1   1  -5 1739.23 69.7049   3
  -1   1  -6 504.942 48.3894   4
   1  -1   6 551.902 35.5477   2
  -1   1  -6 537.244 47.4152   3
   1  -1   6 580.771 55.0886   1
  -1   1  -7 3846.84 123.819   3
   1  -1   7 3827.17 94.8444   2
  -1   1  -7 3851.92 136.015   4
   1  -1   7 3972.70 139.216   1
  -1   1  -8 635.925 61.3328   4
   1  -1   8 620.280 42.9704   2
  -1   1  -8 577.333 58.2993   3
   1  -1   8 672.188 63.3333   1
  -1   1  -9 1044.35 76.9975   3
  -1   1  -9 1241.72 87.0173   4
   1  -1   9 1076.67 59.1828   2
   1  -1   9 1013.46 80.8836   1
  -1   1 -10 60.6632 30.7941   4
   1  -1  10 140.695 41.9756   1
  -1   1 -10 55.6727 32.5127   3
   1  -1  10 93.6658 21.7460   2
  -1   1 -11 157.819 47.2183   3
   1  -1  11 143.923 44.4277   1
  -1   1 -11 163.735 44.4418   4
   1  -1  11 168.217 30.1332   2
   1  -1  12 249.539 54.8460   1
   1  -1  12 340.402 41.6193   2
  -1   1 -12 373.448 61.2627   3
  -1   1 -12 363.587 59.0159   4
  -1   1 -13 171.271 50.4130   3
   1  -1  13 91.1154 44.4211   1
  -1   1 -13 81.4649 38.3396   4
  -1   1 -14 409.210 65.9480   4
  -1   1 -14 378.832 71.3725   3
   1  -1  14 376.277 71.9927   1
   1  -1  15 32.4481 40.9504   1
  -1   1 -15 21.7814 36.3197   4
  -1   1 -15-13.6549 43.4546   3
   1  -1  16 0.09734 43.2523   1
  -1   1 -16-47.8231 43.8208   4
  -1   1 -16 67.8061 49.8730   3
   1  -1  17 47.0679 48.7281   1
  -1   1 -17-2.52401 36.4789   4
  -1   1 -17-3.38196 47.0207   3
  -1   1 -18 8.15566 45.8659   3
   1  -1  18 34.5098 43.7315   1
  -1   1 -19 52.5627 55.0089   3
   1   0 -18 8.65048 47.1056   3
  -1   0  18 99.6375 58.8702   1
   1   0 -17 60.7542 52.8419   3
  -1   0  17-23.0747 45.0891   1
   1   0 -16 47.2629 55.1503   3
  -1   0  16 14.1047 39.2445   1
  -1   0  15 58.8745 46.2198   1
   1   0 -15 16.8254 42.1334   3
  -1   0  15-12.8117 31.0934   4
   1   0 -14 29.4651 30.2695   2
  -1   0  14 69.4590 46.0204   1
   1   0 -14 4.26793 37.5771   3
  -1   0  14 45.2727 28.4901   4
   1   0 -13 1770.06 132.254   3
   1   0 -13 1723.88 108.026   2
  -1   0  13 1819.89 114.687   4
  -1   0  13 1896.34 135.222   1
   1   0 -12-38.9803 42.6807   3
   1   0 -12-25.7110 29.2330   2
  -1   0  12 37.9131 33.1256   1
  -1   0  12 8.63067 28.4436   4
  -1   0  11 3605.75 165.461   1
   1   0 -11 3805.78 144.472   2
  -1   0  11 3497.93 140.360   4
   1   0 -11 3691.05 168.875   3
   1   0 -10 42.4772 36.0360   3
   1   0 -10 19.4527 22.4175   2
  -1   0  10-12.1592 30.3918   1
  -1   0  10-10.0922 21.4256   4
   1   0  -9-9.97548 19.2794   2
  -1   0   9-16.3815 30.0906   1
   1   0  -9-13.6268 29.8649   3
  -1   0   9 21.9438 21.2205   4
  -1   0   8 1327.57 76.1032   4
   1   0  -8 1321.75 87.7565   3
   1   0  -8 1460.84 78.9018   2
  -1   0   8 1388.74 86.9648   1
  -1   0   7 456.353 49.3179   1
   1   0  -7 480.357 44.5276   2
  -1   0   7 453.234 44.0901   4
   1   0  -7 454.352 50.7088   3
   1   0  -6 1850.34 77.6914   2
   1   0  -6 1849.67 87.0035   3
  -1   0   6 2013.30 78.5904   4
  -1   0   6 1933.90 89.4190   1
  -1   0   5 663.637 50.8262   1
   1   0  -5 629.440 48.1309   3
   1   0  -5 619.553 44.3345   2
  -1   0   5 642.151 42.2236   4
  -1   0   4 140.452 21.6373   4
  -1   0   4 168.960 27.2269   1
   1   0  -4 165.016 26.9261   3
   1   0  -4 170.074 25.0220   2
  -1   0   3 143.565 20.4086   4
   1   0  -3 123.016 23.9587   3
  -1   0   3 126.822 19.8632   1
   1   0  -3 115.367 20.7422   2
  -1   0   2 606.171 33.1275   3
   1   0  -2 606.681 34.2368   2
  -1   0   2 693.759 37.7861   2
  -1   0   2 629.257 33.5141   4
   1   0  -2 641.712 34.4070   4
  -1   0   2 623.608 35.4852   1
   1   0  -2 587.816 31.8599   3
   1   0  -1 29.1395 13.6029   1
   1   0  -1 37.2451 11.2032   3
  -1   0   1 20.1653 14.3609   2
  -1   0   1 28.6009 12.8520   3
   1   0  -1 37.2408 14.0318   4
  -1   0   1 12.1550 11.7832   4
  -1   0   1 24.6414 11.9678   1
   1   0  -1 25.0532 14.7463   2
  -1   0   0-4.14236 9.33952   1
   1   0   0 18.4531 12.2319   1
  -1   0   0 2.73587 8.33023   3
  -1   0   0 28.5989 13.5225   2
  -1   0   0 13.2982 12.7702   4
   1   0   0 20.0771 14.0375   2
   1   0   0 15.9749 13.0288   4
   1   0   0-9.94968 7.43394   3
  -1   0  -1 124.732 20.9401   4
  -1   0  -1 134.402 18.5213   2
  -1   0  -1 101.580 13.1325   3
   1   0   1 95.3993 19.1544   4
   1   0   1 120.829 18.7270   2
  -1   0  -1 127.456 14.6673   3
   1   0   2 508.421 31.0604   1
  -1   0  -2 477.273 27.4754   3
  -1   0  -2 512.600 33.4810   4
  -1   0  -2 594.188 34.5200   1
  -1   0  -2 514.442 32.0950   2
   1   0   2 500.465 33.0026   2
   1   0   2 593.577 30.6188   3
   1   0   3 281.233 25.8482   2
   1   0   3 314.346 28.5368   1
  -1   0  -3 289.527 28.6267   4
  -1   0  -3 263.628 24.6659   3
  -1   0  -4 191.745 27.3360   3
   1   0   4 171.362 26.3483   1
  -1   0  -4 159.105 23.8968   4
   1   0   4 214.008 25.2392   2
   1   0   5 824.611 45.5380   2
  -1   0  -5 770.985 49.7859   3
   1   0   5 782.820 51.6682   1
  -1   0  -5 779.002 49.0384   4
  -1   0  -6 2975.99 104.329   3
   1   0   6 3205.64 106.136   1
  -1   0  -6 3263.20 104.580   4
   1   0   6 3113.12 93.1235   2
   1   0   7 24.0682 19.0478   2
  -1   0  -7 15.0351 24.0467   3
   1   0   7 7.41850 21.3397   1
  -1   0  -7 20.3417 22.2143   4
   1   0   8 1722.42 78.0090   2
   1   0   8 1855.62 96.5537   1
  -1   0  -8 1625.95 92.7064   3
  -1   0  -8 1749.14 88.2103   4
  -1   0  -9 255.797 40.9836   4
   1   0   9 263.170 42.6849   1
  -1   0  -9 271.262 46.1748   3
   1   0   9 234.094 35.0937   2
  -1   0 -10-9.39716 28.7474   3
   1   0  10 23.0002 21.1668   2
  -1   0 -10 29.1993 23.7855   4
   1   0  10 28.6377 24.3613   1
  -1   0 -11 2217.92 115.342   4
   1   0  11 2387.60 106.470   2
   1   0  11 2020.72 121.706   1
  -1   0 -11 2087.01 122.421   3
   1   0  12-10.5623 30.7708   1
  -1   0 -12 82.7014 36.6252   4
  -1   0 -12 33.1546 33.4913   3
   1   0  12-6.95527 21.7373   2
   1   0  13 667.016 63.8476   2
  -1   0 -13 688.391 86.6050   3
   1   0  13 629.504 83.2253   1
  -1   0 -13 713.067 75.6964   4
  -1   0 -14 30.0511 28.6399   4
   1   0  14-2.57442 24.5601   2
   1   0  14 1.09600 34.7761   1
  -1   0 -14 97.9873 45.5766   3
   1   0  15-32.8388 45.2885   1
  -1   0 -15 0.25922 30.3895   4
  -1   0 -16 63.6104 39.3849   4
  -1   0 -16 81.3212 52.4321   3
   1   0  16 36.1899 41.4587   1
   1   0  17-18.1322 48.2593   1
  -1   0 -17-37.6387 43.8771   3
  -1   0 -18-26.0639 50.3362   3
   1   0  18 5.47641 46.8461   1
   1   0  19 81.2675 61.0290   1
  -1   0 -19-11.0771 47.1439   3
  -1  -1  18-58.2951 45.8877   1
   1   1 -18-21.5877 47.3737   3
  -1  -1  17 11.3687 46.8732   1
   1   1 -17-59.7300 51.8748   3
  -1  -1  16 37.4728 46.2586   1
  -1  -1  16 71.3227 44.8753   4
   1   1 -16 108.100 46.8439   3
   1   1 -15-47.9208 48.4110   3
  -1  -1  15-16.7205 42.5326   1
  -1  -1  15 35.1656 35.8909   4
   1   1 -14 269.157 63.6615   3
  -1  -1  14 273.769 56.8089   4
  -1  -1  14 185.822 53.3526   1
  -1  -1  13 21.9654 30.6831   4
   1   1 -13 9.56455 37.2953   3
  -1  -1  13 10.7287 37.1078   1
   1   1 -12 389.000 47.9093   2
  -1  -1  12 299.795 60.9851   1
   1   1 -12 319.431 63.6282   3
  -1  -1  12 340.716 57.3712   4
  -1  -1  11 58.2553 36.7691   1
  -1  -1  11 133.263 38.7483   4
   1   1 -11 81.8869 33.2483   3
   1   1 -11 115.905 29.6941   2
  -1  -1  10 41.8555 30.4336   4
   1   1 -10 12.4811 18.8062   2
  -1  -1  10 44.9201 26.7584   1
   1   1 -10 29.3473 30.5625   3
  -1  -1   9 2240.78 112.963   4
  -1  -1   9 1972.86 108.627   1
   1   1  -9 2071.85 115.115   3
   1   1  -9 2232.38 88.9417   2
   1   1  -8 222.773 40.6685   3
  -1  -1   8 123.160 33.4872   4
   1   1  -8 190.702 27.3533   2
  -1  -1   8 211.216 38.2568   1
  -1  -1   7 1838.31 91.4118   1
   1   1  -7 1979.68 99.0707   3
  -1  -1   7 2010.01 96.5215   4
   1   1  -7 2045.00 74.8278   2
   1   1  -6 1404.07 78.4283   3
  -1  -1   6 1636.92 81.7809   4
  -1  -1   6 1608.20 80.7714   1
   1   1  -6 1499.82 59.6263   2
  -1  -1   5 1396.34 68.8297   1
  -1  -1   5 1494.08 74.2082   4
   1   1  -5 1507.91 55.8751   2
   1   1  -5 1378.05 71.7879   3
  -1  -1   4 6448.05 138.515   4
  -1  -1   4 6446.43 126.615   1
   1   1  -4 6225.48 104.502   2
   1   1  -4 6214.01 139.934   3
   1   1  -3 2995.96 67.8274   2
  -1  -1   3 3251.32 79.3197   1
  -1  -1   3 3272.11 92.0047   4
   1   1  -3 3229.01 92.8952   3
  -1  -1   3 3233.02 70.1986   2
  -1  -1   2 185.590 19.4060   1
  -1  -1   2 142.819 17.7426   2
   1   1  -2 176.706 24.3501   3
  -1  -1   2 182.011 25.1102   4
   1   1  -2 178.018 19.3504   2
   1   1  -2 183.902 19.1763   1
  -1  -1  -1 3574.60 77.1073   4
   1   1   1 3800.12 80.2712   4
   1   1   1 3590.38 80.0811   3
   1   1   1 3628.65 78.8148   2
   1   1   1 3579.34 47.4130   1
  -1  -1  -2 2002.38 65.4713   3
  -1  -1  -2 1998.94 46.5805   1
   1   1   2 2026.81 46.8085   1
  -1  -1  -2 2040.28 61.4289   4
   1   1   2 1954.65 62.9298   2
   1   1   2 1919.42 58.6358   4
  -1  -1  -3 9765.43 148.572   3
   1   1   3 9643.68 122.546   1
   1   1   3 9596.76 152.827   2
  -1  -1  -3 10041.5 134.682   4
  -1  -1  -3 9523.09 125.930   1
  -1  -1  -4-3.44612 17.2144   3
   1   1   4-16.2764 15.1777   1
   1   1   4-22.5418 17.0454   2
  -1  -1  -4-4.56948 14.8626   4
  -1  -1  -5 1722.92 64.7875   4
   1   1   5 1675.98 71.2239   2
   1   1   5 1484.82 64.4360   1
  -1  -1  -5 1606.19 74.0473   3
   1   1   6 9932.42 180.920   2
  -1  -1  -6 9572.88 161.131   4
  -1  -1  -6 9516.45 189.439   3
   1   1   6 9542.98 176.760   1
  -1  -1  -7 454.401 41.1018   4
   1   1   7 442.333 44.2637   2
  -1  -1  -7 473.406 52.2787   3
   1   1   7 419.390 47.3855   1
   1   1   8 352.378 42.0454   2
  -1  -1  -8 323.892 37.2529   4
  -1  -1  -8 270.077 45.9097   3
   1   1   8 313.787 44.8347   1
  -1  -1  -9 30.4641 19.0804   4
  -1  -1  -9 33.4997 28.8724   3
   1   1   9 22.1082 21.2922   2
   1   1   9 68.8787 28.5689   1
   1   1  10 3465.37 133.360   2
  -1  -1 -10 2909.18 141.021   3
  -1  -1 -10 3537.85 128.262   4
   1   1  10 2796.91 132.640   1
   1   1  11-5.62672 26.6798   1
  -1  -1 -11 56.4756 41.3498   3
   1   1  11 21.3926 24.0618   2
  -1  -1 -11-21.5055 21.3989   4
   1   1  12 1771.69 120.896   1
   1   1  12 1942.47 108.030   2
  -1  -1 -12 1952.33 105.814   4
  -1  -1 -12 1749.41 122.730   3
   1   1  13 1121.55 89.9056   2
  -1  -1 -13 1109.01 108.021   3
   1   1  13 1171.97 103.686   1
  -1  -1 -13 1111.28 84.8865   4
   1   1  14-18.9248 35.7405   1
  -1  -1 -14-44.9583 31.3585   4
   1   1  14 3.22831 27.9277   2
  -1  -1 -14-7.12349 39.7464   3
  -1  -1 -15 18.6035 45.7116   3
   1   1  15 18.8252 31.2970   2
   1   1  15-14.4876 41.6563   1
  -1  -1 -16-9.86417 47.0355   3
   1   1  16 18.8977 34.6489   2
   1   1  16 13.5543 38.2864   1
   1   1  17-57.7665 50.5379   1
  -1  -1 -17 11.9031 42.9133   3
  -1  -1 -18-18.3117 50.4170   3
   1   1  18 9.86866 46.2951   1
   1   1  19 140.010 64.1807   1
  -1  -1 -19 117.744 64.5932   3
  -1  -2  18 12.4608 49.8114   1
   1   2 -18 76.7698 58.9845   3
  -1  -2  17-70.7588 51.5294   4
  -1  -2  17 32.1829 44.8413   1
   1   2 -17-54.6161 48.8994   3
  -1  -2  16 105.677 48.0283   4
  -1  -2  16 7.99520 41.6169   1
   1   2 -16 47.6293 45.3536   3
   1   2 -15 73.9523 49.7057   3
  -1  -2  15-1.88143 38.9610   1
  -1  -2  15 62.7113 44.2277   4
  -1  -2  14 1080.03 108.950   1
   1   2 -14 1045.01 108.623   3
  -1  -2  14 821.322 96.7426   4
  -1  -2  13 61.7669 37.2371   1
   1   2 -13 81.0634 37.5134   3
  -1  -2  13 39.4265 36.3005   4
  -1  -2  12 2870.53 155.379   1
  -1  -2  12 2937.29 161.214   4
   1   2 -12 2915.91 162.816   3
  -1  -2  11 323.804 55.5773   1
  -1  -2  11 327.159 59.7004   4
   1   2 -11 389.802 63.8036   3
   1   2 -10 47.5761 18.8300   2
   1   2 -10 48.2238 33.3104   3
  -1  -2  10 30.2430 27.2042   4
  -1  -2  10 54.1801 34.9192   1
  -1  -2   9 953.386 77.9927   1
  -1  -2   9 903.926 78.9689   4
   1   2  -9 808.099 77.9927   3
   1   2  -9 920.475 48.7698   2
  -1  -2   8 974.439 81.0406   4
   1   2  -8 1053.28 48.1234   2
  -1  -2   8 926.671 72.1776   1
   1   2  -8 986.761 79.7441   3
   1   2  -7 1820.20 101.718   3
   1   2  -7 1835.79 58.0920   2
  -1  -2   7 1798.48 91.6865   1
  -1  -2   7 1648.37 96.5894   4
  -1  -2   6 1180.93 78.8147   4
   1   2  -6 1247.96 45.9874   2
   1   2  -6 1204.84 44.9102   2
   1   2  -6 1197.18 77.5574   3
  -1  -2   6 1204.18 70.9347   1
   1   2  -5 2335.17 101.210   3
  -1  -2   5 2511.33 61.9634   2
   1   2  -5 2339.32 58.8529   2
  -1  -2   5 2447.67 90.4641   1
  -1  -2   5 2466.86 104.826   4
  -1  -2   4 573.304 42.5512   1
   1   2  -4 580.569 49.4554   3
  -1  -2   4 614.183 52.0743   4
   1   2  -4 656.698 30.9647   2
  -1  -2   4 691.762 32.0541   2
   1   2  -3 9095.31 173.077   3
  -1  -2   3 9284.49 179.774   4
  -1  -2   3 9289.19 135.875   1
  -1  -2   3 9349.79 115.875   2
   1   2  -3 9381.41 112.868   2
  -1  -2   2 24.2903 13.5731   1
   1   2  -2 23.9262 14.6078   2
  -1  -2   2 11.1117 11.6785   2
   1   2  -2-3.88997 17.0838   3
  -1  -2   2 1.91426 17.8809   4
   1   2  -2 13.4913 11.6780   1
  -1  -2   0 512.132 38.1978   4
   1   2   0 390.271 37.0604   3
   1   2   0 424.303 32.5352   2
   1   2   1 23419.2 248.184   3
   1   2   1 22904.0 225.656   2
  -1  -2  -2 3014.87 94.1686   3
   1   2   2 3213.77 89.9622   2
   1   2   2 3349.06 52.4662   1
  -1  -2  -2 3213.34 51.5927   1
  -1  -2  -2 3446.33 81.8048   4
   1   2   3 746.635 33.0226   1
  -1  -2  -3 825.549 54.2895   3
  -1  -2  -3 862.045 42.2758   4
   1   2   3 789.535 51.2359   2
  -1  -2  -3 824.296 35.1122   1
   1   2   4 1826.11 60.8986   1
  -1  -2  -4 1851.18 80.5451   3
  -1  -2  -4 1862.97 64.2538   4
   1   2   4 1680.70 80.0788   2
  -1  -2  -5 1864.89 64.4946   4
   1   2   5 1764.12 83.6762   2
   1   2   5 1920.88 70.9707   1
  -1  -2  -5 1858.70 86.8483   3
   1   2   6 150.022 28.0272   1
  -1  -2  -6 143.442 22.1496   4
  -1  -2  -6 181.325 36.5411   3
   1   2   6 140.550 30.0714   2
   1   2   7 620.634 56.6523   2
  -1  -2  -7 583.331 41.9308   4
   1   2   7 549.179 49.1742   1
  -1  -2  -7 629.329 58.4778   3
  -1  -2  -8 11.9113 25.6912   3
   1   2   8 18.3502 19.0254   1
   1   2   8-36.4758 30.1690   2
  -1  -2  -8-21.7029 18.8420   4
  -1  -2  -9 1.98472 17.2406   4
   1   2   9-15.3072 24.1428   1
   1   2   9 10.1370 29.0212   2
  -1  -2  -9 2.94663 28.8903   3
  -1  -2 -10 0.12778 19.8315   4
  -1  -2 -10 25.6753 32.3632   3
   1   2  10-4.82933 24.1764   1
   1   2  10 21.5457 24.8362   2
   1   2  11 23.1521 26.6914   1
  -1  -2 -11 13.6591 33.8007   3
   1   2  11 8.30845 25.9174   2
  -1  -2 -11-3.36859 19.3592   4
  -1  -2 -12 22.8751 20.2752   4
   1   2  12 71.0247 38.5084   1
   1   2  12 44.6222 34.3053   2
  -1  -2 -12-30.1404 36.6493   3
   1   2  13 26.5634 33.3708   1
   1   2  13 3.77571 29.3620   2
  -1  -2 -13 0.82934 42.6330   3
  -1  -2 -13 30.8843 27.9293   4
  -1  -2 -14 49.4903 49.5548   3
   1   2  14 1.51581 32.5158   2
   1   2  14 10.4727 32.4742   1
   1   2  15-22.8767 36.3198   2
   1   2  15 57.3150 44.8723   1
  -1  -2 -15-2.33396 52.4746   3
  -1  -2 -16 29.0207 43.9868   3
   1   2  16-0.54891 37.1567   2
   1   2  16 24.9305 40.6865   1
   1   2  17-21.7456 42.6601   1
  -1  -2 -17-33.7978 54.6774   3
   1   2  17-19.5151 38.8013   2
   1   2  18 9.13138 41.7761   1
  -1  -2 -18-23.3374 51.3148   3
   1   2  19 15.3561 47.0226   1
  -1  -3  18 6.71909 48.3415   4
  -1  -3  18 33.1863 50.8242   1
  -1  -3  17-67.9488 53.3353   1
   1   3 -17 56.4744 52.1081   3
  -1  -3  17-34.4012 47.6234   4
  -1  -3  16-31.8797 49.8231   1
   1   3 -16 73.3742 50.8869   3
  -1  -3  16-13.3046 47.7607   4
  -1  -3  15 145.408 49.4311   1
   1   3 -15 93.4459 48.3926   3
  -1  -3  15 188.841 61.1490   4
   1   3 -14-34.9449 41.1921   3
  -1  -3  14 43.9653 37.8456   4
  -1  -3  13 94.2658 48.6757   4
   1   3 -13 62.7322 39.6273   3
  -1  -3  13 116.241 49.8770   1
  -1  -3  12-30.2249 35.4786   1
  -1  -3  12 20.4230 40.3642   4
   1   3 -12 12.5231 35.1136   3
   1   3 -11 137.589 44.9974   3
  -1  -3  11 175.416 48.5289   1
  -1  -3  11 136.417 46.0227   4
   1   3 -10 1302.48 104.979   3
  -1  -3  10 1331.32 109.941   4
  -1  -3  10 1342.55 99.3148   1
  -1  -3   9 53.6320 30.9815   1
   1   3  -9 127.876 42.9784   3
  -1  -3   9 25.6000 33.0386   4
  -1  -3   8 424.750 61.9472   4
   1   3  -8 349.410 19.0657   2
   1   3  -8 439.484 59.9303   3
  -1  -3   8 455.079 56.1924   1
  -1  -3   7 4.62391 19.7058   1
   1   3  -7 24.1464 7.25852   2
   1   3  -7-14.8367 22.0437   3
   1   3  -7 8.85498 5.79543   2
  -1  -3   7 31.3459 28.8648   4
  -1  -3   6 2061.16 110.574   4
   1   3  -6 2060.28 106.211   3
   1   3  -6 1889.07 42.6322   2
   1   3  -6 1791.24 43.4776   2
  -1  -3   6 1982.84 89.1905   1
  -1  -3   5 488.620 42.3320   1
  -1  -3   5 496.681 25.3533   2
   1   3  -5 552.982 56.3160   3
   1   3  -5 510.866 24.1454   2
  -1  -3   5 456.449 57.4745   4
  -1  -3   4 1106.49 40.2711   2
  -1  -3   4 1132.29 76.7466   4
  -1  -3   4 1111.74 56.1530   1
   1   3  -4 1095.53 72.3449   3
   1   3  -4 1140.06 38.7684   2
  -1  -3   3 69.5914 15.0730   2
   1   3  -3 65.9577 14.7140   2
   1   3  -3 70.3330 29.0303   3
  -1  -3   3 67.0190 25.2637   4
  -1  -3   3 72.5456 18.5872   1
   1   3  -2 6020.23 154.038   3
  -1  -3   2 6102.49 98.0722   1
   1   3  -2 6116.38 105.416   2
  -1  -3   2 5836.06 150.596   4
  -1  -3   1 23733.7 279.983   4
   1   3  -1 23704.9 222.222   2
   1   3  -1 23638.0 291.519   3
  -1  -3   0 345.657 34.3231   4
  -1  -3   0 289.146 16.2139   1
  -1  -3   0 294.440 15.8655   1
   1   3   0 304.321 37.0966   3
   1   3   0 380.224 33.1698   2
  -1  -3  -1 169.781 10.3882   1
  -1  -3  -1 152.569 23.8327   4
   1   3   1 200.922 29.4126   2
   1   3   1 176.740 29.1619   3
  -1  -3  -2 1497.69 61.7093   4
   1   3   2 1490.97 79.4239   3
   1   3   2 1432.53 40.5447   1
  -1  -3  -2 1468.51 37.4117   1
   1   3   2 1487.60 73.3704   2
  -1  -3  -3 215.144 33.7755   3
  -1  -3  -3 174.474 22.8809   4
   1   3   3 173.603 18.8143   1
   1   3   3 185.679 32.1463   2
  -1  -3  -3 217.294 20.2943   1
   1   3   4 2129.30 66.6180   1
  -1  -3  -4 2006.61 95.9976   3
  -1  -3  -4 2135.52 70.5562   4
   1   3   4 2080.50 91.4494   2
   1   3   5 4307.67 139.867   2
  -1  -3  -5 4550.42 102.794   4
   1   3   5 4316.69 106.949   1
  -1  -3  -5 4454.38 143.997   3
  -1  -3  -6 975.641 73.2864   3
  -1  -3  -6 1094.40 50.6614   4
   1   3   6 1138.13 79.3600   2
   1   3   6 1024.52 59.9950   1
   1   3   7 195.602 33.3207   1
  -1  -3  -7 205.971 24.2678   4
  -1  -3  -7 201.050 40.5623   3
   1   3   7 198.477 40.1116   2
   1   3   8 18.3641 20.1220   1
   1   3   8 53.8214 29.9570   2
  -1  -3  -8 67.4615 18.9910   4
  -1  -3  -8-13.2765 27.9423   3
   1   3   9 1951.33 104.439   1
  -1  -3  -9 2067.18 121.693   3
  -1  -3  -9 2205.90 79.7317   4
   1   3   9 2207.01 122.581   2
  -1  -3 -10 38.6640 17.8044   4
   1   3  10-8.60925 24.5441   1
  -1  -3 -10 74.4018 41.0450   3
   1   3  10 8.22610 28.7657   2
   1   3  11 2369.47 135.976   2
   1   3  11 2040.30 120.556   1
  -1  -3 -11 2170.74 89.6656   4
   1   3  12 1440.56 107.093   1
   1   3  12 1651.99 118.582   2
  -1  -3 -12 1430.25 119.580   3
  -1  -3 -13-13.3647 47.4380   3
   1   3  13-56.7897 40.2253   1
   1   3  13 6.06801 34.6586   2
  -1  -3 -14 98.0667 52.9338   3
   1   3  14 6.30765 36.8305   1
   1   3  14 23.1606 34.7085   2
   1   3  15 13.7481 38.7231   2
  -1  -3 -15 45.4201 47.9983   3
   1   3  15-0.99745 35.4140   1
  -1  -3 -16-19.5484 46.4598   3
   1   3  16 2.25553 44.4681   1
   1   3  16-8.01656 41.3153   2
  -1  -3 -17-31.3557 51.8415   3
   1   3  17-17.8929 40.0769   2
   1   3  17-0.68472 40.5898   1
   1   3  18 499.015 90.0523   2
   1   3  18 294.823 71.4703   1
  -1  -3 -18 401.405 94.2889   3
   1   3  19 16.5297 44.4960   1
   1   4 -17 92.0597 58.4741   3
  -1  -4  17-95.1177 61.6749   1
  -1  -4  17 49.9998 53.4797   4
  -1  -4  16-35.1528 44.1102   1
   1   4 -16 41.5252 41.4616   3
  -1  -4  16-35.1177 56.6344   4
  -1  -4  15 80.2706 49.1654   1
   1   4 -15 86.6982 49.4625   3
  -1  -4  15 125.061 52.0115   4
  -1  -4  14-8.05365 40.8277   1
   1   4 -14-20.2022 43.3400   3
  -1  -4  14 111.453 57.4183   4
  -1  -4  13 135.127 50.4397   1
  -1  -4  13 90.3719 49.3858   4
   1   4 -13 48.5117 38.5907   3
  -1  -4  12 606.874 78.6106   1
   1   4 -12 596.173 84.4849   3
  -1  -4  12 609.924 89.1531   4
  -1  -4  11 178.599 46.0428   1
   1   4 -11 276.811 56.8395   3
  -1  -4  11 148.064 45.5065   4
  -1  -4  10 107.349 35.8621   1
   1   4 -10 75.2260 38.0374   3
  -1  -4  10-7.11384 35.6621   4
  -1  -4   9 812.145 77.0635   1
   1   4  -9 834.130 84.6008   3
  -1  -4   9 770.759 85.7842   4
  -1  -4   8 39.9679 30.4642   4
   1   4  -8 59.7423 31.5968   3
  -1  -4   8 80.9368 27.2098   1
  -1  -4   7-13.4417 29.5471   4
  -1  -4   7 39.1652 27.5722   1
   1   4  -7 8.44809 26.7071   3
   1   4  -6 1377.90 96.1010   3
  -1  -4   6 1428.73 78.9807   1
  -1  -4   6 1544.83 105.576   4
   1   4  -5 371.547 21.5647   2
  -1  -4   5 404.179 41.7530   1
  -1  -4   5 281.658 20.1212   2
  -1  -4   5 436.456 56.8135   4
   1   4  -5 326.169 47.2904   3
   1   4  -4 698.571 33.8378   2
  -1  -4   4 711.530 68.4309   4
   1   4  -4 738.152 66.3598   3
  -1  -4   4 704.247 47.9880   1
   1   4  -3 161.701 35.3627   3
   1   4  -3 122.255 18.8777   2
  -1  -4   3 135.969 34.9322   4
  -1  -4   3 139.161 21.0087   1
  -1  -4   2 33849.2 395.559   4
   1   4  -2 32929.7 406.083   3
   1   4  -2 33320.3 281.503   2
  -1  -4   2 33647.4 261.421   1
  -1  -4   1 2203.26 98.7997   4
  -1  -4   1 2306.31 62.8660   1
   1   4  -1 2158.30 104.151   3
   1   4  -1 2152.56 79.0477   2
  -1  -4   0 9643.62 118.279   1
   1   4   0 10139.9 177.301   2
   1   4   0 10564.0 225.042   3
  -1  -4   0 10009.3 187.501   4
  -1  -4   0 10004.7 112.545   1
   1   4   1 590.064 58.1220   3
  -1  -4  -1 637.013 49.3048   4
  -1  -4  -1 494.395 28.1724   1
  -1  -4  -1 536.245 26.3684   1
   1   4   1 532.864 49.1234   2
  -1  -4  -2 1709.43 48.7864   1
  -1  -4  -2 1792.57 75.1767   4
   1   4   2 1621.26 83.3016   2
   1   4   2 1688.89 93.4240   3
   1   4   3 2954.21 78.6322   1
   1   4   3 2935.82 117.319   2
  -1  -4  -3 2997.39 93.9252   4
  -1  -4  -3 3162.22 126.572   3
  -1  -4  -4 841.652 69.6436   3
  -1  -4  -4 877.628 49.6408   4
   1   4   4 875.809 48.0041   1
   1   4   4 765.081 64.1933   2
   1   4   5 847.376 50.8935   1
  -1  -4  -5 889.685 48.8948   4
  -1  -4  -5 807.171 71.7228   3
   1   4   5 814.156 68.6987   2
  -1  -4  -6 2281.03 116.864   3
   1   4   6 2110.10 86.1648   1
   1   4   6 1972.07 110.725   2
  -1  -4  -6 2309.13 74.1711   4
  -1  -4  -7 33.9986 25.6808   3
  -1  -4  -7 3.52841 13.3255   4
   1   4   7 50.8588 35.8950   2
   1   4   7 23.0900 19.3895   1
   1   4   8 35.1025 20.7539   1
  -1  -4  -8 48.3383 33.0035   3
  -1  -4  -8 56.0479 16.3332   4
   1   4   8 59.6054 35.0133   2
   1   4   9 2621.29 140.140   2
  -1  -4  -9 2340.63 135.148   3
   1   4   9 2295.68 112.767   1
  -1  -4  -9 2367.20 73.7466   4
  -1  -4 -10-19.5732 43.2532   3
   1   4  10 28.1391 24.1967   1
   1   4  10 33.9262 39.0805   2
   1   4  11 619.944 79.2611   2
  -1  -4 -11 726.977 85.7383   3
   1   4  11 699.349 71.5042   1
  -1  -4 -12-9.44043 41.3349   3
   1   4  12-13.1796 34.3351   2
   1   4  12 11.1368 27.5547   1
  -1  -4 -13 3.04468 48.0323   3
   1   4  13 55.4986 36.0714   1
   1   4  13 35.6620 36.5632   2
   1   4  14 24.0337 31.9164   1
   1   4  14 5.62394 33.9183   2
  -1  -4 -14 10.9797 44.0673   3
  -1  -4 -15-40.4090 52.8271   3
   1   4  15 27.9177 39.5635   1
   1   4  15 73.9008 51.5621   2
   1   4  16-14.8229 41.1415   1
  -1  -4 -16-62.2283 57.1830   3
  -1  -4 -17 24.1573 62.3349   3
   1   4  17-8.34629 40.8516   1
   1   4  17 5.87009 50.8808   2
   1   4  18-9.25388 47.6060   2
   1   4  18-13.5944 39.9869   1
   1   4  19-9.80321 49.5580   2
  -1  -5  16-67.9881 48.1002   1
  -1  -5  16 7.65752 52.7843   4
   1   5 -16 8.98777 44.3594   3
  -1  -5  15 34.4414 51.2699   4
   1   5 -15-56.8677 49.6783   3
  -1  -5  15-57.6337 49.5684   1
  -1  -5  14 67.9535 50.0864   1
   1   5 -14-1.73687 41.0908   3
  -1  -5  14 127.144 60.3608   4
   1   5 -13 175.831 56.5729   3
  -1  -5  13 91.5518 46.6400   1
  -1  -5  13 228.396 72.5379   4
  -1  -5  12 98.1278 43.4742   1
   1   5 -12 216.631 58.5804   3
  -1  -5  12 141.427 56.1649   4
  -1  -5  11 148.251 57.4005   4
   1   5 -11 290.844 67.8155   3
  -1  -5  11 170.666 47.4397   1
  -1  -5  10-10.9622 37.2193   4
   1   5 -10 22.3923 35.3191   3
  -1  -5  10 67.1254 37.6180   1
  -1  -5   9-16.6568 28.9259   1
  -1  -5   9-36.6253 34.2970   4
   1   5  -9-50.9549 38.2757   3
  -1  -5   8 102.102 33.2947   1
   1   5  -8 109.069 40.2422   3
  -1  -5   8 35.7546 36.2357   4
   1   5  -7 648.202 74.2874   3
  -1  -5   7 529.210 76.2549   4
  -1  -5   7 548.558 55.0428   1
   1   5  -6 11.2325 25.5339   3
  -1  -5   6 57.9189 39.8588   4
  -1  -5   6 47.4327 24.0920   1
   1   5  -5 299.238 22.4164   2
  -1  -5   5 368.362 60.0865   4
   1   5  -5 317.410 52.5371   3
  -1  -5   5 315.503 36.9048   1
   1   5  -4 258.440 24.9075   2
  -1  -5   4 319.085 36.9999   1
   1   5  -4 322.809 52.0613   3
  -1  -5   4 279.420 50.8027   4
  -1  -5   3 66.3426 21.2724   1
   1   5  -3 26.2648 12.3658   2
   1   5  -3 38.9663 27.6969   3
  -1  -5   3 42.2477 30.1743   4
  -1  -5   2 723.934 65.9291   4
   1   5  -2 752.546 68.7226   3
   1   5  -2 842.368 51.1549   2
  -1  -5   2 838.301 47.6685   1
  -1  -5   1 140.452 33.2391   4
   1   5  -1 128.232 26.6111   2
  -1  -5   1 113.575 18.1796   1
   1   5  -1 103.873 33.4299   3
  -1  -5   0 483.096 48.6514   4
   1   5   0 480.243 58.0081   3
  -1  -5   0 503.134 32.2358   1
   1   5   0 541.179 49.1459   2
   1   5   1 51.1236 23.0940   2
  -1  -5  -1 52.2120 19.3144   4
  -1  -5  -1 39.6403 13.9348   1
   1   5   1 1.89892 22.3642   3
   1   5   2 664.123 59.5764   2
   1   5   2 706.807 67.8910   3
  -1  -5  -2 683.158 52.2159   4
   1   5   3 1076.36 77.7048   2
  -1  -5  -3 1141.55 83.9570   3
  -1  -5  -3 1012.22 59.6622   4
  -1  -5  -4 449.518 39.4987   4
   1   5   4 503.167 39.9412   1
   1   5   4 350.271 51.4511   2
  -1  -5  -4 490.650 59.9529   3
   1   5   5 706.533 70.8574   2
  -1  -5  -5 777.057 49.0784   4
  -1  -5  -5 634.637 68.7575   3
   1   5   5 829.491 53.1528   1
   1   5   6 953.937 84.6002   2
  -1  -5  -6 1038.74 88.0199   3
   1   5   6 1126.80 67.4525   1
  -1  -5  -6 1075.53 54.8664   4
  -1  -5  -7 9.76721 12.5818   4
  -1  -5  -7-38.4648 38.3447   3
   1   5   7-27.4604 19.5120   1
   1   5   7-8.75492 28.9203   2
   1   5   8 98.9082 43.2267   2
  -1  -5  -8 78.5717 36.2885   3
   1   5   8 75.6406 27.4263   1
   1   5   9 430.395 67.9804   2
   1   5   9 399.152 51.2957   1
  -1  -5  -9 581.435 72.3421   3
  -1  -5 -10 289.323 62.0132   3
   1   5  10 242.235 56.3081   2
   1   5  10 171.034 39.7733   1
   1   5  11 456.952 72.0376   2
   1   5  11 307.610 51.7436   1
  -1  -5 -11 410.616 70.3721   3
  -1  -5 -12 15.3213 45.2320   3
   1   5  12-18.1250 35.8257   2
   1   5  12-16.0267 25.9233   1
   1   5  13-16.3234 33.8084   1
  -1  -5 -13 79.8176 50.3322   3
   1   5  13 77.6190 53.8606   2
  -1  -5 -14 105.671 61.3411   3
   1   5  14 17.8703 34.4113   1
   1   5  14 88.2120 55.6980   2
   1   5  15 21.0814 44.7548   2
  -1  -5 -15-36.6738 51.4543   3
   1   5  15 27.4892 33.3428   1
  -1  -5 -16-9.66319 55.2556   3
   1   5  16-38.4064 41.0304   1
   1   5  16 46.4830 55.9676   2
   1   5  17 183.536 62.9465   1
   1   5  17 206.007 72.8337   2
  -1  -5 -17 154.805 68.8352   3
   1   5  18 117.078 54.2632   1
   1   5  18 161.360 68.8862   2
  -1  -6  16-31.3811 46.9057   1
  -1  -6  15-36.0826 53.9830   4
  -1  -6  15 11.0230 41.4182   1
   1   6 -15 5.46719 41.0126   3
  -1  -6  14 91.0255 51.5253   1
   1   6 -14 5.11574 45.8409   3
  -1  -6  14 85.0682 62.1965   4
  -1  -6  13-38.2501 44.9376   1
  -1  -6  13 167.318 64.1220   4
   1   6 -13 89.1453 51.1053   3
  -1  -6  12 140.695 50.3638   1
   1   6 -12 134.438 53.9658   3
  -1  -6  12 62.2647 49.6624   4
   1   6 -11 452.962 79.0585   3
  -1  -6  11 536.430 77.8458   1
  -1  -6  11 480.919 87.4059   4
  -1  -6  10 147.491 42.8286   1
   1   6 -10 248.791 57.1667   3
  -1  -6  10 263.135 66.3997   4
   1   6  -9 268.622 58.3937   3
  -1  -6   9 305.296 66.9973   4
  -1  -6   9 298.870 51.7505   1
  -1  -6   8 360.231 68.8544   4
  -1  -6   8 407.899 54.2361   1
   1   6  -8 382.562 65.6008   3
   1   6  -7 47.8728 33.0806   3
  -1  -6   7 49.3156 27.6944   1
  -1  -6   6 1142.22 105.133   4
   1   6  -6 972.202 93.4685   3
  -1  -6   6 1070.89 77.3561   1
   1   6  -5 2.87274 28.8999   3
  -1  -6   5 0.79143 19.7607   1
  -1  -6   5-14.2635 36.2225   4
   1   6  -4 548.183 69.2541   3
  -1  -6   4 485.039 46.9437   1
  -1  -6   4 473.137 64.9663   4
   1   6  -3 445.392 40.3789   2
  -1  -6   3 446.699 42.7324   1
   1   6  -3 450.436 63.3513   3
  -1  -6   3 397.073 57.0005   4
  -1  -6   2 293.088 47.5237   4
   1   6  -2 392.007 41.2500   2
  -1  -6   2 363.451 35.8533   1
   1   6  -2 341.148 55.0456   3
  -1  -6   1 114.738 22.0051   1
   1   6  -1 108.927 26.7694   2
   1   6  -1 91.4590 35.4647   3
  -1  -6   1 120.638 33.4163   4
   1   6   0 333.603 56.9755   3
  -1  -6   0 251.906 28.5717   1
   1   6   0 276.141 41.3169   2
  -1  -6   0 249.537 40.9423   4
   1   6   1 881.575 70.1339   2
   1   6   1 939.265 82.6115   3
  -1  -6  -1 1057.91 52.0686   1
  -1  -6  -1 1067.04 73.5994   4
  -1  -6  -2 28.2062 19.3059   4
   1   6   2-16.0838 21.6621   2
  -1  -6  -3 312.091 54.5499   3
  -1  -6  -3 244.216 36.3088   4
   1   6   3 175.042 40.4376   2
   1   6   4 500.690 61.7300   2
  -1  -6  -4 710.839 75.7701   3
  -1  -6  -4 554.124 47.2177   4
   1   6   5 20.6202 17.2891   1
  -1  -6  -5 26.4665 17.8057   4
   1   6   5 84.5553 39.2554   2
  -1  -6  -5 33.8921 32.7053   3
  -1  -6  -6 90.8184 39.3733   3
   1   6   6 161.374 30.3521   1
   1   6   6 138.335 40.3699   2
  -1  -6  -7 54.3433 36.5196   3
   1   6   7 38.8692 22.8566   1
   1   6   7 6.14803 32.3495   2
   1   6   8 1257.45 107.455   2
  -1  -6  -8 1268.44 108.469   3
   1   6   8 1298.26 85.0094   1
  -1  -6  -9 25.5921 35.4440   3
   1   6   9 33.4698 25.9906   1
   1   6   9 41.4363 39.1321   2
   1   6  10 635.825 68.1252   1
   1   6  10 578.514 84.4716   2
  -1  -6 -10 664.187 87.5511   3
   1   6  11 6.42477 27.7258   1
  -1  -6 -11 73.0081 48.2435   3
   1   6  11 38.8425 44.4929   2
   1   6  12-18.1106 27.3660   1
  -1  -6 -12 72.9504 46.0328   3
  -1  -6 -13-42.3615 57.7413   3
   1   6  13-13.0254 40.3233   2
  -1  -6 -14-34.8296 51.7630   3
   1   6  14 24.9060 45.4242   2
   1   6  15 30.0693 52.6135   2
  -1  -6 -15 118.234 66.4721   3
  -1  -6 -16 67.4403 64.4912   3
   1   6  16 21.5271 43.7293   2
   1   7 -14 232.587 66.4466   3
   1   7 -13 5.53623 39.0532   3
  -1  -7  13-19.5904 53.6856   4
   1   7 -12 61.0379 47.7111   3
  -1  -7  12 0.47806 47.2819   4
   1   7 -11 19.1288 39.5611   3
  -1  -7  11 87.2865 60.3306   4
  -1  -7  10 16.5144 47.9852   4
   1   7 -10-39.8895 42.3038   3
  -1  -7   9 109.214 52.8595   4
   1   7  -9 1.73679 35.9274   3
   1   7  -8 29.8208 37.0685   3
  -1  -7   8-6.80205 37.9660   4
  -1  -7   7 118.760 52.5034   4
   1   7  -7 70.1490 40.0040   3
  -1  -7   6 298.826 64.4207   4
   1   7  -6 252.146 56.3847   3
  -1  -7   5 57.3968 35.9461   4
   1   7  -5 144.372 48.8573   3
  -1  -7   4-46.7273 36.1773   4
   1   7  -4 12.0171 31.9258   3
  -1  -7   3 8.31089 28.0466   4
   1   7  -3 58.7193 37.1814   3
  -1  -7   2 40.3932 33.5137   4
   1   7  -2-17.3395 33.6382   3
   1   7  -2 21.3933 23.1085   2
   1   7  -1 675.438 61.8821   2
   1   7  -1 699.370 79.2952   3
  -1  -7   1 647.783 68.0171   4
  -1  -7   0 93.7590 28.2128   4
   1   7   0 55.9097 25.4405   2
   1   7   1 248.422 48.0310   2
   1   7   1 299.696 57.8919   3
  -1  -7  -1 175.268 35.6091   4
  -1  -7  -2 154.433 41.3935   3
   1   7   2 218.052 46.4744   2
  -1  -7  -2 177.246 35.1389   4
  -1  -7  -3 30.0401 18.8578   4
   1   7   3 16.8869 31.2566   2
  -1  -7  -3 37.3080 34.3441   3
  -1  -7  -4 17.1805 32.5400   3
   1   7   4 38.2953 30.2688   2
  -1  -7  -4 46.4607 22.0713   4
  -1  -7  -5 1199.43 104.366   3
   1   7   5 976.617 94.4336   2
  -1  -7  -6 206.095 55.9689   3
   1   7   6 76.0272 38.7932   2
   1   7   7 72.8867 46.6881   2
  -1  -7  -7 57.7675 40.2743   3
   1   7   8 1278.87 115.746   2
  -1  -7  -8 1314.65 115.699   3
  -1  -7  -9 120.608 48.6766   3
   1   7   9 69.2684 47.5693   2
   1   7  10 57.6090 53.9426   2
  -1  -7 -10-17.9244 40.7657   3
  -1  -7 -11-64.4368 45.6004   3
   1   7  11-1.26040 40.8789   2
   1   7  12 127.104 58.0195   2
  -1  -7 -12 50.8105 43.7534   3
  -1  -7 -13 13.1433 51.0301   3
   1   7  13 32.4932 49.2598   2
  -1  -7 -14-37.7696 51.8056   3
   1   7  14 74.3827 58.8603   2
  -1  -7 -15-17.5647 54.7860   3
   1   7  15 48.4877 49.2398   2
   1   8 -12 194.301 65.6867   3
   1   8 -11-83.5900 54.1205   3
  -1  -8  11-25.3995 52.1689   4
  -1  -8  10 147.964 66.8112   4
   1   8 -10 219.656 67.8223   3
  -1  -8   9 28.4722 46.0270   4
   1   8  -9 138.291 58.2619   3
   1   8  -8 135.889 52.8426   3
  -1  -8   8 185.987 59.3508   4
  -1  -8   7 153.912 54.6677   4
   1   8  -7 156.187 54.8275   3
   1   8  -6-7.56123 32.4633   3
  -1  -8   6 11.1894 39.0758   4
  -1  -8   5 94.1621 45.6612   4
   1   8  -5 202.769 56.1180   3
  -1  -8   4 280.490 59.6367   4
   1   8  -4 275.667 63.5628   3
  -1  -8   3 12.2692 30.1565   4
   1   8  -3 2.29342 32.0814   3
  -1  -8   2 199.856 48.6693   4
   1   8  -2 169.340 47.8078   3
   1   8  -1 314.654 63.2740   3
  -1  -8   1 214.689 47.3615   4
   1   8   0 226.256 52.6270   3
   1   8   0 210.264 44.6775   2
  -1  -8   0 158.543 39.6560   4
   1   8   1 266.228 51.1033   2
  -1  -8  -1 246.455 45.9566   4
  -1  -8  -2 397.036 68.3296   3
  -1  -8  -2 301.253 47.9421   4
   1   8   2 222.342 46.7239   2
  -1  -8  -3 146.432 44.7824   3
   1   8   3 148.963 44.8368   2
  -1  -8  -4 290.791 61.8742   3
   1   8   4 158.243 47.6715   2
  -1  -8  -5 51.7697 32.8851   3
   1   8   5 7.77383 35.2621   2
   1   8   6 198.767 55.5780   2
  -1  -8  -6 347.034 67.8206   3
   1   8   7 9.10155 35.0248   2
  -1  -8  -7 124.700 49.0810   3
  -1  -8  -8 175.189 56.9240   3
   1   8   8 58.2599 47.5957   2
  -1  -8  -9 89.6743 46.8153   3
   1   8   9 57.8855 45.9738   2
  -1  -8 -10-42.7810 49.1412   3
   1   8  10 4.30807 40.2768   2
   1   8  11 95.5798 55.3325   2
  -1  -8 -11 38.0709 42.2196   3
  -1  -8 -12-41.0067 54.1071   3
   1   8  12-43.6161 55.9164   2
  -1  -8 -13-124.653 64.4220   3
   1   8  13 26.5758 51.9407   2
   1   9 -10 3.79464 43.3728   3
   1   9  -9 43.7582 48.3453   3
  -1  -9   9-49.2370 46.7073   4
   1   9  -8-21.6993 45.4563   3
  -1  -9   8 0.67153 44.3554   4
   1   9  -7 190.751 60.8871   3
  -1  -9   7 146.527 57.4458   4
   1   9  -6 120.971 52.4089   3
  -1  -9   6 94.8275 54.3218   4
  -1  -9   5 50.7876 50.5337   4
   1   9  -5-0.18983 36.7567   3
   1   9  -4 9.87274 41.2883   3
  -1  -9   4 33.0770 41.4816   4
   1   9  -3 46.2185 39.9740   3
  -1  -9   3-2.97180 33.8608   4
   1   9  -2 455.081 76.8769   3
  -1  -9   2 407.259 67.4529   4
   1   9  -1 184.817 54.5430   3
  -1  -9   1 126.112 42.2159   4
  -1  -9   0-1.05779 26.5188   4
  -1  -9  -1 83.8122 43.2023   3
  -1  -9  -2 19.3524 36.0950   3
   1   9   2-10.4036 33.9571   2
   1   9   3 74.2669 43.1011   2
  -1  -9  -3 41.2262 37.2585   3
  -1  -9  -4 170.786 57.5421   3
   1   9   4 219.268 60.9751   2
  -1  -9  -5 453.995 80.1751   3
   1   9   5 358.897 71.3009   2
  -1  -9  -6 63.2463 36.2738   3
   1   9   6 139.499 53.5604   2
  -1  -9  -7 537.804 88.2904   3
   1   9   7 316.067 73.2348   2
   1   9   8 110.299 50.7061   2
  -1  -9  -8 25.7358 44.9659   3
   1   9   9 70.7563 47.1538   2
  -1  -9  -9 110.391 58.1710   3
  -1  -9 -10 34.6671 48.9767   3
   1   9  10 45.4861 46.8936   2
  -1  -9 -11 68.0988 55.9377   3
   1   9  11 19.1636 45.7402   2
  -1  -9 -12 108.464 63.5520   3
  -1 -10   7 4.42522 44.4392   4
  -1 -10   6-7.60440 42.3757   4
   1  10  -6 126.170 60.0906   3
  -1 -10   5 91.8083 50.7981   4
   1  10  -5 116.887 53.0472   3
  -1 -10   4 58.6549 44.1150   4
   1  10  -4 98.8260 53.6941   3
  -1 -10   3 18.7276 41.6853   4
   1  10  -3 4.04729 41.0498   3
   1  10  -2 8.94944 36.5334   3
  -1 -10   0 236.533 65.5757   3
  -1 -10  -1 74.8587 46.5259   3
  -1 -10  -2 139.121 52.4466   3
  -1 -10  -3 34.1723 37.5961   3
   1  10   4 58.6409 45.4056   2
  -1 -10  -4 88.4115 50.2680   3
  -1 -10  -5 134.301 54.7324   3
   1  10   5 74.0522 50.4382   2
   1  10   6 58.5941 51.7758   2
  -1 -10  -6-64.1278 51.7127   3
   1  10   7 53.0575 46.3360   2
  -1 -10  -7 74.3923 59.5357   3
  -1 -10  -8-7.56208 49.4616   3
   1  10   8 30.0224 53.8766   2
  -1 -10  -9-9.91818 44.7481   3
   2 -10  -7-12.6231 47.2348   2
   2 -10  -6 17.4049 44.0038   2
   2 -10  -5 82.9165 49.1050   2
   2 -10  -4-82.0074 52.4770   2
  -2  10  -7 108.308 57.4790   4
   2  -9 -10-36.9645 55.5113   2
   2  -9  -9 109.344 60.5263   2
   2  -9  -8 37.7805 47.2816   2
   2  -9  -7 60.0737 51.4029   2
   2  -9  -6 70.4477 45.2674   2
   2  -9  -5 5.44771 42.6949   2
  -2   9   4-60.7876 63.2405   1
   2  -9  -4 6.33610 37.4657   2
   2  -9  -3-1.83271 35.4978   2
   2  -9  -2 21.2287 35.9464   2
   2  -9  -1 237.054 56.0863   1
   2  -9   0 196.540 50.7781   1
   2  -9   1 137.843 47.6452   1
   2  -9   2 98.0817 43.2926   1
  -2   9  -3-42.0977 43.4424   4
   2  -9   3-43.7226 41.3576   1
  -2   9  -4-25.7442 39.5609   4
   2  -9   4 2.89981 35.1821   1
  -2   9  -5-36.3835 42.1359   4
   2  -9   5 29.3897 39.3026   1
  -2   9  -6-1.70541 42.0416   4
   2  -9   6 119.737 52.3692   1
  -2   9  -7 89.3649 53.1747   4
   2  -9   7 78.1036 49.7827   1
  -2   9  -8 102.634 59.6635   4
   2  -9   8 65.7759 50.9284   1
  -2   9  -9 30.7362 54.0818   4
   2  -9   9 35.1750 44.0887   1
  -2   8  13-6.00188 43.1960   1
   2  -8 -12 22.0607 52.5105   2
  -2   8  12 72.9115 50.5198   1
  -2   8  11 92.3092 53.1744   1
   2  -8 -11 83.8207 55.4687   2
  -2   8  10 72.6323 45.5312   1
   2  -8 -10 22.8503 44.7355   2
   2  -8  -9 324.628 78.4177   2
  -2   8   9 350.291 75.6019   1
   2  -8  -8 44.8632 44.5539   2
  -2   8   8-22.5038 39.1792   1
  -2   8   7 49.6592 49.8822   1
   2  -8  -7 93.7348 50.7561   2
   2  -8  -6 212.725 59.8190   2
   2  -8  -5 56.8210 39.7449   2
   2  -8  -4-13.5882 35.8161   2
  -2   8   4 23.9211 48.1945   1
   2  -8  -3 374.292 66.8975   2
  -2   8   2-71.0296 60.9903   1
   2  -8  -2 19.9342 36.7185   2
   2  -8  -1 326.150 55.1678   2
   2  -8   0 32.1470 28.6395   2
  -2   8  -1 257.389 51.2741   4
   2  -8   1 344.452 60.3203   1
   2  -8   2-40.6586 37.7445   1
  -2   8  -2-64.3562 37.8783   4
  -2   8  -3 458.439 73.6972   4
   2  -8   3 433.489 68.4645   1
   2  -8   4 228.201 54.4042   1
  -2   8  -4 217.790 60.4871   4
  -2   8  -5 82.3273 46.7886   4
   2  -8   5 7.10600 35.9110   1
   2  -8   6 427.773 74.1857   1
  -2   8  -6 423.631 79.9524   4
  -2   8  -7 33.1119 44.4741   4
   2  -8   7 2.11672 36.1268   1
  -2   8  -8-64.2610 52.8420   4
   2  -8   8 16.7126 43.6349   1
  -2   8  -9-122.986 60.8063   4
   2  -8   9-26.3636 40.3183   1
  -2   8 -10-2.91994 50.5967   4
   2  -8  10-13.5885 43.0279   1
  -2   8 -11 29.2448 52.0462   4
   2  -8  11 64.1345 52.7991   1
   2  -8  12 31.2755 49.5658   1
  -2   7  15 25.2192 48.6498   1
   2  -7 -15 45.9538 55.2408   3
  -2   7  14 25.9204 42.3313   1
   2  -7 -14-67.6758 56.0151   3
  -2   7  13 82.2216 52.4908   1
   2  -7 -13 36.6994 48.1540   3
   2  -7 -13-24.2448 53.3240   2
   2  -7 -12-0.50939 42.2629   3
  -2   7  12 20.7138 42.6626   1
   2  -7 -12-27.4686 46.0679   2
   2  -7 -11 55.7262 49.7461   3
  -2   7  11 15.6859 39.9148   1
   2  -7 -11 42.0798 44.1436   2
  -2   7  10 91.8713 46.2854   1
   2  -7 -10 165.078 53.6332   3
   2  -7 -10 129.163 58.2093   2
  -2   7   9 176.735 56.1234   1
   2  -7  -9 124.682 41.4617   3
   2  -7  -9 182.067 60.6599   2
  -2   7   8 150.210 48.8703   1
   2  -7  -8 167.679 62.9950   2
   2  -7  -8 121.913 43.1804   3
   2  -7  -7 429.709 58.6332   3
  -2   7   7 430.926 68.9523   1
   2  -7  -7 546.902 82.5573   2
   2  -7  -6 73.1591 33.8701   3
  -2   7   6 43.6618 34.5404   1
   2  -7  -6 72.6208 48.6480   2
   2  -7  -5 113.460 39.9329   2
   2  -7  -4 433.836 69.2875   2
   2  -7  -3 82.2536 41.3590   2
   2  -7  -2 472.955 65.0789   2
  -2   7   1 70.2463 28.6305   4
   2  -7  -1 19.6719 27.5481   2
   2  -7   0 501.039 60.8235   2
  -2   7   0 509.321 60.2884   4
  -2   7  -1 442.591 61.5814   4
   2  -7   1 339.002 48.5103   2
   2  -7   1 446.649 69.0035   1
   2  -7   2-35.7971 25.9548   2
  -2   7  -2 13.6680 29.5426   4
   2  -7   3 381.456 65.0112   1
  -2   7  -3 268.131 53.2036   4
  -2   7  -4 118.401 46.4749   4
   2  -7   4 305.671 60.9054   1
   2  -7   5-58.8404 40.5414   1
  -2   7  -5 33.8270 36.4793   4
  -2   7  -6 414.847 69.2593   4
   2  -7   6 379.408 66.5732   1
   2  -7   7 23.8253 36.5070   1
  -2   7  -7-41.4943 46.6874   4
  -2   7  -8 319.366 74.5331   4
   2  -7   8 382.017 72.9354   1
  -2   7  -9 267.657 68.7798   4
   2  -7   9 264.690 64.7964   1
   2  -7  10 44.3458 50.0062   1
  -2   7 -10-113.458 56.8491   4
  -2   7 -11 313.180 77.2709   4
   2  -7  11 416.899 80.7509   1
  -2   7 -12-34.7096 55.8538   4
   2  -7  12-24.8584 47.5763   1
  -2   7 -13 108.437 65.6092   4
   2  -7  13 11.0934 43.2157   1
  -2   6  16-24.6151 52.4791   1
   2  -6 -16-68.7904 60.2914   3
  -2   6  15 48.9429 50.7731   1
   2  -6 -15 4.86647 50.5691   3
   2  -6 -15 14.1092 49.0834   2
   2  -6 -14 15.1576 44.2134   3
  -2   6  14 61.5336 46.5210   1
   2  -6 -14 45.7259 52.4521   2
   2  -6 -13 22.7997 46.6763   3
   2  -6 -13-28.6593 44.8242   2
  -2   6  13 4.16175 37.0030   1
   2  -6 -12 48.9954 43.8582   2
  -2   6  12 20.6977 34.7383   1
   2  -6 -12 114.959 50.5750   3
   2  -6 -11 148.044 54.5268   2
   2  -6 -11 152.905 52.8416   3
  -2   6  11 80.8215 40.2751   1
   2  -6 -10 65.6674 42.0616   3
   2  -6 -10 143.794 58.5768   2
  -2   6  10 69.0293 37.1996   1
   2  -6  -9-14.4153 35.3866   3
   2  -6  -9 9.49329 38.1392   2
  -2   6   9-13.0036 44.7746   1
   2  -6  -8 47.6300 50.1506   2
  -2   6   8 36.1627 35.0133   1
   2  -6  -8 41.3411 32.8983   3
   2  -6  -7 532.827 62.7651   3
   2  -6  -7 561.499 80.8711   2
  -2   6   7 483.181 69.0797   1
   2  -6  -6 148.665 35.6946   3
  -2   6   6 205.317 50.1379   1
   2  -6  -6 84.9123 41.7626   2
   2  -6  -5 441.240 52.1612   3
  -2   6   5 457.531 65.8886   1
   2  -6  -5 339.098 58.3682   2
  -2   6   4 293.494 67.4747   1
   2  -6  -4 485.186 63.1478   2
   2  -6  -4 506.658 52.3294   3
   2  -6  -3 454.936 64.5072   2
  -2   6   3 401.144 40.6623   4
   2  -6  -3 406.516 42.6090   3
   2  -6  -2 269.239 34.3582   3
  -2   6   2 276.725 37.7954   4
   2  -6  -2 346.543 52.6047   2
  -2   6   1 107.727 29.8629   4
   2  -6  -1 120.439 25.2426   3
   2  -6  -1 143.043 34.9241   2
   2  -6   0 906.488 56.5584   3
  -2   6   0 711.261 65.2766   4
   2  -6   0 820.819 70.5012   2
  -2   6  -1 1249.65 87.9845   4
   2  -6   1 1437.67 70.5617   3
   2  -6   1 1329.61 83.5710   2
  -2   6  -2 2257.10 124.644   4
   2  -6   2 2573.73 138.585   1
   2  -6   2 2360.41 107.522   2
   2  -6   3 3745.32 170.846   1
   2  -6   3 3695.17 130.127   2
  -2   6  -3 3571.81 162.813   4
   2  -6   4 151.864 28.9505   2
  -2   6  -4 166.726 47.3682   4
   2  -6   4 205.944 48.9672   1
  -2   6  -5 434.172 69.0230   4
   2  -6   5 536.758 70.5790   1
  -2   6  -6 25.4687 34.0477   4
   2  -6   6 84.1486 43.8378   1
  -2   6  -7 53.3336 37.8453   4
   2  -6   7 36.1698 36.1939   1
  -2   6  -8 5.02969 38.1765   4
   2  -6   8-44.7968 42.8310   1
  -2   6  -9 180.938 54.2819   4
   2  -6   9 330.965 69.2398   1
  -2   6 -10 40.7957 41.7132   4
   2  -6  10 44.2653 39.7500   1
   2  -6  11-31.1223 39.4130   1
  -2   6 -11 32.4231 39.5539   4
  -2   6 -12 106.266 52.2720   4
   2  -6  12 139.041 57.4726   1
  -2   6 -13 26.4372 45.0907   4
   2  -6  13-14.6249 48.7866   1
  -2   6 -14 101.177 59.3911   4
   2  -6  14 50.2957 54.3338   1
   2  -6  15 83.4603 59.9996   1
   2  -5 -17 20.5838 48.3967   3
  -2   5  16-72.5309 56.5908   1
   2  -5 -16 52.5417 55.9059   3
   2  -5 -16 11.5070 53.0170   2
  -2   5  15 72.5774 56.5595   1
   2  -5 -15-6.66704 44.5882   3
   2  -5 -15 18.0663 48.8662   2
  -2   5  14 79.9966 53.6527   1
   2  -5 -14 10.8247 40.7945   3
   2  -5 -14 127.321 64.1783   2
  -2   5  13-47.5537 41.5286   1
   2  -5 -13-25.1211 43.0702   3
   2  -5 -13-37.3304 49.2798   2
  -2   5  12-6.23702 34.1823   1
   2  -5 -12 85.9124 46.9975   3
   2  -5 -12 37.1130 50.7107   2
   2  -5 -11 15.5439 36.3641   3
  -2   5  11 32.3124 35.5330   1
   2  -5 -11 23.1564 40.3269   2
  -2   5  10 252.113 54.7894   1
   2  -5 -10 310.388 58.9398   3
   2  -5 -10 238.462 62.1099   2
   2  -5  -9 143.517 49.4665   2
  -2   5   9 177.322 49.9092   1
   2  -5  -9 67.2973 37.1844   3
   2  -5  -8 736.223 73.8983   3
  -2   5   8 618.796 75.2763   1
   2  -5  -8 711.896 90.0843   2
   2  -5  -7 573.591 61.3040   3
  -2   5   7 494.454 68.6845   1
   2  -5  -7 543.946 76.0298   2
   2  -5  -6-13.8125 24.6100   3
  -2   5   6-20.2929 29.4096   1
   2  -5  -6-3.00766 30.9318   2
   2  -5  -5 1786.86 88.6854   3
  -2   5   5 1551.97 108.359   1
   2  -5  -5 1648.61 112.335   2
  -2   5   4-0.94341 13.1135   4
   2  -5  -4 3.85371 19.9214   3
  -2   5   4-17.8206 26.8605   1
   2  -5  -4 46.8045 32.1714   2
   2  -5  -3 522.166 44.6599   3
  -2   5   3 487.924 62.5193   1
  -2   5   3 522.590 41.5655   4
   2  -5  -3 574.262 67.4856   2
   2  -5  -2 740.095 48.6942   3
  -2   5   2 907.707 58.9839   4
   2  -5  -2 753.454 68.9611   2
   2  -5  -1 993.119 52.2107   3
   2  -5  -1 911.575 71.5990   2
  -2   5   1 938.233 64.4342   4
  -2   5   0 1830.14 96.0740   4
   2  -5   0 1688.27 90.9279   2
   2  -5   0 1898.63 68.2205   3
   2  -5   1 10.1272 13.7057   3
  -2   5  -1-34.4939 28.6279   4
   2  -5   1 21.4317 24.9635   2
   2  -5   2 8869.36 192.428   2
  -2   5  -2 9208.03 151.585   3
  -2   5  -2 8782.34 228.211   4
  -2   5  -3 1717.58 108.143   4
  -2   5  -3 1999.06 76.9217   3
   2  -5   3 1859.46 85.5748   2
   2  -5   3 1959.46 116.474   1
   2  -5   4 199.601 42.0423   1
  -2   5  -4 176.356 27.3999   3
  -2   5  -4 131.671 41.6916   4
   2  -5   4 157.935 27.6406   2
  -2   5  -5 745.302 53.5335   3
   2  -5   5 698.965 49.7831   2
  -2   5  -5 643.098 74.8530   4
   2  -5   5 778.573 78.7223   1
  -2   5  -6 751.196 56.9406   3
   2  -5   6 800.317 81.8792   1
  -2   5  -6 777.707 83.8814   4
  -2   5  -7 217.431 37.5031   3
  -2   5  -7 260.287 57.5613   4
   2  -5   7 169.950 45.8565   1
  -2   5  -8 145.478 46.8301   4
  -2   5  -8 150.996 34.7876   3
   2  -5   8 259.772 56.4653   1
  -2   5  -9 283.196 62.0706   4
  -2   5  -9 282.342 46.6054   3
   2  -5   9 293.564 65.8058   1
  -2   5 -10 358.878 52.6824   3
   2  -5  10 549.477 82.7860   1
  -2   5 -10 423.526 77.6017   4
   2  -5  11-0.59688 37.3584   1
  -2   5 -11 18.5977 26.2615   3
  -2   5 -11-32.6008 42.0355   4
  -2   5 -12 421.641 80.7785   4
   2  -5  12 484.467 88.4917   1
  -2   5 -13 75.2538 51.6795   4
   2  -5  13 76.5497 56.0078   1
  -2   5 -14 56.1723 52.9020   4
   2  -5  14 132.375 60.9117   1
  -2   5 -15 72.0901 56.6506   4
   2  -5  15 31.1047 50.2542   1
   2  -5  16 83.1315 61.1722   1
  -2   5 -16 1.28831 53.7488   4
   2  -4 -18-30.5207 49.5439   2
  -2   4  17 10.9000 41.9312   1
   2  -4 -17 19.8164 49.0486   3
   2  -4 -17-0.69436 46.4259   2
  -2   4  16 183.635 66.0621   1
   2  -4 -16 188.268 70.0338   3
   2  -4 -16 102.283 56.0447   2
  -2   4  15-70.3122 52.7839   1
   2  -4 -15 83.2141 52.2490   3
   2  -4 -15 2.05162 46.2061   2
   2  -4 -14 112.240 50.0318   3
  -2   4  14 97.8563 50.7891   1
   2  -4 -14-24.1670 52.7425   2
   2  -4 -13 41.6754 38.5600   3
  -2   4  13 27.7527 38.5960   1
   2  -4 -13 56.2007 45.7707   2
  -2   4  12 167.024 54.6517   1
   2  -4 -12 73.9891 42.6292   3
   2  -4 -12 97.6891 49.3717   2
  -2   4  11 579.895 82.2226   1
   2  -4 -11 566.050 75.3862   3
   2  -4 -11 395.590 75.5289   2
   2  -4 -10 483.283 74.2205   2
   2  -4 -10 400.470 62.2547   3
  -2   4  10 470.505 71.8626   1
   2  -4  -9 963.832 84.7559   3
  -2   4   9 974.851 95.0891   1
   2  -4  -9 1081.33 104.098   2
   2  -4  -8 35.7654 30.1603   3
  -2   4   8-1.34394 26.7386   1
   2  -4  -8 35.0776 37.1298   2
   2  -4  -7 1891.28 122.546   2
  -2   4   7 1628.61 109.982   1
   2  -4  -7 1686.49 94.9879   3
   2  -4  -6 33.2224 32.8627   2
   2  -4  -6 56.4896 28.3190   3
  -2   4   6 58.7881 32.4276   1
  -2   4   6 14.4209 6.10452   4
  -2   4   5 103.278 15.5495   4
  -2   4   5 73.9577 31.2918   1
   2  -4  -5 103.593 28.8218   3
   2  -4  -5 146.848 43.8666   2
   2  -4  -4 221.787 44.3937   2
  -2   4   4 192.033 41.0647   1
   2  -4  -4 179.007 27.4723   3
  -2   4   4 161.570 19.1235   4
  -2   4   3 494.079 36.8083   4
  -2   4   3 399.424 53.1895   1
   2  -4  -3 495.191 55.9726   2
   2  -4  -3 508.313 39.4474   3
  -2   4   2 102.431 24.1007   4
   2  -4  -2 100.356 19.3430   3
  -2   4   2 179.184 42.0838   1
   2  -4  -2 66.5965 27.2675   2
   2  -4  -1 2068.14 61.1424   3
   2  -4  -1 2063.26 99.3643   2
  -2   4   1 2087.84 85.9095   4
   2  -4   0 1306.84 45.3574   3
   2  -4   0 1061.89 41.3385   3
   2  -4   0 1236.18 73.8307   2
  -2   4   0 1097.73 67.4853   4
   2  -4   1 2370.99 58.2174   3
   2  -4   1 2569.03 100.951   2
  -2   4  -1 2662.33 109.127   4
   2  -4   1 2587.38 62.0268   3
   2  -4   2 10607.4 129.504   3
  -2   4  -2 10798.6 132.741   3
  -2   4  -2 10825.5 229.627   4
   2  -4   2 10700.6 198.605   2
   2  -4   3 948.461 80.4150   1
  -2   4  -3 816.548 41.6348   3
   2  -4   3 831.028 54.6610   2
  -2   4  -3 847.772 71.3642   4
  -2   4  -4 556.678 38.8507   3
   2  -4   4 497.669 60.2719   1
   2  -4   4 448.824 39.5319   2
  -2   4  -4 467.533 58.6812   4
  -2   4  -5 632.680 45.4366   3
   2  -4   5 573.423 65.1096   1
  -2   4  -5 509.738 63.9110   4
   2  -4   5 616.444 43.8221   2
   2  -4   6 111.497 22.7789   2
   2  -4   6 89.1626 38.4701   1
  -2   4  -6 91.9594 24.9835   3
  -2   4  -6 23.1725 30.1420   4
   2  -4   7 132.021 23.0670   2
  -2   4  -7 121.511 40.4951   4
  -2   4  -7 161.737 32.8750   3
   2  -4   7 70.0368 34.6197   1
  -2   4  -8 910.424 68.5336   3
   2  -4   8 796.469 85.0728   1
  -2   4  -8 839.281 90.7670   4
  -2   4  -9 151.872 49.7194   4
  -2   4  -9 182.176 36.4983   3
   2  -4   9 234.459 52.6362   1
  -2   4 -10-32.3096 38.5364   4
   2  -4  10 40.2546 38.2958   1
  -2   4 -10 1.19035 22.7774   3
  -2   4 -11 592.493 65.7446   3
  -2   4 -11 603.741 87.6842   4
   2  -4  11 442.850 73.9949   1
  -2   4 -12 4.69450 37.9307   4
  -2   4 -12 25.6653 27.9367   3
   2  -4  12-10.4962 37.2763   1
  -2   4 -13-9.54108 40.3858   4
  -2   4 -13-58.0787 35.1554   3
   2  -4  13 34.0558 44.8973   1
  -2   4 -14 11.9099 36.5395   3
  -2   4 -14 75.1859 50.0130   4
   2  -4  14 29.5917 45.6126   1
  -2   4 -15 174.260 63.2309   4
  -2   4 -15 122.688 49.4355   3
   2  -4  15 114.935 58.3180   1
  -2   4 -16 3.73389 44.9367   4
   2  -4  16-38.9165 55.0057   1
  -2   4 -17 50.2645 57.2956   4
   2  -3 -18 50.7330 58.7244   3
   2  -3 -18-30.4444 44.9201   2
   2  -3 -17-72.0858 62.8619   3
   2  -3 -17 56.4028 44.8304   2
  -2   3  17 47.1666 40.0157   1
   2  -3 -16-13.2459 41.3191   3
   2  -3 -16 1.58762 39.9663   2
  -2   3  16-31.8786 49.0075   1
   2  -3 -15-71.3381 49.9884   3
   2  -3 -15 43.5397 44.6450   2
  -2   3  15-56.8976 49.0976   1
   2  -3 -14 43.6047 49.0415   3
   2  -3 -14 25.8776 36.6986   2
  -2   3  14-0.97764 36.4507   1
   2  -3 -13-21.2862 42.2193   3
   2  -3 -13 51.0568 38.7365   2
  -2   3  13-26.8441 32.2924   1
   2  -3 -12 36.5694 41.1868   3
   2  -3 -12 19.3948 33.1959   2
  -2   3  12 60.0278 39.0713   1
   2  -3 -11 141.300 50.5599   2
   2  -3 -11 136.009 42.6135   3
  -2   3  11 70.4710 40.1579   1
   2  -3 -10 33.1290 36.5850   3
  -2   3  10 7.31530 33.6566   1
   2  -3 -10 13.9151 32.4084   2
  -2   3   9 406.028 61.6315   1
   2  -3  -9 344.534 51.3947   3
   2  -3  -9 340.740 57.8882   2
   2  -3  -8 296.524 47.8062   3
  -2   3   8 186.288 19.5228   4
  -2   3   8 244.984 52.0604   1
   2  -3  -8 255.587 48.7450   2
  -2   3   7 9.72798 29.9978   1
   2  -3  -7 42.2901 31.6122   3
   2  -3  -7-3.61041 27.3126   2
  -2   3   7 3.09951 7.72873   4
   2  -3  -6 1504.29 81.8981   3
  -2   3   6 1334.29 89.6677   1
   2  -3  -6 1348.50 49.2576   4
  -2   3   6 1313.05 46.2655   4
   2  -3  -6 1117.15 88.5821   2
   2  -3  -5 58.7023 22.4994   3
   2  -3  -5 43.2108 30.4987   2
  -2   3   5 89.8519 32.8244   1
  -2   3   5 39.9937 13.4194   4
   2  -3  -4 933.596 55.1487   3
  -2   3   4 1110.40 78.2657   1
   2  -3  -4 974.880 75.1558   2
  -2   3   4 968.829 44.3261   4
   2  -3  -3 3013.79 124.867   2
   2  -3  -3 3020.67 85.4069   3
  -2   3   3 3133.40 129.355   1
  -2   3   3 3096.77 83.4355   4
   2  -3  -2 1080.92 45.0983   3
  -2   3   2 1155.32 80.5435   1
  -2   3   2 1140.13 56.0778   4
   2  -3  -2 1138.09 74.1458   2
  -2   3   1 1752.33 73.4940   4
   2  -3  -1 1631.30 44.7417   3
   2  -3  -1 1527.71 43.3337   3
   2  -3  -1 1748.93 88.1135   2
  -2   3   0 98.5806 25.7528   4
   2  -3   0 76.4691 28.8757   2
   2  -3   0 65.4969 7.61134   3
   2  -3   0 93.8898 9.05927   3
  -2   3  -1 25379.6 305.640   4
   2  -3   1 25559.9 293.547   2
  -2   3  -2 5579.26 70.7817   3
   2  -3   2 5716.24 67.2490   3
  -2   3  -2 5797.93 157.089   4
   2  -3   2 5935.97 137.278   2
   2  -3   3 1556.28 46.4174   3
  -2   3  -3 1548.68 46.4373   3
   2  -3   3 1462.12 69.4561   2
  -2   3  -3 1494.78 85.1839   4
   2  -3   3 1826.14 100.259   1
  -2   3  -4 279.905 41.9367   4
   2  -3   4 268.344 45.0518   1
   2  -3   4 331.541 33.9495   2
  -2   3  -4 297.583 25.8100   3
  -2   3  -5 3190.79 91.5953   3
  -2   3  -5 2705.88 127.238   4
   2  -3   5 2892.54 90.5494   2
   2  -3   5 2940.20 132.751   1
   2  -3   6 116.670 22.4371   2
   2  -3   6 189.919 43.7880   1
  -2   3  -6 120.054 35.0051   4
  -2   3  -6 112.388 22.9448   3
   2  -3   7 42.3145 16.4827   2
  -2   3  -7 71.4851 23.1352   3
   2  -3   7 81.7404 32.9586   1
  -2   3  -7 22.7123 27.9457   4
  -2   3  -8 1742.58 88.7279   3
  -2   3  -8 1756.92 118.205   4
   2  -3   8 1588.27 110.258   1
   2  -3   8 1682.85 66.0362   2
  -2   3  -9-21.1835 23.9856   3
   2  -3   9 19.6633 30.8683   1
   2  -3   9 10.3963 15.8487   2
  -2   3  -9-34.8966 36.1243   4
  -2   3 -10 202.634 53.5191   4
  -2   3 -10 151.588 35.5051   3
   2  -3  10 73.8787 41.0663   1
  -2   3 -11 329.656 62.0877   4
  -2   3 -11 309.292 53.4180   3
   2  -3  11 315.642 62.3856   1
  -2   3 -12 1642.06 132.020   4
   2  -3  12 1426.93 121.083   1
  -2   3 -12 1560.15 110.127   3
  -2   3 -13-18.6425 40.0778   4
  -2   3 -13 10.3214 29.1289   3
   2  -3  13-42.2518 40.2812   1
  -2   3 -14 371.087 74.0877   4
   2  -3  14 326.219 69.8806   1
  -2   3 -14 378.421 65.6983   3
  -2   3 -15 91.6944 42.7301   3
  -2   3 -15 57.0665 48.2400   4
   2  -3  15 136.937 57.3232   1
  -2   3 -16 16.9467 39.1441   3
  -2   3 -16-8.20545 45.2234   4
   2  -3  16-13.9796 44.0673   1
  -2   3 -17 28.0085 48.1313   4
  -2   3 -17-8.60075 37.5796   3
   2  -3  17 4.85781 49.9241   1
  -2   3 -18 36.0613 50.0196   4
  -2   3 -18-28.6336 46.3715   3
   2  -2 -18 185.064 75.1590   3
  -2   2  18 52.5702 52.0023   1
  -2   2  17 88.0234 54.9892   1
   2  -2 -17-54.3911 57.0267   3
   2  -2 -17 56.8058 45.8569   2
  -2   2  16-31.3161 37.6964   1
   2  -2 -16 14.5144 48.1366   3
   2  -2 -16 56.6543 51.4251   2
  -2   2  15 16.2205 46.6419   1
   2  -2 -15-17.8558 39.9583   3
   2  -2 -15 66.5267 45.0521   2
  -2   2  14 163.591 52.7537   1
   2  -2 -14 126.959 56.0565   3
   2  -2 -14 117.425 48.6632   2
  -2   2  13 77.1937 45.3363   1
   2  -2 -13 86.5488 42.4931   3
   2  -2 -13 57.0076 35.3280   2
   2  -2 -12 1485.82 116.566   3
  -2   2  12 1565.48 126.200   1
   2  -2 -12 1580.14 118.266   2
  -2   2  11 764.553 84.4591   1
   2  -2 -11 707.301 75.6421   3
   2  -2 -11 621.980 76.4476   2
  -2   2  10 4364.24 186.460   1
   2  -2 -10 4678.58 188.498   2
  -2   2  10 4886.36 125.790   4
   2  -2 -10 4885.41 183.665   3
   2  -2  -9 184.870 42.7970   3
  -2   2   9 114.785 22.0716   4
  -2   2   9 96.8605 34.7825   1
   2  -2  -9 146.941 40.1800   2
  -2   2   8 2644.74 130.775   1
   2  -2  -8 2773.73 122.122   3
  -2   2   8 2871.81 87.5145   4
   2  -2  -8 2897.95 136.949   2
  -2   2   7 3094.39 134.639   1
   2  -2  -7 2796.46 130.349   2
  -2   2   7 3010.18 86.7856   4
   2  -2  -7 2966.04 119.248   3
  -2   2   6 74.7029 28.4354   1
  -2   2   6 35.8522 15.5674   4
   2  -2  -6 5.14626 20.0223   3
   2  -2  -6 77.4232 30.7943   2
  -2   2   5 586.636 59.2864   1
   2  -2  -5 492.959 44.5216   3
   2  -2  -5 515.075 55.3394   2
  -2   2   5 616.507 39.1015   4
   2  -2  -4 9425.14 160.378   3
  -2   2   4 9641.53 212.937   1
  -2   2   4 9657.34 145.785   4
   2  -2  -4 9614.25 210.688   2
   2  -2  -3 58.3681 16.4983   3
  -2   2   3 37.9461 17.4841   4
   2  -2  -3 52.1295 27.7488   2
  -2   2   3 60.8755 27.6144   1
  -2   2   2 211.676 20.9861   3
  -2   2   2 218.192 27.3123   4
  -2   2   2 195.242 36.0066   1
   2  -2  -2 210.494 20.8329   3
   2  -2  -2 234.577 37.1842   2
  -2   2   1 6235.91 75.5893   3
   2  -2  -1 6264.77 75.8014   3
  -2   2   1 6679.60 166.348   1
  -2   2   1 6466.05 129.552   4
   2  -2  -1 6306.96 149.785   2
   2  -2   0 3.32729 19.6965   2
  -2   2   0-0.09297 17.1101   4
  -2   2  -1 244.780 35.3292   4
   2  -2   1 241.275 33.8799   2
  -2   2  -2 135.478 30.7352   4
   2  -2   2 183.003 28.5370   2
   2  -2   3 3718.79 106.305   2
   2  -2   3 3880.14 67.7095   3
  -2   2  -3 3866.53 67.5317   3
   2  -2   3 3326.68 123.344   1
  -2   2  -3 3818.08 123.833   4
  -2   2  -4 261.731 26.5137   3
   2  -2   4 254.743 40.3846   1
  -2   2  -4 223.276 41.9485   4
   2  -2   4 227.276 32.2669   2
  -2   2  -5 1031.78 51.7705   3
   2  -2   5 984.717 55.0722   2
   2  -2   5 962.166 72.6165   1
  -2   2  -5 909.035 71.7924   4
  -2   2  -6 648.577 45.9906   3
   2  -2   6 688.317 48.1470   2
  -2   2  -6 536.101 58.8244   4
   2  -2   6 549.557 59.0136   1
  -2   2  -7 1536.71 76.4962   3
  -2   2  -7 1572.71 101.046   4
   2  -2   7 1517.58 67.6370   2
   2  -2   7 1577.66 99.7228   1
  -2   2  -8 110.761 39.3285   4
   2  -2   8 115.233 25.0698   2
  -2   2  -8 113.528 29.9694   3
   2  -2   8 116.503 38.5541   1
  -2   2  -9 534.674 56.6751   3
  -2   2  -9 460.716 63.9635   4
   2  -2   9 460.387 40.5546   2
   2  -2   9 318.357 54.1887   1
  -2   2 -10 1101.10 83.2408   3
   2  -2  10 1180.17 99.9802   1
  -2   2 -10 1075.75 96.4819   4
   2  -2  10 1253.58 67.5157   2
  -2   2 -11 13.5558 30.0627   4
  -2   2 -11 36.2389 34.0382   3
   2  -2  11 35.2634 24.5386   2
   2  -2  11 104.969 47.9099   1
  -2   2 -12 34.1899 34.9263   3
   2  -2  12-4.95329 38.3420   1
  -2   2 -12-12.7375 35.0143   4
  -2   2 -13 37.8757 37.0569   3
   2  -2  13 59.7401 40.4959   1
  -2   2 -13 19.6661 32.4378   4
  -2   2 -14 316.600 67.4668   4
  -2   2 -14 268.164 58.9391   3
   2  -2  14 312.250 69.9169   1
  -2   2 -15-81.9606 53.5297   4
  -2   2 -15 63.5572 41.9553   3
   2  -2  15 49.7063 50.4093   1
  -2   2 -16 4.77232 37.7643   3
   2  -2  16 94.7783 56.0753   1
  -2   2 -17 103.327 53.4596   4
  -2   2 -17-73.9636 51.8912   3
   2  -2  17-8.80750 53.8671   1
  -2   2 -18 30.3685 42.7979   4
   2  -2  18 32.1261 49.7552   1
  -2   2 -18 11.6111 44.8983   3
  -2   2 -19 44.3799 54.2563   3
  -2   2 -19 85.7162 61.5734   4
   2  -1 -18 11.3082 52.4562   3
  -2   1  18-28.0901 43.7375   1
   2  -1 -17-26.4607 53.8899   3
  -2   1  17-18.7613 49.9100   1
  -2   1  16 79.2480 47.1224   1
   2  -1 -16 16.6794 47.2226   3
   2  -1 -15 40.1056 45.5299   3
  -2   1  15 63.2901 49.0462   1
   2  -1 -15-0.29485 36.6272   2
   2  -1 -14-35.4804 35.2819   2
   2  -1 -14 15.1861 45.1862   3
  -2   1  14-34.9236 44.8767   1
  -2   1  13 57.2543 42.2617   1
   2  -1 -13 23.8414 35.8943   3
   2  -1 -13 53.0201 37.1814   2
  -2   1  12 42.3556 39.5962   1
  -2   1  12 19.6383 23.1758   4
   2  -1 -12 25.5389 33.9985   3
   2  -1 -12-25.7688 30.5510   2
  -2   1  11-30.0514 24.6754   4
   2  -1 -11-15.1248 32.6402   3
  -2   1  11 3.52272 30.6559   1
   2  -1 -11-10.7456 30.9437   2
   2  -1 -10 19.9965 28.1845   3
  -2   1  10 19.5576 21.2162   4
  -2   1  10 32.5276 30.1441   1
   2  -1 -10 43.6051 29.9711   2
   2  -1  -9 219.427 42.7351   3
  -2   1   9 187.963 31.6227   4
   2  -1  -9 214.459 46.5620   2
  -2   1   9 217.078 46.4625   1
  -2   1   8 23.8900 18.5919   4
  -2   1   8 15.2874 25.0962   1
   2  -1  -8 55.8800 30.4654   3
   2  -1  -8 9.01046 25.2695   2
  -2   1   7 37.3922 16.3398   4
   2  -1  -7 86.1306 30.5840   3
  -2   1   7 107.533 30.2125   1
   2  -1  -7 107.836 30.7210   2
  -2   1   6 76.6808 21.4808   4
   2  -1  -6 66.5546 31.6001   2
   2  -1  -6 39.8125 20.2814   3
  -2   1   6 4.43409 22.4201   1
  -2   1   5 45.5907 17.4689   4
   2  -1  -5 20.1786 21.0029   3
  -2   1   5 23.4251 21.5913   1
  -2   1   4 314.140 41.2106   1
  -2   1   4 267.780 29.4555   4
   2  -1  -4 288.546 34.4722   3
   2  -1  -4 269.381 34.4327   2
  -2   1   3 131.028 25.9596   1
   2  -1  -3 111.690 21.9000   3
   2  -1  -3 137.988 28.5338   2
  -2   1   3 129.601 22.1487   4
  -2   1   2 32.6577 21.8951   1
   2  -1  -2 29.2741 14.2679   3
  -2   1   2 15.7149 15.8427   4
   2  -1  -2 1.52692 18.9112   2
   2  -1  -1 140.136 29.6086   2
  -2   1   1 141.181 16.2315   3
   2  -1  -1 168.701 16.8563   3
  -2   1   1 137.980 26.3165   1
  -2   1   1 131.059 24.7205   4
   2  -1   0 4987.35 122.853   2
  -2   1   0 4961.54 64.2750   3
   2  -1   0 4928.48 65.5498   3
  -2   1   0 4928.57 117.910   4
  -2   1  -1 3157.10 49.4079   3
  -2   1  -1 3125.77 49.5338   3
   2  -1   1 3432.11 100.270   2
  -2   1  -1 3412.35 101.128   4
   2  -1   2 878.799 51.7046   2
  -2   1  -2 829.912 29.7655   3
  -2   1  -2 855.175 31.4946   3
  -2   1  -2 765.587 52.5559   4
   2  -1   3 124.217 18.1348   3
   2  -1   3 110.982 29.2396   1
   2  -1   3 111.918 23.7521   2
  -2   1  -3 97.3240 16.2473   3
  -2   1  -3 97.1930 25.4252   4
   2  -1   4 2303.00 96.4493   1
  -2   1  -4 2178.66 67.2116   3
  -2   1  -4 2195.44 95.2935   4
   2  -1   4 2103.65 80.7401   2
  -2   1  -5 1313.85 60.8014   3
  -2   1  -5 1206.22 75.6967   4
   2  -1   5 1396.03 70.1214   2
   2  -1   5 1294.85 77.2702   1
  -2   1  -6 123.495 34.9501   4
   2  -1   6 90.6139 22.7885   2
  -2   1  -6 95.0643 25.4822   3
   2  -1   6 65.6625 28.1457   1
  -2   1  -7 1477.09 78.5013   3
  -2   1  -7 1447.43 87.6778   4
   2  -1   7 1477.71 71.1003   2
   2  -1   7 1476.48 93.0379   1
  -2   1  -8 35.0081 25.9112   3
   2  -1   8 53.2608 22.3958   2
  -2   1  -8 7.72826 22.0266   4
   2  -1   8 28.0042 23.4164   1
   2  -1   9 480.131 46.3192   2
  -2   1  -9 421.030 55.5008   4
  -2   1  -9 414.465 49.6232   3
   2  -1   9 371.818 55.4323   1
  -2   1 -10-25.9683 33.0948   4
   2  -1  10 39.7739 25.3846   2
  -2   1 -10 17.8288 25.0909   3
   2  -1  10 27.4414 34.2588   1
  -2   1 -11 3525.14 153.220   3
  -2   1 -11 3636.41 171.182   4
   2  -1  11 3697.10 129.985   2
   2  -1  11 3413.15 163.144   1
  -2   1 -12 247.688 52.3677   4
  -2   1 -12 214.801 49.7631   3
   2  -1  12 148.764 47.5516   1
   2  -1  12 178.100 37.2596   2
   2  -1  13 1810.99 134.569   1
  -2   1 -13 1844.83 127.134   3
  -2   1 -13 1839.46 132.899   4
   2  -1  14 116.203 44.8508   1
  -2   1 -14 151.865 52.0210   4
  -2   1 -14 88.4432 42.4373   3
  -2   1 -15-39.3504 37.6092   4
  -2   1 -15 25.9665 37.6243   3
   2  -1  15 47.2508 47.2228   1
   2  -1  16 0.39854 44.9390   1
  -2   1 -16 59.5763 45.7832   4
  -2   1 -16 44.0446 41.5617   3
  -2   1 -17-16.5135 35.8613   4
   2  -1  17 35.3148 45.9890   1
  -2   1 -17 4.61216 40.8267   3
  -2   1 -18 61.5451 44.1094   4
  -2   1 -18 16.7959 43.3005   3
   2  -1  18 105.905 63.2864   1
  -2   1 -19-35.5344 52.8927   3
   2   0 -18-99.8929 59.5225   3
  -2   0  18 101.866 61.5444   1
   2   0 -17 7.82638 48.3985   3
  -2   0  17 72.1377 56.1035   1
   2   0 -16-19.9155 42.0706   3
  -2   0  16-37.0163 45.2726   1
   2   0 -15 13.9741 40.1271   3
  -2   0  15 73.9832 48.2006   1
  -2   0  14 48.7152 27.8455   4
   2   0 -14-3.11289 45.4561   3
  -2   0  14 122.002 47.4528   1
   2   0 -14 112.610 37.6217   2
  -2   0  13 130.256 35.0574   4
  -2   0  13 100.442 39.8678   1
   2   0 -13 125.880 39.7436   2
   2   0 -12 182.626 52.6246   3
  -2   0  12 126.776 45.7403   1
  -2   0  12 119.481 32.0684   4
   2   0 -12 157.855 39.0164   2
  -2   0  11 2421.13 142.180   1
   2   0 -11 2328.92 142.152   3
  -2   0  11 2179.59 111.965   4
   2   0 -11 2284.89 117.626   2
   2   0 -10 5.75360 28.0656   3
  -2   0  10 6.08346 30.0010   1
  -2   0  10 52.5032 26.1560   4
   2   0 -10 15.9144 24.1031   2
  -2   0   9 1982.14 113.984   1
   2   0  -9 2024.42 118.620   3
  -2   0   9 2042.65 100.187   4
   2   0  -9 2040.79 105.716   2
  -2   0   8 2063.64 111.862   1
   2   0  -8 2004.23 109.463   3
  -2   0   8 2119.57 96.6506   4
   2   0  -8 2058.69 100.527   2
   2   0  -7 36.2476 22.7110   3
   2   0  -7 18.1178 20.0811   2
  -2   0   7-4.49192 17.0799   4
  -2   0   7 12.7728 20.2846   1
  -2   0   6 367.533 45.6679   1
   2   0  -6 280.716 37.2064   2
   2   0  -6 304.912 39.8789   3
  -2   0   6 308.371 37.0121   4
   2   0  -5 11783.6 209.411   3
  -2   0   5 12004.1 216.304   1
  -2   0   5 11898.2 203.428   4
   2   0  -5 12041.0 211.541   2
   2   0  -4 46.6927 21.2502   3
   2   0  -4 35.7912 18.8644   2
  -2   0   4 77.8493 22.8581   4
  -2   0   4 40.1828 19.9112   1
  -2   0   3 415.998 40.3509   1
  -2   0   3 347.910 35.6086   4
   2   0  -3 396.667 43.0796   2
   2   0  -3 394.321 37.2333   3
   2   0  -2 21610.5 226.239   3
  -2   0   2 21819.3 241.616   1
  -2   0   2 21432.8 247.984   4
   2   0  -2 21760.0 252.922   2
  -2   0   1 277.990 32.1352   4
   2   0  -1 288.210 26.4490   3
  -2   0   1 285.922 30.6032   1
   2   0  -1 246.400 30.9527   2
  -2   0   0 19258.1 230.069   4
   2   0   0 18777.9 181.690   3
  -2   0   0 19541.9 243.563   1
   2   0   0 19238.6 234.820   2
  -2   0  -1 3481.22 80.2026   3
   2   0   1 3394.55 75.6928   3
   2   0   1 3262.98 97.8967   2
  -2   0  -1 3428.54 102.547   4
  -2   0  -2 16092.0 173.076   3
  -2   0  -2 16139.3 223.820   4
   2   0   2 16121.4 214.888   2
   2   0   3 4425.12 113.301   1
  -2   0  -3 4352.45 97.1334   3
  -2   0  -3 4293.35 119.814   4
   2   0   3 4405.70 115.907   2
   2   0   4 1313.70 71.0007   2
  -2   0  -4 1109.24 65.3943   4
  -2   0  -4 1176.91 56.6196   3
   2   0   4 1090.53 62.7259   1
  -2   0  -5 10887.6 179.837   3
   2   0   5 10954.9 192.471   2
  -2   0  -5 10965.7 207.847   4
   2   0   5 11146.5 200.138   1
  -2   0  -6 69.8523 29.0506   3
   2   0   6 98.7622 23.5313   2
   2   0   6 165.070 34.9308   1
  -2   0  -6 63.8255 26.1595   4
  -2   0  -7 621.170 54.0917   3
  -2   0  -7 583.210 55.7796   4
   2   0   7 672.213 53.8658   2
   2   0   7 647.184 59.8594   1
   2   0   8 3236.93 133.924   1
  -2   0  -8 3661.14 131.721   3
  -2   0  -8 3599.12 136.611   4
   2   0   8 3354.44 118.906   2
  -2   0  -9 299.028 49.1044   3
   2   0   9 304.151 47.7242   1
  -2   0  -9 256.683 44.8837   4
   2   0   9 280.540 40.8360   2
   2   0  10 77.2227 29.5565   1
  -2   0 -10 88.6052 32.2731   3
   2   0  10 131.699 32.4229   2
  -2   0 -10 100.775 34.7388   4
  -2   0 -11 1066.05 91.3406   3
   2   0  11 1141.26 80.4299   2
  -2   0 -11 1084.99 88.2441   4
   2   0  11 941.498 87.0222   1
  -2   0 -12 7.34605 28.5796   4
   2   0  12 26.6895 31.9045   1
  -2   0 -12 27.9302 36.3327   3
   2   0  12 85.5630 33.2308   2
  -2   0 -13 109.368 44.1331   3
   2   0  13 203.640 50.9188   1
  -2   0 -13 104.028 41.3769   4
   2   0  13 96.3048 35.3038   2
   2   0  14 51.8980 38.3206   1
  -2   0 -14 56.6005 36.9206   4
  -2   0 -14 123.391 45.6383   3
   2   0  14 44.1558 26.6680   2
  -2   0 -15 180.486 52.2965   4
   2   0  15 194.555 57.2054   1
  -2   0 -15 159.930 54.4017   3
   2   0  16-42.2620 44.6183   1
  -2   0 -16 62.0176 46.6869   3
  -2   0 -16 42.3628 40.0910   4
  -2   0 -17-47.4678 39.4536   4
   2   0  17-67.9140 53.0980   1
  -2   0 -17-21.7065 42.6831   3
   2   0  18 41.3567 51.0490   1
  -2   0 -18 16.3180 48.6219   3
  -2   0 -19 51.9339 57.8333   3
   2   1 -18-29.7394 51.9680   3
  -2  -1  18 33.1596 47.5776   1
   2   1 -17 237.472 78.9674   3
  -2  -1  17 114.560 59.6673   1
   2   1 -16 29.6132 43.9091   3
  -2  -1  16 10.3334 41.3950   1
   2   1 -15 34.4225 37.9699   3
  -2  -1  15-57.7249 55.2770   1
  -2  -1  15 22.5882 30.1199   4
   2   1 -14 89.3943 47.3716   3
  -2  -1  14 75.7745 45.3941   1
  -2  -1  14 67.3223 36.2790   4
  -2  -1  13 187.619 46.5893   4
   2   1 -13 170.251 55.5721   3
  -2  -1  13 119.776 41.9048   1
   2   1 -12 20.4366 25.8642   2
   2   1 -12 130.219 51.6095   3
  -2  -1  12 50.8468 31.9653   1
  -2  -1  12 64.9297 34.7160   4
  -2  -1  11 566.530 72.2735   1
   2   1 -11 622.919 76.8904   3
  -2  -1  11 514.567 64.9994   4
   2   1 -11 581.042 59.3904   2
  -2  -1  10 656.194 70.5642   1
   2   1 -10 629.778 73.2050   3
  -2  -1  10 667.890 67.3463   4
   2   1 -10 694.680 60.5690   2
   2   1  -9 32.8796 19.1181   2
   2   1  -9 40.1810 28.8354   3
  -2  -1   9 53.5883 27.6856   1
  -2  -1   9 48.6116 26.2419   4
  -2  -1   8 1439.48 91.1631   1
   2   1  -8 1498.69 97.8993   3
  -2  -1   8 1449.34 88.9209   4
   2   1  -8 1528.49 81.1174   2
   2   1  -7-16.9229 19.5170   2
   2   1  -7 13.4251 21.9775   3
  -2  -1   7-12.0653 22.8790   1
  -2  -1   7 25.3725 23.6430   4
  -2  -1   6 900.997 63.6906   1
  -2  -1   6 835.053 62.6232   4
   2   1  -6 920.170 60.2461   2
   2   1  -6 889.659 68.0543   3
  -2  -1   5 1107.69 65.8333   1
   2   1  -5 1100.52 72.7123   3
   2   1  -5 1106.08 62.1718   2
  -2  -1   5 1102.13 70.0522   4
  -2  -1   4 1366.37 67.9180   1
   2   1  -4 1439.01 76.4588   3
   2   1  -4 1420.00 68.1983   2
  -2  -1   4 1433.45 75.0828   4
  -2  -1   3 444.702 37.2756   1
   2   1  -3 445.862 42.2371   3
  -2  -1   3 391.180 40.6274   4
   2   1  -3 520.366 42.9516   2
   2   1  -2 13.3907 17.6783   2
  -2  -1   2-13.5353 14.7883   1
  -2  -1   2-11.4044 18.5855   4
   2   1  -2 18.1519 17.9583   3
  -2  -1   1 5813.78 105.221   1
   2   1  -1 5294.62 120.548   3
   2   1  -1 5414.61 126.692   2
  -2  -1   1 5576.56 132.199   4
   2   1   0 2196.46 64.6660   1
   2   1   0 2234.71 77.8672   3
  -2  -1   0 2164.14 83.7795   4
  -2  -1   0 2550.04 73.5758   1
   2   1   0 2108.33 81.5591   2
   2   1   1 792.951 49.0163   3
  -2  -1  -1 842.003 53.4469   4
   2   1   1 788.536 41.6899   1
   2   1   1 870.419 54.3589   2
   2   1   2 104.468 28.4666   2
   2   1   2 128.101 20.2937   1
  -2  -1  -2 96.7931 24.5781   4
   2   1   2 118.158 23.9288   3
  -2  -1  -3 326.388 35.4119   3
  -2  -1  -3 332.330 39.4255   4
   2   1   3 278.561 36.2764   2
   2   1   3 313.195 28.2730   1
  -2  -1  -4 142.568 27.9373   3
   2   1   4 132.762 29.4848   2
  -2  -1  -4 140.023 29.8891   4
   2   1   4 155.626 26.1370   1
   2   1   5 50.6753 25.3433   2
  -2  -1  -5 32.8065 25.2825   3
   2   1   5 15.2341 19.7063   1
  -2  -1  -5-17.7748 25.2418   4
  -2  -1  -6 4.56930 22.5307   3
   2   1   6 10.3791 21.1656   2
   2   1   6 26.4144 20.6798   1
  -2  -1  -6-3.22594 21.6780   4
   2   1   7-6.78021 21.0842   1
  -2  -1  -7-9.57287 23.8700   3
   2   1   7 0.52623 20.9724   2
  -2  -1  -7-13.5042 23.2288   4
   2   1   8 91.6955 30.2164   2
  -2  -1  -8 22.1851 26.9972   3
   2   1   8 80.7283 29.3187   1
  -2  -1  -8 101.779 29.8658   4
  -2  -1  -9-29.2088 27.5390   3
   2   1   9-34.9355 29.1148   2
  -2  -1  -9 6.16539 20.3718   4
   2   1   9-28.8630 25.5465   1
  -2  -1 -10 361.343 54.9453   3
  -2  -1 -10 427.238 52.5117   4
   2   1  10 351.260 49.9119   2
   2   1  10 370.524 52.3237   1
  -2  -1 -11 159.842 34.2817   4
  -2  -1 -11 199.880 47.9463   3
   2   1  11 132.386 33.4657   2
   2   1  11 149.750 40.6718   1
   2   1  12 695.830 73.0411   2
  -2  -1 -12 826.168 90.8426   3
   2   1  12 635.998 76.3937   1
  -2  -1 -12 818.398 76.9032   4
   2   1  13 68.8838 38.3382   1
  -2  -1 -13 72.2806 38.1699   4
  -2  -1 -13 52.6463 46.3478   3
   2   1  13 91.2172 35.4603   2
  -2  -1 -14 10.0099 35.5800   4
   2   1  14 38.4332 39.3983   1
   2   1  14 52.1330 32.8014   2
  -2  -1 -14-6.66418 39.8103   3
  -2  -1 -15 41.6789 32.0768   4
   2   1  15 15.6949 38.6079   1
  -2  -1 -15 107.907 56.0015   3
   2   1  15 11.9195 29.2281   2
   2   1  16 38.2869 42.8214   1
  -2  -1 -16-17.1139 43.9127   3
   2   1  17 94.3485 51.3452   1
  -2  -1 -17 88.1224 56.7693   3
   2   1  18 98.9140 57.8953   1
  -2  -1 -18 8.25572 55.8504   3
   2   1  19 201.954 75.7392   1
  -2  -1 -19 35.6826 60.0283   3
   2   2 -17 17.6099 52.8930   3
  -2  -2  17 64.0235 53.3424   1
  -2  -2  17-2.87842 38.6902   4
  -2  -2  16-18.5923 39.0307   4
  -2  -2  16-48.1217 45.5096   1
   2   2 -16-18.3401 41.7079   3
  -2  -2  15 76.4755 44.5024   4
  -2  -2  15 15.9774 36.8268   1
   2   2 -15 28.3927 44.1501   3
  -2  -2  14 247.790 61.9639   1
   2   2 -14 280.999 66.2037   3
  -2  -2  14 298.471 64.7313   4
  -2  -2  13 10.1329 36.0465   1
   2   2 -13-33.4386 37.4988   3
  -2  -2  13 55.6444 42.0705   4
  -2  -2  12 72.4954 37.8971   1
   2   2 -12 16.6315 34.2645   3
  -2  -2  12 24.2990 29.8514   4
  -2  -2  11 72.3779 34.4371   4
  -2  -2  11 95.3807 37.8319   1
   2   2 -11 174.702 54.6242   3
   2   2 -10 1210.53 101.084   3
  -2  -2  10 1102.73 91.0056   1
   2   2 -10 1244.26 71.7730   2
  -2  -2  10 1191.81 98.9034   4
   2   2  -9 41.8761 22.6568   2
  -2  -2   9 25.2709 28.5138   1
   2   2  -9 30.7220 31.0436   3
  -2  -2   9 37.3878 30.4678   4
   2   2  -8-6.12177 15.6770   2
  -2  -2   8 3.07004 23.5241   4
  -2  -2   8 6.87661 20.8168   1
   2   2  -8-30.7235 26.0498   3
  -2  -2   7 845.463 65.3461   1
   2   2  -7 762.101 72.8104   3
  -2  -2   7 713.600 65.9876   4
   2   2  -7 930.009 56.6917   2
  -2  -2   6 1685.02 84.0234   1
   2   2  -6 1658.82 98.5093   3
  -2  -2   6 1604.51 95.8094   4
   2   2  -6 1795.54 76.5378   2
  -2  -2   5 208.230 31.0265   1
   2   2  -5 222.946 40.3165   3
  -2  -2   5 196.507 37.6977   4
   2   2  -5 188.307 27.7312   2
  -2  -2   4 220.170 28.6602   1
   2   2  -4 278.575 32.2859   2
  -2  -2   4 182.089 35.4910   4
   2   2  -4 240.553 40.5820   3
  -2  -2   3 3700.88 93.1233   1
   2   2  -3 3864.71 127.968   3
  -2  -2   3 3827.24 127.362   4
   2   2  -3 3748.16 103.686   2
  -2  -2   2 20.8993 22.4758   4
   2   2  -2 43.1792 25.1724   3
  -2  -2   2 27.7562 12.8024   1
   2   2  -2 29.4361 19.6241   2
   2   2  -1 73.2763 13.4694   1
   2   2  -1 48.8933 19.9831   2
  -2  -2   1 69.5103 23.7658   4
  -2  -2   1 93.8268 13.4700   1
   2   2  -1 85.6724 26.9078   3
   2   2   0 513.287 47.4531   3
   2   2   0 551.126 24.4551   1
  -2  -2   0 542.014 47.4736   4
   2   2   0 637.289 51.7963   2
   2   2   1 5069.64 137.618   3
  -2  -2  -1 5401.08 135.340   4
   2   2   1 5112.92 72.1816   1
   2   2   1 5244.82 71.4317   1
   2   2   1 5409.58 133.820   2
   2   2   2 495.172 46.4392   3
  -2  -2  -2 588.496 47.0244   4
   2   2   2 513.039 25.6429   1
   2   2   2 512.396 46.3018   2
   2   2   3 357.619 25.8392   1
  -2  -2  -3 384.911 45.1615   3
  -2  -2  -3 421.447 40.1841   4
   2   2   3 390.405 43.4999   2
  -2  -2  -4 9202.18 194.215   3
  -2  -2  -4 9361.06 181.016   4
   2   2   4 9090.97 192.421   2
   2   2   4 9258.54 136.699   1
  -2  -2  -5 308.539 43.9205   3
   2   2   5 369.801 34.3936   1
  -2  -2  -5 316.681 37.5023   4
   2   2   5 369.416 44.2100   2
  -2  -2  -6 903.940 70.0957   3
   2   2   6 916.510 55.7312   1
  -2  -2  -6 1002.12 63.6037   4
   2   2   6 1024.04 73.7453   2
  -2  -2  -7 4485.05 157.747   3
  -2  -2  -7 5326.99 145.244   4
   2   2   7 4684.09 155.642   2
   2   2   7 5089.77 138.473   1
   2   2   8 149.544 32.2335   1
  -2  -2  -8 106.697 37.5907   3
   2   2   8 87.8720 32.1354   2
  -2  -2  -8 116.058 29.1113   4
  -2  -2  -9 419.895 58.7175   3
   2   2   9 336.460 46.2626   1
  -2  -2  -9 412.807 45.5823   4
   2   2   9 326.910 48.9711   2
   2   2  10 2578.89 126.079   1
   2   2  10 2517.61 131.035   2
  -2  -2 -10 2486.56 135.476   3
  -2  -2 -10 2901.48 120.993   4
   2   2  11 271.176 53.1395   2
   2   2  11 217.181 44.4471   1
  -2  -2 -11 362.868 49.5500   4
  -2  -2 -11 318.981 61.7200   3
  -2  -2 -12-6.78624 23.3799   4
   2   2  12 16.8482 29.9445   1
  -2  -2 -12 3.81154 37.0544   3
   2   2  12 88.5050 40.6128   2
   2   2  13 180.631 46.9020   1
  -2  -2 -13 149.272 39.1460   4
  -2  -2 -13 155.413 53.5723   3
   2   2  13 185.860 49.0335   2
   2   2  14 62.6543 41.6078   1
  -2  -2 -14 123.010 57.9735   3
   2   2  14 55.9783 33.0979   2
  -2  -2 -14 6.66348 28.5017   4
   2   2  15-23.9002 41.8792   1
  -2  -2 -15 73.4309 55.5828   3
   2   2  15 3.98208 30.7907   2
   2   2  16-31.5366 37.4930   1
   2   2  16-53.8202 39.1925   2
  -2  -2 -16 38.6400 55.6185   3
   2   2  17 60.8929 52.2053   1
  -2  -2 -17-11.5585 48.5071   3
   2   2  17-35.1570 41.3080   2
   2   2  18 47.1574 52.3543   1
  -2  -2 -18 5.97747 55.5909   3
   2   2  19 87.7482 58.8749   1
  -2  -3  18-21.9360 43.4955   4
  -2  -3  17 28.6571 43.0553   1
   2   3 -17 96.6816 59.2465   3
  -2  -3  17-2.71367 46.1466   4
  -2  -3  16-0.20241 43.0196   1
  -2  -3  16 7.49376 41.8346   4
  -2  -3  15 78.1001 48.1190   1
   2   3 -15 45.3775 46.8283   3
  -2  -3  15 121.683 54.0608   4
  -2  -3  14 329.214 69.7166   1
   2   3 -14 191.008 60.5561   3
  -2  -3  14 183.154 56.5337   4
  -2  -3  13 88.8263 46.6612   1
   2   3 -13-3.60194 37.3359   3
  -2  -3  13-4.25068 36.7111   4
  -2  -3  12 797.945 86.7101   1
   2   3 -12 791.012 93.5632   3
  -2  -3  12 961.274 101.447   4
  -2  -3  11 342.329 64.4600   4
  -2  -3  11 313.833 54.4936   1
   2   3 -11 263.988 59.1050   3
  -2  -3  10 55.2367 36.2956   1
   2   3 -10 64.6636 42.8335   3
  -2  -3  10 143.220 44.4311   4
  -2  -3   9 778.740 73.2215   1
   2   3  -9 608.779 75.5087   3
  -2  -3   9 598.387 74.4678   4
  -2  -3   8 303.718 45.7570   1
   2   3  -8 268.016 51.9948   3
  -2  -3   8 229.364 51.0122   4
   2   3  -8 312.423 32.0242   2
  -2  -3   7 418.662 48.1721   1
   2   3  -7 510.756 64.8985   3
  -2  -3   7 497.752 62.8792   4
   2   3  -7 470.439 37.7208   2
  -2  -3   6 166.493 29.9371   1
   2   3  -6 189.638 42.3005   3
  -2  -3   6 167.836 36.6256   4
   2   3  -6 202.793 27.6011   2
   2   3  -5 2361.53 118.536   3
   2   3  -5 2652.14 85.3211   2
  -2  -3   5 2639.83 95.1441   1
  -2  -3   5 2302.23 116.367   4
  -2  -3   4 466.579 39.0312   1
   2   3  -4 334.186 46.5695   3
  -2  -3   4 339.572 46.6303   4
   2   3  -4 441.341 38.5228   2
   2   3  -3 101.170 23.5830   2
  -2  -3   3 66.8016 15.9546   1
   2   3  -3 102.133 32.0138   3
  -2  -3   3 49.7421 23.5075   4
  -2  -3   2 11459.3 132.579   1
   2   3  -2 11306.2 233.188   3
   2   3  -2 11473.5 187.513   2
  -2  -3   2 11376.1 229.659   4
   2   3  -2 11171.2 133.145   1
   2   3  -1 16643.2 227.975   2
  -2  -3   1 15932.1 126.441   1
   2   3  -1 17316.5 283.308   3
  -2  -3   1 16321.3 264.180   4
   2   3  -1 15995.4 121.693   1
   2   3   0 3594.12 131.429   3
   2   3   0 3257.60 108.480   2
  -2  -3   0 3236.44 116.091   4
   2   3   1 844.119 58.1253   2
   2   3   1 812.927 63.7841   3
  -2  -3  -1 779.523 59.4556   4
   2   3   2 1395.95 83.5958   3
   2   3   2 1542.50 82.1034   2
  -2  -3  -2 1499.99 78.1998   4
  -2  -3  -3 3803.37 137.112   3
   2   3   3 3654.42 127.589   2
  -2  -3  -3 3326.91 64.6222   1
   2   3   3 3492.58 60.2488   1
  -2  -3  -3 3832.04 120.966   4
  -2  -3  -4 442.715 42.7895   4
   2   3   4 446.676 29.0173   1
  -2  -3  -4 497.371 56.3665   3
   2   3   4 407.411 49.5145   2
   2   3   5 859.710 70.1523   2
   2   3   5 1037.43 50.4880   1
  -2  -3  -5 928.102 74.4681   3
  -2  -3  -5 1056.65 64.5566   4
   2   3   6 22.6422 18.1594   1
  -2  -3  -6 45.3244 32.1431   3
   2   3   6 36.1918 29.0308   2
  -2  -3  -6 13.2020 17.0280   4
  -2  -3  -7 718.014 69.5314   3
   2   3   7 702.695 52.6738   1
  -2  -3  -7 679.964 52.7035   4
   2   3   7 727.587 69.4320   2
   2   3   8 14.9294 19.5676   1
  -2  -3  -8 5.35971 27.3090   3
   2   3   8 13.8838 25.5828   2
  -2  -3  -8 41.8953 22.1881   4
  -2  -3  -9 1188.32 95.2811   3
  -2  -3  -9 1303.27 76.2748   4
   2   3   9 1241.40 81.9282   1
   2   3   9 1431.90 101.290   2
   2   3  10 163.479 39.4206   1
  -2  -3 -10 271.973 55.9459   3
   2   3  10 233.482 50.3735   2
  -2  -3 -10 274.646 40.3247   4
  -2  -3 -11 556.062 55.4589   4
   2   3  11 500.214 68.3291   2
  -2  -3 -11 405.848 63.3026   3
   2   3  11 491.431 61.5177   1
   2   3  12-15.5293 31.6297   1
  -2  -3 -12 49.7265 43.9568   3
   2   3  12 17.0259 34.6070   2
  -2  -3 -12-3.40464 24.9225   4
   2   3  13-68.9498 38.6184   1
  -2  -3 -13 16.2594 48.6264   3
   2   3  13-0.72244 32.0922   2
   2   3  14 49.3174 35.4055   1
  -2  -3 -14 3.01236 45.1785   3
   2   3  14 120.982 47.3349   2
   2   3  15-35.2427 41.7910   1
  -2  -3 -15 0.67071 49.2518   3
   2   3  15 0.25043 34.6465   2
   2   3  16 68.8617 47.8216   1
  -2  -3 -16 4.08415 52.0267   3
   2   3  16 9.06266 35.7746   2
   2   3  17 16.8597 42.3201   1
  -2  -3 -17 100.587 61.5275   3
   2   3  17 91.2401 52.3014   2
  -2  -3 -18 56.2958 66.5621   3
   2   3  18 45.7680 52.1878   1
   2   3  18-31.5714 42.0431   2
   2   3  19 10.7592 47.5150   1
  -2  -4  17 60.8905 54.7363   1
  -2  -4  17 101.457 55.5641   4
  -2  -4  16-25.1591 45.3395   4
  -2  -4  16 8.44362 43.8633   1
   2   4 -16-38.7871 55.4928   3
  -2  -4  15 337.080 74.9643   1
   2   4 -15 216.028 70.5240   3
  -2  -4  15 192.939 69.7598   4
   2   4 -14 24.5462 47.9823   3
  -2  -4  14 2.44881 38.6995   4
  -2  -4  13 118.186 56.6332   4
  -2  -4  13 287.711 63.0567   1
   2   4 -13 221.024 59.2657   3
  -2  -4  12 72.9008 49.3491   4
  -2  -4  12-5.86477 31.1786   1
   2   4 -12 10.0027 40.1660   3
   2   4 -11 241.599 60.8618   3
  -2  -4  11 254.604 60.4956   4
  -2  -4  11 335.951 60.3987   1
  -2  -4  10 332.182 53.5177   1
   2   4 -10 358.411 68.8922   3
  -2  -4  10 297.438 63.4041   4
  -2  -4   9 6.83158 25.7882   1
   2   4  -9 14.4949 30.0018   3
  -2  -4   9-13.9905 37.2908   4
  -2  -4   8 1527.89 93.3595   1
   2   4  -8 1477.28 113.693   3
  -2  -4   8 1320.59 109.506   4
  -2  -4   7-13.0204 20.4858   1
   2   4  -7 6.31366 12.8010   2
   2   4  -7 43.0518 31.7279   3
  -2  -4   7-31.4888 31.2821   4
  -2  -4   6 48.7184 24.4783   1
   2   4  -6 51.2712 17.2053   2
  -2  -4   6 53.3001 30.2887   4
   2   4  -6 22.6837 29.0262   3
   2   4  -5 938.690 83.6137   3
  -2  -4   5 962.716 58.1529   1
  -2  -4   5 1067.31 87.5302   4
   2   4  -5 1018.55 52.7692   2
  -2  -4   4 24.3951 16.0392   1
  -2  -4   4 26.4796 24.8360   4
   2   4  -4 31.6535 15.9135   2
   2   4  -4-11.7969 26.0964   3
  -2  -4   3 126.193 19.7065   1
   2   4  -3 110.671 23.0206   2
   2   4  -3 127.616 36.9243   3
  -2  -4   3 144.373 35.3190   4
  -2  -4   2 12965.1 135.044   1
   2   4  -2 12654.8 271.218   3
  -2  -4   2 12774.6 259.011   4
   2   4  -2 12466.4 142.901   1
   2   4  -2 13201.2 205.522   2
   2   4  -1 200.021 40.9239   3
  -2  -4   1 254.110 38.0909   4
   2   4  -1 220.501 31.7452   2
   2   4   0 369.746 50.3099   3
   2   4   0 337.412 41.2036   2
  -2  -4   0 389.868 47.6317   4
   2   4   1 1498.49 94.1716   3
  -2  -4  -1 1531.97 85.2602   4
   2   4   1 1530.29 82.2288   2
   2   4   2 202.902 38.2229   3
   2   4   2 151.771 31.4179   2
  -2  -4  -2 91.7789 23.6969   4
  -2  -4  -3 466.531 60.0209   3
   2   4   3 367.826 47.0093   2
  -2  -4  -3 385.457 43.3234   4
   2   4   4 573.133 28.9254   1
  -2  -4  -4 510.323 28.3376   1
  -2  -4  -4 660.940 53.3435   4
  -2  -4  -4 558.208 61.2794   3
   2   4   4 499.896 57.4127   2
   2   4   5 212.487 23.2748   1
  -2  -4  -5 235.079 34.7089   4
  -2  -4  -5 152.134 36.9832   3
   2   4   5 164.662 37.1661   2
   2   4   6 493.592 39.0107   1
  -2  -4  -6 571.908 49.8802   4
  -2  -4  -6 489.732 61.6424   3
   2   4   6 528.311 62.7830   2
   2   4   7 802.158 53.3129   1
  -2  -4  -7 704.992 73.3946   3
  -2  -4  -7 928.451 62.3310   4
   2   4   7 623.559 70.4466   2
  -2  -4  -8-13.7947 33.4010   3
   2   4   8 12.7897 21.4095   1
   2   4   8 0.35305 27.9369   2
  -2  -4  -8 57.5885 25.4378   4
   2   4   9 550.090 71.4933   2
   2   4   9 682.941 61.0009   1
  -2  -4  -9 581.338 73.5489   3
  -2  -4  -9 716.826 59.0200   4
  -2  -4 -10 134.698 45.0133   3
   2   4  10 89.1014 28.5302   1
   2   4  10 152.263 47.9196   2
  -2  -4 -10 81.8914 25.9879   4
  -2  -4 -11-33.4296 41.8079   3
   2   4  11-24.6766 25.6322   1
   2   4  11 2.03066 38.8817   2
  -2  -4 -12 76.1247 41.7085   3
   2   4  12 148.850 42.1514   1
   2   4  12 140.889 51.9633   2
  -2  -4 -13 57.9136 46.6522   3
   2   4  13 117.856 37.4017   1
   2   4  13 150.321 51.6499   2
   2   4  14 25.3527 32.9317   1
   2   4  14 78.7531 45.4453   2
  -2  -4 -15-16.4002 43.8401   3
   2   4  15 8.97238 33.9501   1
   2   4  15 10.9574 36.4160   2
   2   4  16-30.5293 36.7014   1
   2   4  16-13.0152 38.9140   2
  -2  -4 -17 53.6522 61.4058   3
   2   4  17 89.3549 51.0043   1
   2   4  17 17.4377 47.0630   2
   2   4  18 128.053 58.7492   1
   2   4  18 79.8336 55.7032   2
  -2  -5  16 62.0835 51.3291   1
  -2  -5  15 66.1233 50.9544   1
   2   5 -15 3.68659 44.6758   3
  -2  -5  15 123.742 61.0950   4
  -2  -5  14 73.2747 46.7820   1
   2   5 -14 6.66145 43.8647   3
  -2  -5  14 57.5964 52.1054   4
  -2  -5  13 188.239 52.1713   1
   2   5 -13 199.584 63.5329   3
  -2  -5  13 187.096 58.3188   4
  -2  -5  12 139.974 56.2848   4
   2   5 -12 64.1769 46.4477   3
  -2  -5  12 100.592 42.8203   1
  -2  -5  11 275.222 56.8933   1
   2   5 -11 234.481 58.7962   3
  -2  -5  11 249.603 66.0918   4
  -2  -5  10 185.046 44.0047   1
   2   5 -10 143.087 48.4722   3
  -2  -5  10 102.078 47.1476   4
  -2  -5   9 16.4203 27.1000   1
   2   5  -9 35.9229 37.5546   3
  -2  -5   9-1.78639 31.6845   4
  -2  -5   8 122.052 33.2190   1
   2   5  -8 133.091 45.5205   3
  -2  -5   8 153.476 53.5176   4
  -2  -5   7 178.799 37.2199   1
   2   5  -7 60.7663 34.0883   3
  -2  -5   7 151.350 49.0382   4
   2   5  -6 861.478 86.8150   3
  -2  -5   6 887.918 91.2571   4
  -2  -5   6 936.114 64.7129   1
   2   5  -5 372.850 57.3379   3
  -2  -5   5 497.612 45.7327   1
  -2  -5   5 382.216 58.7478   4
   2   5  -5 423.235 35.6011   2
  -2  -5   4-7.07930 15.9910   1
   2   5  -4 5.39924 15.7451   2
   2   5  -4 54.6707 33.6088   3
  -2  -5   4-23.5213 28.9689   4
   2   5  -3 2233.65 130.097   3
  -2  -5   3 2080.38 116.951   4
  -2  -5   3 2295.25 70.7810   1
   2   5  -3 2269.82 89.2947   2
  -2  -5   2 7327.83 103.002   1
   2   5  -2 7393.76 226.201   3
  -2  -5   2 7373.92 212.353   4
   2   5  -2 7555.53 168.869   2
   2   5  -1 433.953 60.4913   3
  -2  -5   1 512.265 56.7800   4
   2   5  -1 489.566 46.0454   2
   2   5   0 2224.59 125.144   3
  -2  -5   0 2217.26 110.892   4
   2   5   0 2158.14 100.398   2
  -2  -5  -1 487.845 53.0145   4
   2   5   1 511.881 61.6738   3
   2   5   1 490.252 51.6190   2
   2   5   2 842.852 78.2109   3
   2   5   2 908.526 71.9820   2
  -2  -5  -2 1020.13 72.5369   4
  -2  -5  -3 392.207 58.5054   3
  -2  -5  -3 472.509 48.6983   4
   2   5   3 450.477 54.4202   2
  -2  -5  -4 1043.61 89.6578   3
  -2  -5  -4 910.601 66.1908   4
   2   5   4 822.249 74.5158   2
  -2  -5  -5 356.694 57.4499   3
   2   5   5 340.319 27.7559   1
  -2  -5  -5 394.333 45.8866   4
   2   5   5 287.507 49.8837   2
  -2  -5  -6 1202.07 100.822   3
   2   5   6 1419.64 63.3225   1
  -2  -5  -6 1511.52 82.1586   4
   2   5   6 1260.90 98.7441   2
  -2  -5  -7 3.98319 31.8703   3
   2   5   7 42.5898 37.9183   2
  -2  -5  -7 11.9296 21.6425   4
   2   5   7 44.9039 21.5964   1
  -2  -5  -8 2011.55 131.742   3
  -2  -5  -8 2081.77 93.6105   4
   2   5   8 2209.91 96.1592   1
   2   5   8 1925.53 132.131   2
   2   5   9 1008.12 102.270   2
   2   5   9 829.119 65.4695   1
  -2  -5  -9 1058.04 100.138   3
   2   5  10 1722.37 98.6897   1
  -2  -5 -10 1823.49 136.257   3
   2   5  10 1727.62 130.409   2
   2   5  11 382.749 52.4432   1
  -2  -5 -11 469.109 80.5599   3
   2   5  11 345.094 70.4635   2
  -2  -5 -12 52.8407 47.7299   3
   2   5  12 44.1336 44.3831   2
   2   5  12-19.2828 32.9710   1
  -2  -5 -13 86.5268 57.6818   3
   2   5  13 26.9046 44.6840   2
   2   5  13 9.09950 28.3010   1
  -2  -5 -14-89.8804 55.3452   3
   2   5  14-50.0637 46.3822   2
  -2  -5 -15 65.7055 63.4254   3
   2   5  15 40.0178 47.2073   2
  -2  -5 -16 84.7897 63.4297   3
   2   5  16-29.9904 45.8353   2
   2   5  17 52.0853 47.5289   2
   2   6 -14 15.4629 40.6025   3
  -2  -6  14 76.6574 57.2436   4
   2   6 -13 31.9951 45.5773   3
  -2  -6  13 30.3565 50.8384   4
   2   6 -12-39.2126 48.2624   3
  -2  -6  12-8.03605 45.0656   4
   2   6 -11-45.2593 41.3469   3
  -2  -6  11 66.4353 50.5065   4
   2   6 -10 106.407 50.0324   3
  -2  -6  10 30.2434 47.6275   4
   2   6  -9 368.714 69.7992   3
  -2  -6   9 244.143 64.1316   4
   2   6  -8 70.4485 45.0356   3
  -2  -6   8 19.2211 36.9459   4
   2   6  -7 33.0708 31.5361   3
  -2  -6   7 139.257 47.8397   4
   2   6  -6 274.402 55.8064   3
  -2  -6   6 311.677 62.5375   4
   2   6  -5 166.810 50.9874   3
  -2  -6   5 98.3814 40.4173   4
   2   6  -4 3.25443 32.1898   3
  -2  -6   4 1.40550 30.4476   4
   2   6  -3 6003.68 225.479   3
  -2  -6   3 5787.90 204.555   4
   2   6  -3 6058.14 155.146   2
   2   6  -2 347.400 44.0572   2
   2   6  -2 287.349 56.5003   3
  -2  -6   2 303.025 53.8875   4
   2   6  -1 601.309 78.3088   3
  -2  -6   1 652.521 68.7526   4
   2   6  -1 561.589 55.4594   2
   2   6   0 1140.94 79.0406   2
   2   6   0 1310.51 104.613   3
  -2  -6   0 1351.15 94.2137   4
   2   6   1 9.72468 25.8297   2
   2   6   1 41.2041 36.4296   3
  -2  -6  -1-1.95635 25.3063   4
  -2  -6  -2 182.761 35.9303   4
   2   6   2 181.969 40.3336   2
   2   6   2 235.267 53.8695   3
   2   6   3 438.136 57.8898   2
  -2  -6  -3 550.948 71.0027   3
  -2  -6  -3 570.174 57.9794   4
  -2  -6  -4-5.68608 34.4254   3
   2   6   4 26.7245 34.1469   2
  -2  -6  -4 51.8238 28.4806   4
  -2  -6  -5 29.4030 32.9813   3
   2   6   5 5.22674 31.8688   2
  -2  -6  -5 89.4494 28.3347   4
   2   6   6 774.298 87.0292   2
  -2  -6  -6 940.192 96.0675   3
  -2  -6  -6 717.861 60.7831   4
  -2  -6  -7 129.690 47.8856   3
   2   6   7 204.675 54.6077   2
  -2  -6  -8 25.8642 34.0647   3
   2   6   8-25.5929 33.6387   2
  -2  -6  -9 63.0280 47.0443   3
   2   6   9-2.21694 37.6916   2
  -2  -6 -10 114.190 48.1433   3
   2   6  10 101.830 50.0115   2
  -2  -6 -11 75.5211 48.8423   3
   2   6  11 156.868 63.1701   2
  -2  -6 -12 257.595 68.7641   3
   2   6  12 229.417 61.3089   2
  -2  -6 -13-12.3675 52.3449   3
   2   6  13 34.1382 51.9443   2
  -2  -6 -14 33.5659 52.5482   3
   2   6  14-77.7125 65.4165   2
  -2  -6 -15-30.9907 55.1601   3
   2   6  15 37.7032 46.9011   2
   2   6  16 67.0734 58.6140   2
   2   7 -13 20.5508 46.0294   3
  -2  -7  12 77.1242 48.8516   4
   2   7 -12 83.4072 54.1593   3
   2   7 -11-8.54099 39.4221   3
  -2  -7  11 39.2018 51.5660   4
   2   7 -10 29.7996 45.5366   3
  -2  -7  10 37.0720 47.1446   4
   2   7  -9 66.6016 47.1111   3
  -2  -7   9-14.4158 41.4988   4
   2   7  -8 429.911 76.5162   3
  -2  -7   8 294.975 69.2264   4
   2   7  -7 109.402 48.7402   3
  -2  -7   7 15.3058 41.4863   4
   2   7  -6 436.586 77.5457   3
  -2  -7   6 425.184 72.6344   4
   2   7  -5-7.93741 33.0392   3
  -2  -7   5 19.9248 34.4489   4
   2   7  -4 170.728 54.1555   3
  -2  -7   4 90.4139 40.1600   4
   2   7  -3 453.551 73.3566   3
  -2  -7   3 373.507 63.7952   4
   2   7  -2 1.24136 21.3711   2
   2   7  -2 26.5291 41.7016   3
  -2  -7   2-2.80933 29.9596   4
   2   7  -1 850.864 71.2975   2
   2   7  -1 889.562 96.0504   3
  -2  -7   1 847.544 84.2632   4
   2   7   0 290.084 57.3940   3
   2   7   0 243.419 46.8123   2
  -2  -7   0 262.893 51.3835   4
  -2  -7  -1-31.2532 31.9927   4
   2   7   1-17.5378 29.4592   3
   2   7   1 40.0168 29.1221   2
   2   7   2 410.908 61.8992   2
  -2  -7  -2 519.358 61.8849   4
   2   7   2 563.390 75.9641   3
  -2  -7  -3 93.8250 45.3542   3
   2   7   3 48.3757 31.1793   2
  -2  -7  -3 28.0387 28.2198   4
   2   7   4 713.665 78.6451   2
  -2  -7  -4 736.363 85.1853   3
  -2  -7  -4 800.944 70.8178   4
  -2  -7  -5 33.7199 36.2655   3
   2   7   5 97.9618 43.8940   2
  -2  -7  -6 287.237 59.9400   3
   2   7   6 330.749 62.2286   2
   2   7   7 544.987 81.4152   2
  -2  -7  -7 708.035 89.0354   3
  -2  -7  -8 227.445 59.4646   3
   2   7   8 64.6664 40.2942   2
   2   7   9 685.281 92.0461   2
  -2  -7  -9 680.858 90.8151   3
  -2  -7 -10 272.138 68.8858   3
   2   7  10 191.157 58.4099   2
  -2  -7 -11-47.1202 51.1049   3
   2   7  11 98.1732 55.1793   2
  -2  -7 -12-29.5217 49.8997   3
   2   7  12 26.0239 51.0016   2
  -2  -7 -13 99.4154 56.5571   3
   2   7  13-28.1064 43.8731   2
  -2  -7 -14 2.04915 50.4647   3
   2   7  14-54.1448 52.2098   2
   2   8 -11 143.903 63.5733   3
   2   8 -10 53.9384 46.9313   3
  -2  -8  10-5.68844 48.7774   4
   2   8  -9-1.41277 39.2023   3
  -2  -8   9 68.4036 51.3443   4
   2   8  -8 150.746 57.7422   3
  -2  -8   8 21.8220 38.3402   4
   2   8  -7 29.6801 39.2206   3
  -2  -8   7 94.2761 48.1506   4
   2   8  -6 324.644 69.7578   3
  -2  -8   6 393.997 75.7420   4
   2   8  -5 159.974 59.6635   3
  -2  -8   5 6.53386 33.9800   4
   2   8  -4 655.173 91.2878   3
  -2  -8   4 373.908 69.9548   4
   2   8  -3 177.018 51.8445   3
  -2  -8   3 109.007 44.2114   4
   2   8  -2 35.7302 41.8961   3
  -2  -8   2 48.4250 34.6246   4
  -2  -8   1 275.992 59.0327   4
   2   8  -1 208.594 53.5542   3
  -2  -8   0 123.806 39.4772   4
   2   8   0 144.186 39.9209   2
   2   8   0 134.890 48.7838   3
  -2  -8  -1 154.454 46.9015   4
   2   8   1 165.411 49.5753   3
   2   8   1 100.887 37.7192   2
  -2  -8  -2 83.7735 39.2775   4
   2   8   2 61.9104 34.1082   2
  -2  -8  -3 50.0248 39.5348   3
   2   8   3 27.6046 35.1873   2
  -2  -8  -4 14.2494 34.8143   3
   2   8   4 98.7285 44.5229   2
  -2  -8  -5 134.719 48.9684   3
   2   8   5 174.007 51.3896   2
  -2  -8  -6 145.037 54.8349   3
   2   8   6 189.877 52.3307   2
  -2  -8  -7-42.0707 45.2410   3
   2   8   7-11.6609 35.3987   2
  -2  -8  -8-13.6292 37.4608   3
   2   8   8-59.2098 51.9441   2
  -2  -8  -9 37.2239 45.6768   3
   2   8   9 54.2100 47.7581   2
  -2  -8 -10 44.8884 48.9203   3
   2   8  10 24.8792 41.9259   2
  -2  -8 -11 70.1105 55.5783   3
   2   8  11-67.4940 56.7500   2
  -2  -8 -12-6.09443 56.2566   3
   2   8  12 48.1819 51.5069   2
  -2  -8 -13-62.6542 69.0115   3
   2   9  -9 68.8239 55.5334   3
   2   9  -8 2.43214 42.0280   3
  -2  -9   8-54.0579 55.5622   4
   2   9  -7 236.075 68.1366   3
  -2  -9   7 159.154 63.5455   4
   2   9  -6-8.46622 41.3580   3
  -2  -9   6-61.6637 48.7726   4
  -2  -9   5-28.7428 40.8342   4
   2   9  -5 38.3851 47.3896   3
   2   9  -4 132.607 61.1805   3
  -2  -9   4 64.2576 47.9576   4
   2   9  -3 24.8685 40.4746   3
  -2  -9   3-10.4768 39.0628   4
   2   9  -2 119.906 54.0463   3
  -2  -9   2 69.8006 42.6218   4
   2   9  -1 14.7251 40.4142   3
  -2  -9   1 17.9017 34.6563   4
   2   9   0 295.729 70.3004   3
  -2  -9   0 189.166 52.2433   4
  -2  -9  -1 304.841 68.6848   3
  -2  -9  -2 31.8563 38.7750   3
   2   9   2 29.0131 36.2140   2
  -2  -9  -3 368.460 78.6080   3
   2   9   3 170.280 52.2422   2
  -2  -9  -4 118.355 53.1916   3
   2   9   4 138.196 45.7352   2
  -2  -9  -5 225.522 65.1226   3
   2   9   5 87.7971 46.9329   2
  -2  -9  -6 66.4053 45.6822   3
   2   9   6 110.046 53.6805   2
  -2  -9  -7 134.674 59.0234   3
   2   9   7-32.9338 45.6187   2
  -2  -9  -8 26.0999 46.7979   3
   2   9   8 31.1969 40.8040   2
  -2  -9  -9-1.17469 47.7845   3
   2   9   9-30.7953 43.6319   2
  -2  -9 -10 21.3102 48.6412   3
   2   9  10-87.1016 58.7651   2
  -2 -10   6 42.5193 52.3577   4
   2  10  -6 39.1821 46.3999   3
  -2 -10   5 29.7199 51.2728   4
   2  10  -5-67.1867 59.1604   3
   2  10  -4 9.90373 45.6419   3
  -2 -10   4-28.5262 38.8713   4
   2  10  -3 171.112 61.3583   3
  -2 -10   3 218.734 62.4640   4
   2  10  -2 24.6340 40.8914   3
  -2 -10   2-37.8743 42.3503   4
   2  10  -1 234.204 71.6114   3
  -2 -10   0-30.3573 43.0006   3
  -2 -10  -1 18.9760 42.4196   3
  -2 -10  -2 55.7658 44.8337   3
  -2 -10  -3-24.1175 38.9662   3
  -2 -10  -4 102.333 53.8397   3
   2  10   4-19.5701 41.5449   2
  -2 -10  -5 2.87147 44.1722   3
   2  10   5-67.2099 51.8885   2
  -2 -10  -6 1.49939 42.7395   3
   2  10   6 32.0465 44.8759   2
  -2 -10  -7 60.9818 53.7603   3
   2  10   7-11.4015 46.2085   2
   2  10   8-13.3102 45.5325   2
   3 -10  -5 14.8887 43.5975   2
   3  -9  -8 73.0581 58.3262   2
   3  -9  -7-58.0802 57.1710   2
   3  -9  -6 56.0781 47.3460   2
   3  -9  -5-42.2745 47.8997   2
  -3   9   4 39.9561 70.9882   1
   3  -9  -4-16.6185 37.6457   2
  -3   9   3-14.3429 58.9423   1
   3  -9  -3 224.527 60.2873   2
   3  -9  -2 3.36641 35.8120   2
   3  -9   0 225.243 60.2817   1
   3  -9   1 34.4005 40.2450   1
   3  -9   2 88.7296 53.2171   1
   3  -9   3 107.032 50.3789   1
  -3   9  -4 336.798 73.3775   4
   3  -9   4 439.492 83.2180   1
  -3   9  -5 76.6960 47.3272   4
   3  -9   5 53.1207 44.5846   1
  -3   9  -6 47.6864 46.0567   4
   3  -9   6 2.67604 40.1175   1
  -3   9  -7-24.3369 43.5518   4
   3  -9   7-41.7979 45.8580   1
  -3   9  -8 13.9648 44.1168   4
   3  -9   8 27.4018 50.1926   1
  -3   8  12 30.3350 49.8689   1
  -3   8  11 24.0068 44.3383   1
  -3   8  10 53.6245 49.6060   1
   3  -8 -10 26.7258 46.7959   2
  -3   8   9 81.8022 52.3986   1
   3  -8  -9-34.7787 50.5206   2
  -3   8   8 66.0809 55.7696   1
   3  -8  -8-20.5273 50.0565   2
   3  -8  -7 77.7645 46.8332   2
  -3   8   7-39.0991 59.5473   1
   3  -8  -6 56.0784 43.8435   2
   3  -8  -5 15.9410 38.6039   2
  -3   8   4-84.6427 66.8280   1
   3  -8  -4 32.8999 39.5416   2
   3  -8  -3 52.4208 37.6299   2
   3  -8  -2 75.0327 45.6921   2
   3  -8  -1 94.4026 39.5507   2
   3  -8   0 168.747 48.6136   2
   3  -8   1 374.699 73.3547   1
   3  -8   2 558.449 85.8481   1
  -3   8  -2 431.245 71.1140   4
  -3   8  -3 324.923 62.2448   4
   3  -8   3 392.661 78.7535   1
  -3   8  -4 253.906 59.3304   4
   3  -8   4 348.149 70.9670   1
  -3   8  -5 197.254 56.9248   4
   3  -8   5 210.173 63.9311   1
  -3   8  -6 166.324 54.6868   4
   3  -8   6 88.3618 51.9599   1
  -3   8  -7 3.83928 37.1538   4
   3  -8   7 6.34654 38.3450   1
  -3   8  -8 11.5364 45.3620   4
   3  -8   8-45.9464 53.3554   1
  -3   8  -9 6.46711 45.7829   4
   3  -8   9-30.6132 50.0717   1
  -3   8 -10 8.01716 46.6957   4
   3  -8  10-54.8209 53.7394   1
  -3   7  13 75.0475 53.1389   1
  -3   7  12 27.0461 50.2650   1
   3  -7 -12 25.2216 53.5487   2
  -3   7  11-58.2581 47.0115   1
   3  -7 -11 39.5738 48.3729   2
  -3   7  10 36.6315 39.8362   1
   3  -7 -10 67.4428 50.6533   2
  -3   7   9 51.1498 41.3641   1
   3  -7  -9 73.9328 48.0770   2
   3  -7  -8 106.733 54.8613   2
  -3   7   8-3.18082 41.4802   1
   3  -7  -7-7.29775 40.6226   2
  -3   7   7 64.3503 45.8186   1
  -3   7   6 35.4907 52.7305   1
   3  -7  -6-34.7406 42.2555   2
   3  -7  -5 64.2057 40.1656   2
  -3   7   4 4.04402 48.7794   1
   3  -7  -4 202.722 56.4650   2
   3  -7  -3 83.1098 41.1536   2
   3  -7  -2-63.8078 41.5330   2
   3  -7  -1 934.170 88.3362   2
  -3   7   0 75.1839 32.5404   4
   3  -7   0 138.782 44.4192   2
  -3   7  -1-6.98009 33.1859   4
   3  -7   1-73.5066 34.7959   2
  -3   7  -2 150.137 42.0024   4
   3  -7   2 160.592 40.3745   2
   3  -7   2 158.566 49.5395   1
   3  -7   3 3645.23 192.099   1
  -3   7  -3 2989.95 166.471   4
  -3   7  -4 174.884 52.8990   4
   3  -7   4 325.271 67.0396   1
  -3   7  -5 298.196 67.9434   4
   3  -7   5 275.162 63.9600   1
  -3   7  -6-9.06264 34.4308   4
   3  -7   6 20.6304 38.0987   1
  -3   7  -7 334.531 70.4596   4
   3  -7   7 340.907 67.6373   1
  -3   7  -8 31.3212 48.5146   4
   3  -7   8-20.4242 41.1650   1
  -3   7  -9 58.1962 48.2306   4
   3  -7   9 145.928 57.2771   1
   3  -7  10 100.473 53.2791   1
  -3   7 -10 33.3601 48.2269   4
  -3   7 -11-19.1489 48.2730   4
   3  -7  11-8.13361 46.5731   1
  -3   7 -12 62.8391 64.8243   4
   3  -7  12 72.3368 57.9543   1
   3  -6 -14-99.8373 58.5914   2
  -3   6  14 3.48865 42.1933   1
  -3   6  13 237.527 65.0033   1
   3  -6 -13 216.759 70.3143   2
  -3   6  12 44.0715 42.4357   1
   3  -6 -12 32.5848 42.9258   2
  -3   6  11 30.8772 42.5460   1
   3  -6 -11 45.8470 46.6019   2
  -3   6  10 25.4995 38.5263   1
   3  -6 -10 90.2842 50.9159   2
  -3   6   9 130.987 52.7404   1
   3  -6  -9 284.623 70.6075   2
  -3   6   8 71.4122 46.4769   1
   3  -6  -8-15.4324 37.5034   2
  -3   6   7 219.504 56.6256   1
   3  -6  -7 151.099 52.3293   2
  -3   6   6 299.333 64.6740   1
   3  -6  -6 424.774 71.4595   2
  -3   6   5 563.855 82.9970   1
   3  -6  -5 507.554 74.6692   2
   3  -6  -4 45.1719 37.6321   2
   3  -6  -3 304.858 59.4754   2
  -3   6   2 704.867 63.8533   4
   3  -6  -2 758.203 80.1465   2
   3  -6  -1 47.8479 33.8450   2
  -3   6   1 12.7715 24.3031   4
  -3   6   0 701.009 69.4942   4
   3  -6   0 718.795 74.4769   2
  -3   6  -1 383.265 57.7675   4
   3  -6   1 334.113 51.5161   2
   3  -6   2 471.364 57.4871   2
  -3   6  -2 497.139 65.8072   4
   3  -6   3 492.883 59.5037   2
  -3   6  -3 693.720 81.4034   4
   3  -6   3 607.889 79.5897   1
   3  -6   4 65.8799 27.2134   2
   3  -6   4 114.698 49.7233   1
  -3   6  -4 133.824 47.6624   4
  -3   6  -5 537.269 76.9963   4
   3  -6   5 718.870 88.4835   1
  -3   6  -6 82.3584 47.5661   4
   3  -6   6 0.77989 38.4972   1
  -3   6  -7 290.741 66.4982   4
   3  -6   7 148.637 53.7951   1
  -3   6  -8-17.7137 37.8771   4
   3  -6   8 82.6039 46.4840   1
  -3   6  -9 42.5910 39.9552   4
   3  -6   9 3.79426 40.1525   1
  -3   6 -10-36.2537 41.5094   4
   3  -6  10 3.83216 40.5639   1
  -3   6 -11 132.565 64.4962   4
   3  -6  11 96.4818 58.6848   1
  -3   6 -12 108.579 63.2054   4
   3  -6  12 3.98307 44.0805   1
  -3   6 -13 148.382 61.1005   4
   3  -6  13-10.5817 47.5457   1
   3  -5 -16 71.6001 49.1201   3
   3  -5 -15-49.6230 47.8974   3
  -3   5  15 84.3776 53.1373   1
   3  -5 -15-30.2193 57.3070   2
   3  -5 -14-48.2444 47.1729   3
  -3   5  14 78.4014 55.9160   1
   3  -5 -14 13.5346 47.0644   2
   3  -5 -13-44.9629 45.6442   3
  -3   5  13 31.3798 46.6611   1
   3  -5 -13 4.18320 44.8251   2
   3  -5 -12-51.4368 42.6606   3
   3  -5 -12 32.3560 44.2958   2
  -3   5  12-27.6128 44.9212   1
   3  -5 -11 100.879 45.8675   3
  -3   5  11 27.6136 38.0529   1
   3  -5 -11 72.1236 54.4406   2
  -3   5  10-7.71315 33.6119   1
   3  -5 -10 8.18657 30.8087   3
   3  -5 -10 7.27066 44.5773   2
   3  -5  -9 492.570 63.6895   3
  -3   5   9 344.094 67.0106   1
   3  -5  -9 527.481 85.4948   2
   3  -5  -8 71.6446 33.0794   3
   3  -5  -8 72.2264 41.5334   2
  -3   5   8 76.1311 40.8851   1
  -3   5   7 313.696 62.6501   1
   3  -5  -7 281.116 45.2247   3
   3  -5  -7 403.289 71.6887   2
  -3   5   6 6.36417 30.0767   1
   3  -5  -6-19.8813 24.5975   3
   3  -5  -6 23.6469 31.9619   2
   3  -5  -5-37.8776 24.4930   3
   3  -5  -5-75.0456 43.3650   2
  -3   5   4 86.7303 37.9029   1
  -3   5   4 119.413 26.5242   4
   3  -5  -4 149.313 29.2262   3
   3  -5  -4 139.869 42.6506   2
  -3   5   3 42.6901 23.3355   4
   3  -5  -3-30.4249 30.6396   2
   3  -5  -2 647.215 71.2769   2
  -3   5   2 612.629 55.0273   4
   3  -5  -1 534.140 62.5785   2
  -3   5   1 572.639 56.1565   4
   3  -5   0 297.615 50.5267   2
  -3   5   0 324.209 46.7862   4
  -3   5  -1 5.99791 23.9192   4
   3  -5   1 11.5346 25.3046   2
   3  -5   2 4956.46 164.294   2
  -3   5  -2 5042.45 182.700   4
  -3   5  -3 166.065 43.8048   4
   3  -5   3 141.476 35.8376   2
   3  -5   3 117.779 43.0682   1
   3  -5   4 137.316 34.1446   2
   3  -5   4 89.4067 39.1119   1
  -3   5  -4 102.661 40.3299   4
   3  -5   5 646.154 58.7822   2
   3  -5   5 701.574 83.2931   1
  -3   5  -5 604.733 78.1564   4
  -3   5  -6 467.348 73.7003   4
   3  -5   6 570.408 79.5014   1
  -3   5  -7 74.5473 35.9061   4
   3  -5   7 79.7347 42.9636   1
  -3   5  -8 355.240 68.8218   4
   3  -5   8 416.164 70.3798   1
  -3   5  -9 175.585 55.0682   4
   3  -5   9 211.152 53.6914   1
  -3   5 -10 228.895 64.4134   4
   3  -5  10 61.9832 41.5320   1
  -3   5 -11 94.9543 53.3093   4
   3  -5  11 17.2789 41.1007   1
  -3   5 -12 81.4555 54.3192   4
   3  -5  12 15.8804 52.7092   1
  -3   5 -13 186.762 70.3248   4
   3  -5  13 102.636 57.5824   1
  -3   5 -14-19.2018 43.3398   4
   3  -5  14 31.9364 48.8971   1
  -3   5 -15 118.879 62.4841   4
   3  -5  15 109.427 57.7442   1
   3  -4 -17 72.4398 57.1113   3
   3  -4 -17 147.011 69.5050   2
  -3   4  16-21.8765 50.0687   1
   3  -4 -16-47.4865 56.0837   3
   3  -4 -16 71.9039 55.1797   2
  -3   4  15 9.94045 41.7812   1
   3  -4 -15 67.0203 49.7078   3
   3  -4 -15-50.6313 44.3124   2
  -3   4  14 77.3886 52.4595   1
   3  -4 -14 105.905 47.4956   3
   3  -4 -14 100.822 56.8642   2
  -3   4  13 104.960 56.4953   1
   3  -4 -13 15.5292 39.2989   3
   3  -4 -13 38.4416 44.0275   2
  -3   4  12 106.120 49.6223   1
   3  -4 -12 8.35083 34.8841   3
   3  -4 -12 59.1257 51.3904   2
   3  -4 -11 296.181 69.3099   2
  -3   4  11 223.848 55.5864   1
   3  -4 -11 289.838 57.4558   3
   3  -4 -10 332.396 57.5369   3
  -3   4  10 338.359 63.8961   1
   3  -4 -10 340.456 69.4819   2
  -3   4   9-9.11797 31.6108   1
   3  -4  -9 52.7886 38.5912   2
   3  -4  -8 637.237 63.2515   3
  -3   4   8 628.984 78.3307   1
   3  -4  -8 762.648 91.1374   2
   3  -4  -7 230.393 40.9387   3
  -3   4   7 230.601 48.9867   1
   3  -4  -7 198.344 49.4628   2
   3  -4  -6 1461.53 81.1742   3
  -3   4   6 1436.85 63.2648   4
  -3   4   6 1433.84 113.106   1
   3  -4  -6 1513.90 114.840   2
  -3   4   5-1.88453 32.7014   1
   3  -4  -5 21.4775 21.7303   3
   3  -4  -5 2.36053 29.3470   2
  -3   4   5 37.9691 19.1519   4
   3  -4  -4 1695.42 71.5707   3
  -3   4   4 1685.36 113.696   1
  -3   4   4 1699.13 76.9807   4
   3  -4  -4 1503.39 105.436   2
   3  -4  -3 1574.08 59.8347   3
  -3   4   3 1649.53 113.275   1
  -3   4   3 1477.42 75.4165   4
   3  -4  -3 1431.65 98.9959   2
   3  -4  -2 903.607 36.8385   3
  -3   4   2 941.825 63.2906   4
   3  -4  -2 871.765 78.5288   2
  -3   4   1 1102.36 72.2391   4
   3  -4  -1 1102.74 83.1021   2
  -3   4   0 481.649 53.7225   4
   3  -4   0 521.937 58.2247   2
  -3   4  -1 45.6066 28.4162   4
   3  -4   1 12.9861 24.4049   2
  -3   4  -2 10.3101 27.2281   4
   3  -4   2-8.70934 23.1333   2
  -3   4  -3 486.085 60.4688   4
   3  -4   3 504.815 52.8079   2
   3  -4   3 562.755 72.2867   1
   3  -4   4 248.075 53.8390   1
  -3   4  -4 298.799 51.3222   4
   3  -4   4 345.426 45.0324   2
   3  -4   5 1184.03 100.392   1
   3  -4   5 1310.68 78.7434   2
  -3   4  -5 1267.48 101.227   4
  -3   4  -6 218.088 52.3766   4
   3  -4   6 208.789 52.4308   1
   3  -4   6 230.927 39.8902   2
   3  -4   7 660.816 56.7759   2
  -3   4  -7 717.177 84.8755   4
   3  -4   7 645.144 79.0185   1
   3  -4   8 53.1620 40.4517   1
  -3   4  -8 4.90703 34.1340   4
  -3   4  -9 190.631 57.7076   4
   3  -4   9 227.272 57.0376   1
  -3   4 -10 234.065 60.5264   4
   3  -4  10 158.998 51.7217   1
  -3   4 -11-19.4754 46.1280   4
   3  -4  11-36.3338 42.2003   1
   3  -4  12 410.546 80.2883   1
  -3   4 -12 475.331 87.8193   4
  -3   4 -13 199.910 65.6593   4
   3  -4  13 9.71449 44.3966   1
  -3   4 -14 205.183 73.0425   4
   3  -4  14 40.7273 45.4899   1
  -3   4 -15 221.109 73.9292   4
   3  -4  15 127.650 57.9379   1
  -3   4 -16-48.8768 46.3191   4
   3  -4  16 1.91305 50.4960   1
   3  -3 -17 53.0947 50.1903   3
   3  -3 -17 141.257 61.9364   2
  -3   3  16-13.1226 45.5315   1
   3  -3 -16 15.2664 42.6553   3
   3  -3 -16-9.41128 40.7892   2
  -3   3  15 116.081 50.6951   1
   3  -3 -15-8.46435 48.5158   3
   3  -3 -15 47.3236 40.1191   2
  -3   3  14 231.964 67.7962   1
   3  -3 -14 147.982 60.7399   3
   3  -3 -14 203.892 65.2054   2
  -3   3  13-27.9588 35.9916   1
   3  -3 -13 70.7628 43.6469   3
   3  -3 -13 14.6707 38.9254   2
  -3   3  12 24.0486 33.5114   1
   3  -3 -12 36.2230 36.0414   3
   3  -3 -12 6.88849 40.2854   2
  -3   3  11 230.298 60.8441   1
   3  -3 -11 196.565 56.1499   2
   3  -3 -11 224.072 53.0039   3
  -3   3  10 1345.33 115.318   1
   3  -3 -10 1379.43 103.077   3
   3  -3 -10 1229.09 109.023   2
   3  -3  -9 644.142 67.9220   3
  -3   3   9 777.044 86.7291   1
   3  -3  -9 646.065 84.3856   2
   3  -3  -8 1718.22 100.346   3
  -3   3   8 1630.86 118.611   1
   3  -3  -8 1678.51 120.566   2
   3  -3  -7 565.824 58.5338   3
  -3   3   7 626.069 73.8842   1
  -3   3   7 533.410 44.6260   4
   3  -3  -7 445.072 63.5217   2
  -3   3   6 835.939 53.3049   4
   3  -3  -6 733.481 58.4543   3
  -3   3   6 802.197 79.6850   1
   3  -3  -6 782.573 77.7037   2
   3  -3  -5 230.258 32.0186   3
  -3   3   5 225.558 29.5564   4
   3  -3  -5 272.169 53.5651   2
  -3   3   5 320.479 52.8223   1
  -3   3   4 46.4329 27.9235   1
   3  -3  -4 72.8934 20.2775   3
  -3   3   4 78.0027 22.6444   4
   3  -3  -3 651.295 39.0972   3
  -3   3   3 596.888 68.0622   1
  -3   3   3 641.043 50.6398   4
   3  -3  -3 571.064 65.4010   2
  -3   3   2 798.473 36.4468   3
   3  -3  -2 895.394 36.9188   3
  -3   3   2 877.737 60.2948   4
  -3   3   2 858.043 80.4903   1
   3  -3  -2 950.487 77.6516   2
  -3   3   1 3099.11 114.333   4
   3  -3  -1 3099.33 131.618   2
   3  -3   0 76.9661 31.0047   2
  -3   3   0 105.750 29.5381   4
   3  -3   1 36.0562 24.5456   2
  -3   3  -1 77.4204 33.4744   4
   3  -3   2 59.3217 25.8439   2
  -3   3  -2 11.0167 23.1070   4
  -3   3  -3 381.490 51.5394   4
   3  -3   3 481.581 50.0336   2
   3  -3   4 1168.74 34.8777   3
  -3   3  -4 1274.58 36.0009   3
  -3   3  -4 1351.70 94.0880   4
   3  -3   4 1304.43 97.3998   1
   3  -3   4 1472.09 82.5120   2
  -3   3  -5 25.3754 24.5971   4
   3  -3   5 11.5065 20.9852   2
   3  -3   5 18.2448 34.3934   1
  -3   3  -5 19.8255 11.6617   3
   3  -3   6 4.45255 19.0785   2
   3  -3   6 4.09819 29.4812   1
  -3   3  -6 51.4994 17.6724   3
  -3   3  -6 34.3067 25.3042   4
  -3   3  -7 267.459 54.3506   4
  -3   3  -7 240.025 31.3450   3
   3  -3   7 331.629 55.1855   1
   3  -3   7 344.464 42.2204   2
  -3   3  -8 70.8129 43.1062   4
   3  -3   8 96.4918 28.6575   2
  -3   3  -8 96.7180 26.2659   3
   3  -3   8 133.362 48.4267   1
  -3   3  -9 215.697 39.1406   3
  -3   3  -9 230.123 55.6801   4
   3  -3   9 231.296 37.5781   2
   3  -3   9 277.913 60.7220   1
  -3   3 -10 183.516 50.0880   4
  -3   3 -10 223.590 41.2099   3
  -3   3 -11 117.848 35.9025   3
   3  -3  11 203.555 52.8991   1
  -3   3 -11 132.290 48.1678   4
  -3   3 -12 139.008 61.6980   4
  -3   3 -12 97.5638 38.0351   3
   3  -3  12 97.2185 49.2994   1
  -3   3 -13-53.1904 44.5193   4
  -3   3 -13 37.5691 32.2944   3
   3  -3  13-1.95071 38.5669   1
   3  -3  14 365.080 75.5213   1
  -3   3 -14 569.542 94.8416   4
  -3   3 -15-20.0672 47.4902   4
   3  -3  15-20.4811 45.0279   1
  -3   3 -16 3.13599 45.4688   4
   3  -3  16-40.7364 50.9901   1
  -3   3 -17 4.22797 46.0551   4
   3  -2 -17 55.0013 54.2379   3
  -3   2  17 13.6348 46.5499   1
  -3   2  16-23.2367 41.2421   1
   3  -2 -16 65.3546 47.3265   3
   3  -2 -16 50.5321 43.2932   2
  -3   2  15-2.45808 41.5596   1
   3  -2 -15-0.67757 41.8825   3
   3  -2 -15 10.7340 40.4060   2
  -3   2  14-33.6908 38.1808   1
   3  -2 -14-3.18588 45.2343   3
   3  -2 -14-20.7816 41.6677   2
  -3   2  13 20.1769 36.1160   1
   3  -2 -13-52.2603 47.4992   2
   3  -2 -13-8.64297 41.2383   3
  -3   2  12-88.8928 45.0246   1
   3  -2 -12-59.0894 34.8369   2
  -3   2  11 43.9554 36.1908   1
   3  -2 -11 25.9994 33.4701   3
   3  -2 -11-14.3478 36.4940   2
  -3   2  10-4.52504 34.9760   1
   3  -2 -10 23.0366 38.1082   2
   3  -2 -10-7.77779 28.5136   3
  -3   2   9-2.42394 30.7307   1
   3  -2  -9 26.6160 27.7602   3
  -3   2   9 44.7567 21.1249   4
   3  -2  -9 48.7619 37.5571   2
   3  -2  -8 37.2152 34.0658   2
  -3   2   8 36.2757 34.3832   1
   3  -2  -8 53.7221 29.2670   3
  -3   2   8 22.3148 18.2299   4
  -3   2   7 47.3442 32.3851   1
  -3   2   7 61.2895 19.7755   4
   3  -2  -7 72.8258 27.4329   3
   3  -2  -7 23.7827 27.1813   2
   3  -2  -6 48.2126 22.8718   3
  -3   2   6 84.7444 29.7712   1
  -3   2   6 82.2469 24.2167   4
   3  -2  -6 95.6287 34.3604   2
   3  -2  -5 570.784 48.7451   3
  -3   2   5 502.466 58.7113   1
  -3   2   5 580.020 49.2072   4
   3  -2  -5 444.306 57.9066   2
   3  -2  -4 899.592 53.9660   3
  -3   2   4 994.835 81.7148   1
  -3   2   4 849.352 58.1858   4
   3  -2  -4 879.374 77.0993   2
   3  -2  -3 822.643 47.0920   3
  -3   2   3 787.874 70.9045   1
  -3   2   3 883.133 61.6079   4
   3  -2  -3 825.110 73.2596   2
   3  -2  -2 763.279 39.2530   3
  -3   2   2 777.035 70.4337   1
  -3   2   2 826.946 57.5938   4
   3  -2  -2 789.108 67.3865   2
  -3   2   1 1461.17 42.2135   3
   3  -2  -1 1467.34 42.4494   3
  -3   2   1 1515.92 119.167   1
   3  -2  -1 1692.64 93.2789   2
  -3   2   1 1572.31 81.3966   4
   3  -2   0 14.1185 21.4514   2
  -3   2   0 30.6911 21.2612   4
  -3   2  -1 1196.57 76.7295   4
   3  -2   1 1413.45 81.2277   2
   3  -2   2 2289.55 103.052   2
  -3   2  -2 2337.12 107.783   4
   3  -2   3 14.0508 22.6938   2
  -3   2  -3 48.3373 27.8912   4
  -3   2  -3 18.1528 6.44058   3
  -3   2  -3 27.2068 7.69188   3
  -3   2  -4 3886.20 76.9777   3
  -3   2  -4 3676.77 80.9357   3
   3  -2   4 3800.79 128.800   2
  -3   2  -4 3542.26 141.805   4
   3  -2   4 3684.96 148.520   1
   3  -2   5 34.0764 21.4919   2
   3  -2   5-42.7786 28.0316   1
  -3   2  -5-2.29736 12.8125   3
  -3   2  -5-3.87711 24.6964   4
   3  -2   6 2649.63 109.357   2
  -3   2  -6 2553.76 84.6825   3
  -3   2  -6 2288.22 123.592   4
   3  -2   6 2256.90 122.994   1
  -3   2  -7 139.167 36.9306   4
   3  -2   7 240.040 39.6219   2
  -3   2  -7 183.066 30.0026   3
   3  -2   7 211.969 45.3945   1
  -3   2  -8 1367.60 77.3117   3
   3  -2   8 1458.48 82.9843   2
  -3   2  -8 1312.63 103.951   4
   3  -2   8 1293.06 99.1304   1
  -3   2  -9 376.898 46.9807   3
   3  -2   9 387.398 46.6752   2
  -3   2  -9 371.235 64.1511   4
   3  -2   9 444.938 68.5703   1
  -3   2 -10 459.164 54.5715   3
  -3   2 -10 549.214 73.6766   4
   3  -2  10 567.974 57.2996   2
   3  -2  10 592.147 81.1231   1
  -3   2 -11 592.566 66.8145   3
  -3   2 -11 635.415 81.0970   4
   3  -2  11 511.745 53.6315   2
   3  -2  11 766.984 92.9682   1
  -3   2 -12 28.1117 38.5152   4
  -3   2 -12 5.60868 30.8067   3
   3  -2  12-25.3846 37.9652   1
  -3   2 -13 136.694 46.3237   3
   3  -2  13 148.439 53.8558   1
  -3   2 -13 67.3533 39.6925   4
  -3   2 -14 152.272 63.2439   4
   3  -2  14 73.4334 48.1650   1
  -3   2 -14 111.330 45.0532   3
  -3   2 -15 65.3297 54.2378   4
  -3   2 -15 106.640 44.7775   3
   3  -2  15 26.7304 50.8163   1
  -3   2 -16 26.1271 42.4589   4
  -3   2 -16 44.4480 45.6613   3
   3  -2  16-30.5738 45.9142   1
  -3   2 -17-13.9763 47.1916   4
  -3   2 -17 2.22950 38.4551   3
   3  -2  17 56.2879 44.9523   1
  -3   2 -18 132.098 63.3574   4
   3  -1 -17 41.1317 51.1500   3
  -3   1  17-12.2671 51.8245   1
   3  -1 -16 66.9128 51.2457   3
  -3   1  16 47.9146 45.0766   1
   3  -1 -15 70.7658 44.7910   2
   3  -1 -15-10.0808 41.7956   3
  -3   1  15 76.0265 48.5375   1
   3  -1 -14-9.88587 36.9281   2
   3  -1 -14-15.8657 46.4566   3
  -3   1  14 58.5545 42.3699   1
   3  -1 -13-19.4918 30.8723   2
   3  -1 -13-14.9205 33.3475   3
  -3   1  13 47.3708 42.7984   1
   3  -1 -12 285.694 59.7767   2
   3  -1 -12 428.663 73.8945   3
  -3   1  12 268.047 62.3534   1
  -3   1  11 1145.99 104.466   1
   3  -1 -11 1258.54 106.490   3
  -3   1  11 1149.11 81.5664   4
   3  -1 -11 1178.23 102.486   2
  -3   1  10 1460.55 109.541   1
   3  -1 -10 1247.45 100.541   3
  -3   1  10 1328.03 83.9405   4
   3  -1 -10 1227.92 99.4193   2
  -3   1   9 1726.73 114.592   1
   3  -1  -9 1613.42 105.318   3
  -3   1   9 1643.21 90.3200   4
   3  -1  -9 1559.02 110.238   2
  -3   1   8 1453.82 103.180   1
   3  -1  -8 1351.18 90.2377   3
  -3   1   8 1385.15 81.4923   4
   3  -1  -8 1392.17 98.6906   2
  -3   1   7 1817.95 113.405   1
   3  -1  -7 1575.49 91.1456   3
  -3   1   7 1607.75 84.9542   4
   3  -1  -7 1562.62 103.011   2
   3  -1  -6 257.898 43.3083   2
  -3   1   6 274.923 46.3043   1
   3  -1  -6 280.554 38.1152   3
  -3   1   6 286.504 39.4239   4
   3  -1  -5 39.2495 25.5889   2
  -3   1   5 11.5789 21.5725   1
   3  -1  -5 18.1866 17.2185   3
  -3   1   5-4.43412 21.2747   4
   3  -1  -4 5621.92 139.438   3
  -3   1   4 5871.20 173.338   1
   3  -1  -4 5743.06 175.089   2
  -3   1   4 5694.20 153.946   4
   3  -1  -3 1161.06 59.4918   3
  -3   1   3 1303.47 85.5514   1
   3  -1  -3 1175.60 82.0863   2
  -3   1   3 1203.67 69.5939   4
   3  -1  -2 5691.47 116.881   3
  -3   1   2 5976.35 167.931   1
  -3   1   2 5518.73 152.739   4
   3  -1  -2 5544.78 164.745   2
  -3   1   1 61.5351 25.0799   1
   3  -1  -1 21.2864 28.0463   2
   3  -1  -1 42.2878 13.9363   3
  -3   1   1 17.2443 21.5830   4
  -3   1   0 7065.73 110.052   3
   3  -1   0 7303.82 111.928   3
  -3   1   0 7184.35 179.706   4
   3  -1   0 6857.30 178.362   2
  -3   1  -1 1749.28 53.3910   3
   3  -1   1 1707.24 92.3029   2
  -3   1  -1 1691.87 88.4342   4
  -3   1  -2 3833.99 81.8855   3
  -3   1  -2 3693.90 130.725   4
  -3   1  -2 3901.00 79.5711   3
   3  -1   2 3796.36 131.338   2
  -3   1  -3 1470.07 53.2732   3
  -3   1  -3 1330.50 83.7029   4
   3  -1   3 1307.88 78.7257   2
   3  -1   3 1539.13 89.1849   1
  -3   1  -4 1177.38 52.5312   3
   3  -1   4 1402.24 87.4394   1
   3  -1   4 1132.67 74.0715   2
  -3   1  -4 1209.11 83.3131   4
  -3   1  -5 2789.80 87.2102   3
   3  -1   5 2921.09 115.908   2
  -3   1  -5 2805.67 128.900   4
   3  -1   5 2879.39 125.862   1
   3  -1   6 86.9737 32.1270   2
  -3   1  -6 93.9029 25.0697   3
   3  -1   6 95.0167 32.5126   1
  -3   1  -6 94.6704 32.2243   4
   3  -1   7 113.697 30.0997   2
  -3   1  -7 112.598 28.1978   3
   3  -1   7 100.132 35.3179   1
  -3   1  -7 127.085 39.5855   4
  -3   1  -8 86.5740 36.9287   4
   3  -1   8 86.0240 28.1331   2
  -3   1  -8 76.4985 27.6226   3
   3  -1   8 65.5668 35.8312   1
  -3   1  -9 1519.45 91.2597   3
  -3   1  -9 1417.26 104.059   4
   3  -1   9 1354.91 83.6425   2
   3  -1   9 1425.81 105.019   1
  -3   1 -10 136.889 44.1751   4
  -3   1 -10 102.919 31.1942   3
   3  -1  10 128.011 35.0346   2
   3  -1  10 146.248 49.2925   1
  -3   1 -11 605.276 69.9876   3
  -3   1 -11 726.322 85.3652   4
   3  -1  11 611.037 62.2350   2
   3  -1  11 800.064 85.6178   1
  -3   1 -12 109.092 39.1208   3
   3  -1  12 99.5098 34.2804   2
  -3   1 -12 69.7012 38.4181   4
   3  -1  12 47.5501 35.8471   1
  -3   1 -13-54.6692 42.8074   4
  -3   1 -13-14.0657 32.1520   3
   3  -1  13 22.2103 33.9543   1
  -3   1 -14 105.449 43.7576   4
  -3   1 -14 139.459 49.0580   3
   3  -1  14 51.3363 37.7672   1
  -3   1 -15 144.690 58.6139   4
  -3   1 -15 36.5592 40.4860   3
   3  -1  15 80.0245 46.9924   1
  -3   1 -16 1.09046 43.2223   4
  -3   1 -16 50.6812 42.7571   3
   3  -1  16-10.7545 45.8887   1
   3  -1  17 50.7036 54.3187   1
  -3   1 -17-58.2256 47.3424   4
  -3   1 -17 17.4896 44.0864   3
  -3   1 -18-2.88014 45.5130   4
  -3   1 -18 39.3779 49.9462   3
  -3   0  17-28.6869 55.2147   1
   3   0 -17 28.6949 48.4899   3
   3   0 -16 2.52094 44.2104   3
  -3   0  16 199.266 65.9199   1
   3   0 -15-3.20522 40.3791   3
  -3   0  15 56.0874 46.0638   1
   3   0 -14 46.0040 36.3733   2
  -3   0  14 54.8154 44.3612   1
   3   0 -14 71.3586 42.8323   3
   3   0 -13 130.347 42.0927   2
   3   0 -13 193.765 53.6628   3
  -3   0  13 304.218 64.8887   1
  -3   0  13 186.125 47.9762   4
   3   0 -12 19.6776 32.2289   2
  -3   0  12 35.2057 37.6677   1
   3   0 -12 28.1964 33.6081   3
  -3   0  12 53.1952 34.1593   4
  -3   0  11 543.987 74.4386   1
   3   0 -11 481.679 73.3095   3
  -3   0  11 504.272 63.4293   4
   3   0 -11 539.621 65.0890   2
  -3   0  10 390.104 61.2706   1
   3   0 -10 418.982 60.6765   3
  -3   0  10 398.220 55.2319   4
   3   0 -10 459.602 59.8987   2
   3   0  -9 18.3113 27.3995   2
   3   0  -9-28.1159 28.2401   3
  -3   0   9 18.9583 24.8055   4
  -3   0   9-23.5524 28.4437   1
  -3   0   8 1396.24 96.3251   1
   3   0  -8 1392.98 98.0992   3
  -3   0   8 1269.55 88.0350   4
   3   0  -8 1244.00 89.9876   2
   3   0  -7-3.57466 23.7037   2
  -3   0   7-18.4866 26.3425   1
   3   0  -7 0.27052 23.3674   3
  -3   0   7-11.6009 21.8458   4
  -3   0   6 531.107 57.3135   1
   3   0  -6 490.690 53.0411   3
  -3   0   6 472.205 50.8961   4
   3   0  -6 399.447 52.2321   2
   3   0  -5 187.010 34.4429   2
  -3   0   5 295.535 47.5748   1
   3   0  -5 283.172 38.4569   3
  -3   0   5 219.567 37.9118   4
   3   0  -4-21.6052 23.8673   2
  -3   0   4 20.1360 20.9386   4
  -3   0   4-18.0742 21.3911   1
   3   0  -4 36.1310 21.7307   3
   3   0  -3 514.192 45.1430   3
  -3   0   3 528.033 49.3806   1
  -3   0   3 500.649 51.6860   4
   3   0  -3 479.499 51.6712   2
  -3   0   2 124.953 29.5704   1
   3   0  -2 46.6291 24.5186   2
   3   0  -2 80.6842 21.3065   3
  -3   0   2 106.805 30.7228   4
   3   0  -1 21.1845 21.9306   2
   3   0  -1 29.9188 17.8457   3
  -3   0   1 4.68075 21.2705   4
  -3   0   1 16.7766 18.5691   1
   3   0   0 5.18649 23.7152   2
   3   0   0 0.69854 15.6265   3
  -3   0   0-18.0693 20.9365   4
   3   0   1 180.364 37.7006   2
   3   0   1 127.877 22.5867   3
  -3   0  -1 118.258 32.6771   4
  -3   0  -2 34.0419 16.0070   3
   3   0   2-6.56795 22.1576   2
  -3   0  -2 34.5155 25.9481   4
  -3   0  -3 473.215 39.6807   3
  -3   0  -3 468.312 52.3401   4
   3   0   3 453.829 48.2073   2
   3   0   3 457.983 49.9314   1
  -3   0  -4 44.9605 27.6954   4
  -3   0  -4 45.9853 21.5346   3
   3   0   4 12.8920 21.6280   2
   3   0   4 33.8984 21.8262   1
  -3   0  -5 406.264 40.8585   3
   3   0   5 375.608 47.0922   2
  -3   0  -5 330.564 48.7474   4
   3   0   5 395.135 45.7868   1
  -3   0  -6 503.523 47.7877   3
   3   0   6 469.095 51.8316   1
  -3   0  -6 472.371 56.1737   4
   3   0   6 471.849 51.8252   2
  -3   0  -7 630.488 55.8942   3
  -3   0  -7 697.351 67.3648   4
   3   0   7 743.005 64.0269   2
   3   0   7 801.210 71.1509   1
  -3   0  -8 245.175 40.8038   3
   3   0   8 288.301 42.8170   2
   3   0   8 266.321 45.2289   1
  -3   0  -8 223.173 45.0979   4
  -3   0  -9 751.741 69.1670   3
   3   0   9 788.646 75.9723   1
  -3   0  -9 835.293 79.4277   4
   3   0   9 821.036 70.3517   2
  -3   0 -10 230.933 52.3335   4
  -3   0 -10 179.085 42.0725   3
   3   0  10 202.085 41.6121   2
   3   0  10 196.491 44.1452   1
  -3   0 -11 72.7790 40.7160   4
  -3   0 -11 86.3280 39.6870   3
   3   0  11 21.1746 27.3216   2
   3   0  11 63.7548 35.2018   1
  -3   0 -12 81.7548 39.5712   4
  -3   0 -12 68.7097 38.1084   3
   3   0  12 101.884 35.4596   2
   3   0  12 114.595 47.1827   1
  -3   0 -13 59.5049 37.0192   4
  -3   0 -13 70.0061 40.4924   3
   3   0  13 23.2107 27.3375   2
   3   0  13-16.8580 33.2691   1
  -3   0 -14 91.5497 45.9574   4
  -3   0 -14-27.2153 44.2227   3
   3   0  14-3.04539 29.8803   2
   3   0  14 101.086 50.8016   1
  -3   0 -15 91.6262 46.1451   4
  -3   0 -15 43.5708 44.8064   3
   3   0  15-28.7606 45.7432   1
  -3   0 -16 125.847 56.2959   4
   3   0  16 52.2308 52.5516   1
  -3   0 -16 97.5910 52.4831   3
  -3   0 -17 26.8930 38.2502   4
   3   0  17 41.9209 52.2558   1
  -3   0 -17 29.0545 46.4239   3
   3   0  18 23.0854 48.9198   1
  -3   0 -18 57.1392 55.7784   3
   3   1 -17 66.4887 57.2384   3
  -3  -1  17-8.92270 43.3599   1
   3   1 -16 135.564 69.3516   3
  -3  -1  16-54.1034 42.9210   1
   3   1 -15 11.4272 45.1878   3
  -3  -1  15 11.4492 41.6631   1
   3   1 -14 45.1571 46.7310   3
  -3  -1  14-61.3907 44.6252   1
  -3  -1  14 21.6107 35.8529   4
   3   1 -13 92.0470 46.4429   3
  -3  -1  13-33.3625 39.4083   1
  -3  -1  13 62.1933 38.6268   4
   3   1 -12 436.392 72.6413   3
  -3  -1  12 426.553 62.8712   4
  -3  -1  12 371.966 63.9348   1
   3   1 -12 308.693 50.5551   2
  -3  -1  11 902.429 91.4083   1
   3   1 -11 998.536 98.6784   3
  -3  -1  11 939.053 89.4678   4
   3   1 -11 899.555 80.0199   2
   3   1 -10 359.765 64.6200   3
  -3  -1  10 283.604 52.5798   4
   3   1 -10 293.331 47.0596   2
  -3  -1  10 243.451 48.3958   1
  -3  -1   9 349.993 56.1340   1
   3   1  -9 370.393 61.3712   3
  -3  -1   9 252.385 50.7506   4
   3   1  -9 291.237 47.4475   2
  -3  -1   8 285.339 48.2684   1
   3   1  -8 277.804 50.8393   3
   3   1  -8 239.310 40.5802   2
  -3  -1   8 207.939 45.9069   4
   3   1  -7 98.5485 33.5046   2
   3   1  -7 69.7747 34.5641   3
  -3  -1   7 101.059 34.6657   1
  -3  -1   7 94.5447 38.5096   4
   3   1  -6 14.1162 21.1549   2
   3   1  -6 26.0169 22.0823   3
  -3  -1   6 8.74469 20.5785   4
  -3  -1   6 26.0333 21.1093   1
  -3  -1   5 2744.36 110.316   1
   3   1  -5 2642.56 116.746   3
  -3  -1   5 2647.78 120.148   4
   3   1  -5 2690.05 113.537   2
  -3  -1   4 1244.65 75.6338   1
   3   1  -4 1151.81 76.6701   3
  -3  -1   4 1003.65 72.7804   4
   3   1  -4 1086.80 73.9690   2
  -3  -1   3 3023.83 105.137   1
   3   1  -3 2985.46 112.704   3
   3   1  -3 2949.92 116.756   2
  -3  -1   3 2945.72 120.479   4
  -3  -1   2 229.712 33.4350   1
   3   1  -2 274.084 39.8514   2
   3   1  -2 240.207 35.8409   3
  -3  -1   2 277.249 42.3198   4
   3   1  -1 5096.84 138.676   3
  -3  -1   1 5006.47 154.521   4
   3   1  -1 5030.25 149.094   2
  -3  -1   1 5266.35 131.310   1
   3   1   0 3727.35 116.445   3
   3   1   0 3764.31 128.751   2
  -3  -1   0 3605.37 130.762   4
   3   1   1 4626.04 128.402   3
   3   1   1 4535.63 146.214   2
  -3  -1  -1 4590.08 146.331   4
  -3  -1  -2 2483.39 112.121   4
   3   1   2 2732.38 99.3619   3
   3   1   2 2567.36 109.698   2
   3   1   3 1522.77 72.8525   1
  -3  -1  -3 1452.15 74.9909   3
   3   1   3 1360.03 85.5594   2
  -3  -1  -3 1414.79 86.2840   4
  -3  -1  -4 7839.88 177.289   3
  -3  -1  -4 7395.19 192.711   4
   3   1   4 7754.62 197.870   2
   3   1   4 7805.09 167.004   1
  -3  -1  -5 176.334 36.0839   3
   3   1   5 110.645 36.4960   2
   3   1   5 126.396 29.8765   1
  -3  -1  -5 108.351 30.8759   4
  -3  -1  -6 316.177 45.1289   3
  -3  -1  -6 299.677 46.1838   4
   3   1   6 353.326 48.9489   2
   3   1   6 364.378 43.8183   1
  -3  -1  -7 459.473 54.9379   3
  -3  -1  -7 366.005 50.9414   4
   3   1   7 369.920 50.5765   2
   3   1   7 363.848 47.2537   1
  -3  -1  -8 4159.70 151.747   3
  -3  -1  -8 4144.36 159.799   4
   3   1   8 4198.96 159.483   2
   3   1   8 3990.09 146.417   1
  -3  -1  -9 43.1779 30.5272   3
   3   1   9 26.2376 24.1625   2
   3   1   9 18.5976 28.2755   1
  -3  -1  -9 26.1173 28.7294   4
  -3  -1 -10 3632.79 159.024   3
   3   1  10 3543.74 154.012   1
  -3  -1 -10 3948.48 164.703   4
   3   1  10 3509.68 154.429   2
  -3  -1 -11 925.298 88.4838   3
  -3  -1 -11 867.522 82.4850   4
   3   1  11 981.006 86.6590   2
   3   1  11 923.658 86.5315   1
  -3  -1 -12 1189.76 104.119   3
  -3  -1 -12 1029.05 92.7600   4
   3   1  12 1017.64 91.2370   2
   3   1  12 1176.38 101.151   1
  -3  -1 -13 94.4504 40.4113   4
  -3  -1 -13 71.3063 47.1293   3
   3   1  13 45.0791 34.0405   2
   3   1  13-9.97647 36.7236   1
   3   1  14 50.1558 37.6371   1
  -3  -1 -14 9.95147 40.2737   3
   3   1  14 32.4070 34.6548   2
  -3  -1 -14 52.3390 36.0755   4
  -3  -1 -15 3.86062 33.6103   4
   3   1  15 23.8989 42.1819   1
  -3  -1 -15 39.5444 41.6254   3
   3   1  15 91.7200 44.7286   2
  -3  -1 -16-25.5005 34.1866   4
   3   1  16-3.00465 38.9206   1
  -3  -1 -16-8.50665 43.9886   3
   3   1  17 96.1250 53.4797   1
  -3  -1 -17-4.43125 46.7212   3
   3   1  18 100.396 57.0712   1
  -3  -1 -18 5.12357 54.3177   3
  -3  -2  17 156.061 66.3014   1
  -3  -2  16 121.625 56.5582   1
   3   2 -16 116.402 56.6407   3
  -3  -2  16-11.0213 37.4062   4
   3   2 -15-33.3906 51.6869   3
  -3  -2  15-15.2499 34.3644   4
  -3  -2  15-23.2078 36.0622   1
  -3  -2  14-16.4761 34.7891   4
   3   2 -14 36.7337 43.5849   3
  -3  -2  14 9.24033 34.7373   1
   3   2 -13 8.58243 42.1603   3
  -3  -2  13 66.7270 44.9639   1
  -3  -2  13 19.8815 31.9879   4
   3   2 -12 206.997 57.4191   3
  -3  -2  12 209.289 50.0802   1
  -3  -2  12 226.376 55.7393   4
  -3  -2  11 484.584 68.4525   1
   3   2 -11 369.347 69.3669   3
  -3  -2  11 351.024 60.4198   4
   3   2 -10 44.8979 26.3420   2
  -3  -2  10-18.0700 30.1482   1
  -3  -2  10-8.20370 30.5123   4
  -3  -2   9 2137.23 118.921   1
   3   2  -9 2197.81 138.412   3
  -3  -2   9 1933.35 124.034   4
   3   2  -9 2102.12 104.344   2
   3   2  -8-29.7509 25.4154   2
   3   2  -8 10.6405 28.7709   3
  -3  -2   8-0.56549 22.4892   1
  -3  -2   8 26.4541 29.8337   4
  -3  -2   7 1158.03 80.8901   1
   3   2  -7 1118.82 90.2299   3
   3   2  -7 1155.84 76.8763   2
  -3  -2   7 1072.65 89.2346   4
  -3  -2   6 1919.92 94.3457   1
   3   2  -6 1872.06 111.028   3
  -3  -2   6 1525.94 102.755   4
   3   2  -6 1854.44 94.4526   2
  -3  -2   5 210.543 33.4980   1
   3   2  -5 240.104 42.6872   3
   3   2  -5 236.500 36.8490   2
  -3  -2   5 191.994 42.4760   4
  -3  -2   4 3026.93 104.813   1
   3   2  -4 3037.60 129.592   3
  -3  -2   4 2958.01 131.981   4
   3   2  -4 3058.55 118.158   2
  -3  -2   3 1571.41 73.3592   1
   3   2  -3 1613.50 90.0873   3
  -3  -2   3 1336.14 87.9753   4
   3   2  -3 1460.82 81.3440   2
   3   2  -2 175.796 32.4410   2
  -3  -2   2 188.850 26.3597   1
   3   2  -2 226.357 36.5085   3
  -3  -2   2 157.858 37.1323   4
   3   2  -1 1765.08 91.6724   3
  -3  -2   1 1716.71 66.8420   1
   3   2  -1 1657.95 88.0429   2
  -3  -2   1 1740.67 95.1912   4
   3   2   0 791.980 63.6917   3
  -3  -2   0 825.667 65.4568   4
   3   2   0 822.939 64.9953   2
   3   2   1 161.833 34.6498   2
   3   2   1 129.708 31.9603   3
  -3  -2  -1 150.921 36.2805   4
   3   2   2 2219.62 109.604   2
   3   2   2 1882.86 94.6636   3
  -3  -2  -2 1751.33 94.4871   4
   3   2   2 1981.55 68.0379   1
  -3  -2  -3 306.955 44.5089   3
   3   2   3 355.595 47.8579   2
  -3  -2  -3 366.894 49.1250   4
   3   2   3 347.845 31.1205   1
  -3  -2  -4 1686.15 93.9147   3
   3   2   4 1646.69 96.4179   2
  -3  -2  -4 1774.94 94.2504   4
   3   2   4 1691.52 70.7285   1
  -3  -2  -5 129.177 31.7333   3
   3   2   5 100.915 31.4399   2
   3   2   5 131.310 28.5397   1
  -3  -2  -5 143.344 36.1056   4
  -3  -2  -6 416.531 53.2273   3
  -3  -2  -6 393.480 48.9644   4
   3   2   6 392.725 51.2879   2
   3   2   6 406.415 42.5659   1
   3   2   7-9.92488 25.6719   2
   3   2   7 22.7554 22.5070   1
  -3  -2  -7-8.32706 26.7429   4
   3   2   8 28.9559 25.4794   1
  -3  -2  -8 3.10821 26.0464   3
   3   2   8 16.1848 28.7079   2
  -3  -2  -8 51.1108 27.2495   4
  -3  -2  -9 104.178 37.5109   3
   3   2   9 124.037 42.3246   2
   3   2   9 105.904 30.6118   1
  -3  -2  -9 36.8979 26.3471   4
  -3  -2 -10 32.4085 36.3086   3
   3   2  10 56.6186 35.1454   2
   3   2  10 85.1335 32.5969   1
  -3  -2 -10 53.9224 32.3152   4
  -3  -2 -11-7.16571 33.8219   3
   3   2  11 15.3107 33.2257   2
   3   2  11 46.1230 29.0306   1
  -3  -2 -11 5.79800 27.2527   4
  -3  -2 -12 43.4247 30.2055   4
   3   2  12 97.5766 39.0637   1
  -3  -2 -12 69.4957 44.0936   3
   3   2  12 60.8540 38.4954   2
   3   2  13 65.3981 37.8730   1
  -3  -2 -13 8.00983 28.2574   4
  -3  -2 -13 7.13159 36.7077   3
   3   2  13 16.3708 30.8183   2
  -3  -2 -14 22.0228 35.7611   4
   3   2  14 16.8386 37.5621   1
  -3  -2 -14 51.5696 46.8407   3
   3   2  14-30.8912 37.7569   2
   3   2  15-11.6910 34.7108   1
  -3  -2 -15-7.51063 42.3021   3
   3   2  15-16.0063 43.8526   2
   3   2  16 53.3448 45.4740   1
  -3  -2 -16 115.620 65.2533   3
   3   2  16-17.8333 41.9954   2
   3   2  17-55.2833 50.3122   1
  -3  -2 -17 20.9585 50.8984   3
   3   2  17 6.95705 41.6597   2
   3   2  18-0.54546 41.4348   1
  -3  -2 -18 42.0677 55.8984   3
  -3  -3  17 30.2441 48.4109   1
  -3  -3  17 18.0031 45.7593   4
   3   3 -16 114.961 64.8930   3
  -3  -3  16-3.66949 45.5091   1
  -3  -3  16 78.5372 52.8864   4
   3   3 -15-2.39437 40.3060   3
  -3  -3  15 13.4347 43.5956   1
  -3  -3  15 23.7207 36.9380   4
   3   3 -14-13.4404 49.5351   3
  -3  -3  14 34.5960 41.8847   1
  -3  -3  14 9.48314 36.6813   4
   3   3 -13 101.465 50.3712   3
  -3  -3  13-12.7738 38.7401   1
  -3  -3  13 67.5742 47.8233   4
   3   3 -12 44.5007 44.9097   3
  -3  -3  12-28.9121 32.1385   1
  -3  -3  12-7.36987 36.3537   4
   3   3 -11-4.72954 43.1326   3
  -3  -3  11 18.5683 28.6170   1
  -3  -3  11-43.4797 31.6722   4
   3   3 -10-29.5297 35.9359   3
  -3  -3  10-17.3241 30.8594   4
  -3  -3  10-60.6422 36.4231   1
   3   3  -9 21.3616 20.4208   2
   3   3  -9-1.01761 34.6256   3
  -3  -3   9 45.6507 32.8971   1
  -3  -3   9-9.31845 37.2210   4
   3   3  -8 179.680 33.9681   2
   3   3  -8 192.184 48.0452   3
  -3  -3   8 231.066 40.7010   1
  -3  -3   8 131.380 43.2688   4
   3   3  -7 28.0982 21.2034   2
   3   3  -7-15.8884 35.8440   3
  -3  -3   7-30.2078 24.4499   1
  -3  -3   7-3.42665 27.1421   4
   3   3  -6 0.96744 20.7960   2
   3   3  -6 5.53539 29.4538   3
  -3  -3   6 17.5418 20.2909   1
  -3  -3   6 10.8871 31.5793   4
  -3  -3   5 207.462 31.7313   1
   3   3  -5 148.089 39.0612   3
  -3  -3   5 127.207 34.2958   4
   3   3  -5 210.904 33.9239   2
  -3  -3   4 1306.23 65.2180   1
   3   3  -4 1201.75 87.9530   3
  -3  -3   4 1160.24 91.2026   4
   3   3  -4 1368.41 79.4499   2
  -3  -3   3-2.69226 14.8888   1
   3   3  -3 21.1063 19.2498   2
   3   3  -3-1.15938 23.5275   3
  -3  -3   3 13.8878 24.3579   4
   3   3  -2 10.7920 19.9911   2
   3   3  -2 11.8664 22.7955   3
  -3  -3   2 40.7065 12.7892   1
   3   3  -1 160.880 34.9728   2
  -3  -3   1 105.800 16.8522   1
   3   3  -1 74.6199 26.0856   3
  -3  -3   1 170.141 37.1672   4
   3   3   0 282.084 20.1680   1
   3   3   0 251.059 46.2165   3
  -3  -3   0 330.073 47.7623   4
   3   3   0 251.916 38.7303   2
   3   3   1 3040.92 58.4418   1
   3   3   1 3409.75 132.232   2
   3   3   1 3200.94 134.299   3
  -3  -3  -1 3153.80 131.100   4
   3   3   1 3105.27 58.4513   1
   3   3   2 156.910 16.8920   1
   3   3   2 148.027 31.3522   2
   3   3   2 160.809 36.5811   3
  -3  -3  -2 171.061 35.5162   4
   3   3   2 201.796 16.9184   1
   3   3   3 1179.89 82.4348   2
   3   3   3 1099.55 47.3599   1
   3   3   3 1184.86 42.8366   1
  -3  -3  -3 1194.31 81.5854   4
  -3  -3  -4 3.18578 23.2360   3
   3   3   4 22.2262 25.0462   2
   3   3   4 22.1742 12.2154   1
  -3  -3  -4 13.5150 23.8616   4
  -3  -3  -5 47.3629 28.8143   3
   3   3   5-9.26504 27.5473   2
   3   3   5 44.9374 16.0153   1
  -3  -3  -5 46.6702 26.5629   4
  -3  -3  -6 16.1542 26.4490   3
   3   3   6 2.98342 27.6115   2
  -3  -3  -6 34.5884 25.2024   4
   3   3   6 42.1248 16.9966   1
  -3  -3  -7 3161.73 148.225   3
  -3  -3  -7 3519.14 138.700   4
   3   3   7 3582.78 155.965   2
   3   3   7 3481.72 112.669   1
   3   3   8 114.842 27.6918   1
  -3  -3  -8 13.9698 29.5698   3
   3   3   8 124.332 40.5398   2
  -3  -3  -8 50.3280 31.0317   4
   3   3   9 2066.29 103.693   1
  -3  -3  -9 2015.39 128.330   3
  -3  -3  -9 2134.02 113.832   4
   3   3   9 2129.80 130.755   2
   3   3  10 1324.23 90.8920   1
  -3  -3 -10 1306.72 105.956   3
  -3  -3 -10 1404.93 96.0698   4
   3   3  10 1368.56 108.952   2
  -3  -3 -11 1429.05 97.8057   4
   3   3  11 1274.67 95.1890   1
  -3  -3 -11 1569.21 120.935   3
   3   3  11 1301.59 108.900   2
   3   3  12 11.2783 27.4237   1
  -3  -3 -12 4.13646 35.2496   3
   3   3  12 3.92290 34.0709   2
  -3  -3 -12 18.5858 27.8623   4
   3   3  13 21.6645 35.0587   1
  -3  -3 -13 84.5376 48.4941   3
   3   3  13 9.07291 33.7766   2
   3   3  14 169.816 49.5465   1
  -3  -3 -14 157.888 59.9718   3
   3   3  14 147.834 52.2071   2
   3   3  15 12.9889 35.1211   1
  -3  -3 -15-47.2210 47.5551   3
   3   3  15-4.72596 37.9638   2
   3   3  16 113.096 50.8521   1
  -3  -3 -16 171.186 72.4252   3
   3   3  16 141.984 59.3970   2
   3   3  17 48.0543 44.9370   1
  -3  -3 -17 45.5922 64.1976   3
   3   3  17 192.827 65.4263   2
   3   3  18 90.4039 54.8649   1
   3   3  18 103.826 59.8207   2
  -3  -4  16-15.1611 45.6631   4
  -3  -4  16 16.1489 46.3205   1
   3   4 -15 107.170 63.2041   3
  -3  -4  15 104.922 54.9927   1
  -3  -4  15 93.4011 57.9260   4
  -3  -4  14-43.0267 51.7636   4
   3   4 -14 85.0448 54.9049   3
  -3  -4  14-6.31581 36.1007   1
   3   4 -13-0.95349 39.5312   3
  -3  -4  13 5.14307 37.2229   1
  -3  -4  13 48.1001 45.5855   4
  -3  -4  12 56.6772 36.2457   1
   3   4 -12 17.5069 40.8140   3
  -3  -4  12 68.3493 52.7849   4
  -3  -4  11 110.798 38.3335   1
   3   4 -11 133.911 54.2321   3
  -3  -4  11 137.588 49.2453   4
  -3  -4  10 458.009 62.4143   1
   3   4 -10 362.417 68.7639   3
  -3  -4  10 320.073 62.4234   4
  -3  -4   9-41.3574 25.5984   1
   3   4  -9-1.50851 32.2261   3
  -3  -4   9-0.30622 36.9689   4
   3   4  -8 98.2390 42.2088   3
  -3  -4   8 9.64776 23.4722   1
  -3  -4   8 39.4402 31.4559   4
  -3  -4   7 908.051 69.6944   1
   3   4  -7 978.534 96.0927   3
   3   4  -7 1148.99 72.5659   2
  -3  -4   7 836.940 88.8236   4
   3   4  -6 6.84170 21.6058   2
   3   4  -6-16.0479 36.3393   3
  -3  -4   6 67.6762 26.5609   1
  -3  -4   6 24.9737 27.5856   4
  -3  -4   5 1587.32 77.2698   1
   3   4  -5 1880.88 95.4193   2
   3   4  -5 1709.59 117.860   3
  -3  -4   5 1470.00 112.207   4
  -3  -4   4 131.400 23.8994   1
   3   4  -4 222.456 39.9368   2
  -3  -4   4 187.490 46.1192   4
   3   4  -4 143.038 43.9801   3
  -3  -4   3 120.690 20.3103   1
  -3  -4   3 122.894 38.0382   4
   3   4  -3 82.1175 26.5746   2
   3   4  -3 134.599 37.3524   3
   3   4  -2 25.5497 21.9390   2
   3   4  -2 59.2899 32.7298   3
  -3  -4   2 36.0376 29.5063   4
  -3  -4   2 37.2550 10.6343   1
   3   4  -1 620.925 70.3662   3
  -3  -4   1 541.973 61.6059   4
   3   4  -1 685.798 60.7836   2
  -3  -4   0 77.4978 33.2361   4
   3   4   0 56.4555 28.3505   2
   3   4   0 100.247 36.2832   3
   3   4   1 1812.01 99.6239   2
   3   4   1 1896.53 114.130   3
  -3  -4  -1 1825.70 104.875   4
   3   4   2 199.145 40.8750   2
   3   4   2 215.229 41.1677   3
  -3  -4  -2 215.345 38.7791   4
  -3  -4  -3 2195.89 111.508   4
   3   4   3 2320.87 128.655   3
   3   4   3 2118.60 116.565   2
   3   4   4 441.728 21.2879   1
  -3  -4  -4 642.970 71.0753   3
  -3  -4  -4 605.225 61.2045   4
   3   4   4 449.712 56.5840   2
   3   4   5 1573.16 54.3992   1
  -3  -4  -5 1348.00 100.770   3
  -3  -4  -5 1575.04 93.9497   4
   3   4   5 1480.22 100.735   2
   3   4   6 347.082 31.8786   1
  -3  -4  -6 289.131 53.7281   3
  -3  -4  -6 313.028 46.3377   4
   3   4   6 311.024 52.4007   2
  -3  -4  -7 411.961 59.9888   3
   3   4   7 466.987 40.6540   1
   3   4   7 392.011 60.3469   2
  -3  -4  -7 465.918 53.8773   4
   3   4   8 766.022 56.3534   1
  -3  -4  -8 670.696 79.7425   3
  -3  -4  -8 789.776 69.6678   4
   3   4   8 821.050 84.9228   2
   3   4   9-8.31323 20.0071   1
  -3  -4  -9 0.06933 31.9724   3
   3   4   9-55.9582 38.4912   2
  -3  -4  -9-36.2900 28.1140   4
   3   4  10 286.452 42.3896   1
  -3  -4 -10 214.894 56.2202   3
  -3  -4 -10 323.677 49.8714   4
   3   4  10 434.973 71.2242   2
   3   4  11 39.9678 27.9700   1
  -3  -4 -11-24.5181 43.1642   3
   3   4  11-10.9494 38.5989   2
  -3  -4 -11-7.98123 24.0054   4
   3   4  12 49.5114 31.0216   1
  -3  -4 -12 46.3766 38.2733   3
   3   4  12 85.0017 43.4469   2
   3   4  13 34.2230 29.1105   1
  -3  -4 -13-23.1673 42.2389   3
   3   4  13 66.3027 43.7370   2
  -3  -4 -14 122.497 58.1705   3
   3   4  14 44.7361 46.3613   2
  -3  -4 -15 106.004 60.3308   3
   3   4  15-4.42588 43.4353   2
  -3  -4 -16-20.8275 51.1906   3
   3   4  16 9.83127 52.5417   2
  -3  -4 -17 92.4689 70.2756   3
   3   4  17-15.5432 42.3515   2
   3   4  18 25.8949 49.1476   2
   3   5 -14-64.0321 57.1858   3
  -3  -5  14 117.120 58.0600   4
   3   5 -13 42.9764 40.7428   3
  -3  -5  13 2.93183 47.1846   4
   3   5 -12 90.5951 50.8157   3
  -3  -5  12 54.8914 39.3042   4
   3   5 -11 20.1282 44.1921   3
  -3  -5  11-2.50123 38.0541   4
   3   5 -10 34.4335 44.0551   3
  -3  -5  10 51.3366 50.1121   4
   3   5  -9 290.743 67.0678   3
  -3  -5   9 256.664 63.5118   4
  -3  -5   8 62.7105 44.0978   4
   3   5  -8-8.02205 32.7605   3
   3   5  -7 234.129 55.7722   3
  -3  -5   7 233.659 56.8059   4
   3   5  -6 99.1033 43.6613   3
  -3  -5   6 33.5339 38.2685   4
   3   5  -5 1008.57 98.8097   3
  -3  -5   5 1018.27 97.8035   4
   3   5  -5 989.058 66.6984   2
   3   5  -4 13.7576 18.6692   2
   3   5  -4-11.8518 32.9453   3
  -3  -5   4 29.4993 37.0027   4
   3   5  -3 1806.24 92.1697   2
   3   5  -3 1703.69 121.936   3
  -3  -5   3 1768.36 121.484   4
   3   5  -2 2002.30 101.999   2
   3   5  -2 1844.71 126.117   3
  -3  -5   2 2251.92 133.221   4
   3   5  -1 312.285 59.9426   3
   3   5  -1 192.999 38.1183   2
  -3  -5   1 200.783 44.9400   4
  -3  -5   0 988.338 84.2805   4
   3   5   0 1154.86 98.8244   3
   3   5   0 1017.26 78.6267   2
   3   5   1-0.23659 23.2719   2
   3   5   1 18.4126 27.7693   3
  -3  -5  -1 35.8861 25.7535   4
  -3  -5  -2 389.527 55.3233   4
   3   5   2 366.128 61.7665   3
   3   5   2 362.788 52.5399   2
   3   5   3-14.0955 29.9828   2
  -3  -5  -3 9.79882 25.5676   4
  -3  -5  -4 148.945 43.9063   3
   3   5   4 130.270 39.5229   2
  -3  -5  -4 176.623 40.5554   4
  -3  -5  -5 77.4736 36.2759   3
   3   5   5 107.221 40.9854   2
  -3  -5  -5 122.771 36.2443   4
  -3  -5  -6 292.229 57.0387   3
  -3  -5  -6 296.950 47.1900   4
   3   5   6 307.808 58.9979   2
  -3  -5  -7 480.701 73.9907   3
  -3  -5  -7 450.247 57.8660   4
   3   5   7 390.161 65.5920   2
  -3  -5  -8 91.2586 41.5428   3
   3   5   8 75.0680 34.0080   2
  -3  -5  -8 85.0215 32.5859   4
  -3  -5  -9 146.706 47.1126   3
   3   5   9 166.980 52.4236   2
  -3  -5  -9 167.434 37.9297   4
  -3  -5 -10-11.9717 35.9627   3
   3   5  10 48.2164 40.2123   2
  -3  -5 -11 44.4835 45.9948   3
   3   5  11-39.6675 44.7086   2
  -3  -5 -12 91.8024 49.0640   3
   3   5  12 24.1645 47.6310   2
  -3  -5 -13-32.6505 55.2407   3
   3   5  13 149.576 58.0152   2
  -3  -5 -14 94.5544 57.8355   3
   3   5  14-47.9676 49.1254   2
  -3  -5 -15 29.4084 56.8565   3
   3   5  15 37.7086 45.5716   2
  -3  -5 -16 4.56865 56.3074   3
   3   5  16-13.6605 48.9505   2
   3   6 -13-6.77049 42.9439   3
  -3  -6  13 82.1146 58.7914   4
   3   6 -12 192.353 68.1524   3
  -3  -6  12 177.860 69.1255   4
   3   6 -11-49.9676 50.4393   3
  -3  -6  11 1.28033 37.8734   4
   3   6 -10 10.6469 38.8053   3
  -3  -6  10-85.3094 50.4882   4
   3   6  -9 70.1036 42.5571   3
  -3  -6   9 28.7509 47.5937   4
   3   6  -8 149.224 53.9795   3
  -3  -6   8 47.0260 42.6824   4
   3   6  -7 240.427 62.1365   3
  -3  -6   7 317.887 67.6888   4
   3   6  -6 324.279 66.5968   3
  -3  -6   6 341.836 66.7260   4
   3   6  -5 307.103 63.1286   3
  -3  -6   5 219.607 56.4346   4
   3   6  -4-33.7688 41.1418   3
  -3  -6   4 12.0905 35.9447   4
   3   6  -3 670.482 85.3964   3
  -3  -6   3 826.458 91.0542   4
   3   6  -3 731.666 63.9825   2
  -3  -6   2 151.285 44.4371   4
   3   6  -2 160.558 47.4318   3
   3   6  -2 214.657 41.7666   2
   3   6  -1 1594.19 125.877   3
  -3  -6   1 1752.85 121.314   4
   3   6  -1 1490.09 95.8489   2
  -3  -6   0 286.565 53.2283   4
   3   6   0 206.330 41.4384   2
   3   6   0 326.571 60.6963   3
   3   6   1 129.166 36.5759   2
   3   6   1 162.328 46.5959   3
  -3  -6  -1 145.731 38.7608   4
   3   6   2 432.112 69.2734   3
  -3  -6  -2 374.692 55.7446   4
   3   6   2 436.114 62.0163   2
  -3  -6  -3 227.309 60.2275   3
   3   6   3 95.0120 39.2244   2
  -3  -6  -3 189.224 42.0468   4
  -3  -6  -4 623.439 79.8664   3
  -3  -6  -4 582.922 64.7447   4
   3   6   4 445.865 64.1072   2
  -3  -6  -5 348.049 64.6266   3
   3   6   5 346.469 58.9472   2
  -3  -6  -5 394.232 56.1470   4
  -3  -6  -6 141.629 47.4019   3
   3   6   6 55.5676 38.3158   2
  -3  -6  -6 197.644 44.4972   4
  -3  -6  -7 421.576 70.9510   3
  -3  -6  -7 431.179 56.2720   4
   3   6   7 592.105 80.8027   2
  -3  -6  -8 39.8217 37.8097   3
   3   6   8 129.528 48.1382   2
  -3  -6  -9 174.284 58.0315   3
   3   6   9 137.992 54.2733   2
  -3  -6 -10 10.6762 38.8093   3
   3   6  10 160.307 61.2909   2
  -3  -6 -11 51.0132 49.3922   3
   3   6  11-14.0867 38.9005   2
  -3  -6 -12-34.8792 43.1342   3
   3   6  12 63.3771 50.1305   2
  -3  -6 -13 154.797 62.1211   3
   3   6  13 116.703 58.1290   2
  -3  -6 -14-47.3450 50.4550   3
   3   6  14 47.4839 54.3901   2
  -3  -6 -15 50.8010 56.2179   3
   3   6  15-9.64506 47.6231   2
   3   7 -11-7.62260 47.8483   3
  -3  -7  11 42.9805 52.0913   4
   3   7 -10 28.2907 43.8766   3
  -3  -7  10 77.0465 52.9574   4
   3   7  -9 48.8237 45.7741   3
  -3  -7   9 12.1568 43.6381   4
   3   7  -8 21.0685 45.3334   3
  -3  -7   8 13.2531 41.4227   4
   3   7  -7 221.157 61.7590   3
  -3  -7   7 178.491 57.9630   4
   3   7  -6 310.492 68.7058   3
  -3  -7   6 269.691 65.8569   4
   3   7  -5 102.315 46.2279   3
  -3  -7   5 74.3718 45.8672   4
   3   7  -4 757.788 99.5019   3
  -3  -7   4 811.401 94.6655   4
   3   7  -3 2436.28 171.177   3
  -3  -7   3 2597.88 162.700   4
   3   7  -2-7.03510 22.4369   2
   3   7  -2 22.8631 45.2689   3
  -3  -7   2-50.7260 39.6550   4
   3   7  -1 61.0620 31.5360   2
   3   7  -1 36.0821 39.9263   3
  -3  -7   1 102.982 43.4738   4
   3   7   0 41.7280 31.3521   2
   3   7   0 38.5302 38.1439   3
  -3  -7   0-12.0765 32.3977   4
   3   7   1 659.278 86.5176   3
  -3  -7  -1 751.628 81.1517   4
   3   7   1 740.426 78.2911   2
  -3  -7  -2 10.8018 28.8871   4
   3   7   2 10.9289 30.9385   2
   3   7   2-16.8199 34.0875   3
  -3  -7  -3 441.421 72.4935   3
  -3  -7  -3 402.399 60.9066   4
   3   7   3 270.473 54.2292   2
  -3  -7  -4 43.6432 35.4019   3
   3   7   4 3.97174 30.1061   2
  -3  -7  -4 38.8139 28.2753   4
  -3  -7  -5 179.443 61.0174   3
   3   7   5 135.598 51.0158   2
  -3  -7  -5 37.2561 30.5613   4
  -3  -7  -6 374.855 74.1533   3
   3   7   6 231.527 59.8688   2
  -3  -7  -7 118.352 55.1050   3
   3   7   7 49.2156 42.0117   2
  -3  -7  -8 42.3094 46.0210   3
   3   7   8-35.6096 40.9157   2
  -3  -7  -9 275.504 67.0635   3
   3   7   9 267.893 66.0118   2
  -3  -7 -10 172.385 61.5104   3
   3   7  10 85.6072 51.5832   2
  -3  -7 -11 30.0584 47.6687   3
   3   7  11 21.6329 43.9933   2
  -3  -7 -12-14.9800 51.9658   3
   3   7  12-6.75668 48.0647   2
  -3  -7 -13 20.8112 48.0837   3
   3   7  13-1.17117 48.4610   2
   3   8  -9 32.7859 52.1343   3
  -3  -8   9-104.915 55.7665   4
   3   8  -8-33.3410 56.9510   3
  -3  -8   8 42.2561 49.5851   4
   3   8  -7-27.8479 47.8274   3
  -3  -8   7-16.1663 40.9248   4
   3   8  -6 87.1661 44.7478   3
  -3  -8   6 28.2396 38.7962   4
   3   8  -5-20.8596 45.5611   3
  -3  -8   5 67.5137 54.8346   4
   3   8  -4 389.245 81.2807   3
  -3  -8   4 390.576 77.8564   4
   3   8  -3-13.2371 38.2766   3
  -3  -8   3-62.9499 46.8110   4
   3   8  -2 965.789 113.440   3
  -3  -8   2 981.758 106.789   4
  -3  -8   1 35.5515 39.8316   4
   3   8  -1 41.9935 44.0444   3
   3   8   0 450.861 83.9789   3
   3   8   0 273.185 53.8589   2
  -3  -8   0 331.786 62.5627   4
  -3  -8  -1 21.8103 33.2109   4
   3   8   1 55.5983 41.5013   3
   3   8   1-26.5680 33.0576   2
   3   8   2 5.80660 33.3788   2
  -3  -8  -2 22.6106 33.6180   4
  -3  -8  -3-2.78040 39.0192   3
   3   8   3 96.4149 45.4794   2
  -3  -8  -3-0.26414 31.7972   4
  -3  -8  -4 118.517 54.5128   3
   3   8   4 37.9654 38.1964   2
  -3  -8  -5 38.0361 38.2259   3
   3   8   5-32.6675 38.2821   2
  -3  -8  -6 109.831 56.2109   3
   3   8   6 37.8728 47.2241   2
  -3  -8  -7 58.8525 44.3671   3
   3   8   7 141.377 54.9614   2
  -3  -8  -8 53.2104 50.8689   3
   3   8   8-1.88965 40.0252   2
  -3  -8  -9 226.194 68.7423   3
   3   8   9 275.699 72.8005   2
  -3  -8 -10 37.1601 48.5987   3
   3   8  10-84.3293 57.2560   2
  -3  -8 -11 182.743 72.0388   3
   3   8  11 35.4103 47.1387   2
   3   9  -7 46.6070 51.4084   3
  -3  -9   7-63.0079 57.8416   4
   3   9  -6 173.561 73.9077   3
  -3  -9   6 50.4449 53.7001   4
   3   9  -5 118.418 60.6055   3
  -3  -9   5 102.604 58.8851   4
   3   9  -4 379.419 79.2114   3
  -3  -9   4 378.488 79.7098   4
   3   9  -3-1.99434 39.0419   3
  -3  -9   3 106.072 49.5563   4
   3   9  -2-32.1941 43.8792   3
  -3  -9   2 20.4504 39.5886   4
  -3  -9   1 181.594 57.7721   4
   3   9  -1 52.3300 43.4216   3
   3   9   0 95.8118 46.2549   3
  -3  -9   0 191.265 55.0176   4
  -3  -9  -1 23.9846 36.8452   4
  -3  -9  -2 90.3341 47.9744   3
   3   9   2 82.3812 45.2719   2
  -3  -9  -3 121.228 56.5399   3
   3   9   3 13.4414 32.1851   2
  -3  -9  -4 56.0716 43.7036   3
   3   9   4 48.6373 37.0223   2
  -3  -9  -5-4.66805 42.5630   3
   3   9   5 45.1725 47.3959   2
  -3  -9  -6 82.2667 52.7219   3
   3   9   6-11.5501 38.8032   2
  -3  -9  -7 84.3325 54.1868   3
   3   9   7 57.2873 54.1526   2
  -3  -9  -8 22.9480 48.8652   3
   3   9   8 35.2277 43.9022   2
  -3  -9  -9-24.8020 62.7483   3
   3   9   9 62.0162 53.6355   2
  -3 -10   4 20.0615 47.3093   4
  -3 -10   3 169.224 62.0911   4
   3  10  -2-23.6565 47.7952   3
  -3 -10   2 53.4784 47.6353   4
   3  10  -1-22.4732 48.0354   3
  -3 -10  -1 15.5691 44.0483   3
  -3 -10  -2-49.6208 51.3340   3
  -3 -10  -3 50.5762 55.5100   3
  -3 -10  -4-28.3149 48.4473   3
   3  10   5 60.2935 52.6003   2
   3  10   6 203.573 66.2725   2
   3  10   7-8.88879 45.1623   2
   4  -9  -6 39.0475 47.2277   2
  -4   9   6 213.805 92.6420   1
   4  -9  -5 10.7361 48.7957   2
   4  -9  -4 2.32393 44.9000   2
  -4   9   4 41.7222 80.4436   1
   4  -9  -3-24.9980 46.3755   2
  -4   9   3 69.2248 78.4448   1
   4  -9  -2 11.7073 41.0835   2
   4  -9   0 12.1860 46.3416   1
   4  -9   1-46.3351 46.7389   1
   4  -9   2 150.712 61.1940   1
   4  -9   3-31.1539 46.2149   1
   4  -9   4 186.319 67.2653   1
   4  -9   5-60.3801 52.8649   1
  -4   9  -6-117.422 63.9979   4
  -4   8   9-49.1467 66.4699   1
  -4   8   8-98.0868 81.7448   1
   4  -8  -8 295.297 83.7459   2
   4  -8  -7-52.5381 52.3270   2
   4  -8  -6 16.0876 41.9925   2
   4  -8  -5 68.2952 44.6192   2
   4  -8  -4 93.3746 52.7607   2
   4  -8  -3 58.0697 47.0378   2
   4  -8  -2 10.1216 38.7650   2
   4  -8  -1 58.7269 45.1988   2
   4  -8   0 37.9838 41.5310   2
   4  -8   1 53.4083 47.1040   1
   4  -8   2-84.9042 53.5960   1
  -4   8  -3 312.376 70.8652   4
   4  -8   3 518.703 89.9303   1
  -4   8  -4 350.163 72.0572   4
   4  -8   4 374.841 82.5677   1
  -4   8  -5 58.6921 46.3474   4
   4  -8   5 82.8180 54.0559   1
  -4   8  -6-49.7433 49.6371   4
   4  -8   6 73.3605 55.7522   1
  -4   8  -7-12.3245 41.8689   4
   4  -8   7-103.922 60.1241   1
  -4   8  -8-39.8677 51.6940   4
   4  -8   8 50.9142 52.2875   1
  -4   7  11-0.12491 48.9764   1
  -4   7  10 53.3069 51.3893   1
   4  -7 -10-34.4759 50.8231   2
  -4   7   9 10.9703 48.0635   1
   4  -7  -9-70.9189 53.2254   2
  -4   7   8 77.1904 57.4689   1
   4  -7  -8 88.3210 52.2701   2
  -4   7   7 40.1962 52.9750   1
   4  -7  -7 31.9434 42.5355   2
   4  -7  -6 54.6211 43.0133   2
   4  -7  -5 76.4539 48.4867   2
   4  -7  -4 7.71719 40.7884   2
   4  -7  -3-13.6636 42.4954   2
  -4   7   3-62.8000 72.9365   1
   4  -7  -2 54.5202 38.8097   2
   4  -7  -1 74.8752 41.2314   2
   4  -7   0 48.9271 40.7769   2
  -4   7  -1 102.845 43.6559   4
   4  -7   1 93.6898 39.9595   2
  -4   7  -2-63.3199 46.1247   4
   4  -7   2 13.3653 31.1034   2
   4  -7   2 60.2415 43.3901   1
  -4   7  -3 154.825 56.5040   4
   4  -7   3 124.068 52.9387   1
  -4   7  -4 48.8359 41.0695   4
   4  -7   4 74.4305 48.5360   1
  -4   7  -5 9.54323 40.8041   4
   4  -7   5 119.228 54.9305   1
  -4   7  -6 60.6651 48.9245   4
   4  -7   6-53.3810 57.2578   1
  -4   7  -7 32.9465 39.1800   4
   4  -7   7 88.9718 51.9352   1
  -4   7  -8 74.2686 54.6770   4
   4  -7   8-99.9931 55.2550   1
  -4   7  -9-85.3194 60.2160   4
   4  -7   9 19.9716 45.0167   1
  -4   7 -10-32.5599 47.6627   4
   4  -7  10 48.6853 54.8577   1
  -4   6  12-1.08441 45.0536   1
   4  -6 -12 143.991 63.4499   2
  -4   6  11 19.9949 49.8610   1
   4  -6 -11 64.4227 51.7452   2
  -4   6  10 88.9392 55.5120   1
   4  -6 -10 32.3590 54.9946   2
  -4   6   9 428.121 84.4856   1
   4  -6  -9 274.814 70.3224   2
  -4   6   8 96.5968 54.3307   1
   4  -6  -8 167.952 65.2173   2
  -4   6   7-60.8056 41.4555   1
   4  -6  -7-10.2901 39.9016   2
   4  -6  -6 50.2830 38.3959   2
  -4   6   6-32.8259 40.5995   1
   4  -6  -5 46.9167 42.1143   2
   4  -6  -4 176.289 54.9307   2
   4  -6  -3 127.854 43.7343   2
   4  -6  -2 15.2354 35.7500   2
  -4   6   2-65.8835 56.7390   1
   4  -6  -1 509.174 72.9039   2
  -4   6   1 496.740 61.8192   4
   4  -6   0 377.645 62.4363   2
  -4   6   0 377.235 60.2770   4
   4  -6   1 486.559 66.9229   2
  -4   6  -1 465.705 66.6300   4
  -4   6  -2 174.924 48.3589   4
   4  -6   2 157.320 43.4993   2
   4  -6   3 164.620 45.3653   2
   4  -6   3 164.042 58.9990   1
  -4   6  -3 136.136 49.1181   4
  -4   6  -4 409.530 71.2417   4
   4  -6   4 516.715 66.9816   2
   4  -6   4 690.448 93.5783   1
   4  -6   5 234.188 63.1296   1
  -4   6  -5 308.104 69.4174   4
  -4   6  -6 295.142 62.2748   4
   4  -6   6 370.469 73.5022   1
  -4   6  -7 53.5448 41.4617   4
   4  -6   7-31.5557 40.7201   1
  -4   6  -8-80.6787 52.4016   4
   4  -6   8-14.1777 38.7504   1
  -4   6  -9 89.4338 57.0298   4
   4  -6   9 214.413 65.8495   1
  -4   6 -10 86.2502 58.1439   4
   4  -6  10-1.61405 42.5146   1
  -4   6 -11 24.2269 46.4777   4
   4  -6  11-19.9481 51.5405   1
  -4   6 -12 39.6920 57.1976   4
   4  -6  12 72.2314 61.0222   1
   4  -5 -14 28.6610 50.7191   2
  -4   5  13 362.247 85.5296   1
   4  -5 -13 261.553 76.2773   2
  -4   5  12-0.91526 41.3503   1
   4  -5 -12 60.1677 52.5937   2
  -4   5  11 77.3310 56.0013   1
   4  -5 -11 21.4553 48.3238   2
  -4   5  10 80.6123 49.8470   1
   4  -5 -10 163.243 61.2014   2
  -4   5   9 74.1377 44.0210   1
   4  -5  -9 154.815 59.7361   2
  -4   5   8 31.3337 44.2085   1
   4  -5  -8 22.4780 43.6929   2
  -4   5   7 409.852 72.1063   1
   4  -5  -7 382.793 74.6919   2
   4  -5  -6 523.076 81.9708   2
  -4   5   6 401.298 71.4326   1
  -4   5   5 217.769 56.7651   1
   4  -5  -5 86.2524 42.7889   2
   4  -5  -4 44.5986 32.7912   2
  -4   5   4 81.5131 54.6714   1
  -4   5   3 486.457 54.3680   4
   4  -5  -3 577.992 76.3085   2
  -4   5   2 1040.82 80.7628   4
   4  -5  -2 1108.25 100.948   2
  -4   5   1 33.3277 25.5121   4
   4  -5  -1 65.5076 36.5107   2
  -4   5   1 7.15919 49.8474   1
  -4   5   0 69.6340 31.4635   4
   4  -5   0 21.5799 31.1610   2
  -4   5  -1 78.0783 33.7027   4
   4  -5   1 65.6744 31.7172   2
  -4   5  -2 648.771 75.0494   4
   4  -5   2 517.029 62.6400   2
  -4   5  -3 14.4591 30.2124   4
   4  -5   3-6.40590 27.2614   2
   4  -5   3 26.9235 36.8896   1
  -4   5  -4 165.822 50.0698   4
   4  -5   4 139.338 37.2016   2
   4  -5   4 82.7146 42.0469   1
  -4   5  -5 131.382 43.8832   4
   4  -5   5 153.652 41.0165   2
   4  -5   5 84.2206 40.7865   1
  -4   5  -6 264.521 61.7416   4
   4  -5   6 368.515 71.3586   1
   4  -5   6 338.179 50.5026   2
  -4   5  -7 350.845 70.8201   4
   4  -5   7 145.750 51.1539   1
  -4   5  -8 25.3210 38.7413   4
   4  -5   8 60.2372 50.3329   1
  -4   5  -9 49.7610 46.8709   4
   4  -5   9 33.6358 49.4760   1
  -4   5 -10 30.7960 45.3244   4
   4  -5  10-40.0069 43.6278   1
  -4   5 -11 68.1659 52.1438   4
   4  -5  11 114.015 54.1241   1
  -4   5 -12 23.1107 48.9738   4
   4  -5  12 38.9664 58.2026   1
  -4   5 -13 103.045 63.6855   4
   4  -5  13 75.8989 51.2377   1
   4  -4 -15-40.7168 63.1036   2
   4  -4 -14 127.310 63.8378   2
  -4   4  14 33.8622 42.3234   1
   4  -4 -13-2.28788 42.7423   2
  -4   4  13 53.7867 48.3219   1
   4  -4 -12-35.5921 49.0975   2
  -4   4  12-57.6322 48.5478   1
   4  -4 -11 79.7159 51.1550   2
  -4   4  11-28.9858 34.4019   1
   4  -4 -10 49.2310 45.0369   2
  -4   4  10 28.4739 41.2557   1
   4  -4  -9 253.250 67.0228   2
  -4   4   9 214.693 60.4566   1
  -4   4   8 402.323 75.3779   1
   4  -4  -8 435.829 75.6216   2
   4  -4  -7 39.7507 38.3180   2
  -4   4   7-15.3634 33.6582   1
   4  -4  -6 309.781 65.4413   2
  -4   4   6 331.466 65.6487   1
   4  -4  -5 55.0255 42.9286   2
  -4   4   5 148.994 32.2203   4
  -4   4   5 193.709 52.0173   1
   4  -4  -4 26.3958 32.3064   2
  -4   4   4 110.838 49.9761   1
  -4   4   4 67.7167 24.6388   4
   4  -4  -3 5.99585 34.0963   2
  -4   4   3-12.0589 41.5085   1
  -4   4   3 23.1598 24.1951   4
   4  -4  -2 80.6700 37.6960   2
  -4   4   2 124.406 32.8780   4
  -4   4   1 2004.38 109.438   4
   4  -4  -1 1926.49 118.336   2
  -4   4   0 659.099 68.5008   4
   4  -4   0 953.358 85.2348   2
   4  -4   1 40.3279 31.2799   2
  -4   4  -1 31.1711 29.5629   4
   4  -4   2-3.54692 26.8425   2
  -4   4  -2-20.5161 32.5339   4
  -4   4  -3 624.463 71.2354   4
   4  -4   3 643.170 70.1651   2
  -4   4  -4 1335.62 104.846   4
   4  -4   4 1275.33 93.2692   2
   4  -4   4 1191.37 110.596   1
  -4   4  -5 308.745 59.3581   4
   4  -4   5 212.511 52.1176   1
   4  -4   5 273.564 48.1943   2
  -4   4  -6 94.4531 39.7608   4
   4  -4   6 96.1282 33.7243   2
   4  -4   6 101.212 42.3883   1
  -4   4  -7 46.0500 38.0127   4
   4  -4   7 56.4694 28.3564   2
   4  -4   7 78.4375 38.7453   1
  -4   4  -8 242.702 61.6408   4
   4  -4   8 112.243 54.7681   1
  -4   4  -9 103.148 46.8467   4
   4  -4   9 111.506 51.6578   1
  -4   4 -10-24.9688 47.2099   4
   4  -4  10 5.81310 43.4162   1
  -4   4 -11 158.642 66.1089   4
   4  -4  11 36.7121 48.4726   1
  -4   4 -12-11.8706 50.4635   4
   4  -4  12-13.0583 46.8194   1
  -4   4 -13 20.5386 48.2379   4
   4  -4  13 143.817 62.1308   1
  -4   4 -14 18.4196 48.1337   4
   4  -4  14 21.8057 43.2641   1
  -4   4 -15 5.77650 54.1010   4
   4  -3 -16 51.7554 54.4631   2
   4  -3 -16 6.61717 42.6504   3
   4  -3 -15-22.2320 44.4557   2
  -4   3  15-56.1381 57.9124   1
   4  -3 -15 23.1227 44.6575   3
   4  -3 -14 21.7532 45.0166   2
  -4   3  14 56.8744 50.8696   1
   4  -3 -14 72.0624 48.5488   3
   4  -3 -13 15.2627 45.4850   2
  -4   3  13-18.2885 40.2142   1
   4  -3 -13 42.4675 38.0743   3
   4  -3 -12-47.7251 46.1519   2
  -4   3  12-13.5814 39.7740   1
   4  -3 -12-74.5418 42.1431   3
   4  -3 -11-19.2566 37.7295   2
   4  -3 -11 35.8860 37.1272   3
  -4   3  11 83.1230 42.8580   1
   4  -3 -10 43.1997 42.1605   2
   4  -3 -10 5.64680 28.6884   3
  -4   3  10 128.776 51.8973   1
   4  -3  -9 25.4523 35.7479   2
   4  -3  -9 27.9706 27.9664   3
  -4   3   9 9.27657 38.4254   1
   4  -3  -8 186.704 56.4775   2
   4  -3  -8 96.9520 31.0973   3
  -4   3   8 230.293 57.1725   1
   4  -3  -7 193.660 53.3716   2
   4  -3  -7 280.741 42.9984   3
  -4   3   7 256.835 41.6908   4
  -4   3   7 202.510 56.7520   1
   4  -3  -6 29.1070 38.0921   2
  -4   3   6 58.8409 41.6235   1
   4  -3  -6 89.9751 26.1719   3
  -4   3   6 44.9625 24.4854   4
   4  -3  -5-6.12513 34.5780   2
  -4   3   5-33.6001 32.7704   1
   4  -3  -5 20.4876 18.9297   3
  -4   3   5-11.5706 21.1774   4
   4  -3  -4 508.552 40.5436   3
  -4   3   4 376.062 60.1758   1
  -4   3   4 464.622 52.9619   4
   4  -3  -4 410.532 63.4339   2
   4  -3  -3 1506.08 59.0404   3
  -4   3   3 1604.70 120.496   1
  -4   3   3 1382.51 86.7325   4
   4  -3  -3 1516.35 109.891   2
   4  -3  -2 68.3963 30.7264   2
  -4   3   2 64.7108 28.8575   4
  -4   3   1 39.4187 45.8092   1
   4  -3  -1 23.8225 29.3208   2
  -4   3   1-12.7250 26.3558   4
  -4   3   0 37.3631 29.2137   4
   4  -3   0 29.0175 26.0659   2
  -4   3  -1 3227.55 143.996   4
   4  -3   1 3505.26 150.839   2
   4  -3   2 53.9831 32.8562   2
  -4   3  -2 134.312 39.3576   4
   4  -3   3 74.4863 33.9045   2
  -4   3  -3 94.2726 39.3115   4
  -4   3  -4 941.464 87.8658   4
   4  -3   4 961.946 80.1216   2
   4  -3   4 1020.11 93.8247   1
   4  -3   5 783.954 86.5396   1
  -4   3  -5 675.109 76.2772   4
   4  -3   5 749.584 69.5688   2
   4  -3   6 1597.32 119.628   1
  -4   3  -6 1275.53 108.382   4
   4  -3   6 1354.23 91.2627   2
  -4   3  -7 244.793 58.4304   4
   4  -3   7 204.292 42.6202   2
   4  -3   7 266.054 55.1903   1
  -4   3  -8 155.936 53.9315   4
   4  -3   8 84.1488 36.1793   2
   4  -3   8 152.225 47.7861   1
  -4   3  -9 869.882 100.526   4
   4  -3   9 880.709 98.0906   1
   4  -3   9 806.565 74.7225   2
  -4   3 -10 147.917 55.0971   4
   4  -3  10 131.063 53.2894   1
  -4   3 -11 33.9679 41.4352   4
   4  -3  11 16.6368 41.3490   1
  -4   3 -12 85.9887 53.6161   4
   4  -3  12 36.3824 45.4671   1
  -4   3 -13-19.9285 47.7413   4
   4  -3  13 96.9179 56.6656   1
  -4   3 -14 57.0688 46.9953   4
   4  -3  14-33.4839 52.3884   1
  -4   3 -15 60.4302 51.2921   4
   4  -3  15-40.5504 51.8892   1
  -4   3 -16 115.795 72.2050   4
   4  -2 -16-45.8581 51.6602   2
   4  -2 -16 25.8888 49.7119   3
   4  -2 -15 148.815 60.2030   2
  -4   2  15 187.635 69.2579   1
   4  -2 -15 239.197 69.7819   3
   4  -2 -14 37.6840 47.0454   2
  -4   2  14-67.0285 56.3544   1
   4  -2 -14 82.9546 50.7947   3
   4  -2 -13 12.8425 36.0116   2
  -4   2  13 6.38617 38.1287   1
   4  -2 -13-4.87094 34.8342   3
   4  -2 -12 25.3418 39.6304   2
  -4   2  12 22.9898 38.7026   1
   4  -2 -12-21.3625 39.8436   3
   4  -2 -11 58.2264 49.1808   2
  -4   2  11-53.3760 42.7384   1
   4  -2 -11-24.0118 29.6329   3
  -4   2  10 198.809 55.2315   1
   4  -2 -10 202.337 49.0787   3
   4  -2 -10 271.532 60.2362   2
   4  -2  -9 1653.98 109.578   3
  -4   2   9 1785.48 133.312   1
  -4   2   9 1574.32 95.6108   4
   4  -2  -9 1648.68 129.542   2
   4  -2  -8 114.300 42.9806   2
   4  -2  -8 72.1860 30.0825   3
  -4   2   8 152.147 43.9766   1
  -4   2   8 47.3355 22.4586   4
   4  -2  -7 1936.81 104.833   3
  -4   2   7 2023.13 131.538   1
  -4   2   7 1882.09 101.921   4
   4  -2  -7 1769.45 127.209   2
   4  -2  -6 10.1832 31.1218   2
   4  -2  -6 1.81554 23.1405   3
  -4   2   6 15.9076 37.1557   1
  -4   2   6-31.5562 26.3426   4
   4  -2  -5 1726.81 86.3542   3
  -4   2   5 1727.35 118.905   1
  -4   2   5 1518.31 91.5823   4
   4  -2  -5 1613.53 116.176   2
   4  -2  -4 101.155 35.2851   2
  -4   2   4 128.333 44.5598   1
   4  -2  -4 128.902 27.3983   3
  -4   2   4 108.185 32.7173   4
   4  -2  -3 903.584 52.1592   3
  -4   2   3 989.125 88.8654   1
  -4   2   3 800.181 69.0547   4
   4  -2  -3 971.273 85.5730   2
   4  -2  -2 4226.21 98.7152   3
  -4   2   2 4692.19 192.338   1
  -4   2   2 3858.37 143.980   4
   4  -2  -2 3891.93 164.816   2
   4  -2  -1-19.6314 30.0816   2
   4  -2  -1 3.41323 9.63900   3
  -4   2   1 22.9007 26.1109   4
   4  -2   0 142.283 38.0996   2
  -4   2   0 168.096 35.8583   4
   4  -2   1-6.71776 24.4398   2
  -4   2  -1 14.1835 27.4640   4
   4  -2   2 44.1697 27.6916   2
  -4   2  -2 6.33942 26.9353   4
  -4   2  -3 1530.71 38.0036   3
  -4   2  -3 1631.52 106.371   4
   4  -2   3 1885.79 108.208   2
  -4   2  -4 705.665 33.3061   3
   4  -2   4 786.265 80.0671   1
  -4   2  -4 663.356 71.1811   4
   4  -2   4 731.860 67.9993   2
   4  -2   5 24.7482 27.1143   2
   4  -2   5-39.7364 36.7748   1
  -4   2  -5-4.25825 13.5063   3
  -4   2  -5 25.9841 36.4632   4
   4  -2   6 60.6339 28.6029   2
   4  -2   6 58.9586 35.3860   1
  -4   2  -6 121.979 22.8638   3
  -4   2  -6 75.0738 37.3007   4
   4  -2   7 47.4596 32.5492   2
   4  -2   7 52.3685 33.6231   1
  -4   2  -7 42.3360 19.3695   3
  -4   2  -7 1.12629 37.4154   4
  -4   2  -8 17.4282 35.8938   4
   4  -2   8-15.7513 29.4145   2
   4  -2   8-13.4114 34.1670   1
  -4   2  -9 61.3851 39.6483   4
   4  -2   9 0.99881 28.2053   2
   4  -2   9-8.73503 31.1844   1
  -4   2 -10 24.9832 34.0907   4
   4  -2  10-8.07599 28.8236   2
   4  -2  10 18.0264 39.1815   1
  -4   2 -11 320.046 67.7235   4
   4  -2  11 255.390 47.7979   2
   4  -2  11 278.074 63.2845   1
  -4   2 -12 230.133 57.5727   4
   4  -2  12 339.526 72.6878   1
  -4   2 -13 17.4856 38.1575   4
   4  -2  13 42.3047 45.8243   1
  -4   2 -14-34.4519 45.7110   4
   4  -2  14 45.6701 45.3553   1
  -4   2 -15 61.6452 53.9721   4
   4  -2  15 146.311 67.2869   1
  -4   2 -16 156.954 65.4361   4
   4  -2  16 57.1697 47.0680   1
  -4   2 -17-39.6190 54.4764   4
  -4   1  16 121.062 60.3605   1
   4  -1 -16 17.3732 42.9968   3
   4  -1 -15 138.943 58.7321   2
  -4   1  15 162.063 58.4796   1
   4  -1 -15 32.9300 45.2480   3
   4  -1 -14 89.0153 48.4459   2
  -4   1  14-58.1080 48.8069   1
   4  -1 -14 45.5425 50.8309   3
   4  -1 -13 11.6780 37.5555   2
  -4   1  13-88.8828 48.9053   1
   4  -1 -13-34.0745 40.6844   3
   4  -1 -12 25.0352 36.9298   2
  -4   1  12 1.36955 37.8620   1
   4  -1 -12 83.1987 45.4742   3
   4  -1 -11-17.0293 39.8915   2
  -4   1  11 75.1699 43.9044   1
   4  -1 -11 81.0192 41.4592   3
   4  -1 -10-34.6187 38.3389   2
  -4   1  10 17.2783 33.5145   1
   4  -1 -10 0.45406 29.6809   3
  -4   1  10-29.2389 29.9829   4
   4  -1  -9 32.2874 38.5939   2
  -4   1   9-3.41168 29.8014   1
   4  -1  -9 87.5373 36.6509   3
  -4   1   9-7.64221 22.9277   4
   4  -1  -8 124.063 40.3975   2
  -4   1   8 113.639 38.1913   1
   4  -1  -8 130.235 41.1843   3
  -4   1   8 191.144 41.7182   4
   4  -1  -7 76.8190 35.9276   2
   4  -1  -7-31.9570 27.4847   3
  -4   1   7 7.93598 28.2694   1
  -4   1   7 43.9363 26.8472   4
   4  -1  -6-17.5945 26.7321   2
   4  -1  -6 73.0471 30.0148   3
  -4   1   6 17.5477 27.4354   1
  -4   1   6 7.22484 22.5299   4
   4  -1  -5 21.3897 30.1451   2
   4  -1  -5-5.36870 19.9254   3
  -4   1   5 17.7220 28.1616   1
  -4   1   5 8.18656 23.4150   4
   4  -1  -4-8.90645 29.2453   2
  -4   1   4 87.6970 33.1629   1
   4  -1  -4 48.8347 23.2151   3
  -4   1   4 43.4912 22.7381   4
   4  -1  -3-14.3398 30.1202   2
  -4   1   3 14.8905 27.2997   1
   4  -1  -3-25.0863 19.0555   3
  -4   1   3 21.9806 25.0090   4
  -4   1   2 114.850 34.0070   1
   4  -1  -2 21.9708 26.1456   2
  -4   1   2 87.1645 30.2459   4
   4  -1  -2 52.2267 20.2022   3
   4  -1  -1 95.6608 35.7774   2
   4  -1  -1 78.8781 19.3591   3
  -4   1   1 6.26494 33.1542   1
  -4   1   1 51.4909 27.0098   4
   4  -1   0 659.205 41.6838   3
  -4   1   0 658.518 66.9983   4
   4  -1   0 717.805 70.6160   2
  -4   1  -1 285.133 45.7010   4
   4  -1   1 307.847 49.3432   2
  -4   1  -2 432.056 34.5827   3
  -4   1  -2 398.350 56.2918   4
   4  -1   2 449.039 57.5225   2
  -4   1  -3 620.932 40.1105   3
  -4   1  -3 490.838 62.1151   4
   4  -1   3 646.243 63.4339   2
  -4   1  -4 238.973 27.2858   3
   4  -1   4 277.822 46.6380   2
   4  -1   4 269.448 47.2597   1
  -4   1  -4 211.275 44.1339   4
   4  -1   5 1182.00 90.1198   2
  -4   1  -5 1279.52 63.4738   3
  -4   1  -5 1176.74 93.7138   4
   4  -1   5 1403.47 98.8995   1
  -4   1  -6 181.353 32.1706   3
   4  -1   6 160.449 39.0974   2
   4  -1   6 165.664 42.5279   1
  -4   1  -6 174.894 43.3940   4
   4  -1   7 154.328 40.4829   2
  -4   1  -7 178.373 33.0615   3
   4  -1   7 116.195 40.3546   1
  -4   1  -7 120.926 43.9088   4
  -4   1  -8 1436.31 84.0747   3
  -4   1  -8 1256.95 107.445   4
   4  -1   8 1305.46 97.1834   2
   4  -1   8 1273.82 100.793   1
   4  -1   9 171.164 43.9443   2
  -4   1  -9 195.528 39.5053   3
   4  -1   9 213.599 55.9415   1
  -4   1  -9 105.383 40.4072   4
  -4   1 -10 206.487 54.2494   4
  -4   1 -10 212.766 46.1256   3
   4  -1  10 212.729 45.5870   2
   4  -1  10 222.125 51.8327   1
  -4   1 -11 611.003 68.9682   3
  -4   1 -11 718.759 90.5468   4
   4  -1  11 674.812 75.2067   2
   4  -1  11 712.106 89.5730   1
  -4   1 -12-15.5771 39.1144   4
  -4   1 -12 7.49924 32.5085   3
   4  -1  12-13.9249 31.3106   2
   4  -1  12 2.66100 35.2851   1
  -4   1 -13 180.323 58.3253   4
  -4   1 -13 248.881 58.2132   3
   4  -1  13 186.530 51.9597   1
  -4   1 -14 61.6564 50.9668   4
  -4   1 -14 66.5939 40.3121   3
   4  -1  14 73.5567 50.6721   1
  -4   1 -15 132.752 56.6899   4
   4  -1  15 179.394 63.9297   1
  -4   1 -16 134.142 60.4692   4
   4  -1  16 154.280 62.3548   1
  -4   1 -17 24.3809 49.2722   4
   4  -1  17-14.3333 45.0062   1
  -4   0  16 53.1137 45.6847   1
   4   0 -16 108.599 61.1936   3
  -4   0  15 92.1470 56.1936   1
   4   0 -15 129.060 65.3597   3
  -4   0  14-50.4457 42.1816   1
   4   0 -14 21.0721 41.5292   3
  -4   0  13 46.8551 42.9624   1
   4   0 -13-14.2453 34.6337   2
   4   0 -13-8.80924 37.6981   3
   4   0 -12 24.6355 30.3572   2
  -4   0  12-11.1560 35.9474   1
   4   0 -12 8.39244 33.8974   3
  -4   0  12 20.3442 32.9203   4
  -4   0  11 425.865 70.8227   1
   4   0 -11 543.031 78.6258   3
  -4   0  11 411.393 59.5530   4
   4   0 -11 497.050 69.8189   2
  -4   0  10 872.312 93.1372   1
   4   0 -10 695.534 79.7855   3
  -4   0  10 692.612 75.2026   4
   4   0 -10 749.579 84.0063   2
   4   0  -9 64.1184 39.4435   2
  -4   0   9 59.3078 41.2396   1
   4   0  -9 91.8766 38.7911   3
  -4   0   9 160.196 45.5282   4
  -4   0   8 943.136 89.4699   1
   4   0  -8 915.580 85.0389   3
  -4   0   8 794.631 77.1006   4
   4   0  -8 790.267 82.7775   2
   4   0  -7 30.1842 30.3707   2
  -4   0   7 104.271 38.5715   1
   4   0  -7 121.016 33.9300   3
  -4   0   7 100.812 36.1967   4
   4   0  -6 1585.43 97.9894   3
  -4   0   6 1683.85 105.655   1
  -4   0   6 1625.77 103.401   4
   4   0  -6 1479.70 104.085   2
  -4   0   5 309.236 47.5201   1
   4   0  -5 217.001 37.2482   3
  -4   0   5 316.761 52.2838   4
   4   0  -5 304.480 51.3402   2
   4   0  -4 1970.32 97.6607   3
  -4   0   4 2129.75 113.610   1
  -4   0   4 1887.41 106.143   4
   4   0  -4 1849.02 113.216   2
   4   0  -3 4759.82 142.058   3
  -4   0   3 4771.84 165.124   1
  -4   0   3 4445.44 164.430   4
   4   0  -3 4486.11 169.901   2
   4   0  -2 205.699 46.7638   2
   4   0  -2 188.059 32.0400   3
  -4   0   2 181.793 36.6794   1
  -4   0   2 175.657 38.6171   4
   4   0  -1 241.115 44.9159   2
   4   0  -1 174.241 30.1383   3
  -4   0   1 250.894 44.3321   4
   4   0   0 46.6519 26.4508   2
   4   0   0 68.3928 22.9316   3
  -4   0   0 101.163 32.3941   4
  -4   0  -1 735.079 70.1101   4
   4   0   1 914.277 56.2843   3
   4   0   1 873.997 75.4437   2
  -4   0  -2 2317.78 91.0680   3
  -4   0  -2 1969.46 116.025   4
   4   0   2 2082.72 114.464   2
  -4   0  -3 4905.56 132.074   3
  -4   0  -3 4350.82 168.457   4
   4   0   3 5248.18 173.729   1
   4   0   3 4678.54 170.207   2
  -4   0  -4 757.617 54.9651   3
   4   0   4 743.631 69.6066   1
  -4   0  -4 706.783 71.1142   4
   4   0   4 834.940 78.4251   2
  -4   0  -5 1415.63 77.7648   3
  -4   0  -5 1309.70 96.1996   4
   4   0   5 1317.96 96.7821   2
   4   0   5 1301.34 90.0220   1
  -4   0  -6 235.225 35.8258   3
   4   0   6 185.205 43.9753   2
   4   0   6 214.939 43.5701   1
  -4   0  -6 269.537 51.2616   4
  -4   0  -7 1574.39 89.7117   3
  -4   0  -7 1340.25 104.184   4
   4   0   7 1412.81 99.2831   2
   4   0   7 1448.39 99.3441   1
  -4   0  -8 150.660 32.0448   3
   4   0   8 157.889 40.3097   2
   4   0   8 183.148 43.6033   1
  -4   0  -8 158.102 46.9952   4
  -4   0  -9 1064.44 83.4100   3
   4   0   9 795.675 78.0349   2
  -4   0  -9 1245.46 106.551   4
   4   0   9 1163.14 99.4833   1
  -4   0 -10 1173.43 91.7605   3
  -4   0 -10 1349.33 111.777   4
   4   0  10 1172.31 95.7948   2
   4   0  10 1270.44 105.237   1
  -4   0 -11 531.359 68.9712   3
  -4   0 -11 695.027 85.1934   4
   4   0  11 556.236 69.8897   2
   4   0  11 676.341 87.1378   1
  -4   0 -12 175.024 52.9548   4
  -4   0 -12 216.820 54.9408   3
   4   0  12 248.485 53.5147   2
   4   0  12 141.177 47.0088   1
  -4   0 -13 65.7579 42.8213   4
  -4   0 -13-16.0405 34.8966   3
   4   0  13 37.9072 35.9463   2
   4   0  13 87.3574 48.0562   1
  -4   0 -14 46.3058 45.4172   4
  -4   0 -14-86.7911 42.6221   3
   4   0  14 41.5747 39.6797   2
   4   0  14 40.9964 44.9141   1
  -4   0 -15 8.32925 40.1636   4
  -4   0 -15 13.4254 43.5572   3
   4   0  15 73.5267 48.5778   1
  -4   0 -16 66.9741 55.3212   4
  -4   0 -16 39.1058 51.5939   3
   4   0  16 163.670 62.7761   1
   4   0  17 110.227 65.6465   1
  -4   0 -17 78.4882 52.5683   4
  -4   0 -17 10.1634 50.2087   3
   4   1 -16 156.297 70.0250   3
  -4  -1  16 214.426 65.2229   1
   4   1 -15 47.4013 46.2022   3
  -4  -1  15 114.959 53.2092   1
   4   1 -14-16.2036 40.0719   3
  -4  -1  14-26.9710 41.6629   1
  -4  -1  13 109.687 51.2882   1
   4   1 -13 135.001 51.7163   3
  -4  -1  13 198.855 57.6871   4
  -4  -1  12 94.5994 38.7841   1
   4   1 -12 68.6122 37.1973   2
   4   1 -12 142.935 54.0089   3
  -4  -1  12 156.022 49.7505   4
  -4  -1  11 207.023 49.3741   1
   4   1 -11 183.609 44.7339   2
   4   1 -11 174.871 52.5180   3
  -4  -1  11 161.882 43.9155   4
  -4  -1  10 90.7087 39.2262   1
   4   1 -10 97.7755 39.3173   2
   4   1 -10 168.491 47.8091   3
  -4  -1  10 32.9172 33.2357   4
  -4  -1   9 873.873 84.6516   1
   4   1  -9 848.536 88.2419   3
  -4  -1   9 875.981 87.9763   4
   4   1  -9 805.367 81.8100   2
   4   1  -8 120.489 40.8519   2
  -4  -1   8 199.565 48.4935   1
   4   1  -8 129.395 40.4788   3
  -4  -1   8 122.658 41.2888   4
   4   1  -7 207.203 48.1562   2
  -4  -1   7 177.959 42.5213   1
   4   1  -7 176.247 44.8596   3
  -4  -1   7 152.942 42.9294   4
   4   1  -6 14.9871 27.2945   2
  -4  -1   6 22.9805 24.1688   1
   4   1  -6 48.6669 34.6180   3
  -4  -1   6 41.5345 30.6511   4
  -4  -1   5 1612.05 94.8594   1
   4   1  -5 1563.49 97.5036   3
  -4  -1   5 1350.21 97.1824   4
   4   1  -5 1480.52 101.584   2
   4   1  -4 139.805 36.6865   2
   4   1  -4 88.3045 26.5920   3
  -4  -1   4 64.5677 25.3656   1
  -4  -1   4 107.966 35.1756   4
  -4  -1   3 24.8571 25.9623   1
   4   1  -3 40.9617 30.6645   2
   4   1  -3-3.20935 20.2558   3
  -4  -1   3 5.84633 24.0034   4
   4   1  -2 31.2489 25.2029   2
   4   1  -2 71.0572 27.7140   3
  -4  -1   2 47.0120 25.1242   1
  -4  -1   2 14.8666 23.0032   4
   4   1  -1 1412.68 82.3209   3
  -4  -1   1 1382.49 95.7327   4
   4   1  -1 1200.73 89.4030   2
   4   1   0 5.58840 28.3592   2
   4   1   0 42.7747 22.4514   3
  -4  -1   0-2.41557 24.0298   4
   4   1   1-9.84688 25.0222   2
   4   1   1 28.9069 20.3830   3
  -4  -1  -1 12.9948 27.6335   4
   4   1   2 54.6457 28.0168   2
   4   1   2 60.5489 24.8030   3
  -4  -1  -2 102.921 36.4044   4
  -4  -1  -3 2.42407 19.1759   3
   4   1   3 25.1085 22.8685   1
   4   1   3-15.5357 27.9628   2
  -4  -1  -3 3.24069 26.0953   4
  -4  -1  -4 68.5723 26.2036   3
   4   1   4 44.5703 30.3088   2
   4   1   4 49.4532 22.1946   1
  -4  -1  -4 29.5235 29.3412   4
  -4  -1  -5-4.97679 19.9505   3
   4   1   5 48.2085 32.4465   2
   4   1   5-2.07634 21.3445   1
  -4  -1  -5-17.1222 26.7430   4
  -4  -1  -6 104.063 33.0214   3
   4   1   6 71.5165 33.7721   2
   4   1   6 99.2637 30.2596   1
  -4  -1  -6 141.617 43.5946   4
  -4  -1  -7 85.0746 31.0926   3
   4   1   7 73.6312 32.9699   2
   4   1   7 80.0405 30.3094   1
  -4  -1  -7 167.760 47.6716   4
  -4  -1  -8 24.0852 29.9050   3
   4   1   8 58.7580 32.9423   2
   4   1   8 76.9734 32.1029   1
  -4  -1  -8 25.1047 31.4342   4
  -4  -1  -9 59.0932 33.9844   3
   4   1   9 86.1987 40.4601   2
   4   1   9 87.1276 39.9743   1
  -4  -1  -9 18.6310 34.4271   4
  -4  -1 -10 224.972 52.3911   3
   4   1  10 215.209 47.5360   2
   4   1  10 144.735 39.5412   1
  -4  -1 -10 261.958 54.2452   4
  -4  -1 -11 25.8559 34.6102   3
   4   1  11-8.24126 36.8653   2
   4   1  11 13.1939 30.0693   1
  -4  -1 -11 56.0649 36.5853   4
  -4  -1 -12 135.126 48.0382   4
   4   1  12 103.053 42.0950   1
  -4  -1 -12 166.499 52.3058   3
   4   1  12 123.990 48.6034   2
  -4  -1 -13 120.305 47.9250   4
  -4  -1 -13-40.4536 42.9463   3
   4   1  13 100.986 46.6009   2
   4   1  13 50.3773 42.6710   1
  -4  -1 -14 67.9655 44.4948   4
  -4  -1 -14-60.0514 46.8853   3
   4   1  14-2.53923 33.2540   2
   4   1  14-63.3852 46.5086   1
  -4  -1 -15 12.4791 36.2309   4
  -4  -1 -15 61.3554 52.6200   3
   4   1  15 9.43561 37.5221   2
   4   1  15 59.2799 45.7739   1
  -4  -1 -16 8.66182 43.2325   4
   4   1  16 2.98938 40.6242   1
  -4  -1 -16-26.1693 51.7983   3
   4   1  17 117.689 59.7957   1
  -4  -1 -17 8.32881 47.9876   3
  -4  -1 -18-33.4714 56.4707   3
  -4  -2  16 0.10931 41.3517   1
   4   2 -15 93.1170 63.5442   3
  -4  -2  15 31.5972 38.1291   4
  -4  -2  15-70.8924 50.0110   1
   4   2 -14 116.980 57.9305   3
  -4  -2  14 41.5499 38.6938   4
  -4  -2  14-9.24086 34.6718   1
  -4  -2  13 24.0545 42.0223   4
   4   2 -13 83.8787 50.8094   3
  -4  -2  13 79.4573 43.5135   1
  -4  -2  12 552.053 76.9306   1
   4   2 -12 583.364 86.9644   3
  -4  -2  12 612.748 86.8973   4
   4   2 -11 13.8437 40.9722   3
  -4  -2  11 47.3663 35.1821   4
  -4  -2  11 17.8401 34.8301   1
  -4  -2  10 57.5201 37.1174   1
   4   2 -10-34.2281 33.9382   2
   4   2 -10 58.7344 34.1154   3
  -4  -2  10-4.39536 32.9640   4
   4   2  -9 43.5101 34.3149   2
  -4  -2   9-18.0347 29.4130   1
   4   2  -9-31.5664 30.9653   3
  -4  -2   9-30.4879 36.6743   4
  -4  -2   8 39.4755 31.1388   1
   4   2  -8 11.5023 25.0879   2
   4   2  -8-5.24742 29.2848   3
  -4  -2   8-7.02625 33.9239   4
  -4  -2   7 71.5423 33.9359   1
   4   2  -7 35.3155 27.8218   2
   4   2  -7 75.4004 34.1564   3
  -4  -2   7 93.5140 36.5830   4
   4   2  -6 101.865 35.2306   2
  -4  -2   6 196.824 37.2946   1
   4   2  -6 85.4833 32.0682   3
  -4  -2   6 122.315 38.8091   4
   4   2  -5 133.353 37.0240   2
  -4  -2   5 77.3674 32.4153   4
  -4  -2   5 90.6311 27.6932   1
   4   2  -5 111.190 37.4698   3
   4   2  -4 1868.61 111.974   3
  -4  -2   4 1964.84 95.3173   1
  -4  -2   4 1691.38 114.241   4
   4   2  -4 1761.58 104.442   2
  -4  -2   3 68.0662 20.8890   1
   4   2  -3 95.1312 31.0822   2
   4   2  -3 124.566 37.8038   3
  -4  -2   3 71.6572 33.8989   4
   4   2  -2-9.65612 27.0168   2
   4   2  -2-17.4409 29.6201   3
  -4  -2   2-9.91816 18.4284   1
  -4  -2   2-35.2749 30.1123   4
   4   2  -1 4.85014 28.2033   2
   4   2  -1 19.5777 26.2998   3
  -4  -2   1-1.52738 22.9543   1
  -4  -2   1 15.4065 28.2376   4
   4   2   0 358.098 50.0776   3
  -4  -2   0 311.226 51.5577   4
   4   2   0 338.440 50.7605   2
   4   2   1 2335.89 111.539   3
  -4  -2  -1 2581.73 131.090   4
   4   2   1 2486.77 128.091   2
   4   2   2 2790.11 122.878   3
  -4  -2  -2 2705.53 137.574   4
   4   2   2 3015.54 104.386   1
   4   2   2 2621.84 135.186   2
  -4  -2  -3 307.315 47.2798   3
   4   2   3 276.826 33.7412   1
  -4  -2  -3 289.418 50.1710   4
   4   2   3 279.435 53.0015   2
  -4  -2  -4 566.050 59.4691   3
  -4  -2  -4 517.876 65.7437   4
   4   2   4 529.884 64.8867   2
   4   2   4 570.305 47.3656   1
  -4  -2  -5 651.580 65.2695   3
  -4  -2  -5 683.164 73.9253   4
   4   2   5 728.609 56.5183   1
   4   2   5 657.126 71.0110   2
  -4  -2  -6 1824.69 108.630   3
  -4  -2  -6 1843.79 117.072   4
   4   2   6 1860.90 120.008   2
   4   2   6 1979.36 98.3388   1
  -4  -2  -7 140.406 44.8458   4
  -4  -2  -7 94.8665 36.5700   3
   4   2   7 183.211 45.4921   2
   4   2   7 149.221 35.1563   1
  -4  -2  -8 2424.66 130.026   3
  -4  -2  -8 2630.42 139.532   4
   4   2   8 2430.67 142.242   2
   4   2   8 2463.69 116.235   1
  -4  -2  -9 1241.06 99.7648   3
  -4  -2  -9 1162.14 96.2397   4
   4   2   9 1147.37 100.138   2
   4   2   9 1124.44 83.6829   1
  -4  -2 -10 667.364 77.8803   3
  -4  -2 -10 754.962 84.0137   4
   4   2  10 563.994 76.5002   2
   4   2  10 603.429 66.3189   1
  -4  -2 -11 279.375 58.7107   3
   4   2  11 322.273 61.3582   2
   4   2  11 312.338 53.2237   1
  -4  -2 -11 315.022 57.8713   4
  -4  -2 -12 63.7696 43.3336   3
   4   2  12-18.2363 33.9121   2
   4   2  12 41.7403 34.3073   1
  -4  -2 -12 4.12779 33.9007   4
  -4  -2 -13 32.8475 35.4071   4
  -4  -2 -13-101.965 51.2481   3
   4   2  13 56.0902 40.8852   2
   4   2  13-59.7560 41.9811   1
  -4  -2 -14 199.686 53.4213   4
   4   2  14 244.536 56.4900   1
  -4  -2 -14 173.335 60.8494   3
   4   2  14 157.093 51.2534   2
  -4  -2 -15 7.09852 35.7813   4
   4   2  15 132.319 48.0409   1
  -4  -2 -15-21.3620 50.0408   3
   4   2  15 106.592 48.8448   2
   4   2  16-6.84225 39.8609   1
  -4  -2 -16 90.3194 60.9560   3
   4   2  16-39.3198 43.6887   2
   4   2  17-3.23386 40.8417   1
  -4  -2 -17 20.7452 53.4199   3
   4   2  18-31.6359 50.1314   1
  -4  -3  16 69.7254 54.2124   4
  -4  -3  16 60.0481 49.6584   1
   4   3 -15 49.8281 50.8761   3
  -4  -3  15-18.6259 47.0466   4
  -4  -3  15 96.1073 56.8752   1
  -4  -3  14 58.3985 52.6750   4
   4   3 -14 95.1947 57.8744   3
  -4  -3  14 22.9057 37.1924   1
   4   3 -13-43.3537 48.6382   3
  -4  -3  13 77.6303 43.3324   1
  -4  -3  13 10.8270 41.4833   4
   4   3 -12 238.646 65.9973   3
  -4  -3  12 258.098 65.3718   4
  -4  -3  12 218.172 55.1792   1
   4   3 -11 29.7374 35.4469   3
  -4  -3  11-3.68771 36.6065   4
  -4  -3  11 21.9767 31.5923   1
  -4  -3  10 376.394 58.8653   1
   4   3 -10 389.485 73.7169   3
  -4  -3  10 384.142 73.3417   4
   4   3  -9 29.3481 27.2176   2
   4   3  -9-10.0033 36.2672   3
  -4  -3   9 43.1416 41.3160   4
  -4  -3   9-1.47769 25.9435   1
  -4  -3   8 292.822 47.3896   1
   4   3  -8 216.377 42.8309   2
   4   3  -8 224.392 54.4142   3
  -4  -3   8 263.154 57.2075   4
  -4  -3   7 51.8859 25.9401   1
   4   3  -7 62.5968 28.2900   2
   4   3  -7 124.966 45.1244   3
  -4  -3   7 93.7025 41.5142   4
  -4  -3   6 2551.12 121.494   1
   4   3  -6 2346.84 140.115   3
   4   3  -6 2394.00 122.388   2
  -4  -3   6 2243.97 142.174   4
   4   3  -5 18.8431 25.3309   2
  -4  -3   5 20.2161 21.3988   1
   4   3  -5-7.52650 30.2996   3
  -4  -3   5 14.9554 32.7482   4
  -4  -3   4 309.496 38.0682   1
   4   3  -4 319.422 53.8872   3
  -4  -3   4 344.256 56.7584   4
   4   3  -4 283.727 45.8537   2
   4   3  -3 177.347 37.8406   2
  -4  -3   3 176.720 29.9748   1
   4   3  -3 60.9705 35.0910   3
  -4  -3   3 129.330 39.7741   4
   4   3  -2 2568.62 133.163   3
  -4  -3   2 2629.48 94.0586   1
  -4  -3   2 2625.07 140.622   4
   4   3  -2 2532.30 128.773   2
   4   3  -1 477.312 61.0771   3
  -4  -3   1 614.756 71.2577   4
   4   3  -1 509.233 61.6841   2
   4   3   0 273.595 48.5475   2
   4   3   0 273.653 51.8529   3
  -4  -3   0 220.310 45.2717   4
   4   3   1 419.969 58.9044   2
   4   3   1 484.715 60.2486   3
  -4  -3  -1 316.276 53.5273   4
   4   3   1 348.424 31.4252   1
   4   3   2 18.3862 25.5565   2
   4   3   2 55.0926 15.2273   1
   4   3   2 66.5230 28.7018   3
  -4  -3  -2 90.8829 37.7123   4
  -4  -3  -3 1979.38 119.841   4
   4   3   3 1734.91 111.974   2
   4   3   3 1942.64 68.9561   1
  -4  -3  -4 268.543 50.9911   3
   4   3   4 199.965 43.4462   2
  -4  -3  -4 255.434 47.5781   4
   4   3   4 379.665 35.2766   1
  -4  -3  -5-22.9839 32.2662   3
   4   3   5 38.0478 34.9527   2
   4   3   5 16.8804 16.2830   1
  -4  -3  -5-16.9368 28.4974   4
  -4  -3  -6 243.022 47.6331   3
   4   3   6 338.880 54.9206   2
  -4  -3  -6 379.878 59.2373   4
   4   3   6 366.940 40.3000   1
  -4  -3  -7 199.867 44.9573   3
   4   3   7 242.346 53.1420   2
  -4  -3  -7 169.452 41.8305   4
   4   3   7 250.548 35.5368   1
  -4  -3  -8 77.4930 34.7392   3
   4   3   8 172.931 50.7483   2
   4   3   8 112.192 30.0355   1
  -4  -3  -8 71.9364 34.1444   4
  -4  -3  -9 55.1696 38.7385   3
   4   3   9-4.73598 35.3618   2
   4   3   9 54.8325 26.0007   1
  -4  -3  -9 67.3748 33.5553   4
  -4  -3 -10 95.6121 42.0387   3
   4   3  10 76.2790 41.8614   2
  -4  -3 -10 133.713 44.2437   4
   4   3  10 117.921 36.7676   1
   4   3  11 178.333 41.9343   1
  -4  -3 -11 143.786 50.9815   3
   4   3  11 138.821 47.3452   2
  -4  -3 -11 132.770 39.5083   4
   4   3  12-47.3055 35.3654   1
  -4  -3 -12 22.9917 40.6564   3
   4   3  12 30.4353 41.3476   2
  -4  -3 -12-46.8262 33.8559   4
   4   3  13 41.5617 35.6097   1
  -4  -3 -13 24.3170 41.8192   3
   4   3  13 22.4105 41.6588   2
  -4  -3 -13-13.7544 34.3550   4
  -4  -3 -14 29.3430 46.1255   3
   4   3  14 8.44238 43.4491   2
  -4  -3 -15-75.9436 60.2022   3
   4   3  15 50.1988 52.4001   2
  -4  -3 -16-91.4310 66.4885   3
   4   3  16 54.4633 53.2780   2
  -4  -3 -17-58.6066 71.0157   3
   4   3  17-15.1370 49.7714   2
  -4  -4  15-22.5796 50.9218   4
  -4  -4  14 102.749 60.3250   4
   4   4 -14 71.2898 56.1027   3
   4   4 -13 357.173 83.9586   3
  -4  -4  13 196.992 67.5838   4
   4   4 -12-21.5839 41.3485   3
  -4  -4  12 59.8828 45.7797   4
   4   4 -11 36.3979 41.7983   3
  -4  -4  11-19.0235 44.7390   4
   4   4 -10 231.950 60.2691   3
  -4  -4  10 228.852 63.5239   4
   4   4  -9 59.7432 40.5579   3
  -4  -4   9-30.2950 36.3330   4
   4   4  -8 63.9882 47.4546   3
  -4  -4   8 31.2345 40.0635   4
   4   4  -7 43.5490 27.7586   2
   4   4  -7-16.4060 34.5102   3
  -4  -4   7-9.85308 33.7911   4
   4   4  -6 388.266 69.3340   3
  -4  -4   6 276.431 59.1018   4
   4   4  -6 323.261 50.8706   2
   4   4  -5 237.439 44.2300   2
   4   4  -5 159.459 43.3243   3
  -4  -4   5 163.049 50.2434   4
   4   4  -4 1353.94 111.021   3
  -4  -4   4 1399.46 114.036   4
   4   4  -4 1242.02 92.0093   2
   4   4  -3 89.5407 37.4760   2
   4   4  -3 164.048 46.5798   3
  -4  -4   3 106.027 42.3972   4
   4   4  -2 8.15738 27.3643   2
   4   4  -2 25.4002 29.4241   3
  -4  -4   2 1.01775 29.2598   4
   4   4  -1 25.4807 29.3927   2
   4   4  -1 0.51174 29.4999   3
  -4  -4   1 23.2465 29.1037   4
   4   4   0 2533.08 131.044   2
   4   4   0 3079.73 156.434   3
  -4  -4   0 2704.97 144.196   4
   4   4   1 128.850 42.4648   2
   4   4   1 100.257 33.5223   3
  -4  -4  -1 82.2916 39.1697   4
   4   4   2 332.458 59.3490   3
   4   4   2 264.142 47.8788   2
  -4  -4  -2 371.714 58.6563   4
   4   4   3 1.64321 28.6477   2
   4   4   3-8.13944 32.1779   3
  -4  -4  -3-17.8562 27.1226   4
  -4  -4  -4 179.025 48.0797   3
   4   4   4 273.622 53.9498   2
  -4  -4  -4 248.632 49.4052   4
  -4  -4  -5 118.876 44.9321   3
   4   4   5 85.1223 38.3223   2
  -4  -4  -5 49.4334 27.3976   4
  -4  -4  -6 43.7940 36.4041   3
   4   4   6-17.9995 32.3288   2
  -4  -4  -6-13.4849 30.6758   4
  -4  -4  -7 867.264 90.6504   3
  -4  -4  -7 1034.18 90.1001   4
   4   4   7 874.614 91.1582   2
  -4  -4  -8 267.102 52.2509   3
   4   4   8 301.776 62.0480   2
  -4  -4  -8 343.046 58.6038   4
  -4  -4  -9 600.629 81.4015   3
  -4  -4  -9 565.934 71.3660   4
   4   4   9 608.130 82.4845   2
  -4  -4 -10-57.2389 40.4442   3
   4   4  10 19.2282 34.9695   2
  -4  -4 -10 2.60280 28.7441   4
  -4  -4 -11 31.1332 39.8316   3
   4   4  11 67.4465 41.8213   2
  -4  -4 -11 90.0766 36.2490   4
  -4  -4 -12 101.266 54.9978   3
   4   4  12-6.35957 43.1595   2
  -4  -4 -13-11.9479 47.6678   3
   4   4  13 95.5272 54.8123   2
  -4  -4 -14 22.4744 44.4603   3
   4   4  14-29.8746 45.3326   2
  -4  -4 -15-70.1470 59.0091   3
   4   4  15 61.5398 48.5533   2
  -4  -4 -16-1.16102 55.8610   3
   4   4  16 88.2046 53.5528   2
   4   5 -13 58.3176 59.4789   3
  -4  -5  13-58.3693 52.1897   4
   4   5 -12-18.3940 44.4808   3
  -4  -5  12 9.58443 47.6989   4
   4   5 -11-15.2399 41.3866   3
  -4  -5  11-29.9875 46.1979   4
   4   5 -10 34.0887 42.6128   3
  -4  -5  10 10.3780 40.1825   4
   4   5  -9 30.0874 37.8263   3
  -4  -5   9 73.4882 48.6244   4
   4   5  -8 47.5561 43.3600   3
  -4  -5   8-18.1260 38.6924   4
   4   5  -7 463.486 82.5332   3
  -4  -5   7 343.273 71.7759   4
   4   5  -6 45.2373 39.1133   3
  -4  -5   6 43.1638 40.6406   4
  -4  -5   5 281.127 66.4573   4
   4   5  -5 296.405 62.0561   3
   4   5  -5 269.352 47.2992   2
   4   5  -4-15.6909 22.7885   2
   4   5  -4 40.1084 40.2264   3
  -4  -5   4-9.11095 35.6843   4
   4   5  -3 254.593 44.6158   2
   4   5  -3 324.816 62.1193   3
  -4  -5   3 269.115 59.3139   4
   4   5  -2 316.545 63.0106   3
  -4  -5   2 165.631 47.0015   4
   4   5  -2 267.050 49.7118   2
   4   5  -1 49.9726 34.3583   2
   4   5  -1 6.94685 34.1178   3
  -4  -5   1 4.99752 31.0912   4
   4   5   0 213.929 46.0860   2
   4   5   0 155.203 47.6327   3
  -4  -5   0 155.920 43.8234   4
   4   5   1 208.671 46.5077   2
   4   5   1 152.406 48.0342   3
  -4  -5  -1 293.063 56.9755   4
   4   5   2 1138.08 104.077   3
  -4  -5  -2 1065.42 95.8523   4
   4   5   2 985.580 91.6255   2
  -4  -5  -3 401.343 62.4691   4
   4   5   3 372.306 60.7243   2
  -4  -5  -4 82.9101 42.4763   3
   4   5   4 80.1259 36.7818   2
  -4  -5  -4 37.9172 27.5635   4
  -4  -5  -5 452.109 71.7970   3
  -4  -5  -5 458.400 64.1712   4
   4   5   5 480.315 68.9122   2
  -4  -5  -6 501.276 74.8482   3
  -4  -5  -6 623.242 75.3522   4
   4   5   6 479.502 75.3420   2
  -4  -5  -7 108.224 48.9715   3
   4   5   7 161.950 52.6191   2
  -4  -5  -7 138.133 45.2718   4
  -4  -5  -8 61.2641 36.5342   3
   4   5   8 100.023 52.6163   2
  -4  -5  -8 62.0847 32.3578   4
  -4  -5  -9 357.607 68.6988   3
   4   5   9 350.802 72.7099   2
  -4  -5  -9 286.076 50.6149   4
  -4  -5 -10 295.575 67.7313   3
   4   5  10 333.514 71.6727   2
  -4  -5 -11 64.5265 46.2608   3
   4   5  11-9.69281 36.2117   2
  -4  -5 -12 2.65588 42.4406   3
   4   5  12-25.2261 41.4814   2
  -4  -5 -13 176.958 64.9958   3
   4   5  13 270.321 74.6669   2
  -4  -5 -14-61.9632 59.0308   3
   4   5  14 35.5619 52.2250   2
  -4  -5 -15 17.9978 57.9904   3
   4   5  15 36.2304 48.1124   2
   4   6 -11 32.4251 44.9438   3
  -4  -6  11 205.153 69.9993   4
   4   6 -10 10.3999 49.7447   3
  -4  -6  10-5.26046 43.2243   4
   4   6  -9 113.272 57.4247   3
  -4  -6   9 5.02077 45.4529   4
   4   6  -8 16.9552 46.1384   3
  -4  -6   8 68.3795 42.2289   4
   4   6  -7 19.5709 42.9313   3
  -4  -6   7 94.7368 43.3183   4
   4   6  -6 13.0928 38.6525   3
  -4  -6   6 2.25940 37.1556   4
   4   6  -5 685.841 92.4259   3
  -4  -6   5 694.110 94.8097   4
  -4  -6   4 143.750 53.5205   4
   4   6  -4 190.357 56.0746   3
   4   6  -3 86.3711 33.5160   2
   4   6  -3 105.299 47.7080   3
  -4  -6   3 109.175 47.1180   4
   4   6  -2 319.338 71.7261   3
   4   6  -2 277.423 51.8682   2
  -4  -6   2 254.114 57.7320   4
   4   6  -1 839.784 99.1882   3
  -4  -6   1 646.212 83.0390   4
   4   6  -1 697.918 72.6581   2
   4   6   0 66.7627 35.6051   2
   4   6   0 49.0577 42.4933   3
  -4  -6   0 36.3372 33.7967   4
   4   6   1 958.555 102.833   3
  -4  -6  -1 818.492 86.9250   4
   4   6   1 759.607 81.7793   2
   4   6   2 74.5866 36.8414   2
   4   6   2 40.4907 37.6673   3
  -4  -6  -2 113.231 45.1708   4
   4   6   3 7.96546 30.8130   2
  -4  -6  -3 52.1074 39.1067   4
  -4  -6  -4 206.416 57.7016   3
   4   6   4 84.5924 32.5474   2
  -4  -6  -4 127.561 43.7208   4
  -4  -6  -5-19.1447 40.8068   3
   4   6   5 32.8748 31.3280   2
  -4  -6  -5 8.33364 31.3547   4
  -4  -6  -6 71.6602 45.2230   3
   4   6   6 21.2237 36.3452   2
  -4  -6  -6 24.7100 32.3721   4
  -4  -6  -7 17.6863 40.8993   3
   4   6   7-4.84905 38.8751   2
  -4  -6  -7 1.45224 31.1350   4
  -4  -6  -8 318.531 70.7974   3
   4   6   8 87.0717 34.2326   2
  -4  -6  -8 229.933 50.7536   4
  -4  -6  -9 46.3219 45.2762   3
   4   6   9 65.4377 43.9867   2
  -4  -6 -10-3.35427 44.5100   3
   4   6  10 18.4976 46.0999   2
  -4  -6 -11-14.7517 44.4021   3
   4   6  11-5.49973 45.5143   2
  -4  -6 -12 211.156 69.4143   3
   4   6  12 111.584 60.5406   2
  -4  -6 -13 23.4542 50.1486   3
   4   6  13-76.4526 52.4607   2
   4   7  -9 70.2331 54.1677   3
  -4  -7   9-12.6043 49.2199   4
   4   7  -8 40.3527 52.5461   3
  -4  -7   8-51.2763 50.9817   4
   4   7  -7 45.7758 55.5652   3
  -4  -7   7-57.4648 53.3435   4
   4   7  -6-13.6668 45.4313   3
  -4  -7   6-22.6330 47.4575   4
   4   7  -5 4.82919 38.9897   3
  -4  -7   5 29.3804 41.7740   4
   4   7  -4-26.7665 51.4906   3
  -4  -7   4-25.9482 42.7914   4
   4   7  -3 13.5979 37.7461   3
  -4  -7   3 46.6550 37.7863   4
   4   7  -2 136.112 54.5627   3
  -4  -7   2 105.246 48.4930   4
   4   7  -1 59.9392 34.0392   2
   4   7  -1 57.5082 45.1535   3
  -4  -7   1 0.08060 35.4203   4
   4   7   0 120.741 40.3449   2
   4   7   0 162.730 52.8316   3
  -4  -7   0 164.766 51.4703   4
   4   7   1 69.0285 35.2450   2
   4   7   1 97.4754 52.7507   3
  -4  -7  -1 75.0324 41.2685   4
   4   7   2 113.658 43.0837   2
  -4  -7  -2 43.4720 36.5900   4
   4   7   2 48.0772 43.4076   3
  -4  -7  -3-10.2619 44.3899   3
   4   7   3 43.6117 37.9646   2
  -4  -7  -3-41.4204 40.4337   4
  -4  -7  -4 56.7976 46.0181   3
   4   7   4 54.9665 41.6638   2
  -4  -7  -4 119.828 44.9879   4
  -4  -7  -5 174.878 56.5930   3
   4   7   5 109.493 49.3641   2
  -4  -7  -5 128.454 44.3217   4
  -4  -7  -6-66.6544 48.8958   3
   4   7   6-40.1406 41.2380   2
  -4  -7  -6 25.0745 35.3812   4
  -4  -7  -7 3.98799 43.4084   3
   4   7   7-58.1935 47.8061   2
  -4  -7  -8 118.470 53.9254   3
   4   7   8-52.2792 49.0669   2
  -4  -7  -9 21.8897 45.6593   3
   4   7   9-3.44042 46.3726   2
  -4  -7 -10-72.7239 57.7007   3
   4   7  10-43.0518 46.9024   2
  -4  -7 -11 52.8786 53.5879   3
   4   7  11 96.6619 62.0255   2
  -4  -7 -12 132.320 59.1772   3
   4   7  12 137.880 57.6135   2
   4   8  -7 76.9241 55.5343   3
  -4  -8   7 68.0886 58.0333   4
   4   8  -6 29.1375 51.3679   3
  -4  -8   6 26.2749 42.9574   4
   4   8  -5-16.1384 52.8878   3
  -4  -8   5 77.5209 52.2967   4
   4   8  -4 389.418 83.4200   3
  -4  -8   4 416.581 84.9461   4
   4   8  -3 245.330 72.0275   3
  -4  -8   3 153.977 60.4401   4
   4   8  -2 67.6888 51.7155   3
  -4  -8   2 135.377 52.9736   4
   4   8  -1 92.6914 50.9943   3
  -4  -8   1-7.12217 39.7844   4
   4   8   0 96.1117 58.2962   3
  -4  -8   0 37.3295 42.8866   4
   4   8   1 51.4403 37.2738   2
   4   8   1 18.7675 39.7921   3
  -4  -8  -1 44.5916 44.2921   4
   4   8   2 69.4614 42.7312   2
  -4  -8  -2 11.7669 34.0471   4
  -4  -8  -3 151.672 55.1871   3
   4   8   3 160.247 53.6364   2
  -4  -8  -3 157.725 50.1775   4
  -4  -8  -4 15.3598 39.2842   3
   4   8   4 58.8222 40.5468   2
  -4  -8  -4-47.6838 38.1391   4
  -4  -8  -5 15.4055 43.3733   3
   4   8   5 33.8540 38.6780   2
  -4  -8  -6 102.260 60.4444   3
   4   8   6 17.3033 38.7407   2
  -4  -8  -7 93.2518 55.9896   3
   4   8   7 30.8045 54.2946   2
  -4  -8  -8 119.537 60.5214   3
   4   8   8 114.913 60.6373   2
  -4  -8  -9 42.5901 46.7560   3
   4   8   9 81.1519 61.9841   2
   4   8  10-29.0305 57.0651   2
  -4  -9   4 133.448 61.0879   4
   4   9  -3 40.3048 48.9943   3
  -4  -9   3 64.1557 55.2294   4
   4   9  -2-97.4531 61.2079   3
  -4  -9   2 17.2420 46.1813   4
   4   9  -1-24.2721 50.4253   3
  -4  -9   1 58.7362 43.8248   4
   4   9   0-8.18005 46.8043   3
  -4  -9   0 35.5948 43.6591   4
  -4  -9  -1 34.7801 40.4793   4
  -4  -9  -2-24.8735 42.1022   3
  -4  -9  -3-85.1753 56.2654   3
   4   9   3 19.0413 41.2197   2
  -4  -9  -4-28.4847 43.8534   3
   4   9   4 33.8270 45.8608   2
  -4  -9  -5 70.2571 50.2679   3
   4   9   5 22.5674 41.0833   2
  -4  -9  -6 126.410 65.2798   3
   4   9   6 24.5780 49.1360   2
   4   9   7 53.2525 48.6594   2
  -5   8   5 55.6673 80.3530   1
   5  -8  -5 39.9610 51.4411   2
   5  -8  -4-35.6098 51.0636   2
   5  -8  -3 11.0505 39.2067   2
   5  -8  -2-51.5257 47.5160   2
   5  -8  -1 107.231 53.0610   2
   5  -8   1 85.2486 52.4983   1
   5  -8   2 151.391 58.8352   1
   5  -8   3 176.313 73.9109   1
   5  -8   4 45.3488 47.0416   1
  -5   8  -5 89.4680 56.3389   4
  -5   8  -6 99.9264 58.3477   4
   5  -7  -8 71.8660 61.3486   2
   5  -7  -7 7.41450 43.3369   2
  -5   7   6 111.093 75.8962   1
   5  -7  -6 162.041 63.2159   2
   5  -7  -5 40.3708 49.0350   2
   5  -7  -4-109.434 56.2160   2
  -5   7   4 43.3560 79.6318   1
   5  -7  -3 4.09749 38.5920   2
   5  -7  -2 285.790 68.4471   2
  -5   7   2 25.1271 71.2595   1
   5  -7  -1 62.0714 44.3072   2
  -5   7   1-117.320 83.1566   1
   5  -7   0-39.2166 42.1398   2
   5  -7   1 45.4426 40.6134   2
  -5   7  -2 59.1730 37.5060   4
   5  -7   2-29.1361 36.9512   2
   5  -7   2 64.2380 49.8672   1
  -5   7  -3-10.0279 37.8766   4
   5  -7   3 104.719 55.0674   1
  -5   7  -4 91.7737 47.2640   4
   5  -7   4 78.9122 55.2547   1
  -5   7  -5 43.7183 48.5277   4
   5  -7   5-66.4920 53.3183   1
  -5   7  -6-46.9350 49.5193   4
   5  -7   6-9.55277 49.3842   1
  -5   7  -7 106.399 54.7031   4
   5  -7   7 177.574 71.4968   1
  -5   7  -8 121.841 64.5177   4
   5  -6 -10-10.2261 49.6251   2
  -5   6  10-32.0579 45.9330   1
   5  -6  -9 16.0877 46.5457   2
  -5   6   9-15.2741 45.0220   1
   5  -6  -8-43.2307 54.8755   2
  -5   6   8 8.71231 44.0164   1
   5  -6  -7 137.356 54.5310   2
  -5   6   7 166.660 87.6098   1
   5  -6  -6-29.2722 46.6845   2
  -5   6   6 11.4247 60.4807   1
   5  -6  -5 14.4905 38.5039   2
   5  -6  -4 77.7709 48.5218   2
   5  -6  -3 42.1459 40.3942   2
  -5   6   3-36.4479 61.3972   1
   5  -6  -2 46.4560 45.8221   2
   5  -6  -1 61.3258 43.3575   2
  -5   6   1-66.6027 61.8131   1
  -5   6   0 176.813 49.5396   4
   5  -6   0 136.108 47.2372   2
  -5   6  -1 4.53467 30.7691   4
   5  -6   1-26.5007 38.3854   2
  -5   6  -2 160.374 46.4886   4
   5  -6   2 341.914 61.4067   2
  -5   6  -3 162.726 55.6846   4
   5  -6   3 100.636 41.7443   2
   5  -6   3 131.473 56.2598   1
  -5   6  -4 17.5698 37.1003   4
   5  -6   4 76.4710 39.7601   2
   5  -6   4 75.1024 55.2284   1
  -5   6  -5 84.2730 44.5387   4
   5  -6   5 58.6554 48.2135   1
  -5   6  -6 24.4936 40.5155   4
   5  -6   6-94.5714 63.5523   1
  -5   6  -7 93.7065 55.1446   4
   5  -6   7 30.9810 45.8235   1
  -5   6  -8-32.7773 46.7757   4
   5  -6   8 14.1422 43.4855   1
  -5   6  -9 108.306 68.6961   4
   5  -6   9 32.3704 50.0400   1
  -5   6 -10-13.2969 48.3109   4
   5  -6  10 42.7997 51.2500   1
   5  -5 -11-6.95292 45.6876   2
  -5   5  11-81.3107 57.7571   1
   5  -5 -10 36.8903 45.8074   2
  -5   5  10-50.9564 49.2415   1
   5  -5  -9 277.781 70.7051   2
  -5   5   9 191.991 64.8293   1
   5  -5  -8-26.9416 52.4385   2
  -5   5   8 118.863 53.3408   1
   5  -5  -7 53.3144 46.9648   2
  -5   5   7 79.0677 53.5273   1
   5  -5  -6 46.1717 51.3893   2
  -5   5   6-6.65326 46.1464   1
   5  -5  -5-56.8261 47.9636   2
   5  -5  -4 112.530 52.9000   2
   5  -5  -3 69.0654 42.0584   2
   5  -5  -2-35.3608 39.2111   2
  -5   5   2 43.2185 65.8801   1
  -5   5   2-28.9618 31.0218   4
   5  -5  -1-47.1890 42.5074   2
  -5   5   1 34.4706 34.7397   4
  -5   5   0 406.746 62.6755   4
   5  -5   0 410.421 67.1035   2
  -5   5  -1 84.7530 41.9737   4
   5  -5   1 31.1886 30.5378   2
  -5   5  -2 2.97171 33.9036   4
   5  -5   2 102.998 44.0994   2
  -5   5  -3 36.5689 36.5300   4
   5  -5   3 171.961 61.6701   1
   5  -5   3 105.829 42.8209   2
  -5   5  -4 214.856 52.3914   4
   5  -5   4 179.433 46.6469   2
   5  -5   4 187.646 57.3057   1
  -5   5  -5-1.82083 36.2881   4
   5  -5   5 26.4736 36.6771   2
   5  -5   5-53.7613 44.8806   1
  -5   5  -6-0.82732 38.9547   4
   5  -5   6 116.392 54.8340   1
  -5   5  -7 145.797 54.0117   4
   5  -5   7 219.309 64.4691   1
  -5   5  -8-68.9100 55.5824   4
   5  -5   8 19.7449 47.9765   1
  -5   5  -9 1.96968 45.3102   4
   5  -5   9 46.6974 41.0600   1
  -5   5 -10 242.507 70.6246   4
   5  -5  10 256.115 74.0466   1
  -5   5 -11-2.76887 52.8646   4
   5  -5  11 55.3795 47.0563   1
   5  -4 -13 51.5060 51.7885   2
   5  -4 -12-80.8737 57.3623   2
  -5   4  12-33.5766 53.6133   1
   5  -4 -11-57.4733 56.5964   2
  -5   4  11-12.3893 45.4063   1
   5  -4 -10-9.44283 47.4901   2
  -5   4  10 117.455 57.2885   1
   5  -4  -9-50.1023 56.3522   2
  -5   4   9 8.26705 43.6402   1
  -5   4   8 480.015 86.5902   1
   5  -4  -8 440.309 83.6987   2
   5  -4  -7 31.8515 51.3908   2
  -5   4   7-15.6201 37.5795   1
   5  -4  -6 244.242 61.2101   2
  -5   4   6 146.028 54.5786   1
   5  -4  -5-55.9606 43.0468   2
  -5   4   5 27.9106 47.5139   1
   5  -4  -4 162.567 47.4241   2
  -5   4   4 141.925 39.7370   4
   5  -4  -3 134.919 49.1220   2
  -5   4   3 166.704 41.8573   4
  -5   4   2 877.974 82.5985   4
   5  -4  -2 1135.90 106.756   2
   5  -4  -1-58.2023 42.2780   2
  -5   4   1-0.25066 53.9035   1
  -5   4   1 6.74901 34.0667   4
   5  -4   0 321.011 59.4400   2
  -5   4   0 234.832 51.5757   4
  -5   4  -1 192.267 82.2089   1
   5  -4   1 206.482 49.5288   2
  -5   4  -1 218.931 50.7943   4
   5  -4   2 332.402 59.5961   2
  -5   4  -2 292.949 58.5366   4
   5  -4   3 78.7594 39.7630   2
  -5   4  -3 90.9695 38.1888   4
  -5   4  -4 16.6932 33.8891   4
   5  -4   4 38.3311 37.0763   1
   5  -4   4-4.32154 31.4985   2
  -5   4  -5 385.880 71.0763   4
   5  -4   5 385.256 61.5486   2
   5  -4   5 445.998 77.6267   1
  -5   4  -6 168.099 50.7605   4
   5  -4   6 174.721 46.2884   2
   5  -4   6 237.395 59.7419   1
  -5   4  -7 6.45036 40.5217   4
   5  -4   7 88.7933 41.1315   2
   5  -4   7 92.7364 45.4804   1
  -5   4  -8 91.7762 49.2486   4
   5  -4   8 91.6764 41.9287   1
  -5   4  -9 11.0476 40.0046   4
   5  -4   9-49.6600 45.9598   1
  -5   4 -10 140.331 59.8805   4
   5  -4  10 59.6825 44.7862   1
  -5   4 -11-46.0212 41.8049   4
   5  -4  11-10.9049 44.9175   1
  -5   4 -12 2.10015 53.1077   4
   5  -4  12 107.367 61.0982   1
  -5   4 -13 77.6796 67.6094   4
   5  -4  13-6.83214 49.4278   1
   5  -3 -14 321.756 84.8439   2
   5  -3 -13 60.4861 57.9972   2
  -5   3  13-10.9405 40.8546   1
   5  -3 -12-68.2703 50.1146   2
  -5   3  12 29.7631 41.2221   1
   5  -3 -11 19.6778 42.2275   2
  -5   3  11-18.2024 42.5737   1
   5  -3 -10 116.349 60.2665   2
  -5   3  10 19.8639 43.9040   1
  -5   3   9 132.772 54.2232   1
   5  -3  -9 200.595 63.9627   2
   5  -3  -8 16.8977 39.6430   2
  -5   3   8 17.3150 38.1901   1
  -5   3   7 489.906 79.7358   1
   5  -3  -7 477.691 78.0114   2
   5  -3  -6-34.6173 44.1065   2
  -5   3   6 7.13827 36.2850   1
  -5   3   6 41.7584 27.8947   4
   5  -3  -5 325.536 66.1497   2
  -5   3   5 461.873 78.6753   1
  -5   3   5 404.642 55.2950   4
   5  -3  -4 259.752 61.6516   2
  -5   3   4 355.023 68.2445   1
  -5   3   4 263.581 47.0260   4
  -5   3   3 278.546 51.0148   4
   5  -3  -3 443.931 69.0662   2
  -5   3   2 529.537 66.9438   4
   5  -3  -2 593.285 78.4666   2
  -5   3   1 810.055 81.3201   4
   5  -3  -1 1031.83 97.5899   2
   5  -3   0-7.41071 35.5372   2
  -5   3   0 57.7363 32.1812   4
   5  -3   1 171.006 51.6555   2
  -5   3  -1 118.290 47.2576   4
   5  -3   2 102.122 42.8846   2
  -5   3  -2-34.3539 35.8474   4
  -5   3  -3 863.253 89.5199   4
   5  -3   3 807.447 82.5498   2
   5  -3   4 277.504 53.0340   2
   5  -3   4 446.840 74.5212   1
  -5   3  -4 270.211 60.1408   4
   5  -3   5 44.0980 35.6139   2
   5  -3   5 91.8932 45.6251   1
  -5   3  -5 38.6179 37.2369   4
   5  -3   6 12.1807 28.2104   2
   5  -3   6-7.09378 33.4573   1
  -5   3  -6-43.1487 44.7304   4
  -5   3  -7 179.660 56.1626   4
   5  -3   7 45.4478 33.0794   2
   5  -3   7 140.846 55.0076   1
  -5   3  -8 28.9824 41.6445   4
   5  -3   8 58.1306 38.4972   2
   5  -3   8 1.64414 33.3192   1
  -5   3  -9 48.3767 40.8324   4
   5  -3   9 128.233 42.5070   2
  -5   3 -10 0.09889 46.6912   4
   5  -3  10-28.8864 38.4487   1
  -5   3 -11 13.4175 46.1822   4
   5  -3  11 15.9587 43.9857   1
  -5   3 -12 612.738 98.3981   4
   5  -3  12 574.455 101.438   1
  -5   3 -13-31.9298 49.6679   4
   5  -3  13 9.41978 46.7110   1
  -5   3 -14 80.5709 69.2110   4
   5  -3  14 19.4002 50.9398   1
   5  -2 -15-30.3431 45.8354   2
   5  -2 -14 44.8152 46.9659   2
   5  -2 -14-99.8622 58.6697   3
  -5   2  14 5.72732 46.2270   1
   5  -2 -13 63.4971 56.0552   2
   5  -2 -13-23.5323 38.2308   3
  -5   2  13 2.10395 45.0667   1
   5  -2 -12-41.8228 49.9943   2
   5  -2 -12-17.8062 40.1255   3
  -5   2  12-28.7236 42.0490   1
   5  -2 -11-3.25356 39.3037   2
   5  -2 -11 56.2470 40.1373   3
  -5   2  11 46.1228 40.2434   1
   5  -2 -10-101.829 53.3616   2
   5  -2 -10-44.1328 37.9965   3
  -5   2  10-7.74874 35.8574   1
   5  -2  -9 34.3934 36.1027   2
   5  -2  -9 70.9001 33.9893   3
  -5   2   9 117.045 51.6666   1
   5  -2  -8 26.6743 36.4302   2
   5  -2  -8-36.2045 30.8938   3
  -5   2   8-11.9962 25.5755   4
  -5   2   8 34.8783 38.8119   1
   5  -2  -7 2.70545 34.4088   2
  -5   2   7 9.17718 34.8469   1
  -5   2   7 26.9340 31.6234   4
   5  -2  -6 6.88829 31.9456   2
  -5   2   6 45.4032 39.6218   1
  -5   2   6-6.56715 28.9591   4
   5  -2  -5 45.7549 35.1548   2
  -5   2   5 28.9385 39.0640   1
  -5   2   5 43.7988 28.4108   4
  -5   2   4 0.64920 31.4271   1
   5  -2  -4 17.9986 39.8915   2
  -5   2   4 27.7823 34.0582   4
  -5   2   3 1026.77 87.5436   4
   5  -2  -3 1060.45 100.516   2
   5  -2  -2 3.01209 32.1847   2
  -5   2   2-39.6910 32.3785   4
  -5   2   1 538.655 69.5261   4
   5  -2  -1 772.573 85.3463   2
   5  -2   0 21.4671 37.4153   2
  -5   2   0 27.1420 29.2734   4
   5  -2   1 194.389 47.9761   2
  -5   2  -1 222.010 48.8651   4
   5  -2   2 274.598 54.4925   2
  -5   2  -2 267.840 52.8449   4
   5  -2   3 81.2000 38.8339   2
  -5   2  -3 66.0816 60.6184   1
  -5   2  -3 141.081 47.6514   4
  -5   2  -4 795.020 86.6948   4
   5  -2   4 857.164 85.5032   2
   5  -2   4 975.300 97.4155   1
  -5   2  -5 1092.92 102.219   4
   5  -2   5 1223.89 101.208   2
   5  -2   5 1246.62 109.731   1
   5  -2   6 109.074 41.3419   2
   5  -2   6 104.635 42.1493   1
  -5   2  -6 182.609 53.3501   4
   5  -2   7 112.502 42.2395   2
   5  -2   7 150.674 48.6417   1
  -5   2  -7 197.059 57.7770   4
   5  -2   8 192.228 52.6242   2
   5  -2   8 192.180 54.7758   1
  -5   2  -8 231.440 62.6412   4
  -5   2  -9 304.737 67.3279   4
   5  -2   9 346.084 64.2572   1
   5  -2   9 325.454 59.3889   2
  -5   2 -10 175.882 55.7272   4
   5  -2  10 94.3587 43.1044   2
   5  -2  10 99.8086 47.8364   1
  -5   2 -11 239.852 66.0763   4
   5  -2  11 280.922 67.4877   1
  -5   2 -12 23.5823 49.9215   4
   5  -2  12-26.5320 45.7418   1
  -5   2 -13 35.4881 45.6049   4
   5  -2  13 215.219 71.1191   1
  -5   2 -14 6.08512 52.2756   4
   5  -2  14-114.302 60.2108   1
  -5   2 -15 249.797 83.4521   4
   5  -2  15 25.8825 48.3288   1
   5  -1 -15-25.0043 49.0374   3
   5  -1 -14-30.1095 39.1607   2
  -5   1  14 23.7870 43.9242   1
   5  -1 -14-55.1510 51.7263   3
   5  -1 -13-3.47764 42.6829   2
  -5   1  13-87.2898 52.3716   1
   5  -1 -13 22.5375 38.8650   3
   5  -1 -12 47.9698 42.7858   2
  -5   1  12 24.6536 43.1553   1
   5  -1 -12-30.9482 39.0012   3
   5  -1 -11-4.88264 38.7656   2
   5  -1 -11-14.6645 35.1439   3
  -5   1  11 44.6557 43.9860   1
   5  -1 -10 128.236 49.2782   2
   5  -1 -10 57.4255 38.2347   3
  -5   1  10 31.0703 37.2587   1
   5  -1  -9 27.2740 37.0535   2
   5  -1  -9-5.21204 32.5380   3
  -5   1   9 54.2133 40.3908   1
  -5   1   9-5.24343 31.8803   4
   5  -1  -8 598.871 71.0802   3
  -5   1   8 715.766 88.4129   1
  -5   1   8 554.179 69.4598   4
   5  -1  -8 680.269 88.7163   2
   5  -1  -7-38.0378 46.5541   2
   5  -1  -7 23.3200 24.8471   3
  -5   1   7 20.5818 27.9026   4
  -5   1   7 6.04261 32.5958   1
   5  -1  -6 268.231 47.0068   3
  -5   1   6 457.604 68.8043   1
  -5   1   6 457.714 61.8856   4
   5  -1  -6 369.128 65.8894   2
   5  -1  -5 772.022 65.4385   3
  -5   1   5 949.477 93.8793   1
  -5   1   5 713.925 76.7367   4
   5  -1  -5 695.298 83.9483   2
   5  -1  -4 1356.40 82.1566   3
  -5   1   4 1320.57 107.170   1
  -5   1   4 1325.06 102.533   4
   5  -1  -4 1221.74 106.975   2
   5  -1  -3 1502.59 82.2003   3
  -5   1   3 1637.70 118.408   1
  -5   1   3 1390.04 103.936   4
   5  -1  -3 1586.49 119.422   2
   5  -1  -2 1297.23 72.2605   3
  -5   1   2 1139.82 96.4782   4
   5  -1  -2 1128.79 102.435   2
   5  -1  -1 43.2933 36.3417   2
   5  -1  -1 3.63722 18.1428   3
  -5   1   1 2.46372 30.3030   4
   5  -1   0 1727.70 74.4544   3
  -5   1   0 1450.37 105.703   4
   5  -1   0 1658.40 116.353   2
   5  -1   1 25.5675 39.4775   2
  -5   1  -1 28.5564 31.9692   4
   5  -1   2 344.312 59.0139   2
  -5   1  -2 233.053 52.8550   4
  -5   1  -3 2504.89 145.677   4
   5  -1   3 2797.67 150.381   2
   5  -1   4 177.061 47.5622   1
   5  -1   4 272.847 57.1667   2
  -5   1  -4 109.297 40.3754   4
  -5   1  -5 713.076 81.2314   4
   5  -1   5 839.854 85.9268   2
   5  -1   5 805.845 85.3363   1
   5  -1   6 565.957 75.9648   2
   5  -1   6 485.410 69.2835   1
  -5   1  -6 287.174 57.0793   4
   5  -1   7-1.68278 32.5950   2
   5  -1   7 81.6913 39.3749   1
  -5   1  -7 78.2609 40.8152   4
   5  -1   8 218.210 51.6093   2
   5  -1   8 233.365 51.2606   1
  -5   1  -8 146.961 47.5977   4
   5  -1   9 15.2035 35.1066   2
   5  -1   9 61.2616 39.3972   1
  -5   1  -9-2.73336 36.6883   4
   5  -1  10 190.660 50.4921   2
   5  -1  10 138.116 50.1761   1
  -5   1 -10 184.563 54.3699   4
   5  -1  11 378.156 70.3525   1
  -5   1 -11 439.364 79.0243   4
   5  -1  11 426.246 66.4918   2
  -5   1 -12-21.1498 39.7534   4
   5  -1  12 15.0291 36.2740   2
   5  -1  12-24.4161 45.1850   1
  -5   1 -13 24.1179 42.3034   4
   5  -1  13 104.084 56.4903   1
  -5   1 -14 1.64121 44.5411   4
   5  -1  14-9.60578 43.2663   1
  -5   1 -15-13.7101 44.7741   4
   5  -1  15 28.0734 47.7249   1
  -5   1 -16-110.825 66.9033   4
  -5   0  15 7.88445 47.8847   1
   5   0 -15 58.2868 52.9629   3
  -5   0  14 28.7092 46.7454   1
   5   0 -14-72.5962 46.2047   3
   5   0 -13 82.3705 54.6970   2
   5   0 -13 18.5828 35.9589   3
   5   0 -12-1.13872 35.0978   2
  -5   0  12 85.9005 47.6196   1
   5   0 -12 48.0402 39.4265   3
   5   0 -11-4.38554 35.1250   2
  -5   0  11-30.5557 41.2410   1
   5   0 -11 27.5722 39.8464   3
  -5   0  11 33.2936 37.3652   4
   5   0 -10 193.057 51.8773   2
  -5   0  10 301.778 65.5134   1
   5   0 -10 177.480 44.4604   3
  -5   0  10 240.003 55.0146   4
   5   0  -9 98.9737 43.2765   2
   5   0  -9 101.802 39.8870   3
  -5   0   9 206.219 54.3646   1
  -5   0   9 147.315 46.3681   4
   5   0  -8 274.414 58.4935   2
   5   0  -8 243.822 54.1151   3
  -5   0   8 198.745 49.7895   1
  -5   0   8 226.795 48.3846   4
   5   0  -7 94.8184 46.6524   2
   5   0  -7 43.0178 28.6306   3
  -5   0   7 94.1971 36.3227   1
  -5   0   7 28.1659 30.6606   4
  -5   0   6 99.2844 32.9836   1
   5   0  -6 151.339 47.0154   2
   5   0  -6 183.248 40.7769   3
  -5   0   6 196.340 49.0015   4
   5   0  -5 119.020 44.7658   2
  -5   0   5 148.421 43.9460   1
   5   0  -5 80.7658 28.3819   3
  -5   0   5 72.0827 29.0416   4
   5   0  -4 51.4854 36.8763   2
  -5   0   4 90.5756 37.6066   1
   5   0  -4 34.4463 26.6663   3
  -5   0   4 22.3025 31.4653   4
  -5   0   3-45.3708 31.7731   1
   5   0  -3-4.27704 33.0375   2
   5   0  -3 7.99061 23.4353   3
  -5   0   3-28.7190 36.1014   4
   5   0  -2 66.5876 36.7781   2
   5   0  -2 34.3318 23.6424   3
  -5   0   2 17.1120 31.7574   4
   5   0  -1 182.458 48.3388   2
   5   0  -1 266.962 37.1434   3
  -5   0   1 230.717 50.5219   4
  -5   0   0 51.2685 39.5015   1
   5   0   0 70.3560 36.4270   2
   5   0   0 123.912 31.0639   3
  -5   0   0 106.984 42.6338   4
   5   0   1 76.6797 38.6425   2
   5   0   1 40.6822 24.2506   3
  -5   0  -1-25.7090 39.0154   4
  -5   0  -2 68.3278 26.1675   3
   5   0   2 21.2315 31.3789   2
  -5   0  -2 28.2733 32.6666   4
   5   0   3 67.6524 36.5478   1
  -5   0  -3-9.50346 18.2290   3
   5   0   3-14.0119 31.4725   2
  -5   0  -3 37.1314 35.8002   4
  -5   0  -4 332.674 41.3281   3
   5   0   4 279.622 48.2726   1
   5   0   4 156.897 45.1219   2
  -5   0  -4 212.479 52.0486   4
  -5   0  -5 30.2592 22.5211   3
   5   0   5 14.7827 33.9634   2
   5   0   5 42.8947 32.7504   1
  -5   0  -5 53.2927 32.3073   4
  -5   0  -6 26.6852 23.7570   3
   5   0   6-20.2868 38.8038   2
   5   0   6-10.1309 30.0284   1
  -5   0  -6 10.1424 37.5418   4
  -5   0  -7 235.936 40.2748   3
   5   0   7 321.547 60.7897   2
   5   0   7 204.925 46.1442   1
  -5   0  -7 206.183 50.2540   4
  -5   0  -8 244.698 46.1956   3
   5   0   8 339.178 60.2780   2
   5   0   8 243.728 51.5931   1
  -5   0  -8 215.634 53.9815   4
  -5   0  -9 158.893 39.6450   3
   5   0   9 209.530 51.4692   2
   5   0   9 98.5418 40.2132   1
  -5   0  -9 261.337 64.0534   4
   5   0  10 81.1707 38.8825   2
   5   0  10 148.308 51.4685   1
  -5   0 -10 155.581 56.1496   4
   5   0  11 67.4372 43.5330   2
   5   0  11-28.6486 36.0177   1
  -5   0 -11 14.1804 43.4598   4
  -5   0 -12 109.235 50.0494   4
   5   0  12 97.9746 44.4721   2
   5   0  12 81.2929 45.7769   1
  -5   0 -13 32.1165 40.7739   4
   5   0  13-22.8400 38.1389   2
   5   0  13-17.3939 35.9031   1
  -5   0 -14-7.89336 42.1129   4
   5   0  14 152.115 56.4113   2
   5   0  14 124.015 53.2747   1
  -5   0 -15 276.455 74.8101   4
   5   0  15 168.113 61.2894   1
  -5   0 -16 19.0823 46.4906   4
   5   0  16 109.878 60.8568   1
  -5  -1  15-61.8894 51.1692   1
  -5  -1  14-73.0384 57.9514   1
   5   1 -14-27.8599 48.4612   3
  -5  -1  13 61.5780 51.9093   1
   5   1 -13 90.8448 52.2204   3
  -5  -1  12 75.9322 48.1737   1
   5   1 -12 79.2784 52.5176   3
  -5  -1  12 49.6224 37.0007   4
   5   1 -11 16.5768 32.3712   2
  -5  -1  11 116.987 51.0597   1
   5   1 -11-8.53038 37.1793   3
  -5  -1  11 32.6811 36.8732   4
   5   1 -10 50.6074 38.4130   2
  -5  -1  10-15.5887 36.2733   1
   5   1 -10 95.5982 43.7423   3
  -5  -1  10 42.7743 34.1846   4
   5   1  -9 75.7588 38.3041   2
  -5  -1   9 82.1050 39.4641   1
   5   1  -9 133.009 47.1570   3
  -5  -1   9 17.2420 32.1952   4
   5   1  -8-5.34607 31.0544   2
   5   1  -8 68.9907 39.3182   3
  -5  -1   8 103.755 43.6525   1
  -5  -1   8-6.47286 33.9250   4
   5   1  -7 271.719 57.7129   2
   5   1  -7 179.390 43.9256   3
  -5  -1   7 247.297 48.2539   1
  -5  -1   7 140.934 45.1455   4
   5   1  -6 474.954 63.4055   3
  -5  -1   6 513.661 68.6852   1
  -5  -1   6 485.813 71.7833   4
   5   1  -6 440.190 66.0699   2
   5   1  -5 956.355 84.7630   3
  -5  -1   5 988.577 86.9890   1
  -5  -1   5 945.278 92.5628   4
   5   1  -5 796.847 87.9900   2
   5   1  -4 744.185 75.0154   3
  -5  -1   4 869.265 79.3256   1
  -5  -1   4 775.039 85.1720   4
   5   1  -4 750.731 82.6073   2
   5   1  -3 1525.14 100.106   3
  -5  -1   3 1502.91 99.2731   1
  -5  -1   3 1436.96 111.220   4
   5   1  -3 1515.45 114.912   2
   5   1  -2 15.8039 28.3726   2
   5   1  -2 42.0917 28.1512   3
  -5  -1   2 71.9066 37.7049   4
   5   1  -1 1487.37 92.9254   3
  -5  -1   1 1323.84 106.329   4
   5   1  -1 1344.16 106.289   2
   5   1   0 59.3420 34.4564   2
   5   1   0 92.7373 30.4039   3
  -5  -1   0 39.1384 30.5362   4
   5   1   1 157.800 49.3761   2
   5   1   1 80.1071 30.2757   3
  -5  -1  -1 67.7995 36.1841   4
  -5  -1  -2 3328.99 167.577   4
   5   1   2 2327.16 138.674   2
  -5  -1  -3 23.8420 23.2592   3
   5   1   3 83.3266 29.9048   1
   5   1   3 118.374 49.5482   2
  -5  -1  -3 33.8139 35.8336   4
  -5  -1  -4 1506.66 93.8988   3
  -5  -1  -4 1532.46 114.617   4
   5   1   4 1551.13 121.278   2
   5   1   4 1519.35 97.8395   1
  -5  -1  -5 935.661 75.4004   3
  -5  -1  -5 977.922 98.1133   4
   5   1   5 1161.28 106.510   2
   5   1   5 980.412 81.5882   1
  -5  -1  -6-29.8183 26.9599   3
   5   1   6 44.4628 41.7542   2
   5   1   6-12.1273 24.4117   1
  -5  -1  -6 6.15406 35.1100   4
  -5  -1  -7 1181.01 89.2362   3
  -5  -1  -7 1397.49 119.212   4
   5   1   7 1360.65 111.956   2
   5   1   7 1330.37 97.4142   1
  -5  -1  -8 43.5792 33.4764   3
   5   1   8 100.793 43.1503   2
   5   1   8 113.778 39.7062   1
  -5  -1  -8 52.5396 37.4009   4
  -5  -1  -9 958.196 85.9533   3
  -5  -1  -9 936.371 98.5210   4
   5   1   9 974.206 99.1763   2
   5   1   9 949.817 92.1543   1
  -5  -1 -10 29.5846 35.7768   3
   5   1  10 108.540 45.2315   2
   5   1  10 45.5814 36.0292   1
  -5  -1 -10 41.5690 41.9172   4
  -5  -1 -11-3.73921 35.4776   3
   5   1  11 94.1689 50.8488   2
   5   1  11 17.0489 33.1457   1
  -5  -1 -11 39.8859 42.6164   4
  -5  -1 -12 69.3644 44.6899   3
   5   1  12 102.964 48.9811   2
   5   1  12-5.98890 37.4742   1
  -5  -1 -12 40.5066 40.4043   4
  -5  -1 -13-69.7777 50.7845   4
  -5  -1 -13-1.31158 39.5320   3
   5   1  13 76.9827 45.6213   2
   5   1  13-21.4137 36.9987   1
  -5  -1 -14 47.9872 44.7290   4
  -5  -1 -14 66.8630 46.7935   3
   5   1  14 56.2967 39.2858   2
   5   1  14-21.0747 38.7498   1
  -5  -1 -15 91.2316 48.0844   4
   5   1  15 200.116 62.3283   2
   5   1  15 51.1781 40.0788   1
  -5  -1 -16-10.1800 42.6766   4
   5   1  16 93.3680 56.3314   1
  -5  -2  15-63.3215 52.0591   1
  -5  -2  14 45.4609 53.2881   1
   5   2 -14-59.8121 51.2717   3
  -5  -2  14-9.08938 40.9850   4
  -5  -2  13 41.8710 42.3330   1
   5   2 -13 12.8135 45.7111   3
  -5  -2  13 88.5692 48.8986   4
  -5  -2  12 145.408 55.4020   1
   5   2 -12 102.777 52.0075   3
  -5  -2  12 36.4858 39.7353   4
  -5  -2  11 232.638 57.5882   1
   5   2 -11 276.575 63.5225   3
  -5  -2  11 352.841 73.3024   4
   5   2 -10 94.5422 40.2138   2
  -5  -2  10-48.9648 40.1462   1
   5   2 -10-49.2336 41.3485   3
  -5  -2  10 82.4734 48.4989   4
   5   2  -9 141.277 42.6730   2
  -5  -2   9 148.932 45.1291   1
   5   2  -9 150.300 51.2221   3
  -5  -2   9 45.7103 38.6912   4
   5   2  -8 300.033 55.3671   2
  -5  -2   8 250.803 50.7669   1
   5   2  -8 199.341 54.1979   3
  -5  -2   8 184.907 51.4258   4
   5   2  -7 246.645 53.9493   3
  -5  -2   7 287.857 50.2485   1
   5   2  -7 301.076 62.2857   2
  -5  -2   7 281.544 60.8857   4
   5   2  -6 35.7452 30.5593   2
   5   2  -6 63.2745 35.8745   3
  -5  -2   6 58.1072 35.8864   1
  -5  -2   6 17.1118 32.2835   4
   5   2  -5 1269.37 103.250   3
  -5  -2   5 1285.78 91.5294   1
  -5  -2   5 1193.70 107.799   4
   5   2  -5 1129.81 97.0839   2
   5   2  -4-6.07501 28.6087   2
  -5  -2   4-0.42671 21.9512   1
   5   2  -4-20.5058 33.6999   3
  -5  -2   4 16.8907 35.4206   4
   5   2  -3 262.947 50.2084   2
   5   2  -3 270.472 51.8324   3
  -5  -2   3 287.252 47.8480   1
  -5  -2   3 225.028 52.0955   4
   5   2  -2 403.833 60.8573   3
  -5  -2   2 328.586 59.4346   4
   5   2  -2 470.499 66.3828   2
   5   2  -1-21.9173 38.1899   2
   5   2  -1 32.6059 28.9057   3
  -5  -2   1 20.8470 29.3427   4
   5   2   0 162.625 44.9981   2
   5   2   0 183.256 41.6064   3
  -5  -2   0 269.880 54.4927   4
   5   2   1 432.938 55.3911   3
   5   2   1 397.411 63.6477   2
  -5  -2  -1 344.833 58.3333   4
   5   2   2 814.915 74.3043   3
  -5  -2  -2 685.527 83.2379   4
   5   2   2 922.457 68.6114   1
   5   2   2 726.066 83.5822   2
  -5  -2  -3 474.440 61.2436   3
  -5  -2  -3 484.411 68.6546   4
   5   2   3 451.497 71.2532   2
   5   2   3 553.018 54.4881   1
  -5  -2  -4 1.17375 25.1385   3
   5   2   4 39.3154 43.9899   2
   5   2   4-3.09777 23.3933   1
  -5  -2  -4 107.353 50.9354   4
  -5  -2  -5-10.7835 28.5033   3
   5   2   5-0.62897 34.7770   2
   5   2   5 20.6562 23.2533   1
  -5  -2  -5-50.8969 37.8651   4
  -5  -2  -6 29.5911 32.2302   3
   5   2   6-20.1256 39.6255   2
   5   2   6 8.27179 22.5924   1
  -5  -2  -6 61.7836 38.1105   4
  -5  -2  -7 52.8056 33.5729   3
   5   2   7-20.1768 36.7826   2
   5   2   7 22.2766 25.2101   1
  -5  -2  -7-19.3385 35.4420   4
  -5  -2  -8 5.45024 31.4825   3
   5   2   8-45.7200 48.3532   2
   5   2   8 31.6543 25.9454   1
  -5  -2  -8 38.8794 37.9388   4
  -5  -2  -9 56.5956 37.6624   3
   5   2   9 10.2564 37.2177   2
   5   2   9 14.0885 26.5859   1
  -5  -2  -9-11.4774 33.4387   4
  -5  -2 -10 9.42198 32.8513   3
   5   2  10 32.5414 39.1835   2
   5   2  10-4.27564 27.9878   1
  -5  -2 -10-29.3257 40.7044   4
  -5  -2 -11 41.9094 37.2993   3
   5   2  11-16.0805 35.7564   2
   5   2  11 10.7560 27.4187   1
  -5  -2 -11 11.0346 35.2168   4
  -5  -2 -12 12.6019 37.9541   3
   5   2  12 8.68289 36.6670   2
   5   2  12 55.9217 41.1419   1
  -5  -2 -12-14.4992 40.8703   4
  -5  -2 -13-41.5049 45.8763   3
   5   2  13 46.1113 46.4398   2
  -5  -2 -13 36.2432 41.3504   4
  -5  -2 -14 4.85021 45.6657   4
  -5  -2 -14-61.8138 53.3115   3
   5   2  14-22.3413 40.4226   2
  -5  -2 -15-3.51763 42.5729   4
  -5  -2 -15-0.39214 46.7800   3
   5   2  15 46.7979 49.0350   2
  -5  -2 -16-33.6333 50.4333   3
   5   2  16-4.02781 41.7164   2
  -5  -3  14 39.5283 51.9520   4
   5   3 -13 75.4404 55.6838   3
  -5  -3  13 39.4469 42.7900   4
   5   3 -12 199.949 67.8307   3
  -5  -3  12 95.1641 53.3622   4
   5   3 -11 29.1145 40.0460   3
  -5  -3  11 182.339 63.8620   4
   5   3 -10 74.0154 44.8504   3
  -5  -3  10 30.6910 38.6871   4
   5   3  -9 49.1484 38.8614   3
  -5  -3   9-15.2569 38.5275   4
   5   3  -8-1.50051 31.3210   2
   5   3  -8 89.1828 45.9387   3
  -5  -3   8 35.3931 39.1080   4
   5   3  -7 14.7302 32.2321   2
   5   3  -7 7.80725 33.3926   3
  -5  -3   7-2.09947 33.5101   4
   5   3  -6 6.75861 27.6859   2
   5   3  -6-26.7077 31.8808   3
  -5  -3   6-20.8169 38.5445   4
   5   3  -5 105.096 38.7793   2
   5   3  -5 48.1482 37.9037   3
  -5  -3   5 61.2288 35.1781   4
   5   3  -4 866.627 92.9930   3
  -5  -3   4 809.441 95.6609   4
   5   3  -4 793.990 84.3436   2
   5   3  -3 10.5365 33.6415   2
   5   3  -3-6.56743 29.8519   3
  -5  -3   3 15.9100 32.8168   4
   5   3  -2 45.7595 34.4749   2
   5   3  -2 26.0373 27.4310   3
  -5  -3   2 68.7251 38.4103   4
   5   3  -1 58.9310 31.5827   2
   5   3  -1 129.927 43.9425   3
  -5  -3   1 120.782 40.6395   4
   5   3   0 650.579 75.6433   3
  -5  -3   0 649.365 83.8893   4
   5   3   0 673.791 83.0068   2
   5   3   1 1042.63 89.9619   3
  -5  -3  -1 1176.18 101.709   4
   5   3   1 1299.17 115.424   2
   5   3   2 107.564 42.8287   2
   5   3   2 144.732 42.4634   3
  -5  -3  -2 183.067 49.7344   4
  -5  -3  -3 342.179 56.6596   3
   5   3   3 224.870 47.5130   2
  -5  -3  -3 289.466 55.5846   4
  -5  -3  -4 589.841 70.6674   3
  -5  -3  -4 536.382 73.3399   4
   5   3   4 502.728 70.9330   2
  -5  -3  -5 40.4625 31.6536   3
   5   3   5 52.2153 37.9641   2
  -5  -3  -5 110.485 48.5715   4
  -5  -3  -6 891.002 89.0022   3
  -5  -3  -6 835.471 88.0840   4
   5   3   6 783.180 90.2602   2
  -5  -3  -7-5.55602 32.4125   3
   5   3   7-18.6234 37.7145   2
  -5  -3  -7 22.2976 36.5015   4
  -5  -3  -8 725.308 86.0262   3
  -5  -3  -8 805.268 89.3429   4
   5   3   8 752.554 92.0541   2
  -5  -3  -9 89.0969 39.3430   3
   5   3   9 45.4369 38.8938   2
  -5  -3  -9 65.5654 36.7519   4
  -5  -3 -10 21.2611 38.3792   3
   5   3  10 39.7074 49.6583   2
  -5  -3 -10-21.0579 35.0368   4
  -5  -3 -11 46.7614 40.4929   3
   5   3  11 36.5488 39.5397   2
  -5  -3 -11-15.8105 35.6645   4
  -5  -3 -12 1.66150 38.7098   3
   5   3  12 42.5298 45.9595   2
  -5  -3 -12-46.6812 41.7395   4
  -5  -3 -13-115.819 55.0963   3
  -5  -3 -13-29.4540 38.0900   4
  -5  -3 -14 97.3437 57.3490   3
   5   3  14 84.3863 53.8867   2
  -5  -3 -15 15.8294 50.3480   3
   5   3  15-27.7913 46.9760   2
  -5  -3 -16 57.0747 58.7234   3
   5   3  16 169.904 67.8586   2
  -5  -4  13 3.41983 47.5160   4
   5   4 -12 118.942 68.5989   3
  -5  -4  12 121.659 64.0159   4
   5   4 -11-1.10260 39.8689   3
  -5  -4  11-50.1588 59.8276   4
   5   4 -10-13.2101 39.7502   3
  -5  -4  10-25.9060 39.1438   4
   5   4  -9 101.353 47.5974   3
  -5  -4   9 12.9567 38.7968   4
   5   4  -8 108.337 55.8692   3
  -5  -4   8 26.6103 38.4352   4
   5   4  -7 69.5805 37.6451   2
   5   4  -7 50.1856 45.0009   3
  -5  -4   7-22.0792 37.3615   4
   5   4  -6 394.072 74.8547   3
   5   4  -6 363.567 62.6442   2
  -5  -4   6 335.779 69.0394   4
   5   4  -5 38.2558 34.1168   2
   5   4  -5 84.3683 44.0915   3
  -5  -4   5 54.3766 39.2259   4
   5   4  -4 151.244 50.0908   2
   5   4  -4 156.061 52.7800   3
  -5  -4   4 95.3999 41.4678   4
   5   4  -3 298.860 60.9622   2
   5   4  -3 275.460 56.6312   3
  -5  -4   3 214.842 57.6739   4
   5   4  -2 226.337 54.0519   3
   5   4  -2 321.402 61.8377   2
  -5  -4   2 320.844 65.0448   4
   5   4  -1 179.259 44.5020   2
   5   4  -1 331.070 63.5011   3
  -5  -4   1 263.388 57.4757   4
   5   4   0 41.1625 30.5934   2
   5   4   0 42.3724 36.5901   3
  -5  -4   0 61.2587 39.6436   4
   5   4   1 905.999 93.5009   3
  -5  -4  -1 775.291 90.3093   4
   5   4   1 553.074 72.3809   2
   5   4   2 950.801 93.7001   3
  -5  -4  -2 875.042 94.3697   4
   5   4   2 983.115 98.0450   2
   5   4   3 71.9868 41.1837   2
  -5  -4  -3-10.7065 36.2422   4
  -5  -4  -4 7.10806 36.6915   3
   5   4   4-3.85729 31.5572   2
  -5  -4  -4 17.6728 34.9180   4
  -5  -4  -5 216.399 53.6664   3
   5   4   5 203.235 51.1592   2
  -5  -4  -5 203.044 51.8068   4
  -5  -4  -6 141.292 49.1862   3
   5   4   6 76.2445 40.1420   2
  -5  -4  -6 108.101 45.2994   4
  -5  -4  -7 398.672 67.3133   3
   5   4   7 473.041 79.1006   2
  -5  -4  -7 305.250 57.8093   4
  -5  -4  -8 35.1804 37.8906   3
   5   4   8 114.859 48.0694   2
  -5  -4  -8 120.548 45.6350   4
  -5  -4  -9 2.83780 34.0485   3
   5   4   9 30.4527 47.3665   2
  -5  -4  -9 82.4387 43.4868   4
  -5  -4 -10 39.5428 42.2093   3
   5   4  10 49.4634 46.3370   2
  -5  -4 -10 109.724 48.9651   4
  -5  -4 -11-18.0392 40.0474   3
   5   4  11 81.6386 55.8828   2
  -5  -4 -11-2.87218 37.2536   4
  -5  -4 -12-18.5430 46.7198   3
   5   4  12-44.5053 49.0169   2
  -5  -4 -12 88.0941 47.8288   4
  -5  -4 -13 204.601 68.6926   3
   5   4  13 221.617 69.2074   2
  -5  -4 -14 46.0621 52.0415   3
   5   4  14 93.6407 52.0464   2
  -5  -4 -15-94.5752 61.5769   3
   5   5 -11 235.897 75.1090   3
  -5  -5  11 128.382 60.4480   4
   5   5 -10-15.1372 42.8408   3
  -5  -5  10 84.0710 59.2674   4
   5   5  -9-24.9094 42.3734   3
  -5  -5   9 36.1137 52.1464   4
   5   5  -8-22.6765 46.2606   3
  -5  -5   8 57.6879 50.3472   4
   5   5  -7 419.874 83.2734   3
  -5  -5   7 312.083 71.5344   4
   5   5  -6 16.9779 45.3498   3
  -5  -5   6 24.1393 42.6167   4
   5   5  -5 30.3612 27.0007   2
   5   5  -5 74.4340 43.2181   3
  -5  -5   5 15.4452 41.6490   4
   5   5  -4 173.687 47.8078   2
   5   5  -4 189.428 55.9524   3
  -5  -5   4 253.009 63.9315   4
   5   5  -3 92.5833 39.2614   2
   5   5  -3 54.8557 41.2080   3
  -5  -5   3 51.7392 40.8412   4
   5   5  -2-26.3703 33.2696   2
   5   5  -2 5.64629 33.2808   3
  -5  -5   2 42.5044 38.9737   4
   5   5  -1 536.639 83.4465   3
  -5  -5   1 562.260 80.4192   4
   5   5  -1 468.235 67.4006   2
   5   5   0 115.400 44.5510   2
   5   5   0 134.420 49.5964   3
  -5  -5   0 188.799 54.3869   4
   5   5   1 61.5560 34.6917   2
   5   5   1 51.6758 39.9012   3
   5   5   2 62.4065 41.9003   2
   5   5   2 10.7327 32.5511   3
  -5  -5  -2-14.6283 34.7466   4
  -5  -5  -3-5.55277 40.3002   3
   5   5   3-12.0282 39.0082   2
  -5  -5  -3 113.269 44.4220   4
  -5  -5  -4 89.0088 46.0869   3
   5   5   4 104.219 48.1998   2
  -5  -5  -4 188.415 54.8419   4
  -5  -5  -5-18.0133 34.4004   3
   5   5   5 45.4688 39.2583   2
  -5  -5  -5 0.61313 31.7706   4
  -5  -5  -6-0.51761 36.2148   3
   5   5   6-62.6634 36.3943   2
  -5  -5  -6 24.0470 35.2202   4
  -5  -5  -7 85.3384 46.8131   3
   5   5   7 69.7763 45.6945   2
  -5  -5  -7 9.70055 36.9720   4
  -5  -5  -8 207.965 62.2800   3
   5   5   8 210.105 62.1142   2
  -5  -5  -8 143.690 48.5504   4
  -5  -5  -9 85.3796 45.2017   3
   5   5   9 155.865 58.1933   2
  -5  -5  -9 178.780 54.1642   4
  -5  -5 -10 152.083 55.2346   3
   5   5  10 42.3097 45.2639   2
  -5  -5 -10 105.973 46.0633   4
  -5  -5 -11 49.3554 51.8289   3
   5   5  11 38.7041 48.1261   2
  -5  -5 -12 78.3350 48.9152   3
   5   5  12-14.0856 45.5632   2
  -5  -5 -13 46.2746 53.0897   3
   5   5  13 112.354 60.8686   2
   5   6  -9 20.2316 44.9157   3
  -5  -6   9 42.3558 51.4678   4
   5   6  -8 129.052 58.3166   3
  -5  -6   8 119.657 55.5243   4
   5   6  -7 63.2641 57.6097   3
  -5  -6   7-70.3675 53.8492   4
   5   6  -6 62.7279 57.3678   3
  -5  -6   6 53.9944 47.4908   4
   5   6  -5-3.35617 37.7074   3
  -5  -6   5 6.07998 39.6797   4
   5   6  -4 31.6868 42.0401   3
  -5  -6   4 6.99536 35.6860   4
   5   6  -3 377.570 77.6345   3
  -5  -6   3 230.185 63.8376   4
   5   6  -3 333.927 60.9358   2
   5   6  -2 29.1716 30.7706   2
   5   6  -2 66.4702 55.4201   3
  -5  -6   2 40.4110 36.4216   4
   5   6  -1 109.810 41.0861   2
   5   6  -1 163.763 59.0893   3
  -5  -6   1 109.196 51.2504   4
   5   6   0 16.5000 37.2047   2
   5   6   0 92.9563 49.1350   3
  -5  -6   0 92.8593 42.7250   4
   5   6   1 106.740 49.7611   2
   5   6   1 33.5111 41.3889   3
  -5  -6  -1 11.1043 39.9269   4
   5   6   2 47.9343 37.7417   2
   5   6   2 67.9545 44.9188   3
  -5  -6  -2 46.0961 37.8744   4
  -5  -6  -3-36.0696 49.2956   3
   5   6   3-11.0050 33.6816   2
  -5  -6  -3-29.2942 33.0219   4
  -5  -6  -4 54.0679 46.8727   3
   5   6   4 95.0057 44.4936   2
  -5  -6  -4 28.0615 39.5312   4
  -5  -6  -5 96.2415 48.9476   3
   5   6   5 10.7830 35.0890   2
  -5  -6  -5 76.4798 43.2874   4
  -5  -6  -6 211.758 67.7910   3
   5   6   6 386.122 73.5422   2
  -5  -6  -6 295.841 63.0284   4
  -5  -6  -7 46.9371 39.0000   3
   5   6   7-29.3168 42.0291   2
  -5  -6  -7 14.4704 37.8118   4
  -5  -6  -8 12.2368 43.1390   3
   5   6   8 5.59731 42.2622   2
  -5  -6  -8 45.1412 38.1586   4
  -5  -6  -9 65.3193 53.1280   3
   5   6   9 66.4874 55.9183   2
  -5  -6 -10 4.10167 48.9388   3
   5   6  10 11.5907 40.8995   2
  -5  -6 -11 118.812 60.9325   3
   5   6  11 21.0461 50.2904   2
  -5  -6 -12 187.426 72.2229   3
   5   7  -7 9.85746 47.3993   3
  -5  -7   7-21.4803 47.8942   4
   5   7  -6 28.6788 44.8855   3
  -5  -7   6-1.83564 45.4878   4
   5   7  -5 101.354 53.3183   3
  -5  -7   5 45.0577 51.3466   4
   5   7  -4 63.3768 49.6505   3
  -5  -7   4-2.32863 44.1972   4
   5   7  -3 28.3473 44.1241   3
  -5  -7   3 71.2456 48.1674   4
   5   7  -2 162.428 64.2598   3
  -5  -7   2-39.1650 48.2444   4
   5   7  -1 4.74674 32.5794   2
   5   7  -1 54.8127 45.7874   3
  -5  -7   1 7.58913 38.1968   4
   5   7   0-7.28435 32.4681   2
   5   7   0-4.89508 42.6472   3
  -5  -7   0-30.0396 39.4904   4
   5   7   1 103.332 46.1013   2
   5   7   1 243.400 68.8851   3
  -5  -7  -1 223.567 60.0464   4
   5   7   2 7.84981 41.1806   2
   5   7   2-44.4386 41.7486   3
  -5  -7  -2-17.8941 36.6186   4
  -5  -7  -3 48.1162 49.4401   3
   5   7   3 28.4466 38.5136   2
  -5  -7  -3 40.8176 42.2569   4
  -5  -7  -4 77.0659 51.0533   3
   5   7   4 102.665 52.2730   2
  -5  -7  -4 117.900 49.1792   4
  -5  -7  -5-14.4407 41.0381   3
   5   7   5 41.2105 42.9399   2
  -5  -7  -6-10.9882 41.5096   3
   5   7   6 43.1089 43.4959   2
  -5  -7  -6-20.1478 34.4876   4
  -5  -7  -7 108.486 56.8561   3
   5   7   7 129.437 51.6624   2
  -5  -7  -8 233.884 72.3137   3
   5   7   8 366.661 82.5028   2
  -5  -7  -9 116.633 60.1671   3
   5   7   9 59.9296 55.4080   2
  -5  -7 -10 20.0105 51.0418   3
  -5  -8   4 23.6363 53.3008   4
   5   8  -3 53.4042 54.3381   3
  -5  -8   3-31.4492 44.7002   4
   5   8  -2 215.521 69.9843   3
  -5  -8   2 108.764 59.3796   4
   5   8  -1-17.1401 44.7945   3
  -5  -8   1-30.3059 45.6668   4
   5   8   0 215.971 73.9579   3
  -5  -8   0 238.863 69.8340   4
   5   8   1-2.40130 39.4481   2
   5   8   1 3.24810 48.7147   3
  -5  -8  -1 18.1496 41.4171   4
  -5  -8  -2-7.75436 42.7668   3
   5   8   2-55.0602 49.0042   2
  -5  -8  -2-2.62112 40.7487   4
  -5  -8  -3 33.6036 48.3061   3
   5   8   3 124.308 57.1922   2
  -5  -8  -3-10.3646 43.4352   4
  -5  -8  -4-79.5430 56.6656   3
   5   8   4 45.9180 47.9506   2
  -5  -8  -4 11.7450 44.9939   4
  -5  -8  -5-24.5424 51.4416   3
   5   8   5 0.63358 47.0090   2
  -5  -8  -6-60.9358 58.5303   3
   5   8   6-39.3799 43.9288   2
   5   8   7-30.4183 46.1736   2
  -5  -9   0 140.548 63.0506   4
  -5  -9  -1 16.9227 43.1560   4
  -5  -9  -2-6.89838 41.5292   4
   5   9   3 55.7503 49.8607   2
   5   9   4 89.0233 53.0156   2
   6  -7  -4-13.1459 50.7803   2
   6  -7  -3-60.4076 50.9101   2
   6  -7  -2 117.342 58.4246   2
   6  -7  -1 91.1380 52.5426   2
   6  -7   0 114.530 58.3579   2
   6  -7   1 181.952 63.8623   2
  -6   7  -4-19.5230 44.4971   4
  -6   7  -5 115.729 65.3230   4
   6  -6  -6 77.5694 52.7396   2
  -6   6   6-50.1567 82.0207   1
   6  -6  -5 166.688 72.0463   2
   6  -6  -4 75.7083 57.6809   2
  -6   6   4 28.9596 67.8808   1
   6  -6  -3 45.2271 44.6994   2
   6  -6  -2 123.292 55.2210   2
  -6   6   2 96.2488 82.0044   1
   6  -6  -1 115.897 54.0089   2
  -6   6   1 37.5713 75.3349   1
   6  -6   0 70.8050 45.9770   2
  -6   6  -1-10.4612 36.7688   4
   6  -6   1 21.4749 43.4800   2
  -6   6  -2 82.3213 49.6144   4
   6  -6   2 2.24569 44.5452   1
   6  -6   2 10.7538 39.8024   2
  -6   6  -3-15.4129 38.8647   4
   6  -6   3 28.7579 47.5096   2
   6  -6   3 24.8734 42.9054   1
  -6   6  -4 7.47013 42.7389   4
   6  -6   4 105.982 57.2571   1
  -6   6  -5 24.4988 43.5045   4
   6  -6   5-34.8824 50.8108   1
  -6   6  -6 200.735 67.8418   4
   6  -6   6 171.944 68.8491   1
  -6   6  -7 205.470 73.9418   4
   6  -5  -8 140.947 70.5533   2
  -6   5   8 30.8462 61.0158   1
   6  -5  -7 91.8543 53.7427   2
   6  -5  -6 207.793 64.7740   2
   6  -5  -5-20.1642 39.6468   2
  -6   5   5-79.5325 73.2184   1
   6  -5  -4-50.9625 53.2164   2
   6  -5  -3 325.029 74.5415   2
  -6   5   3 121.614 71.1541   1
   6  -5  -2 62.0135 45.6973   2
   6  -5  -1 356.877 75.9916   2
  -6   5   1 223.094 55.9853   4
   6  -5   0 54.3960 47.7136   2
  -6   5   0 66.5663 45.0375   4
  -6   5  -1-10.9182 35.3916   4
   6  -5   1 28.7981 42.0988   2
  -6   5  -2 124.108 48.7731   4
   6  -5   2 12.6350 35.9212   2
  -6   5  -3 31.0792 43.8330   4
   6  -5   3 39.9673 51.1827   1
   6  -5   3 24.1590 35.6410   2
  -6   5  -4 96.3692 53.5252   4
   6  -5   4 141.898 51.5052   2
   6  -5   4 122.546 50.2130   1
   6  -5   5 18.2938 36.5996   2
   6  -5   5-1.61206 47.4800   1
  -6   5  -6-4.31594 46.8380   4
   6  -5   6 82.2477 54.4561   1
  -6   5  -7 44.2317 41.1723   4
   6  -5   7 141.799 57.9353   1
  -6   5  -8-96.6151 56.4044   4
   6  -5   8 1.05194 46.6688   1
  -6   5  -9 28.4716 46.8556   4
   6  -5   9 44.8159 50.8417   1
   6  -4 -10 99.3115 55.6927   2
  -6   4  10 60.0668 54.1046   1
   6  -4  -9-75.0286 58.8360   2
  -6   4   9-23.3325 49.8647   1
  -6   4   8-54.6835 56.9245   1
   6  -4  -8-150.510 70.4192   2
   6  -4  -7-35.9868 47.5690   2
  -6   4   7-72.4603 53.6450   1
   6  -4  -6-19.8088 48.7202   2
  -6   4   6 43.4375 62.0102   1
   6  -4  -5 74.0742 52.0443   2
   6  -4  -4 0.87203 37.8860   2
  -6   4   4-22.1488 62.4164   1
   6  -4  -3 74.4825 50.6191   2
  -6   4   3-15.8646 31.9135   4
   6  -4  -2 82.1019 46.9306   2
  -6   4   2 95.9925 42.3673   4
   6  -4  -1 75.5491 46.6856   2
  -6   4   1 82.1129 40.3409   4
   6  -4   0 17.5577 35.2926   2
  -6   4   0 25.9050 33.4795   4
   6  -4   1 195.223 55.9886   2
  -6   4  -1 209.670 56.1207   4
   6  -4   2 6.61145 38.8300   2
  -6   4  -2 77.9861 41.3684   4
   6  -4   3 2.74901 43.5887   1
   6  -4   3 59.6347 47.0035   2
  -6   4  -3 103.525 49.7028   4
   6  -4   4 38.8891 38.7133   1
   6  -4   4 73.7136 46.2417   2
  -6   4  -4-8.00649 35.8933   4
  -6   4  -5 262.809 64.7803   4
   6  -4   5 203.652 56.5046   2
   6  -4   5 312.492 78.2190   1
  -6   4  -6 153.633 53.1925   4
   6  -4   6 222.273 57.8448   2
   6  -4   6 303.499 75.6224   1
  -6   4  -7 43.9173 50.8082   4
   6  -4   7 50.3973 39.8271   2
   6  -4   7 179.821 62.5077   1
  -6   4  -8-19.0378 42.3546   4
   6  -4   8 37.0469 45.9057   1
  -6   4  -9-0.91680 45.1997   4
   6  -4   9 45.5131 47.9432   1
  -6   4 -10 163.326 67.7169   4
   6  -4  10 293.617 70.0348   1
   6  -3 -11-18.6910 49.7368   2
  -6   3  11 64.7056 53.6542   1
   6  -3 -10 95.7002 57.0708   2
  -6   3  10 8.73684 42.4972   1
   6  -3  -9-49.0884 53.0892   2
  -6   3   9 50.9062 48.8339   1
   6  -3  -8 63.2186 52.5985   2
  -6   3   8-62.7987 54.3055   1
   6  -3  -7 63.6318 52.3492   2
  -6   3   7 79.6833 42.5504   1
   6  -3  -6 17.2675 40.8118   2
  -6   3   6-4.46722 46.4516   1
   6  -3  -5 17.2208 39.8278   2
  -6   3   5 10.2001 49.1854   1
  -6   3   5-7.62421 28.9895   4
   6  -3  -4 296.052 69.8934   2
  -6   3   4 347.027 61.9389   4
   6  -3  -3 43.2547 44.2270   2
  -6   3   3 86.2092 39.7412   4
  -6   3   2 374.801 62.5949   4
   6  -3  -2 466.174 84.7342   2
   6  -3  -1 7.78883 37.6666   2
  -6   3   1 54.4660 38.4543   4
   6  -3   0 16.2766 38.3208   2
  -6   3   0 30.3182 36.7353   4
   6  -3   1 46.2523 36.9571   2
  -6   3  -1 83.2424 47.3177   4
   6  -3   2 145.824 51.7056   2
  -6   3  -2 218.002 54.1847   4
   6  -3   3 14.8568 40.3039   1
   6  -3   3 29.7521 36.4591   2
  -6   3  -3 11.2090 33.5753   4
   6  -3   4 336.840 74.7860   1
   6  -3   4 332.032 62.0472   2
  -6   3  -4 311.593 66.0860   4
   6  -3   5 15.5116 33.7683   2
   6  -3   5-99.6356 57.4422   1
  -6   3  -5-9.73550 41.1892   4
   6  -3   6 323.822 65.4356   2
   6  -3   6 228.610 62.9352   1
  -6   3  -6 357.254 74.0875   4
   6  -3   7-59.7986 41.6115   2
   6  -3   7-53.9950 52.4662   1
  -6   3  -7-5.91220 41.3859   4
  -6   3  -8 139.998 57.7002   4
   6  -3   8 137.174 50.7457   2
   6  -3   8 71.6192 51.2016   1
  -6   3  -9 105.952 51.7372   4
   6  -3   9 47.5684 43.0939   1
  -6   3 -10 4.53031 46.1682   4
   6  -3  10-95.0778 48.5232   1
  -6   3 -11 62.4180 53.3511   4
   6  -3  11 78.5501 54.4994   1
   6  -3  12 61.3958 56.5032   1
  -6   2  12 75.5449 59.6192   1
   6  -2 -12 3.73418 42.5059   2
  -6   2  11 169.890 68.1524   1
   6  -2 -11 120.418 54.8013   2
   6  -2 -10 82.7557 56.0101   2
  -6   2  10 99.7703 50.4861   1
   6  -2  -9 101.642 43.2694   2
  -6   2   9 63.8243 48.0447   1
   6  -2  -8-38.0520 50.4414   2
  -6   2   8 86.1563 51.9424   1
   6  -2  -7 59.2879 49.3591   2
  -6   2   7-3.45786 39.5092   1
  -6   2   7-44.7689 40.1813   4
  -6   2   6 139.312 54.2969   1
   6  -2  -6 176.178 61.5587   2
  -6   2   6 130.809 43.1341   4
   6  -2  -5 60.3919 47.7102   2
  -6   2   5-0.09686 38.3278   1
  -6   2   5-2.35875 31.1164   4
  -6   2   4 493.716 72.8318   4
   6  -2  -4 538.175 82.8037   2
   6  -2  -3 136.775 56.4652   2
  -6   2   3 200.060 49.8427   4
  -6   2   2 598.473 77.2079   4
   6  -2  -2 675.188 91.2202   2
   6  -2  -1 366.333 69.8355   2
  -6   2   1 209.831 54.4429   4
   6  -2   0 483.044 81.4904   2
  -6   2   0 337.248 62.8838   4
   6  -2   1 210.247 62.0475   2
  -6   2  -1 138.089 45.9181   4
   6  -2   2 83.3382 43.0006   2
  -6   2  -2 201.175 55.8459   4
  -6   2  -3 626.974 86.4806   4
   6  -2   3 662.647 87.1173   2
   6  -2   3 873.183 100.036   1
   6  -2   4 73.1131 41.8881   1
   6  -2   4 38.6654 42.2450   2
  -6   2  -4 44.6109 44.7257   4
   6  -2   5 25.8142 39.4004   2
   6  -2   5 74.9158 39.9561   1
  -6   2  -5 75.3695 44.4391   4
   6  -2   6 113.958 52.6037   2
   6  -2   6 81.3932 47.9269   1
  -6   2  -6 132.608 53.3897   4
   6  -2   7 41.8711 39.6657   2
   6  -2   7-29.2740 38.0548   1
   6  -2   8 121.698 54.0676   2
   6  -2   8 82.6731 43.9788   1
  -6   2  -8 117.332 53.3204   4
   6  -2   9 127.068 50.6959   2
   6  -2   9 67.0453 45.9068   1
  -6   2  -9 27.3722 44.3513   4
  -6   2 -10 81.2106 52.2569   4
   6  -2  10 41.0617 35.3001   2
   6  -2  10 123.222 55.6566   1
  -6   2 -11 31.2577 45.7302   4
   6  -2  11 72.6186 58.5944   1
  -6   2 -12 11.1663 52.6262   4
   6  -2  12-43.6591 54.4715   1
   6  -2  13 14.2160 47.1488   1
   6  -1 -13-22.5728 47.8620   2
   6  -1 -12-0.33216 44.2710   2
  -6   1  12 32.8751 44.9830   1
   6  -1 -11-53.9032 47.7380   2
  -6   1  11-12.1892 43.7259   1
  -6   1  10-6.44842 39.0092   1
   6  -1 -10-34.7644 44.1884   2
   6  -1  -9 26.9070 42.7745   2
  -6   1   9 50.7567 45.7691   1
   6  -1  -8-31.1154 39.7731   2
  -6   1   8 1.79334 31.6543   4
   6  -1  -7-28.3836 39.3719   2
  -6   1   7 46.8748 46.8227   1
  -6   1   7-41.9905 32.0436   4
   6  -1  -6 89.8959 47.4034   2
  -6   1   6-19.5118 35.3113   1
  -6   1   6-23.7829 38.4567   4
  -6   1   5 97.8473 43.9269   1
   6  -1  -5 82.1652 49.6841   2
  -6   1   5-32.3536 33.8410   4
   6  -1  -4-16.5754 36.2232   2
  -6   1   4-63.4183 53.3033   1
  -6   1   4 30.1662 38.8121   4
   6  -1  -3 106.282 48.3311   2
  -6   1   3 138.382 46.7290   4
   6  -1  -2 105.121 46.4239   2
  -6   1   2 66.7306 36.5985   4
   6  -1  -1-51.5729 42.3415   2
  -6   1   1 80.6587 56.1394   1
  -6   1   1 22.1543 36.9438   4
   6  -1   0 29.2847 49.1428   2
  -6   1   0 45.2853 31.8685   4
   6  -1   1-19.4289 40.5645   2
  -6   1  -1 33.0052 33.6073   4
   6  -1   2 4.64186 34.4118   2
  -6   1  -2 0.07760 33.5943   4
   6  -1   3 135.634 47.2962   1
   6  -1   3 39.4116 36.2443   2
  -6   1  -3 122.124 48.5333   4
   6  -1   4 65.7248 41.0150   1
   6  -1   4-9.01952 33.9690   2
  -6   1  -4 41.2177 40.6494   4
   6  -1   5 47.2430 35.1217   2
   6  -1   5-6.38099 37.9933   1
  -6   1  -5 97.4089 45.3049   4
   6  -1   6 200.130 61.5731   2
   6  -1   6 214.095 57.4000   1
  -6   1  -6 157.411 57.2223   4
   6  -1   7 121.995 51.2284   2
   6  -1   7 81.8212 39.5724   1
  -6   1  -7 133.891 57.7604   4
   6  -1   8 205.879 61.5217   2
   6  -1   8 221.850 56.6781   1
  -6   1  -8 195.527 61.0874   4
   6  -1   9 112.195 46.2357   2
   6  -1   9 54.0369 43.1239   1
  -6   1  -9 131.958 55.9992   4
   6  -1  10 127.476 50.5309   2
   6  -1  10 133.936 49.2678   1
  -6   1 -10 131.014 54.9080   4
  -6   1 -11-35.8061 52.7159   4
   6  -1  11 16.9624 39.4859   2
   6  -1  11-69.5291 50.4592   1
  -6   1 -12-51.4529 50.5580   4
   6  -1  12 71.8539 46.6862   2
   6  -1  12 24.8664 44.6039   1
  -6   1 -13-72.4870 50.6872   4
   6  -1  13 20.1807 44.6068   1
   6  -1  14 30.7740 50.7528   1
  -6   0  13 3.39631 42.5023   1
   6   0 -12 25.6316 43.2605   2
   6   0 -12 10.0030 41.2192   3
  -6   0  12 103.300 52.6085   1
   6   0 -11 9.10268 42.3719   2
   6   0 -11 36.0347 41.5430   3
  -6   0  11 75.6172 50.3442   1
   6   0 -10 126.503 61.5804   2
   6   0 -10-4.34550 39.2831   3
  -6   0  10 36.7374 41.4441   4
  -6   0  10 44.0929 46.1793   1
  -6   0   9-109.277 50.9034   1
   6   0  -9-31.7437 43.1824   2
   6   0  -9-16.7189 33.6979   3
  -6   0   9-14.6199 36.0763   4
   6   0  -8-64.2998 46.8076   2
  -6   0   8 22.9600 37.5310   1
   6   0  -8-40.4066 33.6266   3
  -6   0   8 3.56118 36.0806   4
   6   0  -7 180.935 56.8047   2
  -6   0   7 243.476 61.4201   1
   6   0  -7 259.826 51.4357   3
  -6   0   7 251.158 60.4933   4
   6   0  -6 60.5894 43.5207   2
   6   0  -6-4.47430 27.2007   3
  -6   0   6 0.15690 31.8342   1
  -6   0   6-11.4544 32.7918   4
  -6   0   5 508.098 74.4517   1
  -6   0   5 505.540 78.7024   4
   6   0  -5 457.352 77.3700   2
  -6   0   4 776.436 92.8435   4
   6   0  -4 717.628 91.2893   2
  -6   0   3 1043.34 105.554   4
   6   0  -3 1125.72 112.386   2
  -6   0   2 725.446 85.8253   4
   6   0  -2 772.638 95.0952   2
   6   0  -1 190.958 52.7451   2
  -6   0   1 94.0999 57.5418   1
   6   0   0 318.883 63.2136   2
  -6   0   0 303.700 61.7051   4
  -6   0  -1 434.111 72.6206   4
   6   0   1 532.685 79.9975   2
  -6   0  -2 1566.28 130.643   4
   6   0   2 1939.04 141.705   2
   6   0   3 319.787 68.5839   2
   6   0   3 361.074 60.4133   1
  -6   0  -3 387.219 70.3661   4
  -6   0  -4 1395.86 123.237   4
   6   0   4 1265.57 116.958   2
   6   0   4 1562.16 118.769   1
   6   0   5 53.9920 40.7052   2
   6   0   5 140.116 48.2942   1
  -6   0  -5 19.0898 39.1526   4
   6   0   6 315.132 68.4167   2
   6   0   6 309.233 60.5729   1
  -6   0  -6 308.542 65.0705   4
   6   0   7 18.2170 33.0648   2
   6   0   7-9.27697 33.2199   1
  -6   0  -7 31.6132 44.0534   4
   6   0   8 137.840 47.7696   2
   6   0   8 205.698 53.7807   1
  -6   0  -8 211.583 62.2340   4
   6   0   9-38.0942 42.5607   2
   6   0   9 50.2800 32.9263   1
  -6   0  -9 44.1529 40.9248   4
   6   0  10 58.9188 42.8255   2
   6   0  10-59.6164 46.4040   1
  -6   0 -10-10.8124 39.7842   4
   6   0  11 51.8309 40.1720   2
   6   0  11 59.7003 47.2496   1
  -6   0 -11 66.3576 53.8517   4
  -6   0 -12-54.8345 51.0712   4
   6   0  12-1.71088 42.0240   2
   6   0  12 11.0346 41.9338   1
  -6   0 -13-6.41127 43.4844   4
   6   0  13 29.2124 46.9516   2
   6   0  13 56.6222 52.6091   1
  -6   0 -14 115.598 66.8051   4
   6   0  14 77.2704 49.8445   1
   6   0  15-0.88399 45.7486   1
   6   1 -13 12.0737 46.2644   3
  -6  -1  13-14.2386 38.3194   1
   6   1 -12 11.5653 40.9752   3
  -6  -1  12-43.4087 41.4892   1
   6   1 -11 5.58959 40.1995   2
   6   1 -11 67.6850 50.6293   3
  -6  -1  11 34.4960 43.7704   1
  -6  -1  11 29.3818 44.2733   4
   6   1 -10-3.91248 38.0497   3
  -6  -1  10-16.5243 36.9700   1
  -6  -1  10 50.6503 46.2894   4
   6   1  -9 84.8705 46.4406   2
   6   1  -9 112.620 45.0375   3
  -6  -1   9 103.502 44.0820   4
  -6  -1   9 5.75551 36.5285   1
  -6  -1   8-35.7317 36.1655   1
   6   1  -8 11.5920 36.1567   2
   6   1  -8 70.8745 44.1718   3
  -6  -1   8-6.84815 35.4061   4
   6   1  -7 44.9989 36.9135   2
  -6  -1   7 39.8445 36.3149   1
   6   1  -7 0.81525 33.4728   3
  -6  -1   7 61.8450 42.8505   4
   6   1  -6 58.5448 39.3693   2
  -6  -1   6 125.492 44.0911   1
   6   1  -6 147.030 48.7695   3
  -6  -1   6 102.691 45.4073   4
   6   1  -5 66.7606 42.0175   2
   6   1  -5 26.2695 36.1878   3
  -6  -1   5 34.5778 31.8846   1
  -6  -1   5-34.8447 42.4253   4
   6   1  -4 88.6676 45.0900   2
  -6  -1   4-32.9004 39.0052   1
   6   1  -4 12.9128 28.5868   3
  -6  -1   4 5.92009 37.0671   4
   6   1  -3 62.0423 48.1664   2
   6   1  -3 52.2082 32.8195   3
  -6  -1   3 37.7135 40.0284   4
   6   1  -2 56.4599 39.2759   2
   6   1  -2 119.240 39.2219   3
  -6  -1   2 3.34223 35.7430   4
   6   1  -1 4.61297 36.0611   2
   6   1  -1-19.1444 25.4687   3
  -6  -1   1 10.8997 37.6416   4
   6   1   0 0.87946 36.6587   2
   6   1   0 0.89614 26.5228   3
  -6  -1   0-22.6131 32.5721   4
   6   1   1 147.198 54.1341   2
   6   1   1 150.603 35.1931   3
  -6  -1  -1 258.526 61.3845   4
   6   1   2 117.007 38.0687   1
  -6  -1  -2 156.244 38.7598   3
   6   1   2 88.6552 43.9180   2
  -6  -1  -2 111.794 46.8637   4
  -6  -1  -3 15.6499 25.5931   3
   6   1   3 26.1546 29.8515   1
   6   1   3-40.5846 43.2296   2
  -6  -1  -3 49.0730 38.3043   4
   6   1   4 116.839 38.7717   1
   6   1   4-4.80038 39.4548   2
  -6  -1  -4 117.764 54.4439   4
   6   1   5-60.1368 50.0759   2
   6   1   5 52.7201 30.5901   1
  -6  -1  -5-10.2402 37.0039   4
   6   1   6 26.1076 45.1255   2
   6   1   6-15.8432 29.0776   1
  -6  -1  -6-48.1746 42.2965   4
   6   1   7 62.8604 42.8489   2
   6   1   7 67.9293 33.7162   1
  -6  -1  -7 51.6927 43.8257   4
   6   1   8 28.5637 41.5592   2
   6   1   8 95.5345 43.1320   1
  -6  -1  -8 2.59754 39.3255   4
   6   1   9 54.5596 44.5852   2
   6   1   9 13.5424 30.8305   1
  -6  -1  -9 122.462 53.2706   4
   6   1  10-87.2837 51.2821   2
   6   1  10 57.7975 40.8957   1
  -6  -1 -10 24.1844 45.3177   4
   6   1  11-24.4751 45.5691   2
   6   1  11-7.93069 36.3893   1
  -6  -1 -11 9.05979 44.8243   4
   6   1  12-13.6685 39.1596   2
  -6  -1 -12 48.2792 44.2773   4
  -6  -1 -13 51.3730 56.1756   4
   6   1  13 62.2170 52.1339   2
  -6  -1 -14-73.6809 54.0309   4
   6   1  14-67.2819 47.7951   2
   6   2 -12-21.1280 42.6254   3
  -6  -2  12-78.7401 57.7067   4
   6   2 -11-13.2144 43.0255   3
  -6  -2  11 34.9729 42.3268   4
   6   2 -10 67.2687 44.2143   3
  -6  -2  10 158.677 59.8563   4
   6   2  -9 55.9720 39.5654   3
  -6  -2   9-7.26967 40.3516   4
   6   2  -8-0.66709 32.5802   2
   6   2  -8 28.5187 39.6979   3
  -6  -2   8 53.2871 43.0652   4
   6   2  -7 203.652 57.6939   2
   6   2  -7 130.091 48.1644   3
  -6  -2   7 226.178 61.0940   4
   6   2  -6 52.8132 39.2261   2
   6   2  -6 73.5278 41.2289   3
  -6  -2   6-0.09016 39.1283   4
   6   2  -5 29.5100 38.4911   2
   6   2  -5 46.9071 35.1641   3
  -6  -2   5 61.3354 37.6580   4
   6   2  -4 313.445 55.3285   3
   6   2  -4 461.268 73.7778   2
  -6  -2   4 379.691 73.2730   4
   6   2  -3 288.773 66.0776   2
   6   2  -3 352.448 64.8880   3
  -6  -2   3 300.179 63.8661   4
   6   2  -2 42.6657 39.8917   2
   6   2  -2 67.6444 38.4332   3
  -6  -2   2 91.5739 43.6983   4
   6   2  -1 435.184 64.7600   3
   6   2  -1 476.226 75.2820   2
  -6  -2   1 372.201 71.2135   4
   6   2   0 217.162 58.4892   2
   6   2   0 356.007 56.9722   3
  -6  -2   0 235.719 58.1922   4
   6   2   1 733.082 75.8704   3
  -6  -2  -1 721.301 92.7951   4
   6   2   1 776.914 93.9450   2
   6   2   2-0.87355 38.5605   2
  -6  -2  -2 45.0908 39.3373   4
  -6  -2  -3 1062.32 93.5429   3
  -6  -2  -3 1078.03 111.166   4
   6   2   3 1097.77 116.548   2
  -6  -2  -4 57.5429 36.1668   3
   6   2   4 73.1794 43.5540   2
  -6  -2  -4 66.8369 44.4414   4
  -6  -2  -5 209.022 48.9656   3
   6   2   5 166.210 56.3278   2
  -6  -2  -5 241.233 62.0869   4
  -6  -2  -6-58.8042 37.8529   3
   6   2   6-6.62538 41.9848   2
  -6  -2  -6-22.0410 39.9824   4
  -6  -2  -7 281.149 57.2335   3
   6   2   7 308.546 67.8352   2
  -6  -2  -7 403.101 73.2300   4
  -6  -2  -8 22.3170 34.2684   3
   6   2   8 23.7020 46.0100   2
  -6  -2  -8-24.6410 49.5204   4
  -6  -2  -9 6.54775 32.4936   3
   6   2   9-57.6350 43.8568   2
  -6  -2  -9 32.2316 48.8194   4
   6   2  10 19.0998 41.0438   2
  -6  -2 -10 19.0625 43.0057   4
   6   2  11 10.9363 40.9588   2
  -6  -2 -11 119.536 56.9283   4
   6   2  12-14.7504 41.1725   2
  -6  -2 -12-20.4687 49.1503   4
   6   2  13 169.464 67.7074   2
  -6  -2 -13 65.6647 47.2747   4
  -6  -2 -14 314.829 80.0448   4
   6   2  14 125.047 59.0105   2
   6   3 -11-24.8223 46.5505   3
  -6  -3  11 64.6489 53.8996   4
   6   3 -10 57.0816 49.6626   3
  -6  -3  10 71.2642 54.2340   4
   6   3  -9 103.078 52.4182   3
  -6  -3   9-5.66278 41.3265   4
   6   3  -8-19.2262 39.6905   2
   6   3  -8 12.1046 40.1540   3
  -6  -3   8-30.1504 39.2539   4
   6   3  -7 297.719 65.2050   2
   6   3  -7 269.295 64.7455   3
  -6  -3   7 292.038 71.6660   4
   6   3  -6 207.307 56.2250   2
   6   3  -6 278.799 65.5660   3
  -6  -3   6 149.734 51.7005   4
   6   3  -5 206.524 55.8062   2
   6   3  -5 134.436 49.1472   3
  -6  -3   5 142.417 53.6732   4
   6   3  -4 184.669 52.9431   2
   6   3  -4 104.668 43.1936   3
  -6  -3   4 130.949 50.8822   4
   6   3  -3 113.576 48.4881   2
   6   3  -3 115.175 46.4521   3
  -6  -3   3 140.541 51.0334   4
   6   3  -2-8.17988 37.7159   2
   6   3  -2-40.3693 35.4241   3
  -6  -3   2-34.6001 44.9980   4
   6   3  -1 48.9930 39.9848   2
   6   3  -1 29.9384 30.1248   3
  -6  -3   1 22.4432 42.1840   4
   6   3   0 104.654 50.4660   2
   6   3   0 165.832 48.3924   3
  -6  -3   0 129.568 52.0055   4
   6   3   1 438.742 67.2044   3
  -6  -3  -1 442.923 77.3339   4
   6   3   1 528.641 85.4519   2
   6   3   2 88.0895 51.1037   2
   6   3   2-27.3248 38.9401   3
  -6  -3  -2 19.8655 38.2849   4
  -6  -3  -3 341.022 62.2786   3
   6   3   3 257.321 60.9920   2
  -6  -3  -3 329.400 71.0207   4
  -6  -3  -4 13.7202 34.8770   3
   6   3   4 83.1450 51.3197   2
  -6  -3  -4-12.2976 38.9109   4
  -6  -3  -5 23.4003 33.6094   3
   6   3   5 2.03444 45.1715   2
  -6  -3  -5 59.4601 43.8429   4
  -6  -3  -6 121.086 49.0704   3
   6   3   6 190.817 58.0163   2
  -6  -3  -6 116.243 49.8997   4
  -6  -3  -7-17.2776 32.7934   3
   6   3   7 49.8864 51.0809   2
  -6  -3  -7 25.7593 38.5585   4
  -6  -3  -8 145.087 50.9540   3
   6   3   8 135.982 51.5978   2
  -6  -3  -8 173.141 55.4108   4
   6   3   9 12.4706 39.7349   2
  -6  -3  -9-3.28720 38.9594   4
  -6  -3 -10-20.1311 37.8035   3
   6   3  10 26.1653 44.2355   2
  -6  -3 -10-2.24813 45.5661   4
  -6  -3 -11-102.202 55.3628   3
   6   3  11-13.1048 43.4120   2
  -6  -3 -11 39.2354 39.5027   4
  -6  -3 -12-75.1131 51.0004   3
   6   3  12 3.62318 42.8714   2
  -6  -3 -12-50.3255 48.1655   4
  -6  -3 -13-24.1629 49.8946   3
   6   3  13 15.2039 45.7470   2
  -6  -3 -13 127.031 58.1583   4
   6   4 -10-14.0447 43.7141   3
  -6  -4  10 94.6733 60.7462   4
   6   4  -9 131.607 62.5221   3
  -6  -4   9 20.2186 46.8820   4
   6   4  -8 144.080 56.4179   3
  -6  -4   8 22.9588 48.4747   4
   6   4  -7 117.681 53.1742   3
  -6  -4   7 145.929 55.0203   4
   6   4  -6 212.701 59.8959   2
   6   4  -6 216.019 57.8647   3
  -6  -4   6 150.401 56.9318   4
   6   4  -5-43.2629 37.7307   2
   6   4  -5 18.8932 37.1278   3
   6   4  -4 32.8742 36.4843   2
   6   4  -4-8.16156 40.2852   3
  -6  -4   4-99.8892 49.2488   4
   6   4  -3-65.3095 41.2542   2
   6   4  -3-57.1072 41.8315   3
   6   4  -2 239.609 58.9838   2
   6   4  -2 207.000 58.0612   3
  -6  -4   2 205.349 60.4644   4
   6   4  -1-4.07222 33.5793   2
   6   4  -1-9.08685 31.8808   3
  -6  -4   1 71.9020 49.5461   4
   6   4   0 38.6336 43.7128   2
   6   4   0 23.1687 33.2437   3
  -6  -4   0 52.5645 45.5933   4
   6   4   1 117.996 49.4729   2
   6   4   1 93.3512 44.2097   3
  -6  -4  -1 130.297 52.8848   4
   6   4   2 0.34467 34.7832   2
   6   4   2 38.6898 42.6073   3
  -6  -4  -2-27.2101 37.7176   4
  -6  -4  -3 151.694 53.8675   3
   6   4   3 76.9452 37.8937   2
  -6  -4  -3 46.7368 38.5013   4
  -6  -4  -4 168.279 54.1429   3
   6   4   4 47.0942 39.6037   2
  -6  -4  -4 110.144 53.7707   4
  -6  -4  -5-14.0836 40.0275   3
   6   4   5 58.1200 40.3067   2
  -6  -4  -5 36.9144 45.4923   4
  -6  -4  -6 26.7465 41.0366   3
   6   4   6 16.8104 39.4093   2
  -6  -4  -6-23.6036 39.2252   4
  -6  -4  -7 45.8886 47.1990   3
   6   4   7 7.75123 38.9342   2
  -6  -4  -7 99.3958 49.5171   4
  -6  -4  -8 165.476 57.1524   3
   6   4   8-3.77253 41.6056   2
  -6  -4  -8 99.8454 45.4160   4
  -6  -4  -9 17.8395 38.9010   3
   6   4   9 116.339 56.8037   2
  -6  -4  -9 20.1388 42.0271   4
  -6  -4 -10 9.91683 41.1524   3
   6   4  10 0.86109 46.8023   2
  -6  -4 -10 42.7448 41.8279   4
  -6  -4 -11 32.3299 47.8391   3
   6   4  11 44.7714 53.1038   2
  -6  -4 -11-10.9014 39.7207   4
  -6  -4 -12 146.749 60.6805   3
   6   4  12 109.919 55.7069   2
  -6  -4 -12 88.4952 51.9015   4
  -6  -4 -13 149.092 60.3497   3
   6   5  -8 197.754 70.4027   3
  -6  -5   8 78.2216 53.7062   4
   6   5  -7 124.337 53.1452   3
  -6  -5   7 80.0797 56.6318   4
   6   5  -6 109.965 54.8084   3
  -6  -5   6 130.484 59.8104   4
   6   5  -5 130.674 52.8188   3
  -6  -5   5 147.847 63.2416   4
   6   5  -4 44.8814 38.2533   2
   6   5  -4 7.50197 41.6112   3
  -6  -5   4-61.0276 52.2704   4
   6   5  -3 62.3612 40.5687   2
   6   5  -3 60.5127 42.5742   3
  -6  -5   3 111.436 59.2529   4
   6   5  -2-11.6138 35.6525   2
   6   5  -2 88.3267 52.1102   3
  -6  -5   2-10.9863 39.4045   4
   6   5  -1 42.2957 36.4432   2
   6   5  -1 73.3971 47.6832   3
  -6  -5   1-8.30524 46.9054   4
   6   5   0 225.600 61.7760   2
   6   5   0 167.916 57.4508   3
  -6  -5   0 129.806 55.3348   4
   6   5   1-19.4370 38.1953   2
   6   5   1-60.8616 41.8824   3
  -6  -5  -1 1.72739 43.1806   4
   6   5   2 193.325 61.5074   2
   6   5   2 220.821 59.0565   3
  -6  -5  -2 269.221 65.3851   4
  -6  -5  -3 15.4125 38.5762   3
   6   5   3-3.79713 44.1996   2
  -6  -5  -3 82.4630 49.0595   4
  -6  -5  -4-62.4254 48.5488   3
   6   5   4-3.75502 36.7847   2
  -6  -5  -4 43.1357 46.2900   4
  -6  -5  -5 221.442 59.1194   3
   6   5   5 223.555 68.8210   2
  -6  -5  -5 202.215 66.2006   4
  -6  -5  -6-20.1482 44.8040   3
   6   5   6 78.8937 59.4353   2
  -6  -5  -6 31.5224 47.0897   4
  -6  -5  -7 159.416 57.5047   3
   6   5   7 272.294 72.2147   2
  -6  -5  -7 232.455 65.5861   4
  -6  -5  -8 7.12182 44.1807   3
   6   5   8 82.7288 58.4625   2
  -6  -5  -8 8.89082 38.7063   4
  -6  -5  -9 32.8344 39.6543   3
   6   5   9 86.4426 56.4185   2
  -6  -5  -9 70.3660 48.0922   4
  -6  -5 -10 52.7122 52.0213   3
   6   5  10-14.1489 44.2420   2
  -6  -5 -10 24.1423 39.1517   4
  -6  -5 -11 134.424 61.5686   3
   6   6  -6 114.851 64.6822   3
   6   6  -5-9.95970 45.5340   3
  -6  -6   5 77.7662 52.4188   4
   6   6  -4 66.0208 53.9685   3
  -6  -6   4-16.7565 44.5418   4
   6   6  -3-30.7956 47.4717   3
  -6  -6   3 87.9335 57.5330   4
   6   6  -2 94.1000 45.1222   2
   6   6  -2 20.5194 40.8935   3
  -6  -6   2 56.5700 55.4737   4
   6   6  -1-53.2991 45.5577   2
   6   6  -1-21.0744 38.2175   3
  -6  -6   1 31.2292 46.6494   4
   6   6   0 194.143 54.4109   2
  -6  -6   0 135.572 55.3328   4
   6   6   1 315.456 70.0029   2
   6   6   1 340.937 75.1940   3
  -6  -6  -1 323.186 77.0632   4
   6   6   2 52.1806 47.0460   2
  -6  -6  -2 48.0247 52.5374   4
  -6  -6  -3 83.7580 48.7167   3
   6   6   3 15.5456 41.5402   2
  -6  -6  -3 20.4788 44.0887   4
  -6  -6  -4 70.5246 51.1872   3
   6   6   4 37.0418 47.7374   2
  -6  -6  -4 76.5632 45.3429   4
  -6  -6  -5 27.0025 44.6033   3
   6   6   5 20.0950 44.0674   2
  -6  -6  -5 112.944 51.4891   4
  -6  -6  -6 141.072 58.0251   3
   6   6   6 72.2304 49.0048   2
  -6  -6  -6 116.478 50.7686   4
  -6  -6  -7 21.7718 45.0709   3
   6   6   7 73.4908 44.8996   2
  -6  -6  -7 46.8812 45.2189   4
  -6  -6  -8 69.1490 51.3247   3
   6   6   8-1.27724 49.3820   2
  -6  -6  -8 4.14326 40.8647   4
  -6  -6  -9-18.8808 47.2658   3
   6   7  -2 147.881 70.0830   3
  -6  -7   2 169.497 68.4624   4
   6   7  -1 87.1401 53.7791   3
  -6  -7   1 110.882 56.0403   4
   6   7   0 109.143 52.2271   2
   6   7   0 27.4468 46.9638   3
  -6  -7   0 110.318 51.7995   4
   6   7   1-19.9488 40.4747   2
   6   7   1 88.1891 48.2756   3
  -6  -7  -1 54.5204 51.8052   4
  -6  -7  -2 88.9175 52.8099   3
   6   7   2 56.8045 44.8283   2
  -6  -7  -2-13.6791 42.4879   4
  -6  -7  -3 5.93847 45.1404   3
   6   7   3 4.32123 42.8780   2
  -6  -7  -3 47.8812 49.8864   4
  -6  -7  -4 103.212 53.1313   3
   6   7   4 70.3594 48.2374   2
  -6  -7  -4 93.7886 51.6257   4
  -6  -7  -5 35.2063 49.6628   3
   6   7   5 79.7002 57.3227   2
  -6  -7  -5-10.7420 45.8909   4
  -6  -7  -6 51.9499 62.6191   3
   6   7   6 70.3186 46.8179   2
  -6  -7  -6-12.3669 43.5829   4
   6   8   2 5.14110 40.8562   2
   6   8   3 24.7878 52.9008   2
  -6  -8  -3-63.4760 60.4193   4
   7  -6   1 102.810 55.0840   2
   7  -6   2 18.6572 47.9913   2
   7  -5  -3 7.45233 49.9397   2
   7  -5  -2-17.2443 51.6462   2
   7  -5  -1 78.6984 58.6316   2
   7  -5   0 3.94154 41.1129   2
   7  -5   1-15.4321 47.2997   2
  -7   5  -1 51.3744 44.5348   4
  -7   5  -2 41.1357 42.4933   4
   7  -5   2 113.752 59.0820   1
   7  -5   2 28.8684 43.7360   2
  -7   5  -3 34.2745 41.4350   4
   7  -5   3-54.9562 50.2670   2
  -7   5  -4 74.3285 59.6791   4
   7  -5   4 146.630 58.9869   2
  -7   5  -5-39.2144 50.1804   4
   7  -4  -5 69.2179 62.2528   2
   7  -4  -4-62.4746 63.6415   2
  -7   4   4-117.972 81.7976   1
   7  -4  -3 684.455 109.950   2
   7  -4  -2 73.1332 54.7816   2
   7  -4  -1 192.701 61.5216   2
  -7   4   1 218.334 59.2608   4
   7  -4   0 75.8119 55.8419   2
  -7   4   0 70.0496 51.4744   4
   7  -4   1 3.11168 40.5376   2
  -7   4  -1-53.4622 45.1396   4
   7  -4   2-55.1665 49.7366   1
   7  -4   2-30.5837 41.6261   2
  -7   4  -2 35.0239 45.2240   4
   7  -4   3 145.914 63.6185   1
   7  -4   3 236.223 66.9984   2
  -7   4  -3 132.242 55.9288   4
   7  -4   4 170.967 58.0505   2
  -7   4  -4 276.591 71.6757   4
  -7   4  -5 108.653 61.5006   4
   7  -4   5 39.6053 47.8720   2
   7  -4   5 27.1361 48.6858   1
  -7   4  -6 219.689 70.4759   4
   7  -4   6 229.715 64.2934   2
   7  -4   6 277.235 77.9556   1
   7  -3  -7 132.484 67.0740   2
   7  -3  -6-42.8922 48.2560   2
  -7   3   5-28.2977 67.2503   1
   7  -3  -5 40.0906 46.1232   2
   7  -3  -4 30.4137 53.6547   2
   7  -3  -3-37.1560 44.6254   2
  -7   3   3-27.4506 61.5740   1
  -7   3   3 74.3590 43.4655   4
   7  -3  -2 31.2244 47.7075   2
  -7   3   2 24.6532 41.1456   4
   7  -3  -1-62.1186 53.3220   2
  -7   3   1 2.22681 33.7399   4
   7  -3   0 28.2705 41.0839   2
  -7   3   0 25.8559 42.6447   4
   7  -3   1 125.618 58.1675   2
  -7   3  -1 246.816 66.4492   4
   7  -3   2-43.6534 45.7189   2
  -7   3  -2 178.601 61.7933   4
   7  -3   3 40.9212 47.1847   1
   7  -3   3 41.9352 49.5249   2
  -7   3  -3 22.1887 45.2612   4
   7  -3   4-35.9881 47.1662   1
   7  -3   4-35.3800 46.0047   2
  -7   3  -4 17.3526 47.3944   4
   7  -3   5 67.9095 48.0820   2
   7  -3   5 45.3564 49.6726   1
  -7   3  -5 51.5852 47.7766   4
   7  -3   6-48.2711 43.1500   2
   7  -3   6 92.1127 58.8633   1
  -7   3  -6 44.4083 50.6216   4
   7  -3   7 13.8628 42.3813   2
   7  -3   7 14.4025 46.6716   1
  -7   3  -7 70.7753 57.0749   4
  -7   3  -8 40.5362 46.9204   4
   7  -3   8-77.5793 57.5311   2
   7  -3   8-33.8613 52.3490   1
   7  -3   9 70.3953 54.6434   1
  -7   2   9 38.1350 49.5016   1
   7  -2  -8 57.2308 56.5530   2
  -7   2   8-36.0189 46.8145   1
   7  -2  -7 21.6689 45.7306   2
  -7   2   7-13.7757 47.4030   1
   7  -2  -6 58.8554 53.3700   2
  -7   2   6-14.7535 60.6984   1
   7  -2  -5 22.3722 48.8045   2
  -7   2   5 31.7741 42.3667   4
   7  -2  -4 321.546 76.9323   2
  -7   2   4 227.903 59.4056   4
   7  -2  -3 85.8335 52.6004   2
  -7   2   3 56.9842 43.1497   4
   7  -2  -2 236.564 66.6817   2
  -7   2   2 167.839 56.7844   4
   7  -2  -1-3.29552 39.6365   2
  -7   2   1 83.0740 75.9481   1
  -7   2   1 25.9809 37.5380   4
   7  -2   0 29.1179 40.0334   2
  -7   2   0-16.3973 35.2320   4
   7  -2   1-41.7147 42.2186   2
  -7   2  -1 3.74158 37.7888   4
   7  -2   2 220.872 63.2632   2
  -7   2  -2 95.3992 48.0072   4
   7  -2   3 351.378 73.3518   1
   7  -2   3 302.606 72.6113   2
  -7   2  -3 367.209 75.6759   4
   7  -2   4 112.774 52.0222   1
  -7   2  -4 67.7670 41.6828   4
   7  -2   5 439.934 82.2960   2
   7  -2   5 399.491 77.3803   1
  -7   2  -5 490.708 87.4792   4
   7  -2   6 61.9452 48.8838   2
   7  -2   6 78.9320 52.2713   1
  -7   2  -6 4.83890 47.7596   4
   7  -2   7 139.750 62.4722   2
   7  -2   7 90.6816 51.3565   1
  -7   2  -7 88.8875 52.4464   4
   7  -2   8 33.4207 42.3316   2
   7  -2   8-19.3245 49.8382   1
  -7   2  -8 78.3231 53.8945   4
   7  -2   9 108.762 53.5161   2
   7  -2   9 230.564 67.8035   1
  -7   2  -9 291.799 79.9427   4
   7  -2  10 1.59206 40.6238   2
   7  -2  10-12.0770 46.2891   1
  -7   1  10-25.6586 43.9154   1
   7  -1  -9 79.1243 53.9342   2
  -7   1   9-26.7022 40.8946   1
  -7   1   8 57.3969 47.1609   1
   7  -1  -8-31.3519 45.8770   2
   7  -1  -7 39.5088 49.4211   2
  -7   1   7 136.597 61.5425   1
  -7   1   7 63.2157 45.3980   4
   7  -1  -6-15.9973 47.1868   2
  -7   1   6 6.62025 41.7835   4
   7  -1  -5 152.902 58.0186   2
  -7   1   5 122.753 52.4735   4
   7  -1  -4-38.4354 49.0218   2
  -7   1   4-30.0851 37.2739   4
   7  -1  -3 86.6785 50.7452   2
  -7   1   3 29.7220 45.4145   4
   7  -1  -2 142.184 58.8536   2
  -7   1   2 138.447 52.5614   4
   7  -1  -1 113.077 53.7255   2
  -7   1   1 23.9423 49.7473   1
  -7   1   1 98.4986 48.8563   4
   7  -1   0 30.5107 41.9737   2
  -7   1   0 137.654 56.4471   4
   7  -1   1 110.758 52.4828   2
  -7   1  -1 51.0133 40.2837   4
   7  -1   2 275.348 68.4218   2
  -7   1  -2 296.649 73.0127   4
   7  -1   3 14.5191 33.5754   1
   7  -1   3-8.09547 44.6559   2
  -7   1  -3 36.4808 40.6085   4
   7  -1   4 3.58416 44.3035   1
   7  -1   4 93.2240 53.1306   2
  -7   1  -4 60.9650 51.6634   4
   7  -1   5 112.477 56.3685   2
   7  -1   5 76.6055 45.3819   1
  -7   1  -5 35.2856 43.6807   4
   7  -1   6 82.6187 52.6125   2
   7  -1   6 128.971 57.2573   1
  -7   1  -6 66.8149 50.4480   4
   7  -1   7 102.640 59.8948   2
   7  -1   7 90.1716 51.6328   1
  -7   1  -7 60.6595 50.5972   4
   7  -1   8-27.6645 42.4289   2
   7  -1   8-1.53043 39.9538   1
  -7   1  -8 62.4231 56.0976   4
   7  -1   9 32.1545 41.4724   2
   7  -1   9-37.3829 46.8875   1
  -7   1  -9 95.1710 63.9933   4
   7  -1  10 14.5584 43.2899   2
   7  -1  10 30.9460 45.4961   1
   7  -1  11 2.58164 43.0744   2
   7  -1  11-55.8414 53.4249   1
   7   0 -10 66.1462 50.4945   2
  -7   0  10 45.6015 51.3211   1
   7   0  -9 45.3727 52.1514   2
  -7   0   9-11.4084 48.1734   1
   7   0  -8 70.4656 55.7669   2
  -7   0   8-12.6685 40.4239   1
  -7   0   8 94.3835 56.4025   4
  -7   0   7-37.1527 47.0355   1
   7   0  -7-89.2937 56.1502   2
   7   0  -6 2.99978 44.0176   2
  -7   0   6-45.7322 50.3866   1
  -7   0   6-59.9376 49.6797   4
   7   0  -5 65.8484 49.4598   2
  -7   0   5 29.7847 41.0504   4
  -7   0   4 91.5130 64.9875   1
   7   0  -4-50.6546 45.5043   2
  -7   0   4 26.2551 41.3010   4
   7   0  -3-22.8403 43.7543   2
  -7   0   3 2.73249 37.2077   4
   7   0  -2 90.4753 52.5363   2
  -7   0   2 67.0949 49.4074   4
   7   0  -1 99.8580 52.9823   2
  -7   0   1 11.5224 45.5819   4
   7   0   0 57.6757 46.1872   2
  -7   0   0-58.7026 47.4807   4
   7   0   1-55.5592 47.5039   2
  -7   0  -1 2.66008 37.9304   4
   7   0   2 25.9395 40.1194   1
   7   0   2 76.9298 47.2833   2
  -7   0  -2 15.1743 42.4251   4
   7   0   3 90.4334 42.7891   1
   7   0   3-71.5055 53.3391   2
  -7   0  -3-37.1536 48.7179   4
   7   0   4 31.0299 39.1595   1
   7   0   4 105.803 52.2293   2
  -7   0  -4-2.25654 41.5099   4
   7   0   5-37.1923 46.2708   2
   7   0   5 45.4732 37.9403   1
  -7   0  -5-10.9558 38.0315   4
   7   0   6 32.7648 43.7629   2
   7   0   6 71.9377 43.9809   1
  -7   0  -6 64.0993 51.5944   4
   7   0   7-64.7484 49.0283   2
   7   0   7-7.03834 37.6332   1
  -7   0  -7-53.6636 54.0125   4
   7   0   8 171.840 64.3804   2
   7   0   8 70.2871 42.7237   1
  -7   0  -8 176.191 65.6500   4
   7   0   9 53.8559 50.3916   2
  -7   0  -9 48.1929 46.8877   4
   7   0  10-78.6378 51.7019   2
  -7   0 -10-4.43882 48.0859   4
   7   0  11 19.2702 42.6650   2
   7   0  12 50.0786 51.8474   2
   7   1 -10 68.4391 56.8236   2
  -7  -1  10 14.2713 45.0391   4
   7   1  -9-13.3395 43.4689   2
  -7  -1   9 39.2956 50.0314   4
   7   1  -8-81.2718 57.1661   2
  -7  -1   8-1.15412 43.5358   4
   7   1  -7 60.6745 49.8711   2
  -7  -1   7 14.5240 40.3081   4
   7   1  -6 125.531 56.8389   2
  -7  -1   6 36.2216 41.6628   4
   7   1  -5 70.2393 48.2114   2
  -7  -1   5 50.2025 49.9943   4
   7   1  -4 62.1715 45.8104   2
  -7  -1   4 76.0264 51.1025   4
   7   1  -3 104.234 49.5984   2
  -7  -1   3 43.3016 41.8364   4
   7   1  -2 129.568 53.1199   2
  -7  -1   2 173.695 59.6262   4
   7   1  -1 75.0248 53.9215   2
  -7  -1   1 152.570 61.3545   4
   7   1   0 146.241 53.9815   2
  -7  -1   0 198.172 62.9233   4
   7   1   1 131.788 46.6004   2
  -7  -1  -1 164.038 63.3127   4
   7   1   2-51.1591 50.8578   2
  -7  -1  -2 51.3779 47.0703   4
   7   1   3 137.744 62.9086   2
  -7  -1  -3 196.773 60.9340   4
   7   1   4-96.9422 62.3935   2
  -7  -1  -4 48.6111 48.6723   4
   7   1   5-21.6302 41.6741   2
  -7  -1  -5 60.5342 54.2329   4
   7   1   6 136.055 60.0183   2
  -7  -1  -6 94.2532 49.1288   4
   7   1   7 76.1648 53.5280   2
  -7  -1  -7-85.0666 60.4273   4
   7   1   8 32.3876 42.8390   2
  -7  -1  -8 20.4713 45.1352   4
   7   1   9 20.7155 46.8667   2
  -7  -1  -9 7.72295 43.1664   4
   7   1  10 81.1150 50.7706   2
  -7  -1 -10 81.3301 56.9158   4
   7   1  11 38.7052 53.5553   2
   7   2  -9 47.2729 51.7339   2
  -7  -2   9-22.4280 47.2708   4
   7   2  -8-43.7243 52.5443   2
  -7  -2   8 64.9271 51.4207   4
   7   2  -7 51.1309 53.2473   2
  -7  -2   7-19.7078 43.4568   4
   7   2  -6 279.917 70.3313   2
  -7  -2   6 271.138 70.5496   4
   7   2  -5 165.100 63.4669   2
  -7  -2   5 118.416 58.5315   4
   7   2  -4 257.269 65.4554   2
  -7  -2   4 250.182 73.2373   4
   7   2  -3 232.404 67.0824   2
  -7  -2   3 244.420 69.4585   4
   7   2  -2-31.5903 41.2926   2
  -7  -2   2 56.2983 44.0752   4
   7   2  -1-10.8123 43.2496   2
  -7  -2   1-32.7245 44.7425   4
   7   2   0 87.9644 57.4533   2
  -7  -2   0-27.8052 47.6374   4
   7   2   1 240.446 74.0248   2
  -7  -2  -1 272.967 68.0719   4
   7   2   2 0.32384 41.7301   2
  -7  -2  -2 20.0241 45.8483   4
   7   2   3 510.042 93.3074   2
  -7  -2  -3 257.389 63.8526   4
   7   2   4 20.7185 49.4552   2
  -7  -2  -4 72.7985 50.1827   4
   7   2   5-62.7784 59.4122   2
  -7  -2  -5-22.5555 40.5099   4
   7   2   6 98.2507 54.6892   2
  -7  -2  -6-7.73988 43.3585   4
   7   2   7 41.2840 48.6112   2
  -7  -2  -7-10.1487 46.6473   4
   7   2   8 29.8930 45.2718   2
  -7  -2  -8-34.2018 46.7010   4
   7   2   9 31.8906 43.4075   2
  -7  -2  -9 86.8555 63.0268   4
   7   2  10 62.0056 50.4393   2
  -7  -2 -10 16.2814 43.9940   4
   7   3  -9 79.7837 58.3300   3
   7   3  -8 24.3431 42.1138   3
   7   3  -7 67.8696 49.2910   2
   7   3  -7 25.5750 39.0032   3
  -7  -3   7-25.5013 48.3252   4
   7   3  -6 64.6669 52.2169   2
   7   3  -6 12.2519 39.3883   3
  -7  -3   6-3.25003 44.2130   4
   7   3  -5 22.2803 40.0428   2
   7   3  -5-7.98004 38.7870   3
  -7  -3   5 2.60269 47.7736   4
   7   3  -4-22.7008 52.3598   2
   7   3  -4-20.4830 38.5371   3
  -7  -3   4 57.0813 44.3671   4
   7   3  -3 38.4733 46.6366   2
   7   3  -3 32.2916 34.2385   3
  -7  -3   3 41.9475 44.2601   4
   7   3  -2 53.2071 47.2957   2
   7   3  -2 122.788 46.3986   3
  -7  -3   2 66.8821 50.2868   4
   7   3  -1 43.9257 53.2508   2
   7   3  -1 30.2993 38.0837   3
  -7  -3   1 8.93477 47.9912   4
   7   3   0 8.31307 42.2353   2
   7   3   0 57.7488 36.6373   3
  -7  -3   0-42.1675 49.0068   4
   7   3   1 42.3930 50.3110   2
   7   3   1 40.8531 38.7505   3
  -7  -3  -1 65.7349 52.7796   4
  -7  -3  -2 41.9551 40.1741   3
   7   3   2-5.82728 37.4147   2
  -7  -3  -2 13.9363 48.0101   4
   7   3   3-94.7650 54.6005   2
  -7  -3  -3 8.72922 42.4514   4
   7   3   4-62.7935 49.1243   2
  -7  -3  -4 9.69638 46.3365   4
   7   3   5-10.5168 43.9468   2
  -7  -3  -5 102.866 56.7063   4
   7   3   6-3.99960 49.6327   2
  -7  -3  -6 191.317 63.7027   4
   7   3   7-7.78897 43.9120   2
  -7  -3  -7-49.9094 51.4620   4
   7   3   8 6.36158 46.7926   2
  -7  -3  -8 99.6425 56.6149   4
   7   3   9 131.134 60.6106   2
  -7  -3  -9 44.4510 50.3139   4
  -7  -3 -10-9.54828 47.0260   4
   7   4  -7 176.394 65.9023   3
   7   4  -6 71.5610 51.9166   3
   7   4  -5 192.046 64.1183   2
   7   4  -5 205.224 63.0118   3
  -7  -4   5 157.063 66.0649   4
   7   4  -4 199.715 68.4773   2
   7   4  -4 193.027 69.8093   3
  -7  -4   4 135.004 61.7032   4
   7   4  -3-5.08468 41.2966   2
   7   4  -3 24.9834 40.3378   3
  -7  -4   3 74.7531 52.0546   4
   7   4  -2 2.58868 46.1148   2
   7   4  -2-4.91656 36.3967   3
  -7  -4   2 73.7075 58.7124   4
   7   4  -1 0.20334 40.3394   2
   7   4  -1 110.201 49.4122   3
  -7  -4   1 38.3511 48.0973   4
   7   4   0 247.249 70.1861   2
   7   4   0 216.385 56.2360   3
  -7  -4   0 163.506 66.4786   4
   7   4   1-0.81085 39.1478   2
   7   4   1-24.3533 40.9783   3
  -7  -4  -1 66.7103 50.5129   4
  -7  -4  -2 774.967 98.0954   3
  -7  -4  -2 681.973 103.288   4
   7   4   2 667.704 97.8177   2
  -7  -4  -3 69.7039 46.2051   3
   7   4   3 34.9387 46.3036   2
  -7  -4  -3 144.016 63.3878   4
  -7  -4  -4 57.8396 45.2460   3
   7   4   4 122.344 64.6959   2
  -7  -4  -4 63.6888 53.5498   4
  -7  -4  -5 30.7775 40.1805   3
   7   4   5-18.6034 41.2102   2
  -7  -4  -5 18.4181 48.6683   4
  -7  -4  -6 300.453 70.1239   3
   7   4   6 204.662 66.8265   2
  -7  -4  -6 332.168 80.1357   4
  -7  -4  -7 4.89284 40.6917   3
   7   4   7-23.8587 50.3291   2
  -7  -4  -7-25.9004 43.9588   4
  -7  -4  -8 31.6298 46.2791   4
  -7  -4  -9 54.1328 49.2652   4
   7   5  -5 77.4020 57.8250   3
   7   5  -4-9.04475 42.4648   2
   7   5  -4 31.7563 45.5714   3
   7   5  -3 98.8085 47.1427   2
   7   5  -3 36.2343 44.9689   3
   7   5  -2 60.6656 47.0066   2
   7   5  -2 18.7544 41.5113   3
  -7  -5   2 81.3080 58.4566   4
   7   5  -1 22.9935 43.7688   2
   7   5  -1 14.6252 42.6688   3
  -7  -5   1 11.0825 48.9712   4
   7   5   0-42.3093 51.1666   2
   7   5   0 42.9851 48.0354   3
  -7  -5   0 116.927 64.3547   4
   7   5   1 71.9662 51.6218   2
   7   5   1 88.4611 54.1507   3
  -7  -5  -1 203.943 70.2770   4
  -7  -5  -2-60.2714 50.7053   3
   7   5   2 25.0874 41.8805   2
  -7  -5  -2-81.5808 59.1614   4
  -7  -5  -3 9.59633 38.8443   3
   7   5   3 26.1875 46.1948   2
  -7  -5  -3-76.2579 56.1919   4
  -7  -5  -4 12.3156 43.8138   3
   7   5   4 48.1807 49.8073   2
  -7  -5  -4 81.1656 60.0421   4
  -7  -5  -5 9.83273 43.2040   3
   7   5   5 49.7293 54.0152   2
  -7  -5  -5-65.4585 52.9850   4
  -7  -5  -6 63.9078 54.5344   3
  -7  -5  -6 43.9408 47.5997   4
  -7  -5  -7 12.1729 43.7417   3
  -7  -5  -7 122.517 63.1389   4
  -7  -5  -8 61.8226 52.0818   3
  -7  -5  -8 97.6931 60.0949   4
   7   6  -2 47.9449 52.0697   2
   7   6  -1 105.668 51.6816   2
   7   6   0 30.9564 46.1454   2
   7   6   0 17.6919 47.7225   3
   7   6   1 221.863 70.4338   2
  -7  -6  -2 288.117 79.5439   3
   7   6   2 58.6808 54.8656   2
  -7  -6  -3 16.9762 47.3251   3
  -7  -6  -4-47.8660 49.9375   3
  -8   3   1 27.3581 43.4983   4
  -8   3   0 106.049 65.1502   4
  -8   3  -1-42.4164 53.6257   4
  -8   2   3-114.092 63.7659   4
  -8   2   2 41.2715 47.3578   4
  -8   2   1-33.6237 44.7563   4
  -8   2   0 14.7421 49.7077   4
  -8   2  -1 47.0948 50.8486   4
   8  -2   2-49.0309 51.9745   1
  -8   2  -2 56.1527 57.8460   4
   8  -2   3-51.3984 54.9520   1
   8  -2   4-36.3883 44.4041   1
   8  -2   5 198.544 70.8861   1
   8  -2   6-40.4479 50.5023   1
  -8   1   5 76.2827 53.2174   4
  -8   1   4-20.8537 47.6977   4
  -8   1   3 144.888 64.6625   4
  -8   1   2 11.1154 42.5075   4
  -8   1   1-62.0212 54.7043   4
  -8   1   0-34.2661 52.8048   4
   8  -1   1-26.7274 47.0559   1
   8  -1   1-32.2836 45.9017   2
  -8   1  -1-10.5063 42.6603   4
   8  -1   2 57.6549 46.4015   1
   8  -1   2 42.1125 52.2695   2
  -8   1  -2 103.122 55.6033   4
   8  -1   3 21.4327 41.6867   1
   8  -1   3 0.11912 50.1716   2
  -8   1  -3 28.9017 44.9159   4
   8  -1   4 237.964 69.6760   1
  -8   0   5 271.660 78.4351   4
  -8   0   4 27.8179 49.1095   4
  -8   0   3 128.722 60.8409   4
  -8   0   2 8.60166 50.5939   4
   8   0  -1 76.7765 53.9471   2
  -8   0   1 104.001 59.8135   4
   8   0   0 0.35794 43.5221   2
  -8   0   0 44.1161 45.0868   4
   8   0   1 61.3386 56.3306   2
  -8   0  -1 15.3236 50.1999   4
   8   0   2 47.7018 54.3307   2
  -8   0  -2 94.4810 56.4253   4
   8   0   3 168.707 64.3764   2
  -8   0  -3 148.682 65.9493   4
  -8  -1   3 62.6518 54.0053   4
  -8  -1   2 150.434 66.5156   4
   8   1  -1-40.7981 59.3219   2
  -8  -1   1 61.8206 57.5915   4
   8   1   0-59.6384 60.7343   2
  -8  -1   0 90.0301 55.6332   4
   8   1   1 81.9953 57.7761   2
  -8  -1  -1 49.9819 56.6793   4
   8   1   2-1.25871 51.1850   2
  -8  -1  -2 83.7926 52.9426   4
   0   0   0    0.00    0.00   0

TITL BiAz2_rt in P-1
REM P-1 (#2 in standard setting)
CELL 0.71073   5.945725   7.881485  14.082189  86.6839  87.0899  88.8482
ZERR    3.00   0.000344   0.000462   0.000793   0.0047   0.0046   0.0047
LATT  1
SFAC C H N O
UNIT 33.00 30.00 3.00 3.00
TREF
HKLF 4
END
;
_shelx_hkl_checksum              31019
loop_
_space_group_symop_operation_xyz
'x, y, z'
'-x, -y, -z'
loop_
_atom_site_label
_atom_site_type_symbol
_atom_site_fract_x
_atom_site_fract_y
_atom_site_fract_z
_atom_site_U_iso_or_equiv
_atom_site_adp_type
_atom_site_occupancy
_atom_site_site_symmetry_order
_atom_site_calc_flag
_atom_site_refinement_flags_posn
_atom_site_refinement_flags_adp
C1 C 0.0034(3) 0.0244(2) 0.54836(13) 0.0479(5) Uani 1 1 d . .
C2 C -0.1616(3) -0.0086(2) 0.62186(14) 0.0518(5) Uani 1 1 d . .
H2 H -0.2955 -0.0648 0.6152 0.062 Uiso 1 1 calc R U
C3 C -0.0960(3) 0.0543(2) 0.70502(14) 0.0474(5) Uani 1 1 d . .
C4 C -0.2094(3) 0.0415(2) 0.79318(15) 0.0546(5) Uani 1 1 d . .
H4 H -0.3477 -0.0119 0.7945 0.066 Uiso 1 1 calc R U
C5 C -0.1490(4) 0.0958(3) 0.87938(15) 0.0627(6) Uani 1 1 d . .
H5 H -0.2499 0.0721 0.9308 0.075 Uiso 1 1 calc R U
C6 C 0.0437(4) 0.1817(3) 0.89942(16) 0.0643(6) Uani 1 1 d . .
H6 H 0.0530 0.2076 0.9627 0.077 Uiso 1 1 calc R U
C7 C 0.2224(4) 0.2339(3) 0.83972(15) 0.0599(6) Uani 1 1 d . .
H7 H 0.3338 0.2916 0.8681 0.072 Uiso 1 1 calc R U
C8 C 0.2594(3) 0.2127(2) 0.74365(15) 0.0544(5) Uani 1 1 d . .
H8 H 0.3928 0.2573 0.7165 0.065 Uiso 1 1 calc R U
C9 C 0.1260(3) 0.1345(2) 0.68191(14) 0.0467(5) Uani 1 1 d . .
C10 C 0.1757(3) 0.1133(2) 0.58680(14) 0.0505(5) Uani 1 1 d . .
H10 H 0.3047 0.1522 0.5530 0.061 Uiso 1 1 calc R U
C11 C 0.5049(3) 0.5244(2) 0.54842(13) 0.0488(5) Uani 1 1 d . .
C12 C 0.3383(3) 0.6180(2) 0.59846(14) 0.0527(5) Uani 1 1 d . .
H12 H 0.2056 0.6612 0.5736 0.063 Uiso 1 1 calc R U
C13 C 0.4024(3) 0.6359(2) 0.69016(14) 0.0473(5) Uani 1 1 d . .
C14 C 0.2777(3) 0.7158(2) 0.76115(15) 0.0559(5) Uani 1 1 d . .
H14 H 0.1422 0.7656 0.7430 0.067 Uiso 1 1 calc R U
C15 C 0.3264(4) 0.7316(3) 0.85461(16) 0.0628(6) Uani 1 1 d . .
H15 H 0.2198 0.7912 0.8908 0.075 Uiso 1 1 calc R U
C16 C 0.5122(4) 0.6710(3) 0.90212(16) 0.0664(6) Uani 1 1 d . .
H16 H 0.5105 0.6931 0.9663 0.080 Uiso 1 1 calc R U
C17 C 0.7004(4) 0.5825(3) 0.86843(16) 0.0645(6) Uani 1 1 d . .
H17 H 0.8074 0.5544 0.9129 0.077 Uiso 1 1 calc R U
C18 C 0.7505(3) 0.5305(2) 0.77808(15) 0.0558(5) Uani 1 1 d . .
H18 H 0.8886 0.4744 0.7697 0.067 Uiso 1 1 calc R U
C19 C 0.6254(3) 0.5495(2) 0.69788(14) 0.0482(5) Uani 1 1 d . .
C20 C 0.6799(3) 0.4861(2) 0.60983(14) 0.0510(5) Uani 1 1 d . .
H20 H 0.8122 0.4271 0.5938 0.061 Uiso 1 1 calc R U
loop_
_atom_site_aniso_label
_atom_site_aniso_U_11
_atom_site_aniso_U_22
_atom_site_aniso_U_33
_atom_site_aniso_U_23
_atom_site_aniso_U_13
_atom_site_aniso_U_12
C1 0.0473(11) 0.0400(10) 0.0559(11) 0.0034(8) -0.0052(9) 0.0007(8)
C2 0.0430(11) 0.0458(11) 0.0664(14) 0.0018(9) -0.0060(9) -0.0038(9)
C3 0.0431(10) 0.0397(10) 0.0588(12) 0.0030(9) -0.0036(9) 0.0035(8)
C4 0.0491(12) 0.0504(12) 0.0631(14) 0.0035(10) 0.0006(9) 0.0019(9)
C5 0.0633(14) 0.0648(14) 0.0581(14) 0.0037(11) 0.0059(10) 0.0039(11)
C6 0.0725(15) 0.0622(14) 0.0583(14) -0.0046(11) -0.0080(11) 0.0096(11)
C7 0.0633(14) 0.0543(13) 0.0635(15) -0.0062(10) -0.0135(10) -0.0001(10)
C8 0.0498(12) 0.0474(11) 0.0658(14) -0.0005(10) -0.0048(9) -0.0035(9)
C9 0.0447(11) 0.0385(10) 0.0569(13) 0.0003(9) -0.0052(9) 0.0014(8)
C10 0.0440(11) 0.0467(11) 0.0604(13) 0.0018(9) -0.0020(9) -0.0056(9)
C11 0.0479(11) 0.0410(10) 0.0562(11) 0.0061(9) 0.0000(9) -0.0016(9)
C12 0.0483(12) 0.0468(11) 0.0623(14) 0.0042(9) -0.0058(9) 0.0055(9)
C13 0.0436(11) 0.0409(10) 0.0565(12) 0.0032(9) 0.0000(8) -0.0012(8)
C14 0.0517(12) 0.0451(11) 0.0700(15) -0.0034(10) 0.0052(10) 0.0005(9)
C15 0.0678(15) 0.0533(13) 0.0665(15) -0.0084(10) 0.0091(11) -0.0016(11)
C16 0.0776(16) 0.0614(14) 0.0601(14) -0.0047(11) -0.0001(12) -0.0053(12)
C17 0.0719(15) 0.0588(13) 0.0638(15) 0.0015(11) -0.0183(11) -0.0043(11)
C18 0.0505(12) 0.0517(12) 0.0652(14) 0.0023(10) -0.0089(10) -0.0012(9)
C19 0.0456(11) 0.0401(10) 0.0584(13) 0.0027(9) -0.0024(9) -0.0038(8)
C20 0.0432(11) 0.0473(11) 0.0616(13) 0.0027(9) 0.0003(9) 0.0011(8)
loop_
_atom_type_symbol
_atom_type_description
_atom_type_scat_dispersion_real
_atom_type_scat_dispersion_imag
_atom_type_scat_source
C C 0.0033 0.0016 'International Tables Vol C Tables 4.2.6.8 and 6.1.1.4'
H H 0.0000 0.0000 'International Tables Vol C Tables 4.2.6.8 and 6.1.1.4'
loop_
_geom_angle_atom_site_label_1
_geom_angle_atom_site_label_2
_geom_angle_atom_site_label_3
_geom_angle
_geom_angle_site_symmetry_3
C10 C1 C2 107.29(17) .
C10 C1 C1 126.4(2) 2_556
C2 C1 C1 126.3(2) 2_556
C3 C2 C1 110.03(17) .
C3 C2 H2 125.0 .
C1 C2 H2 125.0 .
C2 C3 C4 127.10(18) .
C2 C3 C9 106.21(17) .
C4 C3 C9 126.67(18) .
C5 C4 C3 129.9(2) .
C5 C4 H4 115.1 .
C3 C4 H4 115.1 .
C4 C5 C6 128.4(2) .
C4 C5 H5 115.8 .
C6 C5 H5 115.8 .
C7 C6 C5 129.7(2) .
C7 C6 H6 115.1 .
C5 C6 H6 115.1 .
C6 C7 C8 129.0(2) .
C6 C7 H7 115.5 .
C8 C7 H7 115.5 .
C7 C8 C9 129.22(19) .
C7 C8 H8 115.4 .
C9 C8 H8 115.4 .
C10 C9 C8 126.37(18) .
C10 C9 C3 106.44(16) .
C8 C9 C3 127.19(18) .
C9 C10 C1 110.02(16) .
C9 C10 H10 125.0 .
C1 C10 H10 125.0 .
C20 C11 C12 107.80(18) .
C20 C11 C11 126.4(2) 2_666
C12 C11 C11 125.8(2) 2_666
C13 C12 C11 109.50(17) .
C13 C12 H12 125.2 .
C11 C12 H12 125.2 .
C12 C13 C14 125.99(19) .
C12 C13 C19 106.66(17) .
C14 C13 C19 127.33(19) .
C15 C14 C13 129.1(2) .
C15 C14 H14 115.5 .
C13 C14 H14 115.5 .
C14 C15 C16 128.8(2) .
C14 C15 H15 115.6 .
C16 C15 H15 115.6 .
C15 C16 C17 129.7(2) .
C15 C16 H16 115.2 .
C17 C16 H16 115.2 .
C18 C17 C16 128.8(2) .
C18 C17 H17 115.6 .
C16 C17 H17 115.6 .
C17 C18 C19 129.4(2) .
C17 C18 H18 115.3 .
C19 C18 H18 115.3 .
C18 C19 C20 126.67(19) .
C18 C19 C13 126.86(19) .
C20 C19 C13 106.44(16) .
C19 C20 C11 109.59(17) .
C19 C20 H20 125.2 .
C11 C20 H20 125.2 .
loop_
_geom_bond_atom_site_label_1
_geom_bond_atom_site_label_2
_geom_bond_distance
_geom_bond_site_symmetry_2
C1 C10 1.401(2) .
C1 C2 1.406(3) .
C1 C1 1.439(4) 2_556
C2 C3 1.375(3) .
C2 H2 0.9300 .
C3 C4 1.382(3) .
C3 C9 1.488(2) .
C4 C5 1.377(3) .
C4 H4 0.9300 .
C5 C6 1.391(3) .
C5 H5 0.9300 .
C6 C7 1.376(3) .
C6 H6 0.9300 .
C7 C8 1.379(3) .
C7 H7 0.9300 .
C8 C9 1.384(3) .
C8 H8 0.9300 .
C9 C10 1.376(3) .
C10 H10 0.9300 .
C11 C20 1.404(3) .
C11 C12 1.408(3) .
C11 C11 1.442(4) 2_666
C12 C13 1.381(3) .
C12 H12 0.9300 .
C13 C14 1.387(3) .
C13 C19 1.484(3) .
C14 C15 1.375(3) .
C14 H14 0.9300 .
C15 C16 1.383(3) .
C15 H15 0.9300 .
C16 C17 1.385(3) .
C16 H16 0.9300 .
C17 C18 1.376(3) .
C17 H17 0.9300 .
C18 C19 1.383(3) .
C18 H18 0.9300 .
C19 C20 1.384(3) .
C20 H20 0.9300 .
loop_
_geom_torsion_atom_site_label_1
_geom_torsion_atom_site_label_2
_geom_torsion_atom_site_label_3
_geom_torsion_atom_site_label_4
_geom_torsion
_geom_torsion_site_symmetry_1
C10 C1 C2 C3 -1.0(2) .
C1 C1 C2 C3 178.9(2) 2_556
C1 C2 C3 C4 -177.67(17) .
C1 C2 C3 C9 0.6(2) .
C2 C3 C4 C5 177.3(2) .
C9 C3 C4 C5 -0.6(3) .
C3 C4 C5 C6 1.3(4) .
C4 C5 C6 C7 -0.2(4) .
C5 C6 C7 C8 -1.0(4) .
C6 C7 C8 C9 0.5(4) .
C7 C8 C9 C10 -178.07(19) .
C7 C8 C9 C3 0.8(3) .
C2 C3 C9 C10 0.0(2) .
C4 C3 C9 C10 178.28(18) .
C2 C3 C9 C8 -179.01(18) .
C4 C3 C9 C8 -0.7(3) .
C8 C9 C10 C1 178.42(17) .
C3 C9 C10 C1 -0.6(2) .
C2 C1 C10 C9 1.0(2) .
C1 C1 C10 C9 -178.9(2) 2_556
C20 C11 C12 C13 -1.4(2) .
C11 C11 C12 C13 178.1(2) 2_666
C11 C12 C13 C14 -177.79(17) .
C11 C12 C13 C19 0.7(2) .
C12 C13 C14 C15 176.85(19) .
C19 C13 C14 C15 -1.4(3) .
C13 C14 C15 C16 -0.4(4) .
C14 C15 C16 C17 1.7(4) .
C15 C16 C17 C18 -0.5(4) .
C16 C17 C18 C19 -1.5(4) .
C17 C18 C19 C20 -176.3(2) .
C17 C18 C19 C13 1.2(3) .
C12 C13 C19 C18 -177.67(18) .
C14 C13 C19 C18 0.8(3) .
C12 C13 C19 C20 0.2(2) .
C14 C13 C19 C20 178.65(17) .
C18 C19 C20 C11 176.84(18) .
C13 C19 C20 C11 -1.0(2) .
C12 C11 C20 C19 1.5(2) .
C11 C11 C20 C19 -178.0(2) 2_666
