#------------------------------------------------------------------------------
#$Date: 2020-03-05 11:42:52 +0200 (Thu, 05 Mar 2020) $
#$Revision: 249077 $
#$URL: file:///home/coder/svn-repositories/cod/cif/1/55/74/1557484.cif $
#------------------------------------------------------------------------------
#
# This file is available in the Crystallography Open Database (COD),
# http://www.crystallography.net/. The original data for this entry
# were provided by IUCr Journals, http://journals.iucr.org/.
#
# The file may be used within the scientific community so long as
# proper attribution is given to the journal article from which the
# data were obtained.
#
data_1557484
loop_
_publ_author_name
'Ranjan, Subham'
'Devarapalli, Ramesh'
'Kundu, Sudeshna'
'Saha, Subhankar'
'Deolka, Shubham'
'Vangala, Venu R.'
'Reddy, C. Malla'
_publ_section_title
;
 Isomorphism: `molecular similarity to crystal structure similarity' in
 multicomponent forms of analgesic drugs tolfenamic and mefenamic acid
;
_journal_issue                   2
_journal_name_full               IUCrJ
_journal_page_first              173
_journal_page_last               183
_journal_paper_doi               10.1107/S205225251901604X
_journal_volume                  7
_journal_year                    2020
_chemical_formula_moiety         'C14 H12 Cl N O2'
_chemical_formula_sum            'C14 H12 Cl N O2'
_chemical_formula_weight         261.70
_space_group_crystal_system      triclinic
_space_group_IT_number           2
_space_group_name_Hall           '-P 1'
_space_group_name_H-M_alt        'P -1'
_atom_sites_solution_hydrogens   mixed
_atom_sites_solution_primary     dual
_audit_creation_date             2019-10-09
_audit_creation_method
;
Olex2 1.3
(compiled 2019.09.11 svn.r3662 for OlexSys, GUI svn.r5938)
;
_cell_angle_alpha                77.167(4)
_cell_angle_beta                 79.908(3)
_cell_angle_gamma                65.487(4)
_cell_formula_units_Z            2
_cell_length_a                   6.7049(3)
_cell_length_b                   7.2778(3)
_cell_length_c                   14.1630(6)
_cell_measurement_reflns_used    6423
_cell_measurement_temperature    100.00(10)
_cell_measurement_theta_max      26.4300
_cell_measurement_theta_min      2.9290
_cell_volume                     610.42(5)
_computing_cell_refinement       'CrysAlisPro 1.171.38.43 (Rigaku OD, 2015)'
_computing_data_collection       'CrysAlisPro 1.171.38.43 (Rigaku OD, 2015)'
_computing_data_reduction        'CrysAlisPro 1.171.38.43 (Rigaku OD, 2015)'
_computing_molecular_graphics    'Olex2 1.3 (Dolomanov et al., 2009)'
_computing_publication_material  'Olex2 1.3 (Dolomanov et al., 2009)'
_computing_structure_refinement  'ShelXL 2018/3 (Sheldrick, 2015)'
_computing_structure_solution    'SHELXT 2014/4 (Sheldrick, 2014)'
_diffrn_ambient_environment      N~2~
_diffrn_ambient_temperature      100.00(10)
_diffrn_detector                 'CCD plate'
_diffrn_detector_area_resol_mean 7.9580
_diffrn_detector_type            Eos
_diffrn_measured_fraction_theta_full 0.995
_diffrn_measured_fraction_theta_max 0.995
_diffrn_measurement_details
;
List of Runs (angles in degrees, time in seconds):

  # Type    Start    End  Width  t~exp~   \w     \q     \k     \f   Frames
--------------------------------------------------------------------------
  1  \w     -9.00 105.00   1.00   10.00    --   29.32  57.00 120.00  114
  2  \w     35.00 124.00   1.00   10.00    --   29.32 178.00  30.00   89
  3  \w    -14.00 114.00   1.00   10.00    --   29.32  77.00-150.00  128
  4  \w    -14.00 114.00   1.00   10.00    --   29.32  77.00 -30.00  128
  5  \w    -55.00  73.00   1.00   10.00    --   29.32 -77.00  90.00  128
  6  \w     35.00 124.00   1.00   10.00    --   29.32 178.00 120.00   89
  7  \w    -31.00  26.00   1.00   10.00    --  -23.50 -90.00 -53.00   57
  8  \w    -55.00 116.00   1.00   10.00    --   29.32  19.00-180.00  171
  9  \w     -9.00 105.00   1.00   10.00    --   29.32  57.00 -90.00  114
 10  \w    -47.00  67.00   1.00   10.00    --   29.32 -57.00 -90.00  114
 11  \w    -52.00  85.00   1.00   10.00    --   29.32 -38.00 120.00  137
 12  \w     -9.00  21.00   1.00   10.00    --   29.32  57.00-150.00   30
 13  \w    -14.00 114.00   1.00   10.00    --   29.32  77.00  90.00  128
;
_diffrn_measurement_device       'four-circle diffractometer'
_diffrn_measurement_device_type  'SuperNova, Dual, Cu at zero, Eos'
_diffrn_measurement_method       '\w scans'
_diffrn_orient_matrix_type
'CrysAlisPro convention (1999,Acta A55,543-557)'
_diffrn_orient_matrix_UB_11      0.0569663000
_diffrn_orient_matrix_UB_12      -0.0103875000
_diffrn_orient_matrix_UB_13      -0.0469491000
_diffrn_orient_matrix_UB_21      0.0084794000
_diffrn_orient_matrix_UB_22      0.0953342000
_diffrn_orient_matrix_UB_23      -0.0036364000
_diffrn_orient_matrix_UB_31      0.1015917000
_diffrn_orient_matrix_UB_32      -0.0510437000
_diffrn_orient_matrix_UB_33      0.0210758000
_diffrn_radiation_monochromator  mirror
_diffrn_radiation_probe          x-ray
_diffrn_radiation_type           'Mo K\a'
_diffrn_radiation_wavelength     0.71073
_diffrn_reflns_av_R_equivalents  0.0314
_diffrn_reflns_av_unetI/netI     0.0198
_diffrn_reflns_Laue_measured_fraction_full 0.995
_diffrn_reflns_Laue_measured_fraction_max 0.995
_diffrn_reflns_limit_h_max       7
_diffrn_reflns_limit_h_min       -7
_diffrn_reflns_limit_k_max       8
_diffrn_reflns_limit_k_min       -8
_diffrn_reflns_limit_l_max       16
_diffrn_reflns_limit_l_min       -16
_diffrn_reflns_number            11414
_diffrn_reflns_point_group_measured_fraction_full 0.995
_diffrn_reflns_point_group_measured_fraction_max 0.995
_diffrn_reflns_theta_full        25.027
_diffrn_reflns_theta_max         25.027
_diffrn_reflns_theta_min         2.963
_diffrn_source                   'micro-focus sealed X-ray tube'
_diffrn_source_type              'SuperNova (Mo) X-ray Source'
_exptl_absorpt_coefficient_mu    0.305
_exptl_absorpt_correction_T_max  1.00000
_exptl_absorpt_correction_T_min  0.37641
_exptl_absorpt_correction_type   multi-scan
_exptl_absorpt_process_details
;
CrysAlisPro 1.171.38.43 (Rigaku Oxford Diffraction, 2015)
Empirical absorption correction using spherical harmonics,
 implemented in SCALE3 ABSPACK scaling algorithm.
;
_exptl_crystal_colour            colourless
_exptl_crystal_colour_primary    colourless
_exptl_crystal_density_diffrn    1.424
_exptl_crystal_description       plate
_exptl_crystal_F_000             272
_exptl_crystal_size_max          0.6
_exptl_crystal_size_mid          0.3
_exptl_crystal_size_min          0.2
_refine_diff_density_max         0.406
_refine_diff_density_min         -1.389
_refine_diff_density_rms         0.096
_refine_ls_extinction_method     none
_refine_ls_goodness_of_fit_ref   1.060
_refine_ls_hydrogen_treatment    constr
_refine_ls_matrix_type           full
_refine_ls_number_parameters     168
_refine_ls_number_reflns         2133
_refine_ls_number_restraints     1
_refine_ls_restrained_S_all      1.060
_refine_ls_R_factor_all          0.0842
_refine_ls_R_factor_gt           0.0792
_refine_ls_shift/su_max          0.000
_refine_ls_shift/su_mean         0.000
_refine_ls_structure_factor_coef Fsqd
_refine_ls_weighting_details
'w=1/[\s^2^(Fo^2^)+(0.1132P)^2^+1.7122P] where P=(Fo^2^+2Fc^2^)/3'
_refine_ls_weighting_scheme      calc
_refine_ls_wR_factor_gt          0.2157
_refine_ls_wR_factor_ref         0.2204
_reflns_Friedel_coverage         0.000
_reflns_number_gt                1931
_reflns_number_total             2133
_reflns_threshold_expression     'I > 2\s(I)'
_iucr_refine_instructions_details
;
TITL tfa_form-vi_a.res in P-1
    tfa_form-vi.res
    created by SHELXL-2018/3 at 23:02:12 on 09-Oct-2019
REM Old TITL tfa_form-vi_a.res in P-1
REM SHELXT solution in P-1
REM R1 0.230, Rweak 0.013, Alpha 0.044, Orientation as input
REM Formula found by SHELXT: C14 Cl N O2
CELL 0.71073 6.7049 7.2778 14.163 77.167 79.908 65.487
ZERR 2 0.0003 0.0003 0.0006 0.004 0.003 0.004
LATT 1
SFAC C H Cl N O
UNIT 28 24 2 2 4
DFIX 0.87 N1 H1a

L.S. 10
PLAN  5
SIZE 0.2 0.3 0.6
CONF
BOND $H
list 4
MORE -1
fmap 2
acta
SHEL 100 0.84
OMIT -1 1 0
OMIT 0 -3 3
OMIT -1 3 3
OMIT 0 3 3
OMIT 0 0 6
OMIT 3 6 9
OMIT 3 3 12
OMIT 3 6 12
OMIT 2 -1 2
REM <olex2.extras>
REM <HklSrc "%.\\TFA_Form-VI.hkl">
REM </olex2.extras>

WGHT    0.113200    1.712200
FVAR       0.83087
CL1   3    0.189732    1.265158    0.484616    11.00000    0.10099    0.07181 =
         0.04035   -0.00762   -0.01072    0.03161
O1    5    0.275300    0.291176    1.004334    11.00000    0.01243    0.01645 =
         0.02315    0.00024    0.00079   -0.00449
AFIX 147
H1    2    0.146287    0.323866    1.026784    11.00000   -1.50000
AFIX   0
O2    5    0.134452    0.601678    0.915692    11.00000    0.01221    0.01570 =
         0.02280   -0.00080   -0.00139   -0.00390
N1    4    0.402929    0.744427    0.794628    11.00000    0.01069    0.01398 =
         0.02572    0.00102    0.00119   -0.00289
AFIX   2
H1A   2    0.272964    0.749678    0.816604    11.00000   -1.20000
AFIX   0
C1    1    0.296141    0.442621    0.938300    11.00000    0.01556    0.01409 =
         0.01575   -0.00407   -0.00352   -0.00574
C2    1    0.520840    0.408255    0.894007    11.00000    0.01354    0.01278 =
         0.01674   -0.00481   -0.00239   -0.00402
C3    1    0.693107    0.219426    0.921981    11.00000    0.01730    0.01452 =
         0.01560   -0.00235   -0.00226   -0.00319
AFIX  43
H3    2    0.662320    0.119839    0.968388    11.00000   -1.20000
AFIX   0
C4    1    0.906388    0.179485    0.881877    11.00000    0.01406    0.01638 =
         0.02179   -0.00434   -0.00352    0.00151
AFIX  43
H4    2    1.018891    0.054134    0.900907    11.00000   -1.20000
AFIX   0
C5    1    0.951242    0.328685    0.812714    11.00000    0.01202    0.02225 =
         0.01830   -0.00801    0.00085   -0.00493
AFIX  43
H5    2    1.095154    0.302015    0.785483    11.00000   -1.20000
AFIX   0
C6    1    0.787367    0.515375    0.783506    11.00000    0.01553    0.01608 =
         0.01769   -0.00447    0.00097   -0.00654
AFIX  43
H6    2    0.821793    0.612520    0.736797    11.00000   -1.20000
AFIX   0
C7    1    0.567416    0.560680    0.823851    11.00000    0.01470    0.01309 =
         0.01601   -0.00526   -0.00221   -0.00393
C8    1    0.425630    0.912798    0.728848    11.00000    0.01524    0.01215 =
         0.01753   -0.00496    0.00506   -0.00106
C9    1    0.308843    0.986801    0.646358    11.00000    0.01787    0.01991 =
         0.01935   -0.00676    0.00134    0.00580
C10   1    0.322104    1.161063    0.586159    11.00000    0.03705    0.01749 =
         0.02226   -0.00634    0.00964    0.00688
C11   1    0.445764    1.255280    0.605992    11.00000    0.05172    0.01343 =
         0.03006   -0.00254    0.02467   -0.00038
AFIX  43
H11   2    0.451334    1.371880    0.564411    11.00000   -1.20000
AFIX   0
C12   1    0.562656    1.178901    0.687282    11.00000    0.03681    0.01895 =
         0.04148   -0.01502    0.01975   -0.01454
AFIX  43
H12   2    0.647623    1.242863    0.699809    11.00000   -1.20000
AFIX   0
C13   1    0.552154    1.006730    0.749747    11.00000    0.02114    0.01977 =
         0.02445   -0.00855    0.00562   -0.00615
AFIX  43
H13   2    0.628654    0.954618    0.804919    11.00000   -1.20000
AFIX   0
C14   1    0.179526    0.879151    0.623600    11.00000    0.02281    0.04059 =
         0.03400   -0.01448   -0.00892   -0.00039
AFIX 137
H14A  2    0.233774    0.739617    0.656296    11.00000   -1.50000
H14B  2    0.194903    0.881956    0.554676    11.00000   -1.50000
H14C  2    0.027015    0.946879    0.645243    11.00000   -1.50000
AFIX   0
HKLF 4




REM  tfa_form-vi_a.res in P-1
REM wR2 = 0.2204, GooF = S = 1.060, Restrained GooF = 1.060 for all data
REM R1 = 0.0792 for 1931 Fo > 4sig(Fo) and 0.0842 for all 2133 data
REM 168 parameters refined using 1 restraints

END  
     
WGHT      0.1132      1.7125 

REM Highest difference peak  0.406,  deepest hole -1.389,  1-sigma level  0.096
Q1    1   0.5877  0.3379  0.9053  11.00000  0.05    0.41
Q2    1   0.5385  0.4908  0.8553  11.00000  0.05    0.40
Q3    1   0.4295  0.4223  0.9188  11.00000  0.05    0.38
Q4    1   0.4983  0.6458  0.8163  11.00000  0.05    0.37
Q5    1   0.2998  1.0740  0.6208  11.00000  0.05    0.36

  REM The information below was added by Olex2.
  REM
  REM R1 = 0.0792 for 1931 Fo > 4sig(Fo) and 0.0842 for all 12761 data
  REM n/a parameters refined using n/a restraints
  REM Highest difference peak 0.41, deepest hole -1.39
  REM Mean Shift 0, Max Shift 0.000.

  REM +++ Tabular Listing of Refinement Information +++
  REM R1_all = 0.0842
  REM R1_gt = 0.0792
  REM wR_ref = 0.2204
  REM GOOF = 1.060
  REM Shift_max = 0.000
  REM Shift_mean = 0
  REM Reflections_all = 12761
  REM Reflections_gt = 1931
  REM Parameters = n/a
  REM Hole = -1.39
  REM Peak = 0.41
  REM Flack = n/a

  
;
_cod_data_source_file            ed5019.cif
_cod_data_source_block           tfa_form-vi
_cod_database_code               1557484
_shelx_shelxl_version_number     2018/3
_chemical_oxdiff_formula         'C H N O Cl'
_shelx_space_group_comment
;
The symmetry employed for this shelxl refinement is uniquely defined
by the following loop, which should always be used as a source of
symmetry information in preference to the above space-group names.
They are only intended as comments.
;
_shelx_estimated_absorpt_t_max   0.942
_shelx_estimated_absorpt_t_min   0.838
_reflns_odcompleteness_completeness 92.81
_reflns_odcompleteness_iscentric 1
_reflns_odcompleteness_theta     27.04
_olex2_refinement_description
;
1. Fixed Uiso
 At 1.2 times of:
  All C(H) groups, All N(H) groups
 At 1.5 times of:
  All C(H,H,H) groups, All O(H) groups
2. Restrained distances
 N1-H1A
 0.87 with sigma of 0.02
3.a Fixed occupancy and ADP/Uiso:
 H1A
3.b Aromatic/amide H refined with riding coordinates:
 C3(H3), C4(H4), C5(H5), C6(H6), C11(H11), C12(H12), C13(H13)
3.c Idealised Me refined as rotating group:
 C14(H14A,H14B,H14C)
3.d Idealised tetrahedral OH refined as rotating group:
 O1(H1)
;
_olex2_submission_special_instructions 'No special instructions were received'
_oxdiff_exptl_absorpt_empirical_details
;
Empirical correction (ABSPACK) includes:
- Absorption correction using spherical harmonics
- Frame scaling
;
_oxdiff_exptl_absorpt_empirical_full_max 1.567
_oxdiff_exptl_absorpt_empirical_full_min 0.366
loop_
_space_group_symop_operation_xyz
'x, y, z'
'-x, -y, -z'
loop_
_atom_site_label
_atom_site_type_symbol
_atom_site_fract_x
_atom_site_fract_y
_atom_site_fract_z
_atom_site_U_iso_or_equiv
_atom_site_adp_type
_atom_site_occupancy
_atom_site_site_symmetry_order
_atom_site_calc_flag
_atom_site_refinement_flags_posn
_atom_site_refinement_flags_adp
_atom_site_refinement_flags_occupancy
_atom_site_disorder_assembly
_atom_site_disorder_group
Cl1 Cl 0.1897(3) 1.2652(3) 0.48462(10) 0.0931(8) Uani 1 1 d . . . . .
O1 O 0.2753(3) 0.2912(3) 1.00433(16) 0.0187(6) Uani 1 1 d . . . . .
H1 H 0.146287 0.323866 1.026784 0.028 Uiso 1 1 calc R U . . .
O2 O 0.1345(3) 0.6017(3) 0.91569(16) 0.0179(5) Uani 1 1 d . . . . .
N1 N 0.4029(4) 0.7444(4) 0.7946(2) 0.0186(6) Uani 1 1 d D . . . .
H1A H 0.273(4) 0.750(6) 0.817(3) 0.022 Uiso 1 1 d D U . . .
C1 C 0.2961(5) 0.4426(4) 0.9383(2) 0.0146(7) Uani 1 1 d . . . . .
C2 C 0.5208(5) 0.4083(4) 0.8940(2) 0.0142(7) Uani 1 1 d . . . . .
C3 C 0.6931(5) 0.2194(5) 0.9220(2) 0.0168(7) Uani 1 1 d . . . . .
H3 H 0.662320 0.119839 0.968388 0.020 Uiso 1 1 calc R U . . .
C4 C 0.9064(5) 0.1795(5) 0.8819(2) 0.0195(7) Uani 1 1 d . . . . .
H4 H 1.018891 0.054134 0.900907 0.023 Uiso 1 1 calc R U . . .
C5 C 0.9512(5) 0.3287(5) 0.8127(2) 0.0176(7) Uani 1 1 d . . . . .
H5 H 1.095154 0.302015 0.785483 0.021 Uiso 1 1 calc R U . . .
C6 C 0.7874(5) 0.5154(5) 0.7835(2) 0.0164(7) Uani 1 1 d . . . . .
H6 H 0.821793 0.612520 0.736797 0.020 Uiso 1 1 calc R U . . .
C7 C 0.5674(5) 0.5607(5) 0.8239(2) 0.0145(7) Uani 1 1 d . . . . .
C8 C 0.4256(5) 0.9128(5) 0.7288(2) 0.0169(7) Uani 1 1 d . . . . .
C9 C 0.3088(5) 0.9868(5) 0.6464(2) 0.0233(8) Uani 1 1 d . . . . .
C10 C 0.3221(7) 1.1611(5) 0.5862(3) 0.0327(9) Uani 1 1 d . . . . .
C11 C 0.4458(7) 1.2553(5) 0.6060(3) 0.0399(11) Uani 1 1 d . . . . .
H11 H 0.451334 1.371880 0.564411 0.048 Uiso 1 1 calc R U . . .
C12 C 0.5627(7) 1.1789(5) 0.6873(3) 0.0326(9) Uani 1 1 d . . . . .
H12 H 0.647623 1.242863 0.699809 0.039 Uiso 1 1 calc R U . . .
C13 C 0.5522(5) 1.0067(5) 0.7497(2) 0.0226(7) Uani 1 1 d . . . . .
H13 H 0.628654 0.954618 0.804919 0.027 Uiso 1 1 calc R U . . .
C14 C 0.1795(6) 0.8792(6) 0.6236(3) 0.0343(9) Uani 1 1 d . . . . .
H14A H 0.233774 0.739617 0.656296 0.051 Uiso 1 1 calc R U . . .
H14B H 0.194903 0.881956 0.554676 0.051 Uiso 1 1 calc R U . . .
H14C H 0.027015 0.946879 0.645243 0.051 Uiso 1 1 calc R U . . .
loop_
_atom_site_aniso_label
_atom_site_aniso_U_11
_atom_site_aniso_U_22
_atom_site_aniso_U_33
_atom_site_aniso_U_23
_atom_site_aniso_U_13
_atom_site_aniso_U_12
Cl1 0.1010(13) 0.0718(11) 0.0403(8) -0.0076(7) -0.0107(8) 0.0316(9)
O1 0.0124(11) 0.0165(11) 0.0231(12) 0.0002(9) 0.0008(9) -0.0045(9)
O2 0.0122(11) 0.0157(11) 0.0228(12) -0.0008(9) -0.0014(9) -0.0039(9)
N1 0.0107(13) 0.0140(13) 0.0257(15) 0.0010(11) 0.0012(11) -0.0029(11)
C1 0.0156(15) 0.0141(15) 0.0157(15) -0.0041(12) -0.0035(12) -0.0057(13)
C2 0.0135(15) 0.0128(14) 0.0167(15) -0.0048(12) -0.0024(12) -0.0040(12)
C3 0.0173(16) 0.0145(15) 0.0156(15) -0.0023(11) -0.0023(12) -0.0032(12)
C4 0.0141(15) 0.0164(15) 0.0218(16) -0.0043(12) -0.0035(12) 0.0015(12)
C5 0.0120(15) 0.0223(16) 0.0183(16) -0.0080(12) 0.0008(12) -0.0049(13)
C6 0.0155(15) 0.0161(15) 0.0177(15) -0.0045(12) 0.0010(12) -0.0065(13)
C7 0.0147(15) 0.0131(15) 0.0160(15) -0.0053(11) -0.0022(12) -0.0039(12)
C8 0.0152(15) 0.0122(14) 0.0175(15) -0.0050(12) 0.0051(12) -0.0011(12)
C9 0.0179(16) 0.0199(16) 0.0193(16) -0.0068(13) 0.0013(13) 0.0058(13)
C10 0.037(2) 0.0175(17) 0.0223(18) -0.0063(14) 0.0096(15) 0.0069(15)
C11 0.052(3) 0.0134(17) 0.030(2) -0.0025(15) 0.0247(19) -0.0004(17)
C12 0.037(2) 0.0190(17) 0.041(2) -0.0150(16) 0.0198(17) -0.0145(16)
C13 0.0211(17) 0.0198(16) 0.0245(17) -0.0086(13) 0.0056(13) -0.0061(14)
C14 0.0228(19) 0.041(2) 0.034(2) -0.0145(17) -0.0089(16) -0.0004(17)
loop_
_atom_type_symbol
_atom_type_description
_atom_type_scat_dispersion_real
_atom_type_scat_dispersion_imag
_atom_type_scat_source
C C 0.0033 0.0016 'International Tables Vol C Tables 4.2.6.8 and 6.1.1.4'
H H 0.0000 0.0000 'International Tables Vol C Tables 4.2.6.8 and 6.1.1.4'
Cl Cl 0.1484 0.1585 'International Tables Vol C Tables 4.2.6.8 and 6.1.1.4'
N N 0.0061 0.0033 'International Tables Vol C Tables 4.2.6.8 and 6.1.1.4'
O O 0.0106 0.0060 'International Tables Vol C Tables 4.2.6.8 and 6.1.1.4'
loop_
_geom_angle_atom_site_label_1
_geom_angle_atom_site_label_2
_geom_angle_atom_site_label_3
_geom_angle
_geom_angle_site_symmetry_1
_geom_angle_site_symmetry_3
_geom_angle_publ_flag
C1 O1 H1 109.5 . . ?
C7 N1 H1A 114(3) . . ?
C7 N1 C8 127.0(3) . . ?
C8 N1 H1A 119(3) . . ?
O1 C1 C2 115.5(3) . . ?
O2 C1 O1 121.3(3) . . ?
O2 C1 C2 123.2(3) . . ?
C3 C2 C1 119.1(3) . . ?
C3 C2 C7 119.5(3) . . ?
C7 C2 C1 121.4(3) . . ?
C2 C3 H3 119.4 . . ?
C4 C3 C2 121.2(3) . . ?
C4 C3 H3 119.4 . . ?
C3 C4 H4 120.4 . . ?
C3 C4 C5 119.1(3) . . ?
C5 C4 H4 120.4 . . ?
C4 C5 H5 119.3 . . ?
C6 C5 C4 121.4(3) . . ?
C6 C5 H5 119.3 . . ?
C5 C6 H6 119.7 . . ?
C5 C6 C7 120.6(3) . . ?
C7 C6 H6 119.7 . . ?
N1 C7 C2 120.7(3) . . ?
N1 C7 C6 121.1(3) . . ?
C6 C7 C2 118.1(3) . . ?
C9 C8 N1 118.2(3) . . ?
C13 C8 N1 119.8(3) . . ?
C13 C8 C9 122.0(3) . . ?
C8 C9 C14 121.0(3) . . ?
C10 C9 C8 117.1(3) . . ?
C10 C9 C14 121.9(3) . . ?
C9 C10 Cl1 121.7(3) . . ?
C11 C10 Cl1 116.7(3) . . ?
C11 C10 C9 121.5(4) . . ?
C10 C11 H11 119.6 . . ?
C10 C11 C12 120.8(3) . . ?
C12 C11 H11 119.6 . . ?
C11 C12 H12 120.2 . . ?
C13 C12 C11 119.6(4) . . ?
C13 C12 H12 120.2 . . ?
C8 C13 H13 120.5 . . ?
C12 C13 C8 119.1(3) . . ?
C12 C13 H13 120.5 . . ?
C9 C14 H14A 109.5 . . ?
C9 C14 H14B 109.5 . . ?
C9 C14 H14C 109.5 . . ?
H14A C14 H14B 109.5 . . ?
H14A C14 H14C 109.5 . . ?
H14B C14 H14C 109.5 . . ?
loop_
_geom_bond_atom_site_label_1
_geom_bond_atom_site_label_2
_geom_bond_distance
_geom_bond_site_symmetry_2
_geom_bond_publ_flag
Cl1 C10 1.684(4) . ?
O1 H1 0.8200 . ?
O1 C1 1.316(4) . ?
O2 C1 1.238(4) . ?
N1 H1A 0.860(19) . ?
N1 C7 1.366(4) . ?
N1 C8 1.411(4) . ?
C1 C2 1.467(4) . ?
C2 C3 1.407(4) . ?
C2 C7 1.416(4) . ?
C3 H3 0.9300 . ?
C3 C4 1.377(5) . ?
C4 H4 0.9300 . ?
C4 C5 1.387(5) . ?
C5 H5 0.9300 . ?
C5 C6 1.377(5) . ?
C6 H6 0.9300 . ?
C6 C7 1.412(4) . ?
C8 C9 1.400(5) . ?
C8 C13 1.391(5) . ?
C9 C10 1.389(5) . ?
C9 C14 1.498(5) . ?
C10 C11 1.369(7) . ?
C11 H11 0.9300 . ?
C11 C12 1.385(6) . ?
C12 H12 0.9300 . ?
C12 C13 1.384(5) . ?
C13 H13 0.9300 . ?
C14 H14A 0.9600 . ?
C14 H14B 0.9600 . ?
C14 H14C 0.9600 . ?
loop_
_geom_torsion_atom_site_label_1
_geom_torsion_atom_site_label_2
_geom_torsion_atom_site_label_3
_geom_torsion_atom_site_label_4
_geom_torsion
_geom_torsion_site_symmetry_1
_geom_torsion_site_symmetry_2
_geom_torsion_site_symmetry_3
_geom_torsion_site_symmetry_4
_geom_torsion_publ_flag
Cl1 C10 C11 C12 -179.2(3) . . . . ?
O1 C1 C2 C3 1.8(4) . . . . ?
O1 C1 C2 C7 -178.3(2) . . . . ?
O2 C1 C2 C3 -177.8(3) . . . . ?
O2 C1 C2 C7 2.1(5) . . . . ?
N1 C8 C9 C10 175.8(3) . . . . ?
N1 C8 C9 C14 -5.5(4) . . . . ?
N1 C8 C13 C12 -176.3(3) . . . . ?
C1 C2 C3 C4 179.5(3) . . . . ?
C1 C2 C7 N1 -0.6(4) . . . . ?
C1 C2 C7 C6 -179.2(3) . . . . ?
C2 C3 C4 C5 0.0(5) . . . . ?
C3 C2 C7 N1 179.3(3) . . . . ?
C3 C2 C7 C6 0.7(4) . . . . ?
C3 C4 C5 C6 0.1(5) . . . . ?
C4 C5 C6 C7 0.3(5) . . . . ?
C5 C6 C7 N1 -179.2(3) . . . . ?
C5 C6 C7 C2 -0.7(4) . . . . ?
C7 N1 C8 C9 122.8(3) . . . . ?
C7 N1 C8 C13 -60.6(4) . . . . ?
C7 C2 C3 C4 -0.4(4) . . . . ?
C8 N1 C7 C2 177.2(3) . . . . ?
C8 N1 C7 C6 -4.3(5) . . . . ?
C8 C9 C10 Cl1 179.9(2) . . . . ?
C8 C9 C10 C11 0.7(5) . . . . ?
C9 C8 C13 C12 0.2(5) . . . . ?
C9 C10 C11 C12 0.1(5) . . . . ?
C10 C11 C12 C13 -0.8(5) . . . . ?
C11 C12 C13 C8 0.6(5) . . . . ?
C13 C8 C9 C10 -0.8(5) . . . . ?
C13 C8 C9 C14 178.0(3) . . . . ?
C14 C9 C10 Cl1 1.1(5) . . . . ?
C14 C9 C10 C11 -178.1(3) . . . . ?
loop_
_refln_index_h
_refln_index_k
_refln_index_l
_refln_F_squared_meas
_refln_F_squared_sigma
0 0 2 18.18 0.94
0 0 2 22.1 1.1
0 0 -2 17.58 0.86
0 0 2 16.04 0.72
0 0 -2 17.89 0.64
0 0 -2 18.96 0.89
0 0 3 121.68 3.59
0 0 3 145.33 4.11
0 0 -3 146.57 3.77
0 0 -3 142.34 3.08
0 0 -3 147.53 3.96
0 0 3 152.59 4.4
0 0 -3 147.02 3.36
0 0 -4 13.18 0.95
0 0 -4 13.19 1.02
0 0 -4 12.57 0.71
0 0 4 9.51 0.79
0 0 4 11.89 1.06
0 0 4 13.79 1.22
0 0 -4 11.79 0.52
0 0 -5 1.65 0.45
0 0 5 0.9 0.53
0 0 5 1.58 0.54
0 0 5 1.18 0.35
0 0 -5 1.56 0.22
0 0 -5 1.72 0.3
0 0 -5 1.53 0.44
0 0 6 20.61 1.47
0 0 -6 27.51 1.66
0 0 -6 27.06 1.86
0 0 -6 24.35 1.27
0 0 6 22.95 1.98
0 0 -6 24.54 0.99
0 0 -7 669.18 14.7
0 0 7 647.51 16.29
0 0 -7 646.65 15.19
0 0 7 651.69 15.67
0 0 -8 43.29 2.51
0 0 8 45.96 3.26
0 0 -8 44.17 2.81
0 0 8 45.4 3.05
0 0 -9 13.92 1.68
0 0 9 13.55 1.74
0 0 9 14.8 2
0 0 -9 14.56 1.49
0 0 10 459.01 14.08
0 0 10 474.12 14.65
0 0 -10 464.62 12.79
0 0 -10 490.81 13.68
0 0 11 78.28 4.95
0 0 -11 87.41 4.32
0 0 11 71.82 5.03
0 0 -11 76.24 4.58
0 0 12 68.2 4.84
0 0 -12 68.2 3.95
0 0 12 66.99 4.99
0 0 -12 63.31 4.35
0 0 -13 4.04 1.12
0 0 13 5.45 1.64
0 0 -13 4.06 1.24
0 0 13 8.14 1.79
0 0 -14 7.94 1.5
0 0 -14 11.42 2.07
0 0 14 6.44 1.75
0 0 14 8.92 1.96
0 0 -15 19.17 2.82
0 0 -15 18.35 2.38
0 0 15 18.87 3.11
0 0 15 16.43 2.78
0 0 16 12.62 2.7
0 0 -16 12 2.33
0 0 -16 11.41 2.01
0 0 16 8.07 2.11
0 0 -16 13.21 2.71
0 0 -17 15.22 2.74
0 0 17 11.34 2.66
0 0 -17 10.2 2.01
0 0 -17 13.01 2.79
0 1 -16 1.65 1.22
0 -1 16 1.66 1.26
0 1 -16 1.78 1.26
0 1 -16 1.62 1.13
0 1 -15 93.8 6.97
0 1 -15 92.67 5.82
0 1 -15 95.74 6.43
0 -1 15 91.15 6.99
0 1 -14 6.26 1.49
0 -1 14 6.62 1.87
0 1 -14 4.71 1.55
0 1 -14 7.05 1.75
0 1 -13 2.82 0.97
0 -1 13 2.95 1.28
0 1 -13 1.92 1.06
0 1 -13 3.58 1.14
0 1 -12 8.25 1.64
0 1 -12 5.88 1.21
0 1 -12 9.08 1.91
0 -1 12 5.39 1.6
0 1 -11 21.25 2.74
0 1 -11 24.61 2.64
0 1 -11 21.07 2.24
0 -1 11 22.57 2.82
0 -1 10 376.23 12.59
0 1 -10 376.25 11.91
0 1 -10 363.19 12.84
0 -1 10 348.78 12.74
0 -1 9 149.38 6.91
0 1 -9 154.21 7.17
0 -1 9 155.3 7.17
0 1 -9 170.37 6.23
0 1 -9 161.71 6.56
0 -1 8 13.62 1.84
0 1 -8 13.58 1.56
0 -1 8 14.13 1.95
0 1 -8 14.28 1.65
0 1 -8 13 1.87
0 -1 7 657.07 15.93
0 -1 7 634.33 17.02
0 1 -7 652.25 15.55
0 -1 7 640.78 16.71
0 1 -7 616.3 17.01
0 1 -7 638.37 16.08
0 1 -6 3.03 0.73
0 -1 6 2.6 0.65
0 -1 6 2.62 0.9
0 1 -6 2.46 0.87
0 1 -6 3.3 0.64
0 -1 6 2.73 0.68
0 1 -5 53.98 3.25
0 -1 5 64.1 2.98
0 1 -5 58.13 2.67
0 1 -5 59.04 2.92
0 -1 5 59.26 3.36
0 1 -4 237.82 7.44
0 -1 4 247.12 6.92
0 -1 4 253.25 7.64
0 1 -4 250.46 6.55
0 1 -4 239.97 6.86
0 -1 3 56.7 2.41
0 1 -3 53.04 2.24
0 -1 3 52.07 2.71
0 1 -3 48.86 2.6
0 -1 2 417.63 9.81
0 1 -2 411.27 10.31
0 -1 2 416.74 8.48
0 -1 2 413.94 10.45
0 1 -2 431.49 9.53
0 -1 2 424.94 9.95
0 1 -1 2525.91 52.07
0 -1 1 2543.04 51.52
0 -1 1 2672.62 51.55
0 -1 1 2496.58 52.1
0 1 -1 2572.52 51.19
0 -1 1 2557.7 51.12
0 -1 0 24.9 0.82
0 -1 0 26.16 1.14
0 1 0 25.17 1.11
0 -1 0 24.37 1.22
0 1 0 25.23 1.46
0 -1 0 24.82 0.82
0 -1 0 24.6 1.25
0 -1 0 20.39 1.38
0 1 1 1308.98 27.76
0 -1 -1 1348.8 26.57
0 1 1 1347 27.77
0 -1 -1 1273.18 27.24
0 -1 -1 1325.64 26.51
0 1 1 1298.65 26.96
0 1 1 1290.81 26.88
0 -1 -1 1324.23 27.02
0 -1 -2 251.32 5.42
0 -1 -2 246.35 5.86
0 -1 -2 239.66 6.08
0 -1 -2 234.15 5.45
0 1 2 246.48 6.55
0 1 2 251.43 6.56
0 -1 -2 252.36 5.69
0 1 2 238.18 6.4
0 1 2 245.27 5.72
0 1 3 2760.83 58.33
0 1 3 2856.33 59.48
0 -1 -3 2864.85 58.46
0 -1 -3 2995.63 58.7
0 -1 -3 3030.24 58.12
0 -1 -3 2950.45 59.08
0 -1 -3 3063.59 58.32
0 -1 -3 2917.46 58.72
0 1 3 2989.56 59.67
0 -1 -4 83.65 2.85
0 1 4 86.75 2.7
0 1 4 89 3.44
0 1 4 94.18 3.63
0 -1 -4 90.4 2.66
0 -1 -4 86.24 2.83
0 -1 -4 92.98 3.27
0 -1 -4 91.8 2.49
0 -1 -4 85.7 2.99
0 -1 -5 134.54 3.94
0 -1 -5 129.81 4.39
0 1 5 118.63 3.63
0 -1 -5 122.1 3.92
0 -1 -5 129.43 3.36
0 -1 -5 128.91 4.13
0 1 5 129.98 4.76
0 1 5 127.53 4.6
0 -1 -5 125.33 3.58
0 -1 -6 35.95 1.82
0 -1 -6 33.56 2.09
0 1 6 32.73 1.65
0 -1 -6 33.57 2
0 1 6 30.29 2.28
0 -1 -6 34.56 1.64
0 -1 -6 33.33 1.42
0 1 6 33.66 2.25
0 -1 -6 32.98 1.8
0 -1 -7 4.62 0.75
0 1 7 3.92 0.63
0 -1 -7 4.33 0.63
0 -1 -7 3.86 0.9
0 1 7 4.92 0.98
0 -1 -7 4.53 0.53
0 1 7 4.71 0.89
0 -1 -7 4.46 0.64
0 1 8 701.75 16.69
0 -1 -8 764.91 16.57
0 1 8 724.17 18.46
0 -1 -8 739.32 16.72
0 1 8 749.84 19.1
0 -1 -8 751.39 18.04
0 -1 -8 732.66 15.92
0 -1 -8 777.64 17.14
0 -1 -9 341.98 9.29
0 1 9 342.93 10.72
0 -1 -9 336.38 8.18
0 1 9 329.32 9.01
0 -1 -9 345.87 8.83
0 1 9 352.6 11.36
0 -1 -9 349.59 10.32
0 1 10 1.11 0.67
0 -1 -10 1.08 0.42
0 -1 -10 0.69 0.51
0 1 10 0.4 0.47
0 -1 -10 0.71 0.51
0 1 10 1.19 0.89
0 -1 -11 57.24 3.18
0 1 11 50.32 3.79
0 -1 -11 52.53 3.68
0 1 11 61.15 4.45
0 1 12 -0.43 0.57
0 -1 -12 1.35 0.79
0 -1 -12 0.64 0.68
0 1 12 2.08 0.9
0 -1 -13 42.35 3.7
0 1 13 40.26 3.73
0 -1 -13 40.54 3.03
0 1 13 43.15 4.25
0 -1 -14 2.84 1.01
0 1 14 2.19 1
0 -1 -14 2.53 1.1
0 1 14 2.29 1.17
0 1 15 76.73 6.27
0 1 15 89.08 6.35
0 -1 -15 88.94 5.98
0 -1 -15 82 4.92
0 1 16 2.02 1
0 -1 -16 4.55 1.57
0 -1 -16 3.17 1
0 1 16 3.8 1.7
0 1 17 17.73 3.3
0 1 17 12.24 2.71
0 -1 -17 18.68 2.46
0 -1 -17 19.14 3.09
0 2 -15 94.16 6.3
0 -2 15 82.46 6.98
0 2 -15 90.24 7.13
0 2 -14 12.52 2.61
0 2 -14 12.22 2.15
0 -2 14 10.19 2.31
0 -2 13 56.24 5.26
0 2 -13 56.2 5.17
0 2 -13 53.61 4.35
0 -2 12 6.32 1.66
0 2 -12 6.69 1.63
0 2 -12 9.71 1.81
0 2 -11 27.67 3.32
0 -2 11 24.7 3.17
0 2 -11 26.65 2.76
0 -2 10 480.64 16.22
0 2 -10 512.81 14.56
0 2 -10 481.82 16.16
0 -2 9 41.49 3.9
0 -2 9 47.04 3.34
0 2 -9 44.25 3.3
0 2 -9 42.86 3.89
0 -2 8 6.56 1.56
0 2 -8 7.82 1.33
0 2 -8 7.08 1.55
0 -2 8 7.93 1.37
0 2 -7 19 2.3
0 2 -7 18.57 1.85
0 -2 7 17.66 2.29
0 -2 7 16.38 1.86
0 -2 6 125.47 5.1
0 -2 6 113.04 5.76
0 2 -6 115.26 4.68
0 -2 6 93.98 2.79
0 2 -6 105.71 5.48
0 -2 5 42.95 2.69
0 -2 5 35.88 2.96
0 -2 5 30.36 1.11
0 2 -5 35.16 2.87
0 2 -5 35.04 2.32
0 -2 5 32.79 2.52
0 -2 4 196.88 6.76
0 -2 4 192.46 4.47
0 2 -4 201.8 7.4
0 -2 4 203.09 7.6
0 -2 4 198.21 6.58
0 2 -4 205.58 6.27
0 -2 4 198.65 5.91
0 -2 3 2.73 0.69
0 -2 3 2.44 0.22
0 2 -3 2.71 0.8
0 -2 3 2.61 0.55
0 -2 3 1.84 0.62
0 2 -3 2.88 0.69
0 -2 3 2.81 0.82
0 -2 3 2.49 0.28
0 -2 2 1632.43 35.14
0 2 -2 1659.57 36.18
0 -2 2 1715.28 32.89
0 2 -2 1602.03 34.48
0 -2 2 1709.32 32.67
0 -2 2 1669.16 35.19
0 -2 2 1643.95 34.33
0 -2 2 1641.21 36.2
0 -2 1 122.96 2.92
0 -2 1 115.61 4.36
0 -2 1 123.81 3.98
0 -2 1 116.76 3.04
0 -2 1 118.94 4.3
0 2 -1 105.09 3.87
0 2 -1 113.61 4.9
0 -2 1 103.56 4.68
0 2 0 652.89 16.17
0 -2 0 655.29 13.58
0 2 0 649.05 14.68
0 -2 0 616.96 15.12
0 -2 0 662.03 15.14
0 2 0 662.06 16.2
0 -2 0 670.82 13.51
0 -2 0 654.36 14.72
0 -2 -1 222.93 6.14
0 2 1 221.55 7.24
0 2 1 208.8 6.08
0 -2 -1 216.61 5.48
0 2 1 220.45 6.01
0 -2 -1 221.35 5.24
0 -2 -1 215.19 6.4
0 2 1 234.99 7.31
0 -2 -1 230 5.24
0 -2 -2 497.55 12.42
0 -2 -2 534.38 12.21
0 2 2 519.18 12.03
0 2 2 544.41 13.39
0 -2 -2 502.74 11.41
0 -2 -2 524.12 11.21
0 -2 -2 545.03 11.26
0 2 2 495.53 11.85
0 2 2 502.21 13.38
0 -2 -3 392.06 10.14
0 2 3 401.93 9.59
0 -2 -3 389.07 8.97
0 2 3 390.95 10.74
0 -2 -3 416.69 9.92
0 -2 -3 395.5 9.32
0 2 3 404.88 11.08
0 -2 -3 409.23 9.06
0 -2 -4 41.81 2.2
0 2 4 38.23 2.64
0 2 4 43.81 2.81
0 -2 -4 39.78 2.33
0 -2 -4 37.95 1.99
0 -2 -4 45.83 1.83
0 -2 -4 40.6 1.96
0 2 4 38.95 1.88
0 -2 -4 41.69 1.71
0 2 4 40.75 2.58
0 -2 -5 6.86 0.74
0 -2 -5 10.03 1.07
0 2 5 9.25 0.87
0 2 5 7.47 1.19
0 -2 -5 7.6 0.77
0 -2 -5 7.48 0.99
0 -2 -5 6.63 0.84
0 -2 -5 8.41 0.77
0 -2 -5 7.15 0.86
0 2 5 7.23 1.13
0 -2 -6 734.79 15.92
0 2 6 736.76 18.25
0 2 6 705.34 17.71
0 -2 -6 668.19 15.94
0 -2 -6 786.18 16.86
0 -2 -6 728.92 17.3
0 2 6 705.79 15.83
0 -2 -6 688.65 16.44
0 -2 -6 731.82 15.58
0 -2 -7 0.47 0.37
0 2 7 0.76 0.71
0 -2 -7 -0.01 0.42
0 -2 -7 1.2 0.44
0 -2 -7 0.46 0.31
0 -2 -7 0.44 0.3
0 2 7 0.18 0.19
0 -2 -7 0.33 0.26
0 2 7 0.25 0.54
0 -2 -8 54.97 2.69
0 2 8 53.57 2.53
0 2 8 57.27 3.59
0 -2 -8 55.86 2.39
0 -2 -8 58.37 3.4
0 2 8 55.15 3.73
0 -2 -8 52.43 2.57
0 -2 -8 56.65 2.97
0 -2 -8 53.02 2.93
0 2 9 33.03 2.82
0 2 9 38.33 2.13
0 -2 -9 39.11 2
0 -2 -9 38.45 2.2
0 -2 -9 38.48 2.44
0 2 9 37.62 3.22
0 -2 -9 40.86 2.93
0 -2 -9 36.99 2.23
0 2 10 275.75 9.79
0 2 10 267.17 7.84
0 -2 -10 278.16 9.41
0 2 10 281.92 10.49
0 -2 -10 276.33 8.01
0 -2 -10 270.03 7.34
0 -2 -10 265.36 7.84
0 2 11 25 2.91
0 -2 -11 23.16 1.87
0 2 11 24.14 1.96
0 2 11 21.99 2.48
0 -2 -11 21.72 1.86
0 -2 -11 19.43 2.26
0 -2 -11 21.13 1.6
0 2 12 57 3.31
0 -2 -12 59.13 3.29
0 2 12 57.91 4.68
0 -2 -12 56.67 3.24
0 2 12 58.69 4.37
0 -2 -12 62.34 4.27
0 -2 -13 24.88 2.85
0 2 13 19.67 2.81
0 2 13 21.23 2.67
0 -2 -13 19.91 2.02
0 -2 -14 1.26 0.67
0 2 14 0.64 0.85
0 2 14 1.57 0.88
0 -2 -14 1.35 0.85
0 2 15 1.04 1.35
0 -2 -15 0.47 0.69
0 2 15 2.68 1.17
0 2 16 14.78 2.64
0 -2 -16 11.07 2.29
0 2 16 8.96 2.38
0 -2 -17 23.17 3.39
0 2 17 20.03 3.27
0 2 17 20.13 3.49
0 -3 14 35.1 4.6
0 3 -14 40.89 4.95
0 3 -14 39.66 4.11
0 3 -13 4.33 1.47
0 3 -13 5.02 1.81
0 -3 13 7.42 2.01
0 -3 12 72.22 6.2
0 3 -12 73.44 5.24
0 3 -12 70 6.1
0 -3 11 1.23 1.05
0 3 -11 -0.3 0.75
0 3 -11 0.33 0.62
0 -3 10 46.33 4.59
0 3 -10 49.43 4.7
0 -3 10 51.88 4.32
0 3 -10 49.1 3.86
0 -3 9 38.14 3.63
0 3 -9 43.47 3.57
0 -3 9 44.97 3.61
0 -3 9 36.52 4.02
0 3 -9 42.47 4.32
0 -3 9 42.33 2.93
0 3 -8 250.6 10.74
0 3 -8 232.13 8.97
0 -3 8 245.57 9.71
0 -3 8 244.59 8.17
0 -3 8 251.63 10.88
0 -3 8 267.53 9.66
0 3 -7 164.13 8.37
0 -3 7 181.31 8.7
0 -3 7 191.88 7.65
0 -3 7 175.27 6.38
0 3 -7 164.61 6.93
0 -3 7 175.32 7.61
0 -3 6 165.89 8.13
0 -3 6 170.59 7.02
0 -3 6 163.53 7.11
0 -3 6 165.15 6.08
0 3 -6 167.8 8.04
0 3 -6 166.61 6.63
0 -3 5 5.91 1.27
0 3 -5 5.23 1.06
0 -3 5 6.4 1.22
0 -3 5 6.53 1.49
0 -3 5 5.56 1.01
0 3 -5 6.62 1.56
0 -3 5 5.78 0.55
0 -3 4 438.76 12.48
0 -3 4 415.33 8.72
0 3 -4 429.8 11.93
0 3 -4 429.12 13.72
0 -3 4 439.6 11.48
0 -3 4 438.47 9.49
0 -3 4 428.81 12.47
0 -3 4 420.1 13.82
0 -3 3 69.47 3.86
0 -3 3 62.28 4.37
0 3 -3 63.34 4.36
0 -3 3 53.45 2.93
0 -3 3 66.87 3.79
0 3 -3 50.17 3.04
0 3 -2 7.1 1.1
0 3 -2 7.53 1.45
0 -3 2 8.82 0.58
0 -3 2 5.72 1.08
0 -3 2 7.48 1.23
0 -3 2 6.17 1.31
0 -3 2 9.33 0.74
0 -3 2 8.2 1.09
0 3 -1 232.01 7.28
0 -3 1 235.31 7.21
0 3 -1 226.97 8.78
0 -3 1 234.58 5.77
0 -3 1 216.77 8.62
0 -3 1 235.93 5.49
0 -3 1 227.98 7.73
0 -3 1 224.21 7.69
0 3 0 4.03 0.82
0 3 0 2.39 0.95
0 -3 0 5.33 0.53
0 -3 0 3.78 0.91
0 -3 0 4.98 0.94
0 -3 0 4.1 0.79
0 3 0 4.94 1.24
0 -3 0 5.21 0.64
0 3 1 167.12 6.93
0 -3 -1 166.9 4.31
0 -3 -1 163.25 4.44
0 3 1 159.61 5.51
0 3 1 161.01 5.69
0 -3 -1 142.49 5.77
0 -3 -1 154.59 5.77
0 -3 -1 156.43 5.55
0 3 1 159.95 6.86
0 -3 -2 93.52 3.25
0 -3 -2 103.72 4.19
0 3 2 98.48 5.06
0 3 2 98.32 4.12
0 -3 -2 100.24 4.35
0 -3 -2 105.46 3.19
0 3 2 97.93 5.12
0 3 2 100.16 3.98
0 -3 -2 101.46 3.22
0 -3 -3 22.5 1.94
0 -3 -3 21.87 1.4
0 3 3 34.91 2.91
0 3 3 29.09 2.81
0 -3 -3 27.12 2.24
0 3 3 26.09 1.95
0 3 4 42.93 2.41
0 3 4 47.81 3.3
0 -3 -4 42.47 2.74
0 -3 -4 47.4 2.08
0 -3 -4 47.34 2.72
0 -3 -4 41.34 2.03
0 3 4 46.06 3.35
0 -3 -4 46.85 2.11
0 3 5 155.73 5.09
0 3 5 164.51 6.91
0 -3 -5 146.96 4.83
0 3 5 145.74 6.26
0 -3 -5 155.66 4.69
0 -3 -5 163.5 5.76
0 -3 -5 151.75 5.85
0 -3 -5 167.31 4.81
0 3 5 159.5 6.81
0 -3 -6 47.76 2.3
0 3 6 43.93 3.43
0 -3 -6 46.59 3.02
0 -3 -6 47.79 2.24
0 3 6 48.14 2.39
0 -3 -6 52.94 3.04
0 3 6 44.79 3.26
0 -3 -6 47.43 2.61
0 -3 -6 45.83 2.44
0 3 7 67.5 4.05
0 -3 -7 68.33 2.88
0 -3 -7 69.88 3.6
0 -3 -7 64.46 3.72
0 -3 -7 61.57 2.77
0 -3 -7 61.8 3.11
0 -3 -7 72.09 3.03
0 3 7 71.71 4.47
0 -3 -7 64.77 3.21
0 3 7 68.05 2.92
0 3 8 1.89 0.81
0 -3 -8 2.98 0.72
0 -3 -8 1.35 0.44
0 -3 -8 2.07 0.62
0 -3 -8 0.8 0.55
0 -3 -8 1.57 0.48
0 3 8 2.24 0.52
0 3 8 2.76 1.05
0 -3 -8 1.62 0.54
0 -3 -8 1.78 0.71
0 3 9 98.11 3.76
0 -3 -9 102.81 5.22
0 3 9 109.9 6.09
0 -3 -9 92.43 3.75
0 3 9 109.52 5.57
0 -3 -9 93.94 3.78
0 -3 -9 107.75 4.88
0 -3 -9 94.98 4.39
0 -3 -9 88.62 3.92
0 -3 -10 27.33 2.07
0 3 10 30.41 3.15
0 -3 -10 28.47 1.95
0 -3 -10 29.14 2.76
0 -3 -10 31.9 2.45
0 3 10 26.05 2.77
0 -3 -10 29.9 2.49
0 -3 -10 31.16 2.07
0 3 11 367.33 13.51
0 -3 -11 369.98 9.95
0 -3 -11 372.88 12.13
0 -3 -11 362.68 10.35
0 3 11 368.04 12.47
0 3 12 5.71 1.52
0 -3 -12 2.9 0.78
0 -3 -12 3.88 1.25
0 3 12 4.27 1.36
0 -3 -12 3 0.77
0 -3 -13 2.81 1
0 3 13 2.18 0.9
0 3 13 1.32 1.13
0 -3 -13 2.12 0.71
0 3 14 73.3 5.41
0 -3 -14 81.58 5.56
0 3 15 12.83 2.63
0 3 15 7.67 1.77
0 -3 -15 9.26 2.12
0 3 16 30.15 3.69
0 -3 -16 36.51 4.02
0 3 16 34.47 4.53
0 3 17 5.61 1.91
0 3 17 10.81 2.69
0 -3 -17 8.5 2.02
0 4 -13 3.53 1.64
0 -4 13 3.23 1.43
0 4 -13 4.26 1.86
0 -4 12 2.79 1.53
0 4 -12 5.34 1.54
0 4 -12 6.27 1.98
0 4 -11 2.2 0.97
0 4 -11 0.14 0.77
0 -4 11 2.32 1.28
0 4 -10 17.45 3.1
0 -4 10 13.35 2.86
0 4 -10 12.3 2.12
0 4 -9 10.97 2.44
0 4 -9 10.61 2.06
0 -4 9 11.36 2.5
0 4 -8 20.87 3.25
0 -4 8 23.24 3.4
0 -4 8 24.33 2.4
0 4 -8 20.66 2.61
0 -4 8 26.53 3.04
0 -4 7 193.81 10.12
0 4 -7 189.15 8.35
0 -4 7 209.58 8.95
0 -4 7 200.71 7.69
0 4 -7 205.69 10.27
0 -4 7 206.08 8.99
0 -4 6 2.63 1.16
0 -4 6 3.71 1.22
0 -4 6 4.37 1.62
0 4 -6 4.5 1.54
0 4 -6 3.92 1.18
0 -4 6 2.7 0.93
0 4 -5 159.84 8.56
0 4 -5 163.25 7.13
0 -4 5 180.76 7.74
0 -4 5 159.52 7.34
0 -4 5 165.68 6.65
0 -4 5 154.36 8.5
0 -4 4 719.66 15.72
0 -4 4 708.11 19.47
0 4 -4 709.01 18.93
0 -4 4 675.68 21.29
0 -4 4 728.3 19.63
0 4 -4 713.42 21.44
0 -4 4 701.44 18.22
0 4 -3 20.42 2.67
0 -4 3 18.92 2.3
0 -4 3 19.46 2.74
0 -4 3 16.64 2.14
0 4 -3 21.06 2.27
0 -4 3 22.02 1.37
0 -4 3 23.68 2.22
0 4 -2 30.61 2.67
0 -4 2 30.5 2.78
0 -4 2 32.26 1.37
0 -4 2 24.01 3.04
0 -4 2 28.67 2.43
0 -4 2 31.32 1.67
0 -4 2 28.81 2.7
0 4 -2 34.81 3.56
0 -4 1 0.46 0.63
0 4 -1 -0.54 0.81
0 4 -1 -0.3 0.62
0 -4 1 0.34 0.31
0 -4 1 -0.01 0.37
0 -4 1 -0.2 0.49
0 -4 1 0.72 0.26
0 4 -1 1.06 0.69
0 4 0 248.53 10.22
0 4 0 244.65 8.37
0 -4 0 241.82 8.88
0 -4 0 233.48 8.42
0 -4 0 237.75 6.52
0 -4 0 238.7 8.17
0 4 0 244.02 9.9
0 -4 0 254.48 6.15
0 -4 -1 215.84 5.65
0 -4 -1 211.83 7.49
0 -4 -1 204.69 8.03
0 4 1 215.09 9.28
0 4 1 206.07 7.56
0 4 1 210.53 9.07
0 -4 -1 205.29 5.89
0 4 1 210.87 7.46
0 -4 -1 223.65 7.94
0 -4 -2 21.76 1.47
0 -4 -2 20.98 1.35
0 -4 -2 20.21 2.1
0 -4 -2 16.72 2.08
0 4 2 22.22 2.69
0 4 2 20.93 2.04
0 4 2 22.23 2.03
0 -4 -2 18.05 1.9
0 4 2 23.97 2.86
0 4 3 367.57 10.17
0 -4 -3 349.64 10.52
0 4 3 372.52 10.48
0 4 3 347.71 12.46
0 -4 -3 338.27 8.83
0 4 3 332.98 11.99
0 -4 -3 349.35 8.66
0 -4 -3 324.8 10.55
0 -4 -4 7.18 1.32
0 4 4 9.87 1.99
0 -4 -4 4.18 0.62
0 -4 -4 2.27 0.63
0 -4 -4 6.15 1.26
0 4 4 9.18 1.79
0 4 4 6.52 1.08
0 -4 -5 3.33 0.74
0 4 5 2.5 0.94
0 -4 -5 2.63 0.88
0 -4 -5 4.46 1.04
0 4 5 4.94 1.32
0 4 5 3.05 0.67
0 -4 -5 4.03 0.72
0 4 5 2.97 1.09
0 4 6 448.59 14.5
0 -4 -6 437.96 11.01
0 -4 -6 408.35 11.43
0 -4 -6 449.4 12.73
0 4 6 431.31 13.73
0 -4 -6 455.1 11.04
0 -4 -6 416.65 12.65
0 4 6 428.23 14.3
0 -4 -7 72.98 4.24
0 4 7 71.11 4.9
0 -4 -7 64.99 3.39
0 4 7 74.76 5.06
0 -4 -7 69.67 3.2
0 -4 -7 73.39 4.15
0 4 7 66.8 4.52
0 -4 -7 70.74 3.25
0 -4 -8 53.9 3.7
0 4 8 49.88 3.88
0 4 8 56.35 4.44
0 -4 -8 54.25 3.1
0 -4 -8 54.05 2.9
0 -4 -8 54.58 2.85
0 -4 -8 60.53 3.82
0 4 9 8.24 1.64
0 -4 -9 9.31 1.3
0 -4 -9 8.82 1.19
0 4 9 8.38 1.82
0 -4 -9 7.85 1.52
0 -4 -9 8.37 1.44
0 -4 -9 9.3 1.23
0 -4 -10 6.12 1.25
0 -4 -10 8.51 1.34
0 -4 -10 8.96 1.27
0 4 10 8.06 1.75
0 4 10 8.14 1.65
0 -4 -10 9.3 1.68
0 -4 -10 7.55 1.17
0 -4 -11 66.93 3.69
0 4 11 74.08 5.54
0 -4 -11 76.2 4.12
0 -4 -11 78.97 5.04
0 4 11 71.85 4.93
0 -4 -11 74.25 3.73
0 4 12 39.87 3.75
0 -4 -12 32.61 3.31
0 -4 -12 28.06 2.33
0 -4 -12 32.98 2.61
0 4 12 38.37 4.14
0 -4 -13 9.6 1.87
0 -4 -13 8.81 1.38
0 4 13 5.82 1.56
0 4 13 9.94 2.16
0 -4 -13 6.97 1.18
0 -4 -14 99.71 5.2
0 4 14 122.44 7.99
0 -4 -14 105.47 6.56
0 4 14 103.65 6.57
0 -4 -15 0.46 0.62
0 4 15 2.42 1.09
0 4 15 0.33 0.91
0 4 16 2.2 1.48
0 -4 -16 3.31 1.32
0 4 16 0.76 0.71
0 5 -11 43.41 5.48
0 5 -11 43.24 4.6
0 -5 11 42.22 5.49
0 5 -10 2.31 1.28
0 5 -10 0.58 0.68
0 -5 10 1.02 1.01
0 5 -9 3.94 1.38
0 5 -9 2.93 1.38
0 -5 9 4.82 2.35
0 5 -8 58.36 5.92
0 -5 8 52.49 5.66
0 -5 8 52.36 4.04
0 5 -8 44.71 4.22
0 5 -7 14.79 2.32
0 -5 7 22.68 3.69
0 -5 7 18.77 2.35
0 5 -7 15.53 3.01
0 -5 7 22.47 2.97
0 5 -6 155.71 7.91
0 -5 6 172.21 8.47
0 -5 6 153.22 7.14
0 -5 6 154.44 9.59
0 5 -6 161.52 9.65
0 5 -5 218.8 9.44
0 -5 5 214.65 11.36
0 -5 5 216.09 8.74
0 -5 5 246.79 10.23
0 5 -5 225.5 11.49
0 -5 4 750.08 19.98
0 5 -4 713.17 20.63
0 5 -4 737.65 23.6
0 -5 4 692.78 23.08
0 -5 4 768.77 21.5
0 -5 3 54.74 2.67
0 5 -3 55.13 5.17
0 -5 3 51.07 4.03
0 -5 3 55.53 4.36
0 5 -3 49.08 3.97
0 -5 3 54.13 3.86
0 -5 3 51.74 5.09
0 5 -2 0.4 0.7
0 -5 2 0.14 0.47
0 5 -2 -0.47 1.01
0 -5 2 1.33 0.54
0 -5 2 0.67 0.78
0 -5 2 -0.06 0.71
0 5 -2 -0.4 0.45
0 -5 1 281.57 10.37
0 5 -1 287.87 12.49
0 5 -1 285.57 12.18
0 -5 1 278.41 10.81
0 5 -1 300.84 10.55
0 -5 1 267.36 9.92
0 -5 1 301.22 8.06
0 -5 0 21.14 2.43
0 -5 0 19.93 2.56
0 -5 0 22.18 2.53
0 -5 0 22.4 1.68
0 5 0 18.52 2.79
0 5 0 22.17 2.53
0 5 0 20.51 2.35
0 -5 0 24.96 1.46
0 5 0 21.65 3.12
0 -5 -1 15.44 2.03
0 -5 -1 14.79 1.36
0 -5 -1 17.54 2.38
0 -5 -1 17.6 1.26
0 5 1 16.34 2.07
0 5 1 17.13 2.17
0 5 1 14.23 2.45
0 5 1 16.01 2.65
0 -5 -1 18.61 2.21
0 5 2 6.35 1.64
0 5 2 8.29 1.84
0 5 2 7.2 1.38
0 -5 -2 6.35 0.81
0 -5 -2 6.03 1.38
0 -5 -2 7.07 1.4
0 -5 -2 10.12 1.87
0 -5 -2 6.34 0.94
0 -5 -3 102.22 3.72
0 -5 -3 99.47 5.25
0 -5 -3 93.97 5.7
0 -5 -3 92 3.88
0 5 3 102.55 6.76
0 5 3 96.26 6.31
0 -5 -3 87.88 5.01
0 5 4 2.39 1.2
0 -5 -4 6.83 1.58
0 -5 -4 7 1
0 5 4 8.29 1.92
0 -5 -4 5.8 1.31
0 -5 -4 6.59 1.33
0 -5 -4 7.09 0.94
0 5 5 167.07 8.48
0 -5 -5 176.78 7.48
0 -5 -5 184.36 6.14
0 5 5 180.95 9.07
0 -5 -5 185.59 7.68
0 -5 -5 183.6 5.89
0 -5 -6 108.24 4.43
0 5 6 97.59 6.44
0 -5 -6 108.75 5.68
0 5 6 98.25 6.52
0 -5 -6 105.56 4.27
0 5 6 101.93 6.29
0 -5 -6 109.47 5.65
0 -5 -7 212.2 8.63
0 5 7 212.28 9.57
0 -5 -7 221.18 7.15
0 5 7 212.93 10.11
0 5 7 213.46 10.1
0 -5 -7 226.2 7.09
0 -5 -7 226.75 8.8
0 5 8 5.21 1.6
0 5 8 1.98 1.02
0 -5 -8 4.33 1.13
0 -5 -8 5.16 0.97
0 -5 -8 4.46 1.25
0 -5 -8 4.27 0.88
0 5 8 4.04 1.42
0 -5 -9 34.59 3.16
0 -5 -9 32.71 2.46
0 5 9 27.78 3.44
0 -5 -9 30.43 3.01
0 5 9 30.13 3.29
0 -5 -9 25.97 2.18
0 -5 -10 33.5 3.31
0 5 10 34.36 3.85
0 -5 -10 30.84 2.53
0 5 10 26.42 3.13
0 -5 -10 35.49 3.28
0 -5 -10 32.34 2.52
0 5 11 38.89 4.21
0 -5 -11 37.65 2.82
0 -5 -11 40.84 2.92
0 -5 -11 38.34 3.67
0 5 11 32.71 3.5
0 -5 -12 2.09 0.86
0 -5 -12 2.26 0.75
0 5 12 4.34 1.63
0 -5 -12 4.61 1.36
0 5 12 2.19 1.04
0 -5 -13 24.45 3.13
0 5 13 22.87 3.09
0 -5 -13 23.37 2.34
0 5 13 25.62 3.59
0 -5 -13 21.36 2.31
0 5 14 8.78 2.02
0 -5 -14 4.68 1.39
0 -5 -14 2.44 0.85
0 -5 -14 2.95 0.88
0 5 14 9.72 2.41
0 -5 -15 72.97 5.71
0 5 15 63.08 5.35
0 -5 -15 63.98 4.42
0 5 15 60.92 6
0 6 -9 24.06 3.56
0 6 -9 22.89 4.22
0 -6 9 25.59 4.36
0 -6 8 3.54 1.77
0 6 -8 3.67 1.43
0 6 -8 2.01 1.46
0 -6 8 3.13 1.19
0 -6 7 13.53 2.24
0 6 -7 11.26 2.95
0 6 -7 12.47 2.47
0 -6 7 11.59 2.92
0 6 -6 25.46 3.51
0 -6 6 27.36 3.61
0 -6 6 28.79 4.65
0 6 -6 28.73 4.45
0 -6 6 19.8 2.75
0 -6 5 36.71 3.61
0 6 -5 36.95 3.95
0 6 -5 45.35 5.34
0 -6 5 33.49 3.87
0 -6 5 28.91 4.29
0 -6 4 3.24 1.23
0 -6 4 2.96 1.3
0 -6 4 1.13 1.33
0 6 -4 0.24 1.29
0 6 -4 4.3 1.51
0 6 -4 2.63 1.38
0 6 -3 37.92 3.92
0 6 -3 40.54 4.91
0 -6 3 36.67 3.55
0 -6 3 38.92 4.09
0 6 -3 29.35 4.2
0 6 -2 78.64 6.57
0 -6 2 71.3 5.51
0 -6 2 68.84 4.84
0 -6 2 75.02 3.65
0 6 -2 63.38 6.06
0 6 -1 50.89 5.4
0 6 -1 54.58 4.57
0 -6 1 59.05 4.41
0 -6 1 51.98 4.63
0 6 -1 49.46 5.17
0 -6 1 55.02 3.07
0 -6 0 47.99 4
0 6 0 48.21 5.21
0 -6 0 40.43 2.64
0 -6 0 40.83 4.09
0 6 0 49.66 5.13
0 -6 -1 5.96 1.43
0 6 1 4.76 1.71
0 6 1 3.79 1.57
0 -6 -1 5.49 0.95
0 -6 -1 5.21 1.31
0 -6 -1 3.61 1.3
0 6 2 42.22 4.57
0 -6 -2 40.25 4.07
0 -6 -2 40.88 3.65
0 6 2 41.02 4.6
0 -6 -2 42.45 2.4
0 -6 -2 45.64 3.79
0 -6 -2 38.27 2.59
0 -6 -3 9.49 1.13
0 6 3 7.86 2.24
0 6 3 9.02 2.05
0 -6 -3 8.34 1.67
0 -6 -3 8.72 1.26
0 -6 -3 11.52 2.25
0 -6 -3 10.51 1.88
0 6 4 23.8 3.51
0 -6 -4 24.36 2.75
0 -6 -4 24.47 3.26
0 6 4 16 2.79
0 -6 -4 23.87 1.85
0 -6 -4 22.98 2.69
0 -6 -4 22.46 2.04
0 6 5 41.05 4.32
0 -6 -5 34.58 3.88
0 6 5 38.67 4.38
0 -6 -5 33.29 3.18
0 -6 -5 34.52 2.55
0 -6 -5 34.06 2.34
0 -6 -5 38.53 3.54
0 6 6 3.65 1.35
0 -6 -6 2.07 0.76
0 -6 -6 4.17 1.67
0 6 6 5.99 2.01
0 -6 -6 4.21 1.42
0 -6 -6 1.89 0.65
0 6 6 5.77 2.05
0 -6 -6 4.66 1.33
0 -6 -7 35.45 2.73
0 -6 -7 38.23 3.59
0 6 7 38.43 4.38
0 -6 -7 39.8 2.73
0 6 7 39.99 4.42
0 6 7 39.08 4.12
0 -6 -7 41.01 3.62
0 -6 -8 4.26 1.32
0 6 8 5.25 1.62
0 6 8 6.54 1.96
0 6 8 6.36 1.94
0 -6 -8 5.6 1.43
0 -6 -8 5.68 1.1
0 -6 -8 8.14 1.34
0 -6 -9 105.63 6.25
0 -6 -9 122.23 6.76
0 6 9 115.06 7.71
0 -6 -9 107.02 5.13
0 -6 -9 103.65 4.98
0 6 9 96.43 6.64
0 -6 -10 29.5 2.59
0 -6 -10 27.75 3.18
0 6 10 28.91 3.82
0 6 10 31.98 3.72
0 -6 -10 27.41 2.53
0 -6 -10 31.5 3.39
0 -6 -11 -0.67 0.67
0 6 11 0.73 0.56
0 6 11 0.63 1.01
0 -6 -11 0.7 0.5
0 -6 -11 0.71 0.59
0 -6 -12 1.59 0.7
0 6 12 0.46 0.82
0 6 12 1.16 0.86
0 -6 -12 1.18 0.74
0 -6 -12 2.01 1.19
0 -6 -13 3.61 1.45
0 -6 -13 2.51 0.93
0 -6 -13 -0.27 0.64
0 6 13 4.96 1.83
0 6 13 0.91 0.98
0 -7 6 35.73 4.41
0 7 -6 27.53 4.71
0 7 -6 21 4.03
0 -7 6 27.43 3.47
0 7 -5 0.03 0.8
0 7 -5 1.27 1.22
0 -7 5 1.54 0.93
0 -7 5 1.27 1.03
0 -7 4 1.72 1.2
0 -7 4 1.31 0.75
0 7 -4 1.58 1.03
0 7 -4 2.98 2.04
0 -7 3 0.89 0.74
0 7 -3 2.38 1.44
0 7 -3 1.72 1.32
0 -7 3 1.64 1.04
0 7 -2 3.66 1.74
0 7 -2 8.68 2.44
0 -7 2 4.66 1.66
0 -7 2 3.73 1.4
0 7 -1 37.15 5
0 -7 1 39.87 3.99
0 7 -1 38.72 4.91
0 -7 1 37.98 4.37
0 7 0 110.02 8.64
0 -7 0 121.67 7.88
0 -7 0 101.43 4.95
0 7 0 105.52 8.22
0 -7 0 99.54 6.48
0 -7 -1 41.81 4.07
0 -7 -1 43.59 4.63
0 7 1 37.06 4.99
0 -7 -1 43.04 3.04
0 7 1 43.95 5.17
0 -7 -2 62.71 5.58
0 7 2 63.51 6.03
0 -7 -2 52.88 4.63
0 7 2 56.82 6.04
0 -7 -2 58.91 3.65
0 -7 -3 3.74 1.51
0 7 3 2.83 1.54
0 7 3 3.63 1.47
0 -7 -3 1.58 1.05
0 -7 -3 2.03 0.74
0 7 4 -1.55 1.41
0 -7 -4 -0.13 0.9
0 7 4 -0.33 1.08
0 -7 -4 1.72 1.13
0 -7 -4 0.02 0.49
0 -7 -4 1.6 0.61
0 -7 -4 1.51 1.01
0 7 5 50.29 5.54
0 -7 -5 49.14 4.22
0 -7 -5 52.41 5.28
0 -7 -5 50.33 3.43
0 -7 -5 54.54 3.21
0 -7 -5 53.76 4.75
0 7 5 51.41 5.31
0 -7 -6 0.52 0.63
0 7 6 1.38 1.29
0 7 6 -0.39 0.86
0 -7 -6 0.47 0.68
0 -7 -6 0.47 0.43
0 -7 -6 -1.15 1.14
0 -7 -6 1.8 1.3
0 7 7 9.54 2.33
0 -7 -7 4.46 1.05
0 7 7 6.56 2
0 -7 -7 6.8 1.76
0 -7 -7 5.29 1.87
0 -7 -7 3.56 0.99
0 -7 -7 4.44 1.32
0 7 8 8.2 2.08
0 -7 -8 9.49 1.46
0 7 8 6.65 2
0 -7 -8 10.73 2.14
0 -7 -8 6.04 2.29
0 -7 -8 8.13 1.47
0 -7 -8 5.79 1.44
0 7 8 9.81 2.41
0 -7 -9 10.07 2
0 -7 -9 10.77 1.67
0 7 9 11.03 2.48
0 7 9 11.73 2.56
0 -7 -9 9.04 1.89
0 -7 -9 9.64 2.44
0 -7 -9 10.71 1.67
0 7 9 16.42 3.18
0 7 10 5.66 1.78
0 7 10 5.84 1.72
0 -7 -10 6.24 1.69
0 -7 -10 8.79 1.53
0 -7 -10 8.92 1.72
0 -7 -10 5.85 1.54
0 -7 -11 7.93 1.47
0 -7 -11 7.68 1.86
0 7 11 6.37 2.03
0 -7 -11 8.14 1.57
0 8 -1 72.24 7.67
0 -8 1 76.84 6.88
0 -8 1 68.42 5.92
0 8 -1 62.33 6.86
0 -8 0 3.53 1.73
0 -8 0 2.84 1.5
0 8 0 4.4 2.15
0 8 0 4.09 1.81
0 -8 -1 20.21 3.56
0 8 1 20.37 4.01
0 -8 -1 20.89 3.19
0 8 1 23.65 4.04
0 -8 -1 22.73 2.54
0 8 2 16.87 3.47
0 -8 -2 19.16 3.43
0 -8 -2 16.79 2.17
0 8 2 17.99 3.69
0 -8 -2 15.22 2.78
0 8 3 13.66 3.24
0 -8 -3 14.99 2.71
0 -8 -3 12.98 1.9
0 -8 -3 11.79 2.82
0 -8 -4 0.69 0.73
0 -8 -4 1.4 1.13
0 8 4 2.21 1.58
0 -8 -4 -0.99 1.29
0 -8 -5 5.31 1.73
0 -8 -5 3.88 1.73
0 8 5 4.89 1.84
0 -8 -5 6.53 1.38
0 8 6 31.46 4.61
0 -8 -6 43.17 4.63
0 -8 -6 38.87 3.39
0 8 6 40.36 5.27
0 -8 -6 37.45 4.97
0 -8 -7 156.31 9.11
0 8 7 159.26 10.81
0 -8 -7 154.77 10.23
0 -8 -7 153.33 7.35
0 -8 -7 147.86 6.67
0 8 7 151.93 10.42
-1 7 9 8.54 2.33
-1 7 9 10.44 2.35
1 -7 -9 9.07 1.84
1 -7 -9 9.22 2.45
1 -7 -9 8.35 2.01
-1 7 8 12.62 2.75
-1 7 8 11.73 2.66
-1 7 8 10.05 2.42
1 -7 -8 11.45 2.69
1 -7 -8 10.09 2.24
1 -7 -8 10.13 1.7
1 -7 -7 1.55 1.08
-1 7 7 0.51 0.89
-1 7 7 -0.96 1.17
1 -7 -7 1.08 1.13
1 -7 -7 2.07 0.81
-1 7 7 3 1.43
-1 7 6 123.76 8.74
1 -7 -6 142.13 8.34
1 -7 -6 137.75 9.18
1 -7 -6 130.48 6.7
-1 7 6 150.13 9.72
-1 7 6 144.71 9.67
1 -7 -5 12.23 2.49
-1 7 5 12.86 2.92
1 -7 -5 10.31 1.77
-1 7 5 16.04 3.17
1 -7 -5 8.07 2.17
-1 7 4 8.14 2.27
1 -7 -4 4.49 1.15
-1 7 4 6.37 1.97
1 -7 -4 6.15 2.04
1 -7 -4 6.41 1.71
1 -7 -3 36.76 3.26
1 -7 -3 43.48 4.9
1 -7 -3 46.25 4.52
-1 7 3 37.72 5.04
-1 7 3 45.53 5.36
1 -7 -2 24.24 3.67
-1 7 2 28.35 4.42
-1 7 2 16.42 3.3
1 -7 -2 19.5 2.97
1 -7 -2 21.13 2.41
1 -7 -1 3.06 1.42
-1 7 1 2.8 1.2
1 -7 -1 0.85 0.92
-1 7 1 2.75 1.66
-1 7 0 1.85 1.48
1 -7 0 0.56 0.93
1 -7 0 3.05 1.27
-1 7 0 0.59 1.68
-1 7 -1 23.17 4.09
1 -7 1 27.34 4.1
-1 7 -1 27.59 4.58
1 -7 1 28.94 3.54
-1 7 -2 4.53 1.93
-1 7 -2 7.61 2.78
1 -7 2 11.45 2.71
1 -7 2 8.56 1.94
-1 7 -3 -0.11 1.25
1 -7 3 1.63 1.04
1 -7 3 -0.96 1.19
-1 7 -3 0.71 1.01
-1 7 -4 14.25 3.62
1 -7 4 10.98 2.51
1 -7 4 18.91 2.95
-1 7 -4 11.89 3.13
1 -6 -12 119.89 8.13
-1 6 12 130.7 8.51
-1 6 12 146.7 9.13
1 -6 -12 146.42 7.94
-1 6 11 52.47 5.2
1 -6 -11 41.77 3.66
-1 6 11 38.73 4.53
1 -6 -11 49.9 4.72
1 -6 -11 38.35 4.41
1 -6 -11 44.93 4.1
1 -6 -10 37.29 4.31
1 -6 -10 34.64 3.53
1 -6 -10 37.51 4.04
1 -6 -10 29.52 3
-1 6 10 27.87 3.9
-1 6 10 39.97 4.43
1 -6 -9 2.49 0.81
1 -6 -9 2.8 1.11
1 -6 -9 1.39 0.72
1 -6 -9 2.57 0.97
-1 6 9 0.23 1.27
-1 6 9 2.49 1.28
1 -6 -9 2.1 0.73
1 -6 -8 1.31 0.86
1 -6 -8 0.22 0.65
1 -6 -8 0.44 0.81
-1 6 8 -0.21 0.76
1 -6 -8 0.05 0.58
1 -6 -8 -0.77 1.02
-1 6 8 -0.34 0.57
-1 6 8 -0.06 0.9
1 -6 -7 0.77 0.76
-1 6 7 0.37 0.92
1 -6 -7 -0.62 0.88
1 -6 -7 -0.42 0.71
-1 6 7 1.27 1.12
-1 6 7 -0.49 0.66
1 -6 -7 0.39 0.75
1 -6 -7 -0.85 0.81
1 -6 -6 5.29 1.33
1 -6 -6 5.01 1.73
1 -6 -6 3.53 0.98
1 -6 -6 4.88 0.98
-1 6 6 5.56 1.6
-1 6 6 4.43 1.59
-1 6 6 3.79 1.47
1 -6 -6 2.44 0.92
1 -6 -5 74.06 4.4
1 -6 -5 82.85 6.3
-1 6 5 79.69 6.48
-1 6 5 80.15 6.68
1 -6 -5 82.05 5.62
1 -6 -5 74.29 4.04
1 -6 -4 31.24 2.74
1 -6 -4 29.46 3.35
-1 6 4 33.49 4.36
-1 6 4 31.18 4.01
1 -6 -4 37.28 4.11
1 -6 -4 31.3 2.44
1 -6 -3 72.52 3.66
1 -6 -3 66.75 5.05
-1 6 3 65.07 6.02
1 -6 -3 63.1 3.94
1 -6 -3 67.33 5.63
-1 6 3 66.91 6.15
-1 6 2 69.18 6.18
1 -6 -2 72.41 5.82
-1 6 2 73.36 6.59
1 -6 -2 67.15 4.04
1 -6 -2 69.57 5.08
-1 6 1 4.95 1.94
-1 6 1 5.49 1.93
1 -6 -1 4.57 1.01
1 -6 -1 5.08 1.25
1 -6 -1 5.15 1.59
1 -6 0 47.7 4.71
1 -6 0 45.17 4.03
-1 6 0 50.14 5.49
-1 6 0 49.05 5.32
1 -6 0 45.83 3.21
1 -6 1 3.6 1.37
-1 6 -1 2.33 1.22
1 -6 1 3.71 1.43
-1 6 -1 3.74 1.64
-1 6 -2 163.19 10.51
-1 6 -2 182.86 10.86
1 -6 2 164.84 9.38
1 -6 2 164.49 8.25
1 -6 3 7.22 1.72
-1 6 -3 5.79 2.04
-1 6 -3 2.35 1.74
1 -6 3 7.37 1.93
-1 6 -4 57.99 6.19
1 -6 4 59.96 5.5
-1 6 -4 57.01 6.24
1 -6 4 54.47 4.54
1 -6 5 16.29 2.51
-1 6 -5 16.97 3.57
-1 6 -5 25.46 4.14
1 -6 5 19.96 3.28
-1 6 -6 11.47 2.97
1 -6 6 22.31 3.44
1 -6 6 13.38 2.98
-1 6 -6 22.5 3.88
1 -6 6 19.52 2.71
-1 6 -7 55.01 6.47
1 -6 7 49.01 5.94
1 -6 7 55.83 5.58
1 -6 7 50.08 4.47
1 -6 8 -0.11 0.7
-1 6 -8 -0.61 0.93
-1 6 -8 -0.02 0.92
1 -6 8 -0.53 1.15
1 -5 -14 39.88 4.15
-1 5 14 41.09 4.72
-1 5 14 36.67 4.34
-1 5 13 -0.72 0.61
1 -5 -13 -0.09 0.8
-1 5 13 0.5 0.89
-1 5 12 -1.78 1.14
-1 5 12 0.15 1.11
1 -5 -12 1.12 0.94
1 -5 -11 18.35 2.68
1 -5 -11 13.05 1.89
-1 5 11 19.06 2.94
-1 5 11 17.26 2.78
1 -5 -11 20.43 2.67
1 -5 -10 4.07 1.46
-1 5 10 5.63 1.85
1 -5 -10 6.65 1.49
1 -5 -10 3.41 1
1 -5 -10 3.3 0.9
-1 5 10 3.93 1.4
1 -5 -9 84.63 5.62
-1 5 9 81.17 5.92
1 -5 -9 81.69 4.63
1 -5 -9 86.27 5.21
-1 5 9 70.12 5.68
1 -5 -9 85.39 4.57
1 -5 -8 131.27 5.91
-1 5 8 128.39 7.82
1 -5 -8 121.06 7.2
1 -5 -8 139.71 6.61
1 -5 -8 130.13 5.71
-1 5 8 136.54 7.74
1 -5 -8 135.35 7.12
-1 5 7 2.01 0.88
-1 5 7 0.91 0.86
1 -5 -7 2.7 1.26
1 -5 -7 2.04 0.87
1 -5 -7 1.37 0.61
1 -5 -7 2.64 0.8
1 -5 -7 1.75 0.7
-1 5 7 2.93 1.2
-1 5 6 1.15 0.92
-1 5 6 0.98 0.96
1 -5 -6 1.17 1.2
1 -5 -6 0.67 0.57
1 -5 -6 0.73 0.56
1 -5 -6 0.42 0.43
-1 5 6 1.22 0.95
1 -5 -6 0.41 0.6
1 -5 -5 70.22 5.23
-1 5 5 86.16 6.32
-1 5 5 72.55 5.42
-1 5 5 71.01 5.51
1 -5 -5 77.79 5.03
1 -5 -5 69.74 4.22
1 -5 -5 66.98 3.56
1 -5 -5 75.46 4.02
1 -5 -4 25.25 2.4
-1 5 4 34.65 3.84
1 -5 -4 34.38 2.34
1 -5 -4 28.62 2.98
-1 5 4 26.46 3.49
1 -5 -4 31.54 3.44
1 -5 -4 28.53 2.35
1 -5 -3 116.52 5.38
-1 5 3 114.86 7.59
1 -5 -3 112.05 6.1
1 -5 -3 109.34 4.46
-1 5 3 120.12 7.39
1 -5 -3 113.5 4.96
1 -5 -3 117.32 6.8
-1 5 2 71.03 5.92
1 -5 -2 69.73 5.16
1 -5 -2 72.64 3.28
1 -5 -2 69.95 3.72
-1 5 2 69.12 5.73
1 -5 -2 68.28 3.95
1 -5 -2 75.31 4.8
1 -5 -1 21.69 1.62
-1 5 1 22.84 3.33
1 -5 -1 16.93 2.21
-1 5 1 16.39 2.79
1 -5 -1 17.22 1.69
1 -5 -1 18.17 2.63
1 -5 0 4.39 1.3
1 -5 0 3.79 0.89
-1 5 0 2.04 0.94
-1 5 0 4.03 1.53
1 -5 0 5.15 1.28
-1 5 -1 2 1.79
1 -5 1 0.39 0.73
-1 5 -1 0.16 0.74
1 -5 1 0.02 0.59
1 -5 1 -0.35 0.6
-1 5 -2 76.07 6.41
1 -5 2 71.47 5.37
1 -5 2 68.84 4.63
-1 5 -2 73.68 6.07
1 -5 3 35.67 3.76
1 -5 3 34.13 3.15
-1 5 -3 28.41 3.85
-1 5 -3 30.54 4.08
-1 5 -3 28.93 2.88
-1 5 -4 16.42 2.3
-1 5 -4 16.28 2.92
1 -5 4 11.14 2.38
1 -5 4 16.3 2.61
1 -5 4 14.22 2.06
-1 5 -4 17.06 3.06
1 -5 5 4.38 1.87
1 -5 5 5.58 1.61
-1 5 -5 4.47 1.78
1 -5 5 3.92 1.12
-1 5 -5 4.91 1.25
1 -5 6 26.21 3.9
1 -5 6 17.02 2.31
-1 5 -6 22.85 2.74
-1 5 -6 20.11 3.5
1 -5 6 20.62 3.19
1 -5 7 0.86 1.07
1 -5 7 -0.14 0.45
-1 5 -7 0.38 0.52
-1 5 -7 -0.5 1.21
1 -5 7 -0.58 0.98
1 -5 8 1.69 1.05
-1 5 -8 5.6 2.01
1 -5 8 3.13 1.66
-1 5 -8 2.9 1.15
-1 5 -9 1.04 0.99
-1 5 -9 1.83 1.32
1 -5 9 1.74 1.06
1 -5 9 -1.26 1.09
-1 5 -10 -0.28 0.94
1 -5 10 1.03 1.23
-1 5 -10 -2.16 1.39
-1 5 -11 7.56 2.59
1 -5 11 6.6 2.33
-1 5 -11 7.84 1.93
1 -4 -15 20.46 3.04
-1 4 15 17.41 3.13
-1 4 15 22.84 3.33
-1 4 14 0.6 0.93
-1 4 14 -0.21 0.67
1 -4 -14 0.9 0.74
-1 4 13 33.06 3.87
1 -4 -13 31.22 3.44
-1 4 13 29.08 3.52
-1 4 12 6.3 1.62
-1 4 12 6.42 1.7
1 -4 -12 7.39 1.67
1 -4 -11 5.81 1.49
1 -4 -11 4.22 1.37
-1 4 11 5.94 1.55
-1 4 11 2.63 1.16
1 -4 -11 2.95 0.85
1 -4 -10 0.05 0.69
1 -4 -10 0.4 0.5
1 -4 -10 2.06 0.8
-1 4 10 -0.02 0.56
1 -4 -10 0.65 0.83
-1 4 10 2.44 1.17
1 -4 -9 -0.26 0.58
1 -4 -9 0.23 0.53
1 -4 -9 0.65 0.55
1 -4 -9 0.78 0.86
-1 4 9 1.23 0.96
-1 4 9 1.5 0.89
-1 4 8 2.87 1.1
1 -4 -8 1.53 0.56
1 -4 -8 3.14 0.93
1 -4 -8 3.08 0.9
-1 4 8 4.03 1.43
1 -4 -8 1.84 0.73
1 -4 -7 21.88 1.95
-1 4 7 21.78 2.64
1 -4 -7 20.74 1.87
1 -4 -7 21.13 2.41
-1 4 7 19.68 2.52
-1 4 7 20.82 2.83
1 -4 -7 22.16 2.29
-1 4 6 41.09 3.9
-1 4 6 33.83 3.26
-1 4 6 39.91 3.57
1 -4 -6 37.08 2.45
1 -4 -6 35.28 2.5
1 -4 -6 38.13 3.18
1 -4 -6 37.1 2.81
1 -4 -5 3.18 0.93
1 -4 -5 4.96 1.21
1 -4 -5 3.06 0.81
-1 4 5 2.65 1.09
-1 4 5 2.35 0.93
1 -4 -5 3.69 0.8
1 -4 -5 3.39 1.17
-1 4 5 3.53 1.26
1 -4 -4 216.01 7.39
1 -4 -4 212.86 6.64
1 -4 -4 221.9 8.38
-1 4 4 223.98 9.95
-1 4 4 232.61 9.55
1 -4 -4 211.21 7
1 -4 -4 225.06 7.62
1 -4 -4 216.7 8.86
1 -4 -3 20.77 1.58
1 -4 -3 18.66 1.81
1 -4 -3 17.25 1.75
1 -4 -3 14.86 1.9
1 -4 -3 18.28 2.31
1 -4 -3 19.91 1.7
-1 4 3 19.9 2.74
-1 4 3 18.1 2.54
1 -4 -2 316.59 9.61
1 -4 -2 325.65 9.6
1 -4 -2 329.81 11.52
-1 4 2 338.13 12.45
-1 4 2 350.83 13.16
1 -4 -2 321.95 10.6
1 -4 -2 323.39 9.17
1 -4 -2 323.18 8.57
-1 4 1 169.74 8.71
1 -4 -1 178.45 7.83
1 -4 -1 161.66 5.67
1 -4 -1 165.69 5.17
1 -4 -1 181.36 6.44
-1 4 1 173.17 8.44
1 -4 -1 166.66 6.09
1 -4 -1 166.84 6.91
-1 4 1 182.51 6.49
1 -4 0 27.57 1.61
1 -4 0 22.51 2.23
1 -4 0 24.83 2.05
1 -4 0 19.18 2.37
-1 4 0 26.55 2.17
-1 4 0 27.66 3.19
1 -4 0 28.79 2
-1 4 0 27.12 3.29
-1 4 -1 84.48 5.79
1 -4 1 85.91 4.09
1 -4 1 90.72 3.78
1 -4 1 80.39 4.46
-1 4 -1 85.73 4.23
-1 4 -1 83.7 5.98
1 -4 1 85.1 5.24
1 -4 2 167.8 6.85
-1 4 -2 161.89 8.37
1 -4 2 160.98 8.22
-1 4 -2 163.49 6.47
1 -4 2 168.24 7.82
-1 4 -2 169.3 9.03
1 -4 3 51.23 4.09
-1 4 -3 51.6 4.81
1 -4 3 47.46 3.33
1 -4 3 37.12 3.87
-1 4 -3 46.72 3.2
-1 4 -3 47.76 4.46
-1 4 -4 3.84 0.98
-1 4 -4 4.57 1.41
1 -4 4 0.8 0.68
1 -4 4 3.65 1.04
1 -4 4 4.32 1.47
1 -4 5 783.43 19.82
1 -4 5 786.87 22.07
1 -4 5 756.1 23.05
-1 4 -5 709.97 19.42
-1 4 -5 768.19 23.3
1 -4 6 125.77 7.71
1 -4 6 129.88 7.13
-1 4 -6 115.43 7.56
-1 4 -6 115.35 5.7
-1 4 -7 62.67 4.18
1 -4 7 60.33 3.91
-1 4 -7 55.91 5.3
1 -4 7 59.79 5.42
1 -4 7 61.42 4.95
-1 4 -8 168.91 9.87
1 -4 8 194.16 9.42
1 -4 8 159.55 9.52
-1 4 -8 153.95 7.37
1 -4 8 184.87 7.44
1 -4 9 89.74 6.35
-1 4 -9 91.69 7.24
1 -4 9 83.8 6.81
-1 4 -9 81.38 5.25
1 -4 10 117.5 8.42
-1 4 -10 118.39 8.56
1 -4 10 132.76 7.95
-1 4 -10 113.62 6.6
-1 4 -11 3.83 1.42
1 -4 11 2.41 1.63
-1 4 -11 0.25 0.82
-1 4 -12 39.26 4.03
-1 4 -12 42.15 5.31
1 -4 12 34.57 4.7
-1 4 -13 10.3 2.2
1 -4 13 11.18 2.9
-1 4 -13 16.15 3.45
1 -3 -16 -0.41 0.61
-1 3 16 -0.33 0.81
-1 3 15 1.61 1
-1 3 15 0.25 0.97
1 -3 -15 0.66 0.84
-1 3 14 43.64 4.56
-1 3 14 38.57 4.07
1 -3 -14 37.42 3.9
1 -3 -13 97.39 6.07
-1 3 13 90.81 6.13
-1 3 13 96.54 6.64
1 -3 -12 40.64 3.65
-1 3 12 36.32 3.83
-1 3 12 43.96 4.19
1 -3 -11 8.13 1.58
1 -3 -11 9.61 1.76
-1 3 11 11.89 2.1
-1 3 11 8.49 1.73
-1 3 10 124.79 6.68
1 -3 -10 116.06 5.88
1 -3 -10 104.94 4.81
-1 3 10 110.03 6.44
1 -3 -10 133.2 6.28
1 -3 -9 5.51 1
1 -3 -9 9.38 1.64
-1 3 9 6.67 1.49
-1 3 9 7.16 1.48
1 -3 -9 8.55 1.52
1 -3 -9 5.14 0.94
-1 3 8 127.45 6.77
1 -3 -8 133.59 5.88
1 -3 -8 130.26 5.2
-1 3 8 136.41 6.57
1 -3 -8 132.58 5.16
1 -3 -8 151.56 6.42
1 -3 -8 123.35 5.85
-1 3 7 15.71 2.05
1 -3 -7 16.62 1.81
1 -3 -7 15.32 1.86
1 -3 -7 14.06 1.48
1 -3 -7 15.23 1.88
-1 3 7 11.88 1.91
1 -3 -7 12.28 1.34
1 -3 -6 36.27 2.81
1 -3 -6 33.56 2.52
1 -3 -6 33.14 1.84
1 -3 -6 33.34 2.64
-1 3 6 29.87 2.77
-1 3 6 32.3 3.12
1 -3 -6 34.02 2.19
1 -3 -6 33.41 2.23
1 -3 -5 140.46 4.92
-1 3 5 131.01 6.1
1 -3 -5 125.35 5.5
1 -3 -5 136.02 5.78
1 -3 -5 134.21 4.06
-1 3 5 133.89 6.2
1 -3 -5 134.61 4.73
1 -3 -5 134.56 5.3
-1 3 5 130.9 6.66
1 -3 -4 298.03 9.81
-1 3 4 320.34 11.22
-1 3 4 277.92 6.94
1 -3 -4 333.01 9.85
1 -3 -4 314.96 7.27
-1 3 4 305.19 10.13
1 -3 -4 298.79 8.35
1 -3 -4 312.7 8.18
-1 3 4 310.39 10.32
1 -3 -4 298.89 9.21
1 -3 -4 306.09 8.88
1 -3 -3 56.28 3.59
1 -3 -3 56.29 2.75
1 -3 -3 52.49 2.86
1 -3 -3 54.44 2.52
1 -3 -3 56.6 2.01
-1 3 3 58 2.35
-1 3 3 55.41 3.76
1 -3 -3 53.64 3.15
-1 3 3 57.76 4.24
1 -3 -3 55.48 3.34
-1 3 2 1369.4 32.66
-1 3 2 1353.05 28.19
-1 3 2 1300.98 27.63
1 -3 -2 1356.25 29.97
1 -3 -2 1337.58 30.63
1 -3 -2 1305.6 29.35
1 -3 -2 1304.16 28.63
1 -3 -2 1311.21 28.32
1 -3 -2 1300.55 27.79
-1 3 2 1320.88 31.48
1 -3 -1 24.36 2.31
-1 3 1 24.83 2.58
-1 3 1 24.81 1.64
1 -3 -1 23.83 1.97
1 -3 -1 25.95 1.79
1 -3 -1 26.07 2.17
1 -3 -1 24.81 1.48
-1 3 1 26.39 2.9
1 -3 -1 25.08 1.69
-1 3 0 63.95 2.9
-1 3 0 64.12 4.61
-1 3 0 68.14 4.41
1 -3 0 62.69 2.81
1 -3 0 63.2 3.34
1 -3 0 65.13 3.96
1 -3 0 58.47 2.88
1 -3 0 65.6 3.54
1 -3 0 62.27 2.39
1 -3 1 328.9 8.82
-1 3 -1 358.35 12.53
1 -3 1 369.54 9.41
1 -3 1 335.92 10.95
-1 3 -1 344.17 8.51
-1 3 -1 331.31 9.16
1 -3 1 369.39 10.21
1 -3 1 345.19 10.06
-1 3 -1 321.59 11.39
-1 3 -2 14.04 2.23
1 -3 2 14.22 1.4
1 -3 2 12.42 1.91
1 -3 2 14.75 1.93
-1 3 -2 13.42 1.1
-1 3 -2 16 2.16
1 -3 2 12.88 1.5
-1 3 -2 12.9 1.33
1 -3 3 2.67 1
-1 3 -3 3.74 0.84
-1 3 -3 3.11 1
-1 3 -3 3.2 0.53
1 -3 3 1.99 0.6
1 -3 3 1.72 0.58
1 -3 3 3.14 1.12
1 -3 4 2.11 0.72
-1 3 -4 2.53 0.76
1 -3 4 1.48 0.88
1 -3 4 1.26 0.76
1 -3 4 2.52 0.7
-1 3 -4 1.77 0.92
1 -3 5 2.98 0.79
1 -3 5 3.08 1.17
1 -3 5 4.24 1.19
-1 3 -5 3.29 0.78
1 -3 5 3.85 0.93
-1 3 -5 4.28 1.28
-1 3 -6 0.33 0.44
1 -3 6 0.54 0.93
1 -3 6 0.66 0.47
1 -3 6 -0.32 0.72
-1 3 -6 0.87 1
1 -3 7 44.29 4.17
-1 3 -7 49.4 3.3
-1 3 -7 50.23 4.54
1 -3 7 52.14 4.15
1 -3 7 49.34 3.14
-1 3 -8 1518.36 36.17
1 -3 8 1655.72 35.72
1 -3 8 1544.51 39.89
1 -3 8 1672.97 39.12
-1 3 -8 1625.99 40.41
-1 3 -9 86.36 4.93
1 -3 9 87.64 6.31
1 -3 9 89.33 5.88
-1 3 -9 92.16 6.61
1 -3 10 41.1 4.38
-1 3 -10 41.29 3.48
-1 3 -10 43.02 4.67
1 -3 10 45.34 4.19
1 -3 11 1.08 1.14
-1 3 -11 -0.03 0.91
1 -3 11 1.13 0.78
-1 3 -11 1.9 0.95
1 -3 12 12.19 2.58
-1 3 -12 11.99 2.7
-1 3 -12 14.7 2.27
-1 3 -13 48.06 4.22
1 -3 13 48.81 5.32
-1 3 -13 50.6 5.56
1 -3 14 25.41 3.96
-1 3 -14 27.57 4.29
-1 3 -14 29 3.45
-1 2 16 14.14 2.69
-1 2 16 8.26 2.39
1 -2 -16 8.26 1.93
1 -2 -15 0.77 0.79
-1 2 15 1.64 1.13
-1 2 15 0.19 0.67
1 -2 -14 22.55 2.94
-1 2 14 22.03 3.05
-1 2 14 22.54 3.3
1 -2 -13 1.07 0.64
-1 2 13 0.13 0.76
-1 2 13 1.83 1.04
-1 2 12 33.37 3.45
-1 2 12 39.14 3.88
1 -2 -12 35.35 3.36
-1 2 11 21.82 2.71
-1 2 11 25.27 2.97
1 -2 -11 22.04 2.49
1 -2 -10 446.3 13.69
1 -2 -10 475.91 13.54
-1 2 10 439.78 14.27
-1 2 10 461.24 14.56
-1 2 9 1.81 0.81
1 -2 -9 2.58 0.85
-1 2 9 2.54 0.98
1 -2 -9 3.98 1
1 -2 -9 3.38 0.64
1 -2 -8 197.77 7.3
-1 2 8 213.02 8.05
1 -2 -8 196.63 6.33
1 -2 -8 206.94 7.41
-1 2 8 199.82 8.07
1 -2 -8 201.89 5.65
1 -2 -8 190.94 7.59
1 -2 -7 483.58 12.29
1 -2 -7 540.92 13.66
1 -2 -7 447.69 10.88
1 -2 -7 467.27 13.56
-1 2 7 507.86 10.88
1 -2 -7 497.92 12.18
-1 2 7 431.54 13.87
-1 2 7 509.47 13.95
1 -2 -7 511.43 13.24
1 -2 -6 239.54 5.42
1 -2 -6 248.24 6.68
-1 2 6 227.54 8.41
1 -2 -6 246.57 7.4
1 -2 -6 233.07 6.66
1 -2 -6 253.86 7.74
-1 2 6 251.47 8.04
-1 2 6 251.8 5.7
1 -2 -6 245.62 7.95
1 -2 -5 221.72 6.52
-1 2 5 214.71 5.12
-1 2 5 235.84 7.33
1 -2 -5 226.77 6.95
1 -2 -5 209.03 4.47
1 -2 -5 214.11 5.91
-1 2 5 209.4 7.75
1 -2 -5 207.11 5.85
1 -2 -5 223.53 7.18
-1 2 4 560.71 14.32
1 -2 -4 556.98 13.42
1 -2 -4 554.6 12.94
1 -2 -4 532.8 12.77
-1 2 4 553.26 12.24
1 -2 -4 563.57 14.02
-1 2 4 558.19 14.36
-1 2 4 560.62 15.36
1 -2 -4 532.4 14.17
1 -2 -3 31.59 2.28
1 -2 -3 32.71 1.94
1 -2 -3 33.03 2.35
-1 2 3 38.31 2.55
1 -2 -3 36.87 1.35
1 -2 -3 34.17 2.29
1 -2 -3 34.53 1.8
-1 2 3 33.57 1.64
1 -2 -3 32.84 1.84
-1 2 3 34.75 2.81
-1 2 3 34.54 2.4
-1 2 2 242.8 8.61
1 -2 -2 234.1 7.15
1 -2 -2 229.3 7.27
-1 2 2 231.09 5.94
1 -2 -2 224.16 6.33
1 -2 -2 232.62 5.11
1 -2 -2 234.08 6.33
-1 2 2 244.61 7.73
1 -2 -2 233.83 7.41
-1 2 2 228.96 5.53
1 -2 -2 230.47 6.07
-1 2 1 8.73 0.66
1 -2 -1 7.71 0.81
-1 2 1 8.04 1.2
1 -2 -1 8.21 1.16
1 -2 -1 7.63 0.82
1 -2 -1 8.13 1.09
-1 2 1 7.65 1.36
1 -2 -1 7.9 0.72
1 -2 -1 7.56 1
1 -2 0 611.89 14.51
-1 2 0 624.73 15.66
1 -2 0 588.7 13.54
1 -2 0 624.05 15.28
1 -2 0 605.49 14.69
1 -2 0 573.66 13.34
-1 2 0 606.93 16.57
-1 2 0 609.58 13.09
1 -2 1 29.66 2.06
-1 2 -1 30.76 2.46
-1 2 -1 28.58 1.46
1 -2 1 28.14 2.28
1 -2 1 30.16 1.96
-1 2 -1 27.71 1.48
1 -2 1 25.45 2.18
1 -2 1 30.28 1.57
-1 2 -1 29.99 2.73
1 -2 2 177.52 6.51
1 -2 2 165.75 6.47
1 -2 2 195.87 6.26
-1 2 -2 176.6 5.04
1 -2 2 178.83 5.65
-1 2 -2 178.92 4.78
-1 2 -2 171.2 6.64
1 -2 2 159.78 4.97
-1 2 -3 215.25 7.77
-1 2 -3 205.79 5.44
1 -2 3 207.51 7.62
1 -2 3 209.53 7.5
1 -2 3 206.88 6.17
1 -2 3 217.41 6.5
-1 2 -3 219.84 6.08
1 -2 4 76.14 4.31
-1 2 -4 70.04 4.19
1 -2 4 67.89 3.22
-1 2 -4 76.15 3.19
1 -2 4 69.98 4
1 -2 4 76.63 3.32
-1 2 -4 73.06 2.54
-1 2 -5 42.28 1.76
1 -2 5 39.15 3.02
1 -2 5 35.9 2.4
1 -2 5 39.61 2.32
-1 2 -5 40.23 2.37
1 -2 5 41.47 3.3
-1 2 -5 39.79 3.25
1 -2 6 156.79 6.78
1 -2 6 151.87 5.77
-1 2 -6 155.34 5.49
-1 2 -6 148.64 4.16
-1 2 -6 156.41 7.11
1 -2 6 151.77 6.95
1 -2 6 150.37 5.2
1 -2 7 325.4 11.53
1 -2 7 322.49 9.03
-1 2 -7 347.37 9.85
-1 2 -7 328.6 11.71
1 -2 7 317.33 11.05
-1 2 -8 182.7 8.57
1 -2 8 196.22 8.16
1 -2 8 190.22 6.16
1 -2 8 176.96 8.28
-1 2 -8 186.36 6.82
-1 2 -9 106.68 6.54
1 -2 9 113.07 6.17
1 -2 9 106.67 6.41
-1 2 -9 118.98 5.33
-1 2 -10 13.96 2.39
-1 2 -10 17.72 2.07
1 -2 10 19.89 2.51
1 -2 10 16.61 2.56
1 -2 11 26.6 3.09
1 -2 11 24.81 3.24
-1 2 -11 27.14 2.66
-1 2 -11 27.02 3.42
-1 2 -12 26.99 3.62
-1 2 -12 35.13 3.13
1 -2 12 31.52 3.86
-1 2 -13 78.32 5.17
1 -2 13 82.59 6.44
-1 2 -13 85.34 6.7
-1 2 -14 0.73 1
1 -2 14 0.63 0.63
-1 2 -14 0.69 0.77
1 -2 15 16.96 3.17
-1 2 -15 22.62 2.99
-1 2 -15 21.57 3.6
-1 1 16 22.85 3.36
-1 1 16 19.05 3.23
1 -1 -16 20.34 3.21
1 -1 -15 74.71 5.73
-1 1 15 73.51 5.75
-1 1 15 75.19 6.15
-1 1 14 19.33 2.99
1 -1 -14 15.71 2.44
-1 1 14 14.61 2.56
-1 1 13 36.37 3.64
-1 1 13 40.02 4.01
1 -1 -13 39.84 3.73
1 -1 -13 39.16 3.06
1 -1 -12 75.61 5.02
1 -1 -12 76.82 4.13
-1 1 12 77.4 5.19
-1 1 12 79.35 5.51
1 -1 -11 150.69 5.79
1 -1 -11 149.66 6.99
-1 1 11 156.74 7.37
-1 1 11 152.48 7.46
-1 1 10 76.25 4.7
1 -1 -10 78.39 4.04
-1 1 10 73.02 4.74
1 -1 -10 68.45 3.46
1 -1 -10 76.78 4.5
1 -1 -9 42.43 2.46
-1 1 9 40.02 3.23
1 -1 -9 44.24 2.87
-1 1 9 38.3 3.15
1 -1 -9 42.44 3.09
1 -1 -8 181.99 6.83
-1 1 8 193.91 4.49
1 -1 -8 195.05 6.68
-1 1 8 192.03 7.37
1 -1 -8 182 5.74
-1 1 8 180.21 7.33
1 -1 -7 244.19 7.89
-1 1 7 259.01 8.38
1 -1 -7 254.08 7.82
-1 1 7 254.33 8.58
1 -1 -7 243.7 6.71
-1 1 7 247.36 5.73
1 -1 -6 520.96 13.35
1 -1 -6 501.04 12
-1 1 6 543.09 13.8
-1 1 6 540.46 11.43
1 -1 -6 552.81 13.52
-1 1 6 550.33 14.36
1 -1 -5 231.73 6.94
-1 1 5 232.21 5.68
-1 1 5 243.91 7.24
1 -1 -5 244.42 7.2
-1 1 5 234.21 7.79
1 -1 -5 235.32 5.86
-1 1 4 114.25 4.75
-1 1 4 102.31 3.97
1 -1 -4 109.22 4.48
-1 1 4 105.4 3.15
1 -1 -4 109 3.87
1 -1 -4 111.5 3
1 -1 -4 110.44 4.14
1 -1 -3 1004.27 22.43
-1 1 3 983.34 20.59
-1 1 3 974.88 21.51
1 -1 -3 970.78 19.92
1 -1 -3 1003.3 21.21
-1 1 3 975.14 22.79
1 -1 -3 1001.72 21.79
-1 1 2 9684.5 189.07
1 -1 -2 9532.35 187.56
1 -1 -2 9305.84 186.87
-1 1 2 9497.6 186.67
1 -1 -2 9469.32 187.66
-1 1 2 9999 187.57
-1 1 2 9275.26 187.4
1 -1 -2 9446.87 188.44
1 -1 -1 742.58 16.62
1 -1 -1 748.33 15.53
-1 1 1 729.25 16.5
1 -1 -1 744.29 16.46
-1 1 1 747.29 17.88
1 -1 -1 737.61 17.13
-1 1 0 47.61 2.83
1 -1 0 49.8 2.18
1 -1 0 47.49 2.44
-1 1 0 50.47 1.45
1 -1 0 49.11 2.42
1 -1 0 46.63 1.46
-1 1 0 48.19 2.3
1 -1 0 46.82 1.51
1 -1 1 5.35 0.8
-1 1 -1 6.07 0.52
1 -1 1 5.07 0.75
1 -1 1 4.7 0.5
-1 1 -1 6.88 0.85
1 -1 1 6.55 0.88
1 -1 1 6.08 0.7
-1 1 -2 14.81 0.93
1 -1 2 16.7 1.4
1 -1 2 17.06 1.15
1 -1 2 13.83 1.35
1 -1 2 16.04 1.35
1 -1 2 15.67 1.02
-1 1 -2 15.93 1.39
-1 1 -2 14.8 0.97
1 -1 3 6.29 0.96
1 -1 3 8.55 1.08
-1 1 -3 10.17 0.74
-1 1 -3 9.35 1.15
1 -1 3 8.96 0.82
1 -1 3 7.62 0.77
-1 1 -3 9.52 0.85
1 -1 4 96.1 4.19
-1 1 -4 92.82 4.27
1 -1 4 91.87 3.36
-1 1 -4 96.4 2.84
-1 1 -4 88.77 3.1
-1 1 -4 100.77 3.44
1 -1 4 98.95 4.39
1 -1 4 95.53 3.18
-1 1 -5 18.23 1.06
1 -1 5 16.17 1.73
-1 1 -5 16.76 1.39
-1 1 -5 13.31 1.65
1 -1 5 15.23 1.7
-1 1 -5 16.28 0.94
1 -1 5 15.3 1.11
-1 1 -5 16.98 1.27
1 -1 5 17.68 1.39
1 -1 6 660.83 15.73
-1 1 -6 661.94 14.08
1 -1 6 655.16 17.32
-1 1 -6 695.03 15.79
1 -1 6 667.82 17.34
1 -1 6 650.54 14.8
-1 1 -6 679.16 14.05
-1 1 -6 690.37 15.72
-1 1 -6 673.03 17.65
1 -1 7 13.33 1.83
1 -1 7 13.65 1.75
-1 1 -7 15.73 0.83
-1 1 -7 14.81 1.95
1 -1 7 16.51 1.19
1 -1 7 12.41 1.48
-1 1 -7 15.76 1.52
-1 1 -7 16.9 1.59
-1 1 -8 151.07 5.66
1 -1 8 137.77 4.39
1 -1 8 157.46 6.69
1 -1 8 138.21 6.52
-1 1 -8 161.55 5.66
-1 1 -8 155.35 7.15
-1 1 -9 18.08 1.85
-1 1 -9 16.03 1.75
1 -1 9 18.98 2.38
-1 1 -9 18.86 2.49
1 -1 9 17.48 2.15
1 -1 10 37.14 3.47
-1 1 -10 40.96 2.9
-1 1 -10 41.3 3.03
-1 1 -10 38.24 3.66
-1 1 -11 5.68 1.29
-1 1 -11 4.93 1.52
1 -1 11 4.62 1.48
-1 1 -11 6.69 1.33
-1 1 -12 3.4 1.4
-1 1 -12 2.51 1.09
1 -1 12 2.84 1.13
-1 1 -12 2.13 0.87
-1 1 -13 9.5 1.65
-1 1 -13 10.43 1.76
-1 1 -13 9.22 2.1
1 -1 13 9.79 2.14
-1 1 -14 1.23 1.03
1 -1 14 1.66 0.85
-1 1 -14 1.05 0.8
1 -1 15 17.28 3.03
-1 1 -15 16.37 3.09
-1 1 -15 21.73 2.79
-1 1 -16 8.98 1.83
1 -1 16 8.39 2.25
-1 1 -16 9.01 2.35
1 0 -16 7.84 2.05
-1 0 16 5.91 1.73
-1 0 16 6.75 2.02
1 0 -16 5.38 1.71
1 0 -16 5.85 1.47
-1 0 15 1.28 1.25
1 0 -15 3.25 1.33
1 0 -15 -0.07 0.7
-1 0 15 1.05 0.8
1 0 -15 0.73 0.71
1 0 -14 7.75 1.78
-1 0 14 10.62 2.15
-1 0 14 10.31 2.23
1 0 -14 9.51 1.74
-1 0 13 74.24 5.56
1 0 -13 61.79 4.89
-1 0 13 77.36 5.43
1 0 -13 79.59 4.7
-1 0 12 65.54 4.79
-1 0 12 57.97 4.74
1 0 -12 62.1 4.53
1 0 -12 59.21 3.81
-1 0 11 91.61 5.63
-1 0 11 94.38 5.48
1 0 -11 94.59 4.71
1 0 -11 87.45 5.27
-1 0 10 2.84 0.99
1 0 -10 2.98 0.87
1 0 -10 2.36 0.95
-1 0 10 2.96 0.93
-1 0 9 102.34 5.19
1 0 -9 103.67 4.47
-1 0 9 104.4 5.43
1 0 -9 102.78 5.09
1 0 -8 20.43 2
-1 0 8 19.17 2.08
-1 0 8 19.52 2.1
1 0 -8 19.56 1.68
1 0 -7 13.72 1.31
-1 0 7 12.68 0.63
1 0 -7 14.37 1.58
-1 0 7 15.99 1.78
-1 0 7 13.72 1.63
-1 0 6 59.11 3.24
-1 0 6 59.56 1.85
-1 0 6 66.38 3.43
1 0 -6 56.48 2.68
1 0 -6 60.27 3.2
-1 0 5 5.38 0.89
1 0 -5 3.2 0.66
-1 0 5 5.02 0.48
1 0 -5 4.74 0.7
-1 0 5 3.93 0.77
1 0 -5 6.35 0.92
1 0 -4 168.76 5.09
-1 0 4 161.52 4.14
-1 0 4 155.74 5.29
1 0 -4 155.22 4.57
-1 0 4 162.54 5.12
1 0 -4 160.15 5.11
-1 0 3 1499.18 31.17
1 0 -3 1419.01 30.19
1 0 -3 1515.45 30.88
-1 0 3 1487.7 30.63
1 0 -3 1453.95 30.79
1 0 -2 2696.95 54.88
1 0 -2 2737.19 55.1
1 0 -2 2759.67 54.11
-1 0 2 2757.38 54.53
-1 0 2 2693.39 55.35
1 0 -2 2708.82 54.54
-1 0 1 4.59 0.61
1 0 -1 5.36 0.6
1 0 -1 5.3 0.51
1 0 -1 5.66 0.5
-1 0 1 5.61 0.39
1 0 -1 5.34 0.48
1 0 -1 5.43 0.71
1 0 -1 5.97 0.55
1 0 0 1289.33 26.74
1 0 0 1322.68 26.57
1 0 0 1370.26 27.68
1 0 0 1282.35 26.78
-1 0 0 1302.22 27.31
1 0 1 85.31 2.17
1 0 1 76.36 2.32
1 0 1 73.62 2.37
1 0 1 77.44 2.79
1 0 1 81.25 2.92
1 0 2 1.69 0.34
-1 0 -2 2.4 0.45
1 0 2 2.6 0.31
1 0 2 2.45 0.52
1 0 2 3.29 0.56
1 0 2 2.42 0.37
-1 0 -2 2.02 0.34
-1 0 -2 2.09 0.23
-1 0 -2 2.79 0.39
-1 0 -3 11.81 0.69
1 0 3 11.06 1.13
1 0 3 9.9 0.82
-1 0 -3 11.98 0.9
-1 0 -3 12.37 0.74
1 0 3 12.31 1.03
1 0 3 11.81 0.6
1 0 3 15.08 1.16
-1 0 -3 11.19 0.94
-1 0 -3 12.37 0.85
-1 0 -4 34.63 1.42
1 0 4 30.07 1.6
1 0 4 30.82 1.06
1 0 4 32.74 1.95
-1 0 -4 30.17 1.33
-1 0 -4 31.33 1.19
1 0 4 31.74 2.09
-1 0 -4 29.6 1.37
-1 0 -4 32.18 1.7
-1 0 -4 31.88 1.77
1 0 5 372.01 8.17
1 0 5 388.3 10.61
-1 0 -5 399.14 9.21
-1 0 -5 394.65 8.36
1 0 5 374.61 9.58
1 0 5 400.34 10.44
-1 0 -5 399.56 9.76
-1 0 -5 401.59 8.55
-1 0 -5 378.24 8.55
-1 0 -5 398.45 9.7
1 0 6 714.6 17.16
1 0 6 701.13 17.17
-1 0 -6 704.49 14.42
1 0 6 762.15 16.02
1 0 6 641.99 14.16
-1 0 -6 724.71 14.42
-1 0 -6 680.27 14.27
-1 0 -6 711.61 16.18
-1 0 -6 704.34 15.65
-1 0 -7 550.82 11.54
1 0 7 624.39 13.86
-1 0 -7 548.76 11.62
-1 0 -7 611.89 13.98
-1 0 -7 605.19 12
1 0 7 513.75 11.66
-1 0 -7 581.17 13.55
1 0 7 593.51 15.15
1 0 8 92.42 4.78
-1 0 -8 97.68 2.73
-1 0 -8 95 3.98
1 0 8 79.66 2.38
1 0 8 96.19 4.08
-1 0 -8 90.13 2.15
-1 0 -8 96.14 3.93
-1 0 -9 34.66 2.47
-1 0 -9 37.24 1.67
-1 0 -9 34.72 2.46
1 0 9 40.03 2.62
1 0 9 33.47 3.01
-1 0 -10 0.58 0.47
1 0 10 1.38 0.66
-1 0 -10 0.27 0.36
1 0 10 1.32 0.59
-1 0 -11 163.27 6.71
1 0 11 172.88 6.74
1 0 11 155.94 7.77
-1 0 -11 160.34 6.38
1 0 12 3.96 1.29
-1 0 -12 6.16 1.32
-1 0 -12 5.46 1.17
-1 0 -13 82.68 5.03
-1 0 -13 79.31 4.69
1 0 13 84.45 5.99
-1 0 -14 17.68 2.22
1 0 14 17.24 2.81
-1 0 -14 22.73 2.75
-1 0 -15 16.19 2.42
1 0 15 16.48 2.9
-1 0 -15 18.65 2.43
-1 0 -16 22.86 3.01
-1 0 -16 21.29 3.46
-1 0 -16 23.25 2.77
1 0 16 21.43 3.38
1 0 17 21.88 3.68
-1 0 -17 21.32 3.67
-1 0 -17 28.05 3.15
-1 -1 16 4.88 1.5
1 1 -16 2.09 0.84
1 1 -16 5.68 1.6
-1 -1 16 5.71 1.94
1 1 -16 3.55 1.58
1 1 -15 21.15 3.16
1 1 -15 19.84 3.02
1 1 -15 17.34 2.6
-1 -1 15 22.64 3.3
-1 -1 15 16.42 2.96
1 1 -14 -0.29 0.56
1 1 -14 -0.56 1.02
1 1 -14 0.51 0.56
-1 -1 14 -1.08 1.18
-1 -1 14 0.51 0.73
1 1 -13 38.48 3.91
-1 -1 13 44.26 4.18
-1 -1 13 41.03 4.18
1 1 -13 34.67 3.74
1 1 -13 43.89 3.69
1 1 -12 506.26 15.36
-1 -1 12 524.41 16.66
1 1 -12 476.21 16.17
-1 -1 12 496.74 16.71
1 1 -12 536.79 16.55
1 1 -11 1.31 0.8
-1 -1 11 2.94 1.15
1 1 -11 2.74 1.12
1 1 -11 2.07 0.88
-1 -1 11 1.2 0.78
1 1 -10 33.74 3.06
1 1 -10 33.43 2.8
-1 -1 10 32.45 3.08
-1 -1 10 26.63 2.96
1 1 -10 38.53 3.36
1 1 -9 0.69 0.59
-1 -1 9 1.73 0.89
1 1 -9 1.31 0.66
-1 -1 9 0.59 0.76
1 1 -9 1.28 0.74
1 1 -8 182.19 6.59
-1 -1 8 188.87 7.17
1 1 -8 170.01 7.15
-1 -1 8 180.33 7.44
1 1 -8 186.68 7.25
1 1 -7 186.18 6.95
-1 -1 7 189.5 7.25
1 1 -7 184.72 6.42
1 1 -7 174.6 6.91
-1 -1 7 191.54 6.85
-1 -1 6 480.62 12.5
1 1 -6 460.79 12.76
-1 -1 6 468.69 13.08
1 1 -6 483.04 12.21
1 1 -6 449.68 12.63
1 1 -5 76 3.68
1 1 -5 78.04 3.43
1 1 -5 76.06 3.63
-1 -1 5 82.92 3.96
-1 -1 5 78.94 3.52
-1 -1 4 98.92 3.7
1 1 -4 95.03 4.02
1 1 -4 95.69 3.73
-1 -1 4 102.12 4.19
-1 -1 4 93.51 3
1 1 -4 90.8 3.78
-1 -1 3 1050.59 22.05
1 1 -3 1014.11 22.66
-1 -1 3 1019.26 21.45
1 1 -3 1014.43 22.41
-1 -1 3 1056.25 23
1 1 -3 1022.35 22.34
-1 -1 2 396.47 9
1 1 -2 392.65 9.66
-1 -1 2 380.09 8.89
-1 -1 2 401.64 9.83
1 1 -2 383.96 9.4
-1 -1 1 151.45 4.77
-1 -1 1 151.98 3.76
1 1 -1 145.69 4.57
-1 -1 1 147.16 4.5
1 1 -1 148.06 4.26
-1 -1 1 145.4 4.04
-1 -1 0 288.64 7.33
-1 -1 0 282.85 6.72
-1 -1 0 278.76 7.09
1 1 0 273.76 7.26
1 1 0 280.13 7.23
-1 -1 0 277.71 7
1 1 0 285.91 6.89
-1 -1 -1 2675.4 53.58
1 1 1 2724.8 52.88
-1 -1 -1 2663.13 53.2
1 1 1 2589.69 53.6
1 1 1 2539.26 53.09
-1 -1 -1 2655.35 52.89
1 1 2 314.15 6.62
-1 -1 -2 289.62 7.37
1 1 2 310.22 7.95
1 1 2 309.21 7.07
1 1 2 307.35 7.75
-1 -1 -2 319.11 7.26
-1 -1 -2 314.45 7.83
1 1 3 2419.49 48.78
1 1 3 2482.13 49.83
-1 -1 -3 2488.55 48.93
-1 -1 -3 2419.47 49.09
-1 -1 -3 2463.28 49.69
1 1 3 2396.14 49.85
1 1 4 8784.52 174.69
1 1 4 9190.07 175.32
-1 -1 -4 8404.52 175.04
-1 -1 -4 8946.43 175.49
-1 -1 -4 9071.56 174.2
-1 -1 -4 8732.67 174.36
1 1 4 9012.96 175.65
1 1 5 669.8 15.19
-1 -1 -5 690.85 15.37
1 1 5 682.58 16.03
-1 -1 -5 671.93 14.38
1 1 5 682.79 15.37
-1 -1 -5 656.67 15.54
-1 -1 -5 657.4 15.59
-1 -1 -5 667.96 14.17
1 1 6 12.62 1.27
-1 -1 -6 13.19 1.38
-1 -1 -6 13.08 0.81
1 1 6 14.91 1.55
-1 -1 -6 14.13 1.3
1 1 6 17.24 1.41
-1 -1 -6 14.42 0.95
-1 -1 -6 15.55 1.4
-1 -1 -7 -0.01 0.35
-1 -1 -7 0.39 0.46
1 1 7 0.12 0.45
-1 -1 -7 0.37 0.33
1 1 7 1.07 0.47
-1 -1 -7 0.25 0.16
-1 -1 -7 0.25 0.23
1 1 7 -0.07 0.36
1 1 8 180.98 7.13
-1 -1 -8 182.87 6.16
-1 -1 -8 182.53 6.18
-1 -1 -8 180.73 6.34
1 1 8 204.31 6.28
-1 -1 -8 181.68 4.5
1 1 8 169.89 6.4
-1 -1 -8 184.47 4.95
-1 -1 -9 162.88 6.04
-1 -1 -9 167.77 4.79
-1 -1 -9 158.74 6.17
1 1 9 173.76 7.27
-1 -1 -9 169.77 4.26
-1 -1 -9 168.5 6.11
1 1 9 178.97 6.03
1 1 9 164.08 6.49
-1 -1 -10 8.8 1.38
1 1 10 10.05 1.4
-1 -1 -10 8.17 1.24
1 1 10 10.37 1.71
1 1 10 7.35 1.43
-1 -1 -10 7.75 0.84
-1 -1 -11 160.46 6.6
-1 -1 -11 159.11 5.08
1 1 11 166.41 7.83
1 1 11 168.2 6.57
-1 -1 -11 167.23 6.29
1 1 11 151.57 7.05
-1 -1 -12 11.59 1.58
1 1 12 10.79 1.65
1 1 12 9.24 1.85
-1 -1 -12 11.51 1.76
-1 -1 -12 10.99 1.2
1 1 12 10.18 1.81
-1 -1 -13 27.38 2.75
1 1 13 27.25 3.35
-1 -1 -13 23.85 2.4
1 1 13 26.44 2.57
1 1 13 26.78 3.03
1 1 14 106.24 5.62
1 1 14 96.33 6.28
1 1 14 105.24 7.01
-1 -1 -14 98.88 5.16
-1 -1 -14 95.48 5.75
-1 -1 -15 14.08 2.26
-1 -1 -15 17.97 2.26
1 1 15 12.13 2.32
1 1 15 12.88 2.53
-1 -1 -16 -0.1 0.49
1 1 16 1.18 1.1
-1 -1 -16 -1.34 0.88
1 1 16 1.29 1.18
1 1 17 21.12 3.6
-1 -1 -17 19.08 2.51
-1 -1 -17 19.27 2.95
1 2 -15 7.98 2.19
-1 -2 15 5.49 2.07
1 2 -15 4.95 1.62
-1 -2 14 69.77 6.04
1 2 -14 67.45 5.27
1 2 -14 64 5.62
1 2 -13 22.64 3.18
1 2 -13 23.51 2.98
-1 -2 13 26.6 3.49
1 2 -12 37.45 3.9
-1 -2 12 36.19 3.97
1 2 -12 37.8 3.61
-1 -2 11 7.38 1.81
1 2 -11 10.15 1.81
1 2 -11 8.36 1.79
-1 -2 10 236.32 10.32
1 2 -10 254.12 9.43
1 2 -10 226.78 9.75
-1 -2 9 75.85 5.19
1 2 -9 89.86 4.95
1 2 -9 84.61 5.24
-1 -2 9 87.13 5.16
-1 -2 8 134.77 6.91
-1 -2 8 134.85 6.27
1 2 -8 139.4 6.09
1 2 -8 137.97 6.6
-1 -2 7 43.18 3.55
1 2 -7 41.71 3.07
1 2 -7 43.08 3.36
-1 -2 7 44.24 3.19
-1 -2 7 47.24 2.57
1 2 -6 650.42 16.6
-1 -2 6 652.53 15.17
-1 -2 6 635.41 13.2
-1 -2 6 672.74 16.79
-1 -2 6 662.92 17.92
1 2 -6 627.58 17.19
-1 -2 5 1.65 0.25
-1 -2 5 1.49 0.77
-1 -2 5 1.92 0.48
1 2 -5 0.51 0.54
1 2 -5 1.31 0.73
-1 -2 4 1458.03 30.34
-1 -2 4 1441.65 32.68
1 2 -4 1427.78 31.85
-1 -2 4 1448.02 29.15
-1 -2 4 1481.39 33.02
1 2 -4 1402.23 32.31
1 2 -3 164.51 5.87
-1 -2 3 164.77 6.33
-1 -2 3 167.71 6.53
1 2 -3 169.25 6.21
-1 -2 3 176.62 5.02
-1 -2 3 169.79 4.29
-1 -2 3 169.21 5.12
-1 -2 2 92.02 3.14
-1 -2 2 87.76 4.11
1 2 -2 90.54 3.93
-1 -2 2 90.63 4.3
-1 -2 2 89.9 2.7
-1 -2 2 85.71 3.24
1 2 -2 87.48 4.06
1 2 -1 3.03 0.66
-1 -2 1 2.83 0.72
-1 -2 1 3.07 0.79
-1 -2 1 3.13 0.43
-1 -2 1 3.97 0.66
1 2 -1 2.22 0.63
-1 -2 0 236.95 7.55
1 2 0 241.02 7.28
1 2 0 257.71 7.42
-1 -2 0 249.48 6.5
-1 -2 0 240.03 7.71
-1 -2 0 244.55 5.93
1 2 0 236.65 7.52
1 2 1 16.6 1.18
1 2 1 18.89 1.56
-1 -2 -1 15.32 0.96
-1 -2 -1 16.87 1.2
1 2 1 15.15 1.49
1 2 1 16.76 1.5
-1 -2 -1 15.14 1.5
1 2 2 537.96 12.1
1 2 2 529.9 13.35
1 2 2 540.17 13.28
-1 -2 -2 532.11 13.43
1 2 2 534.5 13.56
-1 -2 -2 558.17 12.17
-1 -2 -2 545.28 11.81
-1 -2 -2 520.16 12.23
1 2 3 4873.76 96.85
1 2 3 5048.89 98.28
-1 -2 -3 4687 96.79
1 2 3 4813.84 98.6
-1 -2 -3 4961.3 96.67
-1 -2 -3 5017.54 98.41
-1 -2 -3 4840.77 96.4
1 2 4 2255.05 45.4
-1 -2 -4 2246.17 46.7
-1 -2 -4 2229.89 44.67
1 2 4 2253.71 46.43
1 2 4 2178.72 47.23
-1 -2 -4 2205.78 45.1
-1 -2 -4 2300.33 44.94
1 2 5 778.72 17.67
-1 -2 -5 786.47 17.03
1 2 5 770.02 18.18
1 2 5 789.16 19.23
-1 -2 -5 792.43 18.5
-1 -2 -5 797.54 16.66
-1 -2 -5 786.47 16.88
-1 -2 -6 467.48 10.25
-1 -2 -6 460.83 10.61
-1 -2 -6 482.97 10.58
-1 -2 -6 444.01 11.97
1 2 6 430.34 12.64
-1 -2 -6 437.79 11.94
1 2 6 453.35 11.7
1 2 6 442.51 11.47
1 2 7 130.6 5.01
1 2 7 132.1 4.88
-1 -2 -7 139.97 5.32
-1 -2 -7 138.17 4.08
1 2 7 124.59 5.72
-1 -2 -7 143.85 5.4
-1 -2 -7 124.22 4.88
-1 -2 -7 137.78 3.84
-1 -2 -7 134.83 4.18
1 2 8 203.81 7.05
-1 -2 -8 196.06 7.05
-1 -2 -8 210.78 5.44
-1 -2 -8 216.01 5.74
1 2 8 212.03 6.78
-1 -2 -8 198.42 6.75
-1 -2 -8 218.6 7.29
1 2 8 211.81 8.14
-1 -2 -8 221.72 5.9
-1 -2 -9 199.78 7.16
-1 -2 -9 192 5.6
1 2 9 206.22 6.63
-1 -2 -9 188.25 6.87
1 2 9 196.54 8.09
-1 -2 -9 196.67 5.19
1 2 9 183.5 6.95
-1 -2 -9 196.16 6.7
1 2 10 59.45 3.7
-1 -2 -10 56.56 2.62
1 2 10 54.72 4.15
1 2 10 63.57 3.42
-1 -2 -10 54.81 2.24
-1 -2 -10 55.33 3.22
-1 -2 -10 47.38 3.21
-1 -2 -10 55.84 3.54
-1 -2 -11 2.65 0.89
1 2 11 2.9 0.98
-1 -2 -11 5.06 1.08
-1 -2 -11 3.53 0.57
1 2 11 3.29 1.23
1 2 11 3.15 0.79
-1 -2 -11 2.06 0.76
-1 -2 -11 3.57 0.71
1 2 12 56.53 4.06
-1 -2 -12 52.96 3.8
-1 -2 -12 55.08 2.91
-1 -2 -12 53.41 3.45
1 2 12 62.12 3.63
1 2 12 54.42 4.56
-1 -2 -13 173.24 6.07
-1 -2 -13 185.33 7.94
-1 -2 -13 172.08 6.95
1 2 13 189.25 7.43
1 2 13 181.64 9.16
1 2 13 170.75 8.03
-1 -2 -14 0.94 0.79
-1 -2 -14 1.01 0.89
1 2 14 0.68 0.64
1 2 14 1.38 1.08
1 2 14 0.93 0.74
-1 -2 -14 0.4 0.51
-1 -2 -15 152.17 7.78
-1 -2 -15 129 6.26
1 2 15 153.45 7.02
1 2 15 134.72 7.71
1 2 15 137.59 8.69
-1 -2 -16 1.59 0.64
-1 -2 -16 2.28 1.13
1 2 16 2.9 1.57
1 2 16 1.81 1.14
1 2 17 -0.83 0.96
-1 -2 -17 -0.13 0.69
1 2 17 1.99 1.41
-1 -2 -17 0.19 0.51
-1 -3 14 1.52 1.09
-1 -3 14 1.35 1.17
1 3 -14 1.6 0.77
1 3 -14 -0.48 1.05
-1 -3 13 2.12 1.02
-1 -3 13 3.73 1.49
1 3 -13 3.42 1.31
1 3 -13 1.21 0.9
-1 -3 12 54.72 5.04
1 3 -12 48.07 4.91
1 3 -12 48.66 4.5
-1 -3 12 48.38 4.96
-1 -3 11 16.73 2.68
1 3 -11 15.89 2.42
-1 -3 11 20.13 3.25
1 3 -11 16.54 2.67
-1 -3 10 157.89 8.35
1 3 -10 170.97 8.87
1 3 -10 171.51 8.08
-1 -3 10 158.07 8.78
-1 -3 9 66.86 5.04
-1 -3 9 61.17 5.06
1 3 -9 60.88 4.43
1 3 -9 56.54 4.76
-1 -3 8 4.82 1.37
-1 -3 8 3.56 1.34
1 3 -8 3.12 1.17
1 3 -8 4.22 1.33
-1 -3 7 1.55 0.87
1 3 -7 -0.08 0.79
-1 -3 7 2.32 0.77
-1 -3 7 2.23 1.07
1 3 -7 1.41 0.86
-1 -3 6 212.22 7.17
-1 -3 6 185.43 8.3
1 3 -6 204.41 8.06
1 3 -6 203.98 8.77
-1 -3 6 208.86 9.14
-1 -3 5 9.83 0.6
-1 -3 5 11.38 1.81
-1 -3 5 9.2 0.98
-1 -3 5 9.94 1.87
-1 -3 5 8.71 1.21
1 3 -5 8.13 1.42
1 3 -5 7.49 1.57
-1 -3 4 29.01 1.18
-1 -3 4 23.31 2.48
1 3 -4 25.62 2.62
-1 -3 4 25.41 2.03
1 3 -4 23.17 2.31
-1 -3 4 26.4 2.84
-1 -3 4 24.82 1.6
-1 -3 3 179.09 7.28
-1 -3 3 185.54 4.58
1 3 -3 184.21 7.64
-1 -3 3 188.41 7.91
1 3 -3 179.35 6.96
-1 -3 3 183.82 5.39
-1 -3 3 186.84 6.23
-1 -3 2 708.64 18.89
1 3 -2 724.65 18.54
-1 -3 2 777.62 15.67
-1 -3 2 727.23 17.42
1 3 -2 739.39 19.57
-1 -3 2 713.59 16.48
-1 -3 2 720.37 19.69
-1 -3 1 341.77 10.69
-1 -3 1 332.16 9.32
-1 -3 1 334.85 11.26
-1 -3 1 344.77 8.63
-1 -3 1 350.65 7.94
1 3 -1 331.64 10.98
1 3 -1 357.11 10.48
-1 -3 0 235.16 6.44
1 3 0 237.44 7.91
-1 -3 0 235.19 7.08
-1 -3 0 232.12 8.2
1 3 0 243.06 8.01
-1 -3 0 242.95 5.93
1 3 0 246.32 8.72
-1 -3 -1 44.64 1.82
-1 -3 -1 44.14 2.42
1 3 1 42.8 2.75
-1 -3 -1 45.3 2.13
1 3 1 41.8 2.81
1 3 1 40.39 2.76
1 3 1 41.15 3.17
-1 -3 -1 40.58 2.94
-1 -3 -2 180.51 4.77
1 3 2 172.61 6.96
1 3 2 171.23 6.07
1 3 2 175.6 6.35
1 3 2 172.01 6.33
-1 -3 -2 167.44 6.55
-1 -3 -2 169.78 5.09
-1 -3 -2 183.39 5.66
-1 -3 -3 65.03 3.78
1 3 3 71.34 3.38
-1 -3 -3 78.56 2.67
1 3 3 74.52 4.27
-1 -3 -3 76.94 3.24
1 3 3 74.97 3.79
-1 -3 -3 74.31 2.89
-1 -3 -4 118.69 5.27
1 3 4 122.45 4.67
1 3 4 123.18 5.11
-1 -3 -4 120.98 4.03
-1 -3 -4 122.06 4.36
-1 -3 -4 129.99 3.81
1 3 4 122.86 5.75
-1 -3 -5 240.92 6.75
1 3 5 247.86 7.61
1 3 5 249.79 9.11
-1 -3 -5 257.95 8.46
-1 -3 -5 250.23 7.15
-1 -3 -5 262.27 6.48
1 3 5 255.45 9.08
1 3 5 248.47 8.02
-1 -3 -6 168.9 6.46
-1 -3 -6 178.48 4.72
1 3 6 171.88 6.02
-1 -3 -6 175.99 5.05
-1 -3 -6 171.21 5.38
1 3 6 159.63 5.75
1 3 6 175.62 7.21
1 3 7 47.34 2.91
-1 -3 -7 44.89 3.18
-1 -3 -7 51.58 2.41
-1 -3 -7 51.64 2.67
-1 -3 -7 46.67 3.03
1 3 7 44.94 2.81
1 3 7 49.42 3.72
-1 -3 -7 49.73 2.15
-1 -3 -8 16.95 1.4
-1 -3 -8 17.45 1.56
1 3 8 18.27 2.3
-1 -3 -8 17.04 1.25
1 3 8 16.3 1.69
1 3 8 16.23 1.76
-1 -3 -8 14.63 1.68
-1 -3 -8 20.01 2.14
1 3 9 33.61 2.66
-1 -3 -9 33.23 2.79
-1 -3 -9 32.07 2.03
-1 -3 -9 40.43 2.4
1 3 9 34.09 2.44
-1 -3 -9 30.63 2.35
1 3 9 35.65 3.32
-1 -3 -9 33.25 1.82
-1 -3 -9 30.01 2.51
-1 -3 -10 70.98 4.34
1 3 10 74.52 3.8
1 3 10 72.66 4.24
-1 -3 -10 65.46 3.92
1 3 10 65.35 4.75
-1 -3 -10 67.49 3.7
-1 -3 -10 68.55 2.85
-1 -3 -10 68.66 3.14
-1 -3 -11 3.64 0.95
-1 -3 -11 3.31 1.13
-1 -3 -11 3.99 0.78
1 3 11 2.82 0.98
1 3 11 2.3 0.72
1 3 11 5.44 1.52
-1 -3 -11 3.17 0.63
-1 -3 -11 4.07 1.06
1 3 12 35.05 3.16
-1 -3 -12 39.85 3.42
-1 -3 -12 32.96 2
1 3 12 40.62 4.07
-1 -3 -12 35.46 2.79
1 3 12 40.29 2.86
-1 -3 -12 37.35 3.08
-1 -3 -12 34.27 2.29
1 3 13 -0.31 0.73
-1 -3 -13 0.98 1.01
-1 -3 -13 1.13 0.57
1 3 13 0.3 0.63
-1 -3 -13 1.66 0.67
1 3 13 0.25 0.55
-1 -3 -14 0.65 0.85
1 3 14 -0.07 0.51
-1 -3 -14 -0.21 0.47
1 3 14 0 0.9
-1 -3 -14 0.04 0.37
-1 -3 -15 2.43 1.1
1 3 15 2.95 1.19
1 3 15 1.96 1.17
-1 -3 -15 1.9 0.86
-1 -3 -16 1.21 1.1
1 3 16 0.22 0.7
-1 -3 -16 0.12 0.46
1 3 16 0.5 0.88
1 3 17 15.43 2.7
1 3 17 17.59 3.32
-1 -3 -17 18.45 3
-1 -4 13 4.6 1.75
1 4 -13 2.66 1.34
1 4 -13 0.98 0.8
1 4 -12 71.06 6.43
-1 -4 12 62.36 6.2
1 4 -12 71.23 5.91
-1 -4 11 6.37 1.69
-1 -4 11 6.23 1.86
1 4 -11 7.58 1.82
1 4 -11 5.86 1.87
-1 -4 10 70.8 5.72
-1 -4 10 84.45 6.92
1 4 -10 77.99 5.7
1 4 -10 71.87 6.14
-1 -4 9 1.52 1.08
-1 -4 9 1.39 0.61
1 4 -9 0.84 0.86
-1 -4 9 0.36 0.98
1 4 -9 0.92 1.25
-1 -4 8 54.88 3.72
1 4 -8 51.07 4.3
-1 -4 8 49.41 4.45
1 4 -8 49.01 4.76
-1 -4 8 48.12 4.83
-1 -4 7 5.56 1.55
-1 -4 7 4.23 1.41
1 4 -7 5.13 1.18
-1 -4 7 5.91 1.14
1 4 -7 4.4 1.58
1 4 -6 12.02 1.88
-1 -4 6 13.34 2.37
-1 -4 6 15.61 1.94
-1 -4 6 12.63 2.45
-1 -4 6 10.26 1.46
1 4 -6 9.11 1.9
-1 -4 5 4.1 1.28
-1 -4 5 4.98 1.05
1 4 -5 5.43 1.6
-1 -4 5 5.82 1.6
-1 -4 5 5.49 1.19
1 4 -5 6.07 1.33
-1 -4 4 32.58 3.63
1 4 -4 41.85 3.5
-1 -4 4 41.31 3.06
1 4 -4 39.09 3.71
-1 -4 4 41.71 2.95
-1 -4 4 42.4 3.67
-1 -4 4 46.05 1.78
-1 -4 3 1.68 0.42
-1 -4 3 0.85 0.7
-1 -4 3 2.02 0.74
-1 -4 3 2.21 0.39
1 4 -3 -0.18 0.71
-1 -4 3 2.82 0.87
-1 -4 3 -0.8 0.9
1 4 -3 1.24 0.96
-1 -4 2 4.87 1.29
-1 -4 2 7.53 0.71
-1 -4 2 5.12 1.54
-1 -4 2 5.89 1.11
-1 -4 2 6.56 0.77
-1 -4 2 5.73 1.12
1 4 -2 7.67 1.46
1 4 -2 5.9 1.47
-1 -4 1 283.61 10.33
-1 -4 1 289.1 9.34
1 4 -1 284.06 10.03
-1 -4 1 275.28 11.04
1 4 -1 272.63 10.89
-1 -4 1 283.69 7.57
-1 -4 1 291.7 9.08
-1 -4 1 315.13 7.23
1 4 0 259.85 10.27
-1 -4 0 272.99 6.7
1 4 0 261.05 9.32
1 4 0 263.18 9.38
1 4 0 268.06 9.32
-1 -4 0 254.46 6.96
-1 -4 0 255.89 9.58
-1 -4 0 244.95 8.52
-1 -4 0 265.7 8.39
1 4 1 50.18 3.51
-1 -4 -1 47.07 2.27
1 4 1 52.16 3.54
-1 -4 -1 45.84 2.93
1 4 1 49.27 3.43
-1 -4 -1 49.92 2.14
1 4 1 53.65 4.16
-1 -4 -1 44.03 3.45
-1 -4 -2 61.79 2.44
-1 -4 -2 57.68 2.56
1 4 2 48.93 3.65
1 4 2 56.74 3.66
1 4 2 53.48 3.6
-1 -4 -2 51.74 3.75
1 4 2 55.25 4.24
-1 -4 -2 58.78 3.28
-1 -4 -3 138.1 6.38
1 4 3 137.46 6.91
1 4 3 158.4 6.41
-1 -4 -3 141.21 4.33
-1 -4 -3 138.74 4.55
1 4 3 136.76 6.06
1 4 3 132.92 5.96
-1 -4 -3 141.66 5.49
-1 -4 -4 78.65 3.85
1 4 4 65.94 3.93
-1 -4 -4 79.22 4.58
1 4 4 79.44 4.34
1 4 4 71.98 4.86
-1 -4 -4 76.55 3.14
-1 -4 -4 82.81 3.03
-1 -4 -5 68.31 4.25
-1 -4 -5 70.81 3.61
1 4 5 70.78 4.02
-1 -4 -5 70.7 2.86
1 4 5 66.93 3.86
-1 -4 -5 67.87 2.96
1 4 5 70.93 4.84
1 4 6 4.28 1.29
1 4 6 2.59 1.11
-1 -4 -6 2.08 0.89
1 4 6 4.09 0.87
-1 -4 -6 3.76 0.71
-1 -4 -6 3.4 0.81
-1 -4 -6 3.57 0.68
1 4 6 3.21 0.91
-1 -4 -7 59.74 3.37
-1 -4 -7 61.39 4.02
1 4 7 56.66 3.63
-1 -4 -7 64.6 2.76
1 4 7 60.6 4.55
-1 -4 -7 59.46 2.87
1 4 7 61.37 3.59
-1 -4 -8 32.16 1.9
-1 -4 -8 34.19 2.52
-1 -4 -8 31.06 2.86
-1 -4 -8 27.81 2.52
-1 -4 -8 35.91 2.2
1 4 8 31.67 3.32
1 4 8 34.17 2.55
1 4 8 33.33 2.72
1 4 9 205.36 7.92
-1 -4 -9 203.92 8.41
-1 -4 -9 217.67 6.65
-1 -4 -9 228.33 7.63
-1 -4 -9 199.38 7.72
1 4 9 218.52 9.62
1 4 9 214.1 7.46
-1 -4 -9 212.79 6.28
1 4 10 3.44 1.01
-1 -4 -10 4.69 1.24
-1 -4 -10 3.68 0.83
-1 -4 -10 4.24 1.11
1 4 10 2.18 0.73
-1 -4 -10 3.82 0.8
1 4 10 2.37 0.8
-1 -4 -10 3.55 0.81
-1 -4 -11 75.04 4.96
-1 -4 -11 75.14 3.61
1 4 11 72.75 5.48
-1 -4 -11 74.08 3.32
-1 -4 -11 72.27 4.34
1 4 11 77.18 4.72
1 4 12 19.6 2.87
1 4 12 18.94 2.35
-1 -4 -12 16.34 1.68
-1 -4 -12 17.77 2.39
-1 -4 -12 19.68 1.66
-1 -4 -12 16.96 2.1
1 4 13 173.82 9.43
-1 -4 -13 163.81 6.32
-1 -4 -13 167.37 5.89
-1 -4 -13 177.4 7.56
-1 -4 -13 186.11 8.49
1 4 13 165.86 7.87
-1 -4 -14 0.58 0.87
-1 -4 -14 2.18 0.76
1 4 14 3.32 1.15
1 4 14 3.25 1.65
-1 -4 -15 28.5 2.54
1 4 15 33.48 4.27
-1 -4 -15 36.78 3.84
1 4 15 31.24 3.4
-1 -4 -16 0.97 0.66
-1 -4 -16 1.06 0.87
1 4 16 1.39 0.79
1 4 16 2.45 1.39
1 4 17 0.92 0.73
1 4 17 1.2 1.24
-1 -4 -17 1.07 0.68
-1 -4 -17 -1.31 0.63
-1 -5 12 4.88 1.81
1 5 -12 3.21 1.67
1 5 -12 4.35 1.63
1 5 -11 10.06 2.58
-1 -5 11 7.71 2.42
1 5 -11 4.76 1.36
1 5 -10 5.93 1.8
1 5 -10 8.12 2.27
-1 -5 10 5.45 1.85
1 5 -9 8.36 2.24
-1 -5 9 10.39 1.87
1 5 -9 8.84 2.03
-1 -5 9 10.13 2.62
-1 -5 8 -0.25 0.94
-1 -5 8 1.79 0.74
1 5 -8 1.03 1.06
1 5 -8 2 1.06
-1 -5 7 1.86 1
1 5 -7 2.29 1.21
-1 -5 7 2.29 0.89
1 5 -7 2.53 1.29
-1 -5 7 2.21 1.16
-1 -5 6 129.48 8.64
-1 -5 6 146.59 7.16
1 5 -6 145.78 7.91
-1 -5 6 139.45 6.66
1 5 -6 155.8 9.13
-1 -5 6 146.68 8.16
1 5 -5 -0.42 0.94
-1 -5 5 -0.42 0.75
-1 -5 5 0.26 0.77
-1 -5 5 1.31 1.04
-1 -5 5 -0.02 0.58
1 5 -5 0.8 1.06
-1 -5 4 -0.29 0.67
-1 -5 4 -0.31 0.6
1 5 -4 0.81 0.85
-1 -5 4 0.46 0.62
-1 -5 4 0.37 0.81
1 5 -4 1.15 1.03
-1 -5 3 54.08 4.56
-1 -5 3 66.15 4.43
-1 -5 3 59.91 4.01
1 5 -3 62.37 4.73
-1 -5 3 55.22 5.21
-1 -5 3 65.43 2.6
1 5 -3 66.56 5.48
-1 -5 2 5.57 0.73
-1 -5 2 2.29 0.76
1 5 -2 4.24 1.39
-1 -5 2 3.35 1.09
-1 -5 2 5.78 1.31
-1 -5 2 4.69 1.18
1 5 -2 3.76 1.38
-1 -5 1 -0.03 0.5
1 5 -1 -0.12 0.8
-1 -5 1 0.19 0.29
1 5 -1 0.92 0.8
-1 -5 1 0.66 0.62
1 5 -1 -0.46 0.56
-1 -5 1 0.18 0.63
-1 -5 1 0.54 0.39
1 5 -1 0.98 0.88
-1 -5 0 189.27 5.37
-1 -5 0 168.83 8.08
1 5 0 167.92 8.37
1 5 0 173.99 7.88
-1 -5 0 182.34 5.41
1 5 0 182.34 8.16
-1 -5 0 171.96 7.14
-1 -5 0 174.1 7.56
1 5 0 176.48 9.12
-1 -5 -1 29.1 3.11
1 5 1 34.73 3.28
1 5 1 34.87 3.24
1 5 1 30.95 3.06
-1 -5 -1 32.28 1.86
-1 -5 -1 29.21 2.83
-1 -5 -1 30.25 2.71
1 5 1 29.83 3.54
-1 -5 -1 33.96 1.95
-1 -5 -2 4.1 1.15
-1 -5 -2 5.16 0.75
-1 -5 -2 4.33 1.06
-1 -5 -2 5.28 0.77
1 5 2 5.1 1.3
1 5 2 6.01 1.29
1 5 2 3.97 1.11
1 5 2 5.53 1.63
-1 -5 -3 1.72 0.9
1 5 3 2.58 1.07
-1 -5 -3 1.35 0.6
1 5 3 3.74 1.07
-1 -5 -3 2.89 0.62
1 5 3 1.63 1.34
-1 -5 -3 2.05 0.53
1 5 3 1.81 0.9
1 5 4 59.21 4.17
-1 -5 -4 55.42 2.73
-1 -5 -4 54.44 3.56
1 5 4 56.75 3.95
-1 -5 -4 59.22 2.72
1 5 4 54 4.65
-1 -5 -4 53.87 4.14
-1 -5 -5 2.1 1.02
1 5 5 2.05 0.86
-1 -5 -5 2.03 0.53
-1 -5 -5 2.34 0.66
1 5 5 4.13 1.08
-1 -5 -5 1.47 0.79
1 5 5 1.79 1.04
1 5 6 11.07 2.11
1 5 6 12.72 1.75
-1 -5 -6 13.75 2.1
-1 -5 -6 13.22 1.33
-1 -5 -6 12.87 1.32
-1 -5 -6 12.21 1.71
1 5 6 10.17 1.62
1 5 6 9.9 2.04
-1 -5 -7 324.02 11.55
1 5 7 319.2 11.07
1 5 7 326.77 12.89
-1 -5 -7 334.53 9.16
1 5 7 316.93 12.74
-1 -5 -7 334.16 8.97
-1 -5 -7 335.03 10.68
1 5 7 324.48 10.67
1 5 8 18.63 2.27
-1 -5 -8 21.49 2.59
-1 -5 -8 17.54 2.04
-1 -5 -8 21.89 1.79
1 5 8 15.55 2.59
-1 -5 -8 19.21 1.67
-1 -5 -9 0.71 0.51
1 5 9 0.22 0.48
-1 -5 -9 0.16 0.38
-1 -5 -9 0.32 0.38
-1 -5 -9 -0.16 0.63
1 5 9 1.57 1.01
-1 -5 -10 1.38 0.71
-1 -5 -10 -0.27 0.57
-1 -5 -10 0.75 0.65
1 5 10 -0.44 0.84
1 5 10 0.26 0.5
-1 -5 -10 0.98 0.67
-1 -5 -11 2.2 0.71
-1 -5 -11 3.42 1.09
-1 -5 -11 1.61 0.88
1 5 11 2.62 1.09
1 5 11 0.83 0.65
-1 -5 -11 3.05 0.77
-1 -5 -12 3.4 0.91
-1 -5 -12 3.8 1.45
-1 -5 -12 3.96 1.02
1 5 12 4.91 1.66
1 5 12 3.19 1.13
-1 -5 -12 2.76 0.81
-1 -5 -13 6.05 1.36
1 5 13 9.15 2.36
-1 -5 -13 7.5 1.76
1 5 13 5.61 1.44
-1 -5 -13 7.48 1.2
-1 -5 -13 6.79 1.4
-1 -5 -14 31.71 2.65
-1 -5 -14 38.2 3.92
-1 -5 -14 35.94 3.32
1 5 14 42.14 4.78
-1 -5 -14 35.19 2.87
1 5 14 40.97 3.84
-1 -5 -15 125.24 5.92
1 5 15 121.19 7.18
1 5 15 135.11 9.11
-1 -5 -15 132.59 7.86
-1 -5 -16 73.96 5.91
-1 -5 -16 62.28 4.22
1 5 16 82.24 7.17
-1 -6 10 44.38 5.83
1 6 -10 45.37 5.17
1 6 -10 45.5 5.82
1 6 -9 32.73 4.38
-1 -6 9 30.33 4.78
-1 -6 9 34.76 3.65
1 6 -9 30.94 4.71
-1 -6 8 4.43 1.82
1 6 -8 5.4 1.97
-1 -6 8 7.6 1.71
1 6 -8 8.32 2.56
1 6 -7 12.05 2.5
-1 -6 7 11.7 2.02
1 6 -7 9.18 2.45
-1 -6 7 17.87 3.59
1 6 -6 2.69 1.29
-1 -6 6 3.68 1.17
-1 -6 6 3.19 1.74
1 6 -6 3.14 1.15
-1 -6 5 41.09 3.94
1 6 -5 37.71 4.75
-1 -6 5 39.84 5
-1 -6 5 41.18 3.7
1 6 -5 33.11 3.87
-1 -6 4 0.36 0.7
-1 -6 4 2.79 1.54
-1 -6 4 2.77 1.06
-1 -6 4 4.16 1.24
1 6 -4 2.86 1.25
1 6 -4 0.29 0.84
-1 -6 3 89.8 6.31
1 6 -3 91.44 6.33
-1 -6 3 86.72 5.39
-1 -6 3 84.64 5.74
1 6 -3 81.1 6.92
-1 -6 2 168.05 8.23
1 6 -2 174.14 9.33
1 6 -2 159.05 8.52
1 6 -2 157.55 8.67
-1 -6 2 164.58 7.74
1 6 -2 155.72 9.61
-1 -6 2 178.74 5.51
-1 -6 2 159.38 8.64
-1 -6 1 522.49 17.51
-1 -6 1 509.87 16.57
-1 -6 1 535.08 12.83
1 6 -1 515.06 17.12
-1 -6 1 524.53 16.03
1 6 -1 503.04 17.19
1 6 -1 531.37 18.1
1 6 -1 504.48 19.09
-1 -6 0 421.94 14.62
1 6 0 441.61 16.01
-1 -6 0 442.28 15.39
-1 -6 0 442.88 11.06
1 6 0 428.88 15.08
-1 -6 0 427.15 13.87
1 6 0 413.34 16.75
1 6 0 422.32 14.85
-1 -6 -1 20.54 2.89
-1 -6 -1 22.76 1.67
-1 -6 -1 20.15 1.65
1 6 1 12.81 2.32
1 6 1 21.47 3.33
1 6 1 18.48 2.63
-1 -6 -1 19.94 2.51
-1 -6 -1 19.66 2.64
1 6 1 19.53 2.68
-1 -6 -2 80.35 5.57
1 6 2 60.56 5.16
-1 -6 -2 68.54 3.11
-1 -6 -2 61.24 4.77
1 6 2 64.01 4.8
1 6 2 62.18 4.72
-1 -6 -2 70.57 3.23
1 6 2 68.57 6
-1 -6 -2 63.39 4.44
-1 -6 -3 0.26 0.85
-1 -6 -3 0.6 0.62
1 6 3 0.85 0.86
-1 -6 -3 -0.04 0.35
1 6 3 -0.18 0.58
-1 -6 -3 0.98 0.53
-1 -6 -3 0.29 0.59
1 6 3 1.23 1.28
-1 -6 -4 13.74 1.37
-1 -6 -4 12.6 2.16
-1 -6 -4 15.79 1.51
-1 -6 -4 17.55 2.24
1 6 4 12.87 2.1
1 6 4 17.63 2.58
1 6 4 9.95 2.25
-1 -6 -5 -0.46 0.83
1 6 5 -1.03 1.15
-1 -6 -5 0.4 0.62
-1 -6 -5 0.33 0.44
-1 -6 -5 1.11 0.68
1 6 5 -0.44 0.57
-1 -6 -6 5.16 1.4
-1 -6 -6 7.28 1.08
-1 -6 -6 6.54 1.05
1 6 6 3.94 1.22
1 6 6 6.31 1.83
-1 -6 -6 6.08 1.4
-1 -6 -7 5.49 1.32
-1 -6 -7 2.98 1.07
-1 -6 -7 4.73 0.94
1 6 7 6.01 1.42
-1 -6 -7 5.39 1.03
1 6 7 5.69 1.71
1 6 7 2.97 1.14
1 6 8 1.03 0.89
-1 -6 -8 0.36 0.45
1 6 8 0.68 1.11
-1 -6 -8 0.88 0.88
-1 -6 -8 1.19 0.77
1 6 8 0.56 0.81
-1 -6 -8 2.23 0.73
-1 -6 -9 80.78 5.54
-1 -6 -9 81.05 4.08
-1 -6 -9 87.42 4.11
1 6 9 81.08 6.45
1 6 9 71.8 5.2
-1 -6 -9 88.35 5.29
-1 -6 -10 67.53 5.09
-1 -6 -10 68.49 3.79
-1 -6 -10 65.69 3.71
1 6 10 63.74 5.81
-1 -6 -11 40.07 3.98
-1 -6 -11 43.31 3.04
-1 -6 -11 43.19 2.94
1 6 11 40.3 4.64
-1 -6 -12 3.37 0.85
-1 -6 -12 3.37 0.9
1 6 12 4.63 1.77
-1 -6 -12 3.89 1.21
1 6 13 2.63 1.42
-1 -6 -13 3.75 1.45
-1 -6 -13 3.13 0.92
-1 -6 -13 3.97 1.01
-1 -6 -14 3.98 1.06
-1 -6 -14 2.37 0.92
-1 -6 -14 4.09 1.53
1 6 14 3.76 1.81
-1 -7 7 43.31 5.93
1 7 -7 49.76 5.49
-1 -7 7 39.19 4.19
1 7 -7 53.05 6.49
-1 -7 6 -0.28 1.1
-1 -7 6 0.28 0.77
1 7 -6 -1.15 1.02
1 7 -6 0.7 1.35
1 7 -5 23.75 4.11
-1 -7 5 20.53 2.95
1 7 -5 25.88 3.75
1 7 -4 -1.91 1.24
-1 -7 4 0.82 0.72
-1 -7 4 -0.24 0.84
1 7 -4 -0.31 0.86
1 7 -4 0.3 0.87
1 7 -4 -0.57 0.78
1 7 -3 116.29 8.52
1 7 -3 137.64 8.52
1 7 -3 142.33 10.01
-1 -7 3 127.66 7.86
-1 -7 3 136.47 7.55
1 7 -3 128.24 8.46
1 7 -2 3.45 1.62
-1 -7 2 8.94 1.96
1 7 -2 5.72 1.72
1 7 -2 5.86 1.84
-1 -7 2 6.44 1.73
1 7 -2 5.71 1.8
1 7 -1 153.43 10.27
-1 -7 1 165.49 9.05
1 7 -1 153.58 9.5
-1 -7 1 157.96 8.73
-1 -7 1 157.96 5.77
1 7 -1 157.57 9.05
-1 -7 1 154.4 8.11
-1 -7 0 92.39 6.62
-1 -7 0 86.04 6.27
1 7 0 99.81 7.29
1 7 0 88.65 6.47
-1 -7 0 91.28 4.14
-1 -7 0 87.91 5.92
1 7 0 78.81 7.31
-1 -7 -1 6.41 1.73
1 7 1 5.62 1.81
-1 -7 -1 6.95 1.85
-1 -7 -1 8.43 1.23
-1 -7 -1 10.94 2.26
1 7 1 9.52 2.64
-1 -7 -2 74.68 3.75
-1 -7 -2 74.04 5.73
1 7 2 70.02 6.55
-1 -7 -2 74.75 5.33
-1 -7 -2 76.25 5.89
-1 -7 -3 264.84 11.51
-1 -7 -3 267.92 7.79
-1 -7 -3 248.6 10.52
-1 -7 -3 239.99 7.97
1 7 3 249.88 12.97
-1 -7 -3 253.46 11.62
-1 -7 -4 5.56 1.71
-1 -7 -4 5.1 0.99
-1 -7 -4 7.4 1.26
1 7 4 1.78 1.11
-1 -7 -4 6.44 1.54
-1 -7 -4 8.46 2.18
-1 -7 -5 137.78 5.28
-1 -7 -5 139.56 5.56
-1 -7 -5 113.15 7.66
-1 -7 -5 125.44 7.1
1 7 5 134.04 9.09
-1 -7 -5 132.51 7.71
-1 -7 -6 133.33 7.72
-1 -7 -6 144.45 5.6
-1 -7 -6 140.38 7.53
-1 -7 -6 145.42 5.82
1 7 6 130.55 8.95
-1 -7 -7 4.72 1.5
-1 -7 -7 8.6 1.3
1 7 7 6.96 2.24
-1 -7 -7 5.83 1.49
-1 -7 -7 8.63 1.38
1 7 7 6.6 2.03
-1 -7 -8 4.76 1.07
-1 -7 -8 4.89 1.48
-1 -7 -8 6.16 1.17
1 7 8 5.87 1.79
-1 -7 -8 6.76 1.69
1 7 8 2.47 1.3
-1 -7 -9 33.03 3.75
-1 -7 -9 34.97 2.76
-1 -7 -9 34.8 2.85
-1 -7 -9 43.89 4.05
1 7 9 34.85 4.54
1 7 9 34.6 4.55
-1 -7 -10 25.68 3.36
-1 -7 -10 28.2 2.54
1 7 10 24.22 3.75
-1 -7 -10 27.56 2.54
-1 -7 -11 3.56 1.21
-1 -7 -11 5.04 1.17
-1 -7 -11 4.55 1.06
1 7 11 4.72 1.78
-1 -7 -12 1.22 0.8
1 7 12 0.91 0.71
-1 -7 -12 3.06 0.98
-1 -7 -12 4.29 1.6
1 8 -3 -0.77 0.9
1 8 -3 -2.4 1.53
-1 -8 3 -0.88 0.86
-1 -8 3 -0.82 1.12
-1 -8 2 1.37 0.87
-1 -8 2 3.68 1.58
1 8 -2 1.73 1.71
-1 -8 1 5 1.71
-1 -8 1 5.87 1.88
-1 -8 0 6.31 1.98
1 8 0 3.38 1.32
-1 -8 0 5.39 1.61
-1 -8 -1 2.47 1.14
-1 -8 -1 2.56 0.81
1 8 1 2.18 1.36
-1 -8 -1 1.11 0.97
-1 -8 -2 13.44 2.74
-1 -8 -2 11.59 2.35
-1 -8 -2 11.95 1.63
1 8 2 14.63 3.35
-1 -8 -3 -1.07 1.2
-1 -8 -3 2.43 1.2
-1 -8 -3 1.11 0.76
-1 -8 -3 0.57 0.57
1 8 3 -0.86 1.12
-1 -8 -4 13.14 2.52
-1 -8 -4 11.58 2.34
-1 -8 -4 14.03 2.79
-1 -8 -4 15.46 1.91
1 8 4 8.61 2.39
-1 -8 -5 171.15 9.2
1 8 5 170.94 11.13
-1 -8 -5 167.21 6.94
-1 -8 -5 166.02 9.33
-1 -8 -5 178.72 10.41
-1 -8 -5 178.8 6.61
-1 -8 -6 36.85 4.18
-1 -8 -6 40.06 2.89
-1 -8 -6 36.06 2.99
-1 -8 -6 38.33 4.72
-1 -8 -6 33.66 3.91
1 8 6 39.14 5.16
-1 -8 -7 1.71 0.86
1 8 7 2.53 1.49
1 8 7 2.41 1.36
-1 -8 -7 3.01 0.95
-1 -8 -7 1.07 0.92
-1 -8 -7 2.85 1.21
-1 -8 -7 2.32 1.37
-1 -8 -8 28.97 3.67
-1 -8 -8 36.67 2.94
1 8 8 34.43 4.86
-1 -8 -8 35.36 3.03
-1 -8 -8 27.96 3.64
1 8 8 31.16 4.6
-1 -8 -8 25.79 4.09
-1 -8 -9 3.08 0.99
-1 -8 -9 1.81 0.95
1 8 9 3.11 1.77
-1 -8 -9 3.6 1.01
-1 -8 -9 -0.36 0.57
1 8 9 4.69 1.6
2 -7 -5 4.21 1.56
-2 7 5 2.3 1.62
2 -7 -5 0.97 1.17
-2 7 4 10.54 2.83
2 -7 -4 17.33 3
2 -7 -4 14.13 3.11
-2 7 3 0.36 0.89
2 -7 -3 1.94 1.15
2 -7 -3 1.38 1.17
-2 7 2 37.37 5.38
2 -7 -2 32.52 4.1
2 -7 -2 30.44 4.43
2 -7 -1 8.95 2.19
-2 7 1 10.69 2.8
2 -7 -1 6.46 2.07
-2 7 1 6.8 2.2
2 -7 0 35.91 4.84
-2 7 0 33.18 5.26
-2 7 0 34.19 5.05
2 -7 0 39.15 4.37
2 -7 1 2.76 1.45
-2 7 -1 3.82 1.71
-2 7 -1 5.44 2.19
2 -7 1 3.63 1.46
-2 6 10 1.36 1.34
2 -6 -10 1.32 1.07
2 -6 -10 1.9 1.06
-2 6 9 107.66 8.18
2 -6 -9 93.72 7.24
2 -6 -9 95.71 6.97
-2 6 8 9.39 2.61
2 -6 -8 9.34 2.3
2 -6 -8 7.35 2.03
-2 6 7 9.34 2.32
2 -6 -7 10.84 2.23
2 -6 -7 10.38 2.32
-2 6 6 23.2 3.71
2 -6 -6 18.02 3.04
2 -6 -6 20.41 2.97
-2 6 5 72.92 6.85
2 -6 -5 69.25 6.03
2 -6 -5 70.91 5.61
-2 6 4 25.37 4.14
2 -6 -4 25.25 3.3
2 -6 -4 24.86 3.67
-2 6 3 77.02 7.2
2 -6 -3 81.55 5.98
2 -6 -3 81.75 6.64
-2 6 3 82.57 6.83
-2 6 2 65.76 6.6
2 -6 -2 65.02 5.91
2 -6 -2 57.66 5
-2 6 2 67.61 6.2
-2 6 1 5.46 2.15
2 -6 -1 7.98 1.84
-2 6 1 3.4 1.55
2 -6 -1 3.47 1.68
-2 6 0 -0.43 0.82
-2 6 0 1.89 1.08
2 -6 0 1.24 0.77
2 -6 0 1.31 1.22
-2 6 -1 1.69 1.53
2 -6 1 0.61 0.62
-2 6 -1 1.96 1.79
2 -6 1 -1.55 1.14
-2 6 -2 8.2 2.69
-2 6 -2 4.14 1.64
2 -6 2 8.19 1.73
2 -6 2 11.17 2.52
-2 6 -3 13.17 3.43
2 -6 3 21.1 2.97
2 -6 3 22.03 3.5
-2 6 -3 26.79 4.18
2 -6 4 -0.78 0.77
-2 6 -4 -1.19 1.22
2 -6 4 0.57 0.79
-2 6 -4 -0.28 0.79
-2 6 -5 18.53 4.01
2 -6 5 23.05 3.71
2 -6 5 21.38 3.05
-2 6 -5 31.17 4.72
2 -6 6 15.24 3.21
2 -6 6 15.01 2.51
-2 6 -6 12.47 3.15
-2 6 -6 12.51 3.27
2 -5 -12 5.2 1.55
-2 5 12 5.84 1.79
2 -5 -12 5.79 1.7
2 -5 -11 3.44 1.14
-2 5 11 1.06 0.86
2 -5 -11 4.42 1.58
-2 5 10 261.98 12.67
2 -5 -10 261 10.5
2 -5 -10 257.86 11.64
2 -5 -10 260.7 11.64
-2 5 9 285.75 13.48
2 -5 -9 302.26 12.8
2 -5 -9 317.56 11.41
2 -5 -9 309.49 12.67
2 -5 -8 143.91 6.86
-2 5 8 129.6 8.65
2 -5 -8 140.25 7.93
2 -5 -8 141.56 8.13
2 -5 -7 55.19 3.88
-2 5 7 49.29 5.07
2 -5 -7 53.42 4.59
2 -5 -7 49.48 4.69
-2 5 6 8.33 2.15
2 -5 -6 6.33 1.57
2 -5 -6 8.71 2.12
-2 5 5 46.14 5.07
2 -5 -5 51.13 4.67
2 -5 -5 48.91 4.3
-2 5 5 52.55 4.69
-2 5 4 6.08 2
2 -5 -4 5.63 1.51
2 -5 -4 6.21 1.69
-2 5 4 8.41 2.04
-2 5 3 7.12 2.13
-2 5 3 8.05 2.01
2 -5 -3 8.08 1.75
2 -5 -3 10.7 2.15
2 -5 -2 79.52 5.91
2 -5 -2 71.13 5.1
-2 5 2 70.55 6.39
-2 5 2 71.26 5.87
-2 5 1 94.55 7.65
2 -5 -1 110.96 5.76
2 -5 -1 102.29 6.92
-2 5 1 93.38 6.86
2 -5 -1 102.76 6.16
-2 5 0 235.55 12.42
2 -5 0 217.84 10.58
2 -5 0 213.38 9.42
-2 5 0 232.25 11.32
-2 5 -1 29.48 4.32
2 -5 1 20.84 2.67
2 -5 1 25.31 3.37
-2 5 -1 20.79 3.27
-2 5 -2 234.6 12.67
2 -5 2 230.41 11
-2 5 -2 223.19 11.5
2 -5 2 227.93 9.72
2 -5 3 147.51 7.47
-2 5 -3 148.62 9.94
2 -5 3 146.56 8.62
-2 5 -3 146.59 9.19
2 -5 4 163.03 9.24
-2 5 -4 134.8 9.71
2 -5 4 158.01 7.75
-2 5 -4 139.84 9.16
-2 5 -5 13.25 2.78
2 -5 5 13.44 2.84
2 -5 5 15.38 2.86
2 -5 5 12.73 2.06
-2 5 -5 11.14 2.76
-2 5 -6 19.35 3.58
2 -5 6 16.41 2.91
2 -5 6 14.51 2.89
-2 5 -6 15 3.1
2 -5 6 14.94 2.28
2 -5 7 -2.49 1.41
-2 5 -7 1.42 1.34
2 -5 7 0.26 0.76
-2 5 -7 1.56 1.34
2 -5 8 64.38 6.07
-2 5 -8 64.45 4.9
2 -5 8 62.96 6.42
-2 5 -8 56.15 6.25
-2 5 -9 0.68 0.73
2 -5 9 2.11 1.23
-2 5 -9 1.61 1.2
2 -5 9 1.76 1.24
2 -5 10 2.7 1.53
-2 5 -10 1 1.42
-2 4 14 35.82 4.46
2 -4 -14 46.02 4.58
2 -4 -13 0.17 0.65
-2 4 13 -0.1 0.7
2 -4 -12 24.84 3.07
2 -4 -12 21.57 3.07
-2 4 12 19.65 3.06
2 -4 -11 3.86 1.3
-2 4 11 1.88 1.03
2 -4 -11 4.7 1.56
-2 4 11 4.15 1.42
2 -4 -10 238.97 9.73
-2 4 10 246.09 11.51
2 -4 -10 250.65 10.75
2 -4 -10 227.01 9.96
-2 4 10 263.95 10.89
2 -4 -9 55.48 4.07
-2 4 9 49.26 4.86
2 -4 -9 58.9 4.7
2 -4 -9 53.24 4.42
-2 4 9 59.57 4.64
2 -4 -8 41.07 3.3
-2 4 8 37.97 4.23
2 -4 -8 35.48 3.54
-2 4 8 35.76 3.46
2 -4 -8 37.16 3.63
2 -4 -7 186.05 7.45
-2 4 7 184.13 9.63
-2 4 7 179.13 5.85
-2 4 7 181.37 8.27
2 -4 -7 189.74 8.59
2 -4 -7 175.83 8.4
-2 4 6 0.68 0.7
2 -4 -6 0.2 0.58
-2 4 6 -0.53 1.12
2 -4 -6 0.68 0.55
-2 4 6 1.18 0.74
-2 4 6 0.24 0.35
2 -4 -6 0.58 0.58
2 -4 -5 16.46 1.85
2 -4 -5 19.18 2.3
-2 4 5 17.59 2.88
-2 4 5 17.54 2.34
-2 4 5 20.39 2.54
2 -4 -5 17.25 2.37
-2 4 5 18.79 1.58
2 -4 -5 21.32 2.69
2 -4 -4 204.15 6.96
2 -4 -4 190.85 8.69
2 -4 -4 172.76 7.68
-2 4 4 188.21 8.3
2 -4 -4 184.58 8.14
-2 4 4 191.08 6.1
-2 4 4 196.78 8.74
-2 4 4 174.44 9.54
2 -4 -3 111.06 4.65
-2 4 3 106.47 7.2
2 -4 -3 106.95 6.27
2 -4 -3 99.57 5.44
2 -4 -3 105.56 5.88
-2 4 3 106.59 6.34
-2 4 3 102.79 4.13
2 -4 -2 10.02 1.86
-2 4 2 9.68 2.21
2 -4 -2 11.78 1.84
-2 4 2 9.05 1.13
2 -4 -2 7.07 1.45
-2 4 2 11.15 2.14
-2 4 1 24.18 1.82
2 -4 -1 23.7 2.45
-2 4 1 28.26 3.69
2 -4 -1 23.81 2.87
2 -4 -1 23.47 2.61
-2 4 1 26.04 3.13
2 -4 0 0.01 0.54
2 -4 0 0.03 0.52
-2 4 0 0.73 0.47
2 -4 0 0.35 0.81
-2 4 0 -0.38 0.7
-2 4 -1 67.58 5.88
2 -4 1 64.62 4.97
-2 4 -1 63.26 5.14
2 -4 1 70.09 4.52
-2 4 -1 71.85 3.27
2 -4 1 74.07 4.59
-2 4 -2 15.41 1.43
-2 4 -2 16.58 2.99
2 -4 2 13.28 1.93
2 -4 2 10.14 1.93
-2 4 -2 16.6 2.74
-2 4 -3 135.1 8.55
2 -4 3 117.95 7.03
2 -4 3 117 7.13
2 -4 3 114.4 5.94
-2 4 -3 110.67 4.3
-2 4 -3 108.82 7.04
-2 4 -4 4.51 0.81
2 -4 4 2.02 1.03
-2 4 -4 2.9 1.52
2 -4 4 3 1.24
2 -4 4 4.72 1.21
-2 4 -4 3.2 1.44
-2 4 -4 3.24 0.92
-2 4 -5 6.1 0.9
2 -4 5 2.57 1.18
-2 4 -5 5.44 1.93
-2 4 -5 4.3 1.01
2 -4 5 5.6 1.22
2 -4 5 6.1 1.81
-2 4 -5 3.74 1.48
2 -4 6 372.17 14.6
2 -4 6 381.37 12.4
2 -4 6 378.08 15.16
-2 4 -6 371.98 11.88
-2 4 -6 387.33 15.53
2 -4 7 20.44 3.32
-2 4 -7 18.36 3.23
-2 4 -7 20.97 2.39
2 -4 7 21.37 2.43
2 -4 7 16.26 2.81
2 -4 8 41.36 4.51
2 -4 8 42.49 4.76
-2 4 -8 37.29 3.3
-2 4 -8 48.36 5.3
-2 4 -9 24.51 3.86
2 -4 9 24.93 3.75
2 -4 9 20.93 3.33
-2 4 -9 22.51 2.64
-2 4 -10 24.3 2.95
2 -4 10 21.83 3.63
2 -4 10 26.74 3.77
-2 4 -10 29.14 4.3
2 -4 11 31.21 4.12
-2 4 -11 26.94 3.23
2 -4 11 27.12 4.06
-2 4 -11 29.29 4.45
2 -4 12 23.56 3.99
-2 4 -12 25.77 3.25
-2 4 -12 20.25 3.94
2 -3 -15 3.46 1.51
-2 3 15 0.68 0.93
-2 3 15 2.12 1.14
2 -3 -14 13.8 2.46
-2 3 14 12.08 2.42
-2 3 14 15.42 2.77
2 -3 -13 56.55 4.83
-2 3 13 58.21 5.2
-2 3 13 51.81 4.81
2 -3 -12 3.32 1.21
-2 3 12 2.82 1.22
-2 3 12 3.9 1.42
2 -3 -11 4.31 1.35
-2 3 11 2.72 0.96
-2 3 11 6.57 1.58
2 -3 -11 6.45 1.61
-2 3 10 28.74 3.38
2 -3 -10 29.21 3.19
2 -3 -10 26.03 2.85
-2 3 10 31.1 3.26
2 -3 -9 12.38 1.85
-2 3 9 10.67 2.05
-2 3 9 10.38 1.08
2 -3 -9 13.13 2.03
-2 3 9 11.78 1.92
2 -3 -9 9.75 1.72
2 -3 -8 26.62 2.55
-2 3 8 25.82 3.29
2 -3 -8 26.08 2.67
-2 3 8 27.53 1.82
2 -3 -8 23.73 2.8
2 -3 -8 32.34 3.15
-2 3 8 29.9 2.94
2 -3 -7 156.22 6.38
-2 3 7 136.63 7.65
-2 3 7 149.95 4.84
2 -3 -7 144.68 6.97
-2 3 7 151.55 6.8
2 -3 -7 147.87 7.21
2 -3 -7 135.55 6.56
2 -3 -6 142.8 7.07
-2 3 6 147.37 4.85
-2 3 6 150.5 6.64
-2 3 6 137.23 7.66
2 -3 -6 150.22 6.03
2 -3 -6 142.39 6.68
2 -3 -6 151.61 6.92
2 -3 -5 0.95 0.69
2 -3 -5 0.45 0.45
-2 3 5 -0.35 0.8
-2 3 5 0.77 0.47
-2 3 5 0.63 0.54
2 -3 -5 1.79 0.91
2 -3 -5 1.23 0.82
-2 3 5 -0.13 0.6
2 -3 -4 8.37 1.2
2 -3 -4 10.28 1.7
2 -3 -4 7.75 1.53
-2 3 4 10.21 2.08
-2 3 4 6.57 0.91
2 -3 -4 9.12 1.59
-2 3 4 10.22 1.53
-2 3 4 9.93 1.62
2 -3 -3 7.27 1
-2 3 3 3.12 1.31
2 -3 -3 5.34 1.15
2 -3 -3 6.03 1.34
-2 3 3 7.22 0.94
2 -3 -3 7.6 1.42
-2 3 3 5.55 1.22
2 -3 -2 232.41 6.72
2 -3 -2 225.27 8.32
-2 3 2 212.35 9.93
2 -3 -2 209.96 8.34
-2 3 2 222.84 6.56
2 -3 -2 215.45 8.63
-2 3 2 225.05 8.87
2 -3 -1 2.6 0.58
2 -3 -1 0.58 0.44
-2 3 1 1.99 0.56
-2 3 1 3.45 1.01
-2 3 1 1.65 1.04
2 -3 -1 2.32 0.99
2 -3 -1 2.72 0.96
2 -3 0 175.2 5.16
-2 3 0 175.66 7.84
-2 3 0 182.54 9.05
2 -3 0 158.72 6.91
2 -3 0 171.27 7.64
2 -3 0 177.28 7.05
-2 3 0 173.52 5.52
-2 3 -1 -0.04 0.79
2 -3 1 0.17 0.41
-2 3 -1 1.11 0.44
2 -3 1 0.33 0.54
2 -3 1 0.65 0.72
-2 3 -1 0.57 0.71
-2 3 -1 0.12 0.27
2 -3 2 171.74 6.86
-2 3 -2 172.19 5.52
-2 3 -2 180.06 9.14
2 -3 2 165.78 7.74
2 -3 2 168.34 7.68
2 -3 2 177.68 7.26
-2 3 -2 174.7 8
-2 3 -2 178.18 5.53
-2 3 -3 45.41 2.36
-2 3 -3 39.1 3.68
-2 3 -3 52.04 4.75
2 -3 3 47.55 3.92
2 -3 3 40.99 3.59
2 -3 3 44.12 3.15
2 -3 3 49.26 3.61
-2 3 -3 44.96 2.55
-2 3 -4 42.47 2.6
2 -3 4 38.39 3.58
2 -3 4 40.11 3.67
2 -3 4 41.01 2.99
-2 3 -4 38.42 3.68
-2 3 -4 41.96 2.24
2 -3 5 328.93 12.63
2 -3 5 334.94 12.65
-2 3 -5 338.07 9.96
2 -3 5 345.08 10.75
-2 3 -5 365.6 9.11
-2 3 -5 341.88 12.94
2 -3 6 322.15 12.55
2 -3 6 315.53 12.53
2 -3 6 323.49 10.37
-2 3 -6 307.64 12.61
-2 3 -6 326.74 9.91
-2 3 -6 347.41 8.71
2 -3 7 86.33 5.95
2 -3 7 79.55 5.82
-2 3 -7 80.95 3.26
-2 3 -7 77.46 4.25
2 -3 7 90.71 4.63
-2 3 -7 82.4 6.1
2 -3 8 40.45 4.12
2 -3 8 44.5 4.43
-2 3 -8 40.65 3.07
-2 3 -8 45.06 4.58
2 -3 9 29.24 3.74
2 -3 9 36.57 4.02
-2 3 -9 36 3.05
-2 3 -9 30.28 3.97
-2 3 -10 21.39 2.44
2 -3 10 22 3.21
2 -3 10 18.61 2.92
-2 3 -10 22.14 3.56
-2 3 -11 0.69 0.65
2 -3 11 0.09 0.79
2 -3 11 2.42 1.67
-2 3 -11 2.65 1.34
2 -3 12 71.04 6.4
2 -3 12 80.77 6.51
-2 3 -12 79.17 5.28
-2 3 -12 86.15 7.34
-2 3 -13 5.56 1.56
2 -3 13 4.45 1.88
-2 3 -13 2.52 1.02
2 -2 -15 2.93 1.31
-2 2 15 4.13 1.63
-2 2 15 2.97 1.39
-2 2 14 56.68 5.13
2 -2 -14 60.44 5.17
-2 2 14 67.96 5.61
2 -2 -13 77.23 5.57
-2 2 13 75.41 5.74
-2 2 13 73.97 5.66
-2 2 12 170.72 8.47
2 -2 -12 161.32 8.66
2 -2 -12 169.42 8.32
-2 2 12 159.07 8.47
2 -2 -11 1.83 0.94
-2 2 11 3.06 1.1
-2 2 11 0.3 0.49
2 -2 -11 3.08 0.9
2 -2 -11 1.97 1.04
2 -2 -10 18.07 2.3
-2 2 10 24.91 2.97
2 -2 -10 18.14 2.35
-2 2 10 18.9 2.49
2 -2 -10 20.07 2.71
2 -2 -9 21.5 2.39
-2 2 9 19.18 2.58
-2 2 9 18.3 2.26
2 -2 -9 15.86 2.37
2 -2 -9 21.66 2.48
2 -2 -8 7.86 1.39
2 -2 -8 6.45 1.49
2 -2 -8 6.94 1.37
-2 2 8 8.25 1.46
-2 2 8 5.28 1.47
2 -2 -7 64.49 3.76
-2 2 7 60.79 4.53
2 -2 -7 66.62 4.2
-2 2 7 65.06 3.85
2 -2 -7 60.77 4.36
2 -2 -7 55.65 3.53
2 -2 -6 58.34 3.4
-2 2 6 58.73 4.38
-2 2 6 63.41 3.61
2 -2 -6 53.93 4.04
2 -2 -6 61.08 3.59
2 -2 -6 63.17 3.98
2 -2 -5 586.4 14.46
-2 2 5 551.92 16.85
-2 2 5 571.94 14.78
2 -2 -5 558.32 14.98
2 -2 -5 579.13 15.62
2 -2 -5 520.37 16.03
2 -2 -4 1825.64 38.18
2 -2 -4 1808.31 39.5
-2 2 4 1738.42 41.58
2 -2 -4 1715.74 40.71
-2 2 4 1808.6 38.81
2 -2 -4 1811.57 39.8
-2 2 4 1801.44 38.95
2 -2 -3 21.94 1.62
-2 2 3 19.73 2.55
2 -2 -3 23.62 2.16
2 -2 -3 18.95 2.22
-2 2 3 18.13 1.71
2 -2 -3 19.69 2.05
-2 2 3 21.06 1.94
2 -2 -2 4.37 0.66
2 -2 -2 1.34 0.7
-2 2 2 2 0.86
2 -2 -2 2.98 0.8
2 -2 -2 4.31 1.02
-2 2 2 2.88 0.81
2 -2 -1 11.2 0.96
-2 2 1 10.35 1.84
-2 2 1 10.03 0.63
2 -2 -1 11.6 1.45
2 -2 -1 10.9 1.54
-2 2 1 13.92 1.62
2 -2 -1 8.43 1.4
2 -2 0 297.47 7.28
-2 2 0 299.32 11.25
-2 2 0 300.74 9.7
2 -2 0 270.85 9.66
2 -2 0 296.16 9.25
2 -2 0 291.99 9.82
2 -2 1 758.92 15.72
-2 2 -1 779.96 21.27
2 -2 1 730.78 19.45
-2 2 -1 725.07 17.03
2 -2 1 722.85 19.18
-2 2 -1 790.89 16.3
2 -2 1 747.44 18.39
-2 2 -1 746.06 19.22
2 -2 2 505.37 10.93
-2 2 -2 579.12 12.35
-2 2 -2 566.06 16.84
2 -2 2 553.68 15.38
-2 2 -2 531.83 12.65
2 -2 2 550.55 14.83
2 -2 2 527.9 14.48
-2 2 -2 546.17 14.95
2 -2 2 543.44 13.87
-2 2 -3 6.3 0.8
-2 2 -3 4.88 0.72
2 -2 3 3.49 0.97
2 -2 3 3.96 1.09
2 -2 3 4.26 0.89
2 -2 3 4.19 0.97
-2 2 -3 4.85 1.16
-2 2 -4 1.07 0.49
2 -2 4 1.29 0.75
2 -2 4 -0.05 0.58
-2 2 -4 0.57 0.36
2 -2 4 -0.08 0.56
2 -2 4 0.9 0.53
-2 2 -4 0.16 0.56
2 -2 5 69.17 3.51
2 -2 5 62.93 4.41
-2 2 -5 72.69 2.94
2 -2 5 69.23 4.45
-2 2 -5 72.61 3.28
-2 2 -5 65.16 4.45
-2 2 -6 0.42 0.42
2 -2 6 1.1 0.65
-2 2 -6 0.8 0.37
2 -2 6 0.41 0.58
-2 2 -6 0.37 0.72
2 -2 6 0.45 0.36
-2 2 -7 -0.26 0.38
2 -2 7 0.72 0.58
-2 2 -7 0.17 0.59
-2 2 -7 0.83 0.37
2 -2 7 -0.1 0.52
2 -2 7 -0.21 0.3
-2 2 -8 12.58 1.55
-2 2 -8 9.37 1.95
2 -2 8 10.93 2
2 -2 8 9.9 1.97
-2 2 -8 12.32 1.04
2 -2 9 55.17 4.66
-2 2 -9 54.91 3.5
2 -2 9 47.4 4.26
-2 2 -9 56.64 4.82
-2 2 -10 0.26 0.95
-2 2 -10 0.98 0.87
2 -2 10 2.82 1.39
2 -2 10 -0.55 0.95
2 -2 11 436.67 15.68
2 -2 11 417.22 15.6
-2 2 -11 399.68 15.84
-2 2 -11 443.62 13.32
-2 2 -12 263.26 9.76
2 -2 12 260.42 11.71
-2 2 -12 235.29 11.79
2 -2 12 239.26 11.54
-2 2 -13 194.15 8.43
2 -2 13 161.23 9.63
2 -2 13 195.97 10.04
-2 2 -13 177.48 10.25
-2 2 -14 35.45 4.65
2 -2 14 37.48 4.55
-2 2 -14 40.42 3.72
-2 2 -15 12.24 2.8
-2 2 -15 11.93 2.09
2 -2 15 13.37 2.83
2 -1 -16 18.8 3.17
-2 1 16 20.08 3.25
-2 1 16 20.93 3.32
-2 1 15 34.77 4.03
2 -1 -15 30.78 3.93
-2 1 15 32.13 3.98
2 -1 -14 21.18 3.06
-2 1 14 21.67 3.1
-2 1 14 23.78 3.25
-2 1 13 157.7 8.32
2 -1 -13 156.78 8.36
-2 1 13 141.35 7.91
-2 1 12 9.78 1.94
-2 1 12 5.88 1.54
2 -1 -12 9.98 1.95
2 -1 -11 1.38 0.85
-2 1 11 1.48 0.79
-2 1 11 0.16 0.59
2 -1 -11 2.72 0.99
2 -1 -10 42.62 3.55
-2 1 10 38.71 3.62
2 -1 -10 40.98 3.29
-2 1 10 40.51 3.48
2 -1 -9 4.57 1.15
-2 1 9 7.17 1.54
2 -1 -9 5.72 1.28
-2 1 9 4.74 1.21
2 -1 -8 16.87 2.05
-2 1 8 20.24 2.45
-2 1 8 19.46 2.08
-2 1 8 20.97 1.32
2 -1 -8 20.38 2.17
2 -1 -8 16.18 2.26
2 -1 -8 19.54 1.67
2 -1 -7 91.55 4.61
-2 1 7 98.56 5.28
2 -1 -7 84.67 3.6
2 -1 -7 94.82 4.8
-2 1 7 96.93 3.33
-2 1 7 90.28 4.43
2 -1 -7 87.23 5.28
2 -1 -6 75.79 3.92
-2 1 6 79.54 4.7
-2 1 6 84.7 3.11
2 -1 -6 75.51 3.42
2 -1 -6 75.62 4.67
2 -1 -6 72.12 3.1
-2 1 6 76.13 3.76
2 -1 -6 78.18 4.19
-2 1 5 729.94 19.39
2 -1 -5 727.01 17.74
-2 1 5 704.54 17.31
-2 1 5 747.15 16.57
2 -1 -5 749.47 19.7
2 -1 -5 742.28 16.42
2 -1 -5 741.17 17.27
2 -1 -5 741.76 18.44
2 -1 -4 1834.14 38.63
-2 1 4 1855.41 40.92
2 -1 -4 1789.46 40.88
-2 1 4 1876 37.96
2 -1 -4 1810.96 37.27
2 -1 -4 1852.5 39.65
2 -1 -4 1759.09 36.64
-2 1 4 1792.67 38.13
2 -1 -4 1788.72 38.68
2 -1 -3 158.99 5.15
2 -1 -3 162.32 5.58
2 -1 -3 159.99 6.67
-2 1 3 157.28 4.86
2 -1 -3 161.29 5.91
-2 1 3 160.56 5.06
-2 1 3 165.4 6.78
-2 1 2 165.59 6.76
2 -1 -2 162.43 5.79
2 -1 -2 162.1 6.67
2 -1 -2 164.55 5.76
-2 1 2 162.08 4.76
2 -1 -2 166.19 4.94
-2 1 2 167.21 4.98
-2 1 2 154.99 5.07
2 -1 -1 101.82 3.29
2 -1 -1 100.15 4.94
-2 1 1 104.79 3.81
2 -1 -1 101.33 2.6
-2 1 1 103.47 5.18
2 -1 -1 93.05 4.05
2 -1 -1 101.6 4.33
2 -1 0 29.83 1.34
-2 1 0 29.5 2.63
2 -1 0 28.53 1.99
2 -1 0 28.66 2.19
-2 1 0 26.08 0.96
2 -1 0 31.59 1.28
-2 1 0 28.39 1.32
2 -1 0 28.4 2.41
-2 1 0 27.86 1.88
-2 1 -1 281.93 9.59
2 -1 1 257.93 8.52
2 -1 1 264.79 8.83
2 -1 1 254.65 7.44
2 -1 1 265.37 6.7
-2 1 -1 275.39 6.84
-2 1 -1 260.55 7.86
2 -1 1 259.78 7.75
2 -1 1 273.98 6.1
-2 1 -2 126.2 6.06
2 -1 2 112.16 5.08
2 -1 2 128.93 5.36
-2 1 -2 120.49 4.19
2 -1 2 130.64 3.83
-2 1 -2 122.58 3.45
2 -1 2 119.64 4.45
2 -1 2 121.56 4.4
-2 1 -2 121.58 3.88
-2 1 -2 123.06 4.74
-2 1 -3 367.87 9.04
2 -1 3 356.05 10.87
-2 1 -3 352.75 9.12
-2 1 -3 354.78 10.2
2 -1 3 356.66 10.59
2 -1 3 368.54 9.95
2 -1 3 373.22 8.96
2 -1 3 341.55 9.32
2 -1 4 2017.13 42.94
2 -1 4 2119.5 41.67
2 -1 4 1937.65 44.07
-2 1 -4 1979.81 41.62
-2 1 -4 1940.95 41.34
2 -1 4 2178.84 43.93
2 -1 4 1940.91 41.65
-2 1 -4 2013.24 41.05
-2 1 -4 1954.68 43.3
2 -1 5 32.12 2.87
-2 1 -5 29.39 2.01
2 -1 5 34.53 2.12
-2 1 -5 32.86 1.82
-2 1 -5 33.7 1.58
-2 1 -5 32.32 2.63
2 -1 5 30.09 1.89
2 -1 5 33.42 2.58
-2 1 -6 160.88 4.71
2 -1 6 147.6 6.82
-2 1 -6 159.66 5.54
2 -1 6 162.59 5.63
-2 1 -6 162.39 4.8
-2 1 -6 169.48 5.4
2 -1 6 154.93 6.43
2 -1 6 155.12 5.02
-2 1 -6 163.58 6.93
-2 1 -6 146.61 3.88
-2 1 -7 92.31 3.61
2 -1 7 92.14 5.34
-2 1 -7 91.8 3.25
2 -1 7 94.39 4.34
2 -1 7 88.17 4.88
-2 1 -7 95.07 4.18
2 -1 7 92.88 3.54
-2 1 -7 96.42 3.65
-2 1 -7 80.94 4.94
2 -1 8 41.73 3.64
-2 1 -8 43.88 1.99
2 -1 8 36.41 3.22
2 -1 8 46.24 3.02
-2 1 -8 44.85 2.84
-2 1 -8 41.64 3.59
2 -1 9 38.39 3.59
2 -1 9 36.49 3.36
-2 1 -9 37.36 2.74
2 -1 9 43.91 3.01
-2 1 -9 34.97 3.46
-2 1 -10 4.95 1.48
-2 1 -10 8.72 1.42
2 -1 10 8.9 1.9
2 -1 10 11.13 1.7
2 -1 10 9.43 1.81
2 -1 11 310.24 12.29
-2 1 -11 343.94 10.69
2 -1 11 312.2 12.24
-2 1 -11 306.99 12.58
2 -1 12 30.73 3.53
-2 1 -12 32.74 2.97
-2 1 -12 30.58 3.65
-2 1 -13 45.53 3.65
2 -1 13 44.72 4.48
-2 1 -13 46.64 4.81
-2 1 -14 77.48 4.99
2 -1 14 83.77 6.51
-2 1 -14 78.63 6.48
-2 1 -15 5.42 1.8
-2 1 -15 3.04 1.11
2 -1 15 4.24 1.67
-2 1 -16 21.55 3.59
-2 1 -16 19.83 2.72
2 -1 16 16.4 3.08
2 0 -16 1.59 0.77
-2 0 16 1.72 1.19
-2 0 16 0.19 0.57
-2 0 15 3.21 1.43
-2 0 15 5.05 1.7
2 0 -15 4.66 1.73
-2 0 14 862.83 24.75
2 0 -14 852.6 24.97
-2 0 14 793.43 24.58
-2 0 13 98.52 6.3
2 0 -13 92.86 6.32
-2 0 13 88.11 6.05
-2 0 12 20.22 2.66
-2 0 12 21.47 2.83
2 0 -12 19.42 2.3
2 0 -12 20.59 2.76
-2 0 11 140.21 7.09
2 0 -11 133.33 7.13
2 0 -11 134.49 6.23
-2 0 11 137.21 7.02
2 0 -10 12.89 2
-2 0 10 13.82 2.08
-2 0 10 12.84 2
2 0 -10 13.9 1.8
2 0 -9 34.03 3.09
-2 0 9 27.82 2.75
2 0 -9 23.87 2.16
-2 0 9 26.49 2.6
2 0 -8 18.07 2.05
-2 0 8 17.72 2.09
-2 0 8 19.57 2.11
2 0 -8 17.4 1.76
2 0 -7 177.21 7.14
-2 0 7 196.86 7.51
-2 0 7 190.84 7.04
-2 0 7 199.97 5.54
2 0 -7 185.1 6.49
2 0 -7 205.19 7.29
2 0 -6 33.63 2.67
-2 0 6 44.53 3.06
-2 0 6 39.59 2.05
-2 0 6 39.7 2.61
2 0 -6 36.55 2.39
2 0 -6 43.33 2.87
2 0 -6 38 1.8
-2 0 5 1.66 0.71
-2 0 5 1.12 0.41
2 0 -5 1.63 0.59
2 0 -5 1.66 0.68
-2 0 5 1.7 0.61
2 0 -5 1.51 0.36
2 0 -5 1.09 0.58
2 0 -4 1376.02 29.35
-2 0 4 1270.95 28.31
2 0 -4 1359.42 30.94
2 0 -4 1348.72 29.55
2 0 -4 1275.72 28.57
2 0 -4 1365.99 27.63
-2 0 4 1351.45 29.87
-2 0 4 1307.77 28.29
2 0 -3 327.24 9.02
-2 0 3 331.51 8.2
-2 0 3 325.14 8.64
2 0 -3 334.66 9.36
2 0 -3 322.03 8.06
-2 0 3 337.58 9.72
2 0 -3 340.15 10.42
2 0 -3 347.45 8.6
2 0 -3 327.38 8.69
2 0 -2 2346.02 48.81
-2 0 2 2427.19 50
2 0 -2 2414.29 48.29
2 0 -2 2390.24 48.67
-2 0 2 2386.79 47.57
2 0 -2 2323.17 49.33
2 0 -2 2324.14 48.31
2 0 -2 2351.84 50.72
2 0 -1 149.3 4.64
2 0 -1 141.97 5
-2 0 1 159.93 5.64
2 0 -1 154.48 4.58
2 0 -1 150.44 4.72
2 0 -1 157.89 6.01
-2 0 0 155.27 3.83
2 0 0 144.24 4.89
2 0 0 153.7 5.02
-2 0 0 159.48 5.73
2 0 0 164.14 4.67
2 0 0 164.87 6.09
-2 0 -1 5.9 0.62
-2 0 -1 7.44 1.05
2 0 1 4.93 0.65
2 0 1 5.9 1.02
2 0 1 4.67 0.79
2 0 1 6.11 0.76
-2 0 -1 7 0.64
-2 0 -2 981.57 20.08
2 0 2 949.23 22.17
2 0 2 907.29 20.92
2 0 2 958.23 22.53
-2 0 -2 975.19 22.7
2 0 2 939.63 20.83
2 0 3 48.23 2.86
2 0 3 48.68 2.96
-2 0 -3 54.87 2.75
-2 0 -3 50.27 1.63
2 0 3 51.51 2.32
2 0 3 51.46 2.37
2 0 3 49.6 2.12
-2 0 -3 47.81 2.34
-2 0 -3 50.1 2.41
-2 0 -4 58.39 1.84
-2 0 -4 45.76 2.4
-2 0 -4 61.54 2.85
2 0 4 57.29 3.16
-2 0 -4 50.99 2.5
2 0 4 53.96 2.57
2 0 4 52.77 2.11
-2 0 -4 56.55 2.52
2 0 4 52.88 3.27
2 0 4 57.19 2.72
-2 0 -4 52.68 2.71
-2 0 -5 51.36 1.94
2 0 5 52.15 3.41
-2 0 -5 47.5 2.38
2 0 5 59.43 3.28
-2 0 -5 52.63 2.6
-2 0 -5 50.34 2.59
2 0 5 52.23 2.63
-2 0 -5 54.21 2.33
2 0 5 50.42 1.97
-2 0 -5 54.88 2.85
2 0 5 55.42 2.93
-2 0 -6 113.88 3.52
2 0 6 114.29 5.45
-2 0 -6 103.18 3.38
-2 0 -6 97.4 3.63
2 0 6 103.72 3.08
-2 0 -6 117.53 4.03
2 0 6 110.66 4.75
2 0 6 115.13 4.34
-2 0 -6 106.09 4.25
-2 0 -6 111.04 4.55
-2 0 -7 95.86 3.42
-2 0 -7 94.53 3.41
2 0 7 91.88 5.02
-2 0 -7 87.94 2.84
-2 0 -7 89.22 3.26
-2 0 -7 97.22 4.22
-2 0 -7 90.09 3.98
2 0 7 92.34 4.56
2 0 7 93.15 4.05
2 0 7 80.02 2.53
-2 0 -8 36.22 2.13
2 0 8 36.44 3.18
-2 0 -8 34.24 2.52
-2 0 -8 33.81 1.5
-2 0 -8 31.79 1.72
-2 0 -8 36.82 1.82
2 0 8 36.64 2.53
-2 0 -8 35.01 2.49
2 0 8 32.58 2.78
2 0 9 43.97 2.9
-2 0 -9 40.19 2.5
-2 0 -9 41.85 2.9
2 0 9 40.06 3.29
-2 0 -10 19.81 2.04
2 0 10 19.31 2.39
2 0 10 17.18 2.04
-2 0 -10 22.07 1.96
-2 0 -11 37.55 2.79
-2 0 -11 34.34 2.87
2 0 11 43.22 3.23
2 0 11 34.57 3.44
-2 0 -12 3.59 1.02
2 0 12 6.35 1.64
2 0 12 5.86 1.5
-2 0 -13 12.18 1.88
2 0 13 15.54 2.61
2 0 13 16.32 2.27
-2 0 -14 1.84 0.82
2 0 14 0.85 1.22
-2 0 -15 49.91 3.93
2 0 15 43.12 4.65
-2 0 -15 46.77 4.97
-2 0 -16 21.2 3.49
2 0 16 24.68 3.69
-2 0 -16 23.61 2.83
-2 0 -17 -0.25 0.61
2 0 17 3.7 1.64
2 1 -15 70.51 5.99
-2 -1 15 66.62 5.91
2 1 -15 77.28 5.83
-2 -1 15 79.17 6.22
2 1 -14 -0.69 0.8
2 1 -14 -0.32 0.75
-2 -1 14 1.93 0.96
-2 -1 14 1.24 1.03
2 1 -14 0.45 0.71
2 1 -13 2.64 1.08
2 1 -13 2.49 1.04
-2 -1 13 1.19 0.7
-2 -1 13 2.19 1.13
2 1 -13 0.69 0.76
2 1 -12 88.37 5.95
2 1 -12 88.5 5.54
-2 -1 12 87.68 5.94
2 1 -12 89.02 5.64
-2 -1 12 94.88 5.9
-2 -1 11 214.94 9.08
2 1 -11 198.54 9.04
2 1 -11 205.44 8.66
-2 -1 11 182.89 8.77
2 1 -11 218.83 8.79
-2 -1 10 20.56 2.43
2 1 -10 11.25 1.79
2 1 -10 15.57 2.28
2 1 -10 18.67 2.27
-2 -1 10 13.73 2.09
-2 -1 9 54.87 3.82
2 1 -9 55.47 4.09
2 1 -9 53.05 3.71
-2 -1 9 51.03 3.85
2 1 -9 51.02 3.58
-2 -1 8 46.58 3.27
2 1 -8 42.29 3.47
2 1 -8 49.16 3.37
-2 -1 8 45.96 3.44
2 1 -8 46.38 3.19
2 1 -7 2.71 0.76
2 1 -7 3 1.02
-2 -1 7 2.97 0.87
-2 -1 7 3.1 0.9
2 1 -7 2.08 0.74
2 1 -6 316.76 10.28
-2 -1 6 347.72 9.98
2 1 -6 335.28 10.03
-2 -1 6 333.17 10.11
2 1 -6 316.62 9.4
2 1 -5 55.4 3.4
-2 -1 5 59.52 3.18
-2 -1 5 57.81 3.23
2 1 -5 59.83 3.33
2 1 -5 56.48 2.87
-2 -1 4 60.72 3
-2 -1 4 58.41 3.07
2 1 -4 56.44 3.29
2 1 -4 63.18 3.31
2 1 -4 54.37 2.65
-2 -1 3 248.2 7.03
2 1 -3 248.37 7.65
-2 -1 3 249.41 7.22
2 1 -3 237.16 6.53
-2 -1 2 290.84 7.66
2 1 -2 293.71 8.46
2 1 -2 283.36 8.31
-2 -1 2 293.34 7.81
2 1 -2 291.41 7.16
-2 -1 1 87.96 3.13
-2 -1 1 88.05 3.88
2 1 -1 89.81 4.04
-2 -1 1 89.55 3.17
-2 -1 1 88.89 3.64
2 1 -1 86.67 3.77
2 1 -1 78.82 2.6
2 1 -1 86.21 3.67
-2 -1 0 24.83 1.39
-2 -1 0 25.3 1.82
-2 -1 0 21.22 1.64
2 1 0 24.28 1.86
2 1 0 22.85 1.75
2 1 0 25.04 1.97
2 1 0 24.83 1.17
-2 -1 -1 767.29 17.17
2 1 1 741.65 17.5
-2 -1 -1 699.99 16.26
-2 -1 -1 754.07 17.32
-2 -1 -1 772.75 17.26
2 1 1 771.5 17.79
-2 -1 -2 149.41 4.88
-2 -1 -2 142.32 4.37
-2 -1 -2 145.38 4.91
2 1 2 140.78 5.16
2 1 2 145.34 4.19
2 1 2 149.42 5.21
-2 -1 -2 146.87 4.99
-2 -1 -3 84.65 3.33
-2 -1 -3 81.79 3.35
2 1 3 80.95 3.48
2 1 3 71.24 2.87
2 1 3 79.11 3.57
-2 -1 -3 83 3.41
-2 -1 -4 181.07 5.41
2 1 4 170.88 5.61
2 1 4 163.28 5.71
-2 -1 -4 178.92 5.46
2 1 4 166.84 5.3
-2 -1 -4 172.24 5.46
-2 -1 -5 78.67 3.17
2 1 5 86 3.55
-2 -1 -5 71.61 3.53
-2 -1 -5 72.3 3.05
2 1 5 72.98 3.35
2 1 5 71.79 3.43
-2 -1 -5 76.54 3.12
-2 -1 -6 222.26 6.45
-2 -1 -6 212.85 6.09
-2 -1 -6 220.3 6.23
2 1 6 218.15 7.1
2 1 6 212.14 6.88
-2 -1 -6 210.26 7.11
-2 -1 -6 220.83 7.2
-2 -1 -7 326.55 8.82
-2 -1 -7 314.71 8.1
2 1 7 319.25 9.85
-2 -1 -7 320.28 9.58
2 1 7 331.28 9.52
-2 -1 -7 334.58 9.78
-2 -1 -7 334.7 8.29
-2 -1 -8 0.7 0.64
-2 -1 -8 1.79 0.59
-2 -1 -8 0.35 0.22
-2 -1 -8 1.54 0.74
2 1 8 0.7 0.57
2 1 8 0.59 0.44
-2 -1 -8 1.47 0.42
-2 -1 -9 168.95 5.96
2 1 9 169.76 7.15
-2 -1 -9 165.16 6.49
-2 -1 -9 167.91 4.86
-2 -1 -9 166.88 6.59
-2 -1 -9 157.6 4.61
-2 -1 -10 2.47 0.76
-2 -1 -10 2.6 0.74
-2 -1 -10 4 0.6
-2 -1 -10 3.83 1.03
2 1 10 3.33 1.12
2 1 10 3.43 0.85
-2 -1 -11 156.79 6.26
2 1 11 161.94 7.76
2 1 11 168.45 6.71
-2 -1 -11 150.44 6.51
-2 -1 -12 42.43 3.13
2 1 12 45.38 3.39
-2 -1 -12 46.09 3.37
2 1 12 42.9 3.95
-2 -1 -13 63.06 4.13
-2 -1 -13 58.76 4.03
2 1 13 61.52 5.03
2 1 13 69.63 4.49
-2 -1 -14 2.28 0.88
-2 -1 -14 2.41 0.97
2 1 14 1.56 1.11
2 1 14 0.93 0.9
-2 -1 -15 2.18 1.03
-2 -1 -15 1.96 0.93
2 1 15 0.5 1.12
2 1 15 3.29 1.22
-2 -1 -16 0.53 0.54
2 1 16 -0.37 0.68
2 1 16 -0.15 1
-2 -1 -17 38.97 3.67
2 1 17 40.9 4.96
2 2 -15 8.24 2.07
-2 -2 15 7.94 2.14
2 2 -15 6.13 1.83
-2 -2 15 4.34 1.63
-2 -2 14 -0.18 0.86
-2 -2 14 1.12 0.7
2 2 -14 -0.39 0.84
2 2 -14 1.06 0.84
-2 -2 13 25.44 3.36
2 2 -13 33.91 3.85
-2 -2 13 29.88 3.77
2 2 -13 28.37 3.49
2 2 -12 111.38 6.67
2 2 -12 92.89 6.14
-2 -2 12 86.79 6.3
-2 -2 12 97.86 6.3
-2 -2 11 34.91 3.7
2 2 -11 30.27 3.29
2 2 -11 33.05 3.45
-2 -2 11 34.58 3.44
2 2 -10 14.56 2.16
-2 -2 10 14.91 2.15
-2 -2 10 19.56 2.65
2 2 -10 17.26 2.4
2 2 -9 1.49 0.79
-2 -2 9 1.45 0.84
2 2 -9 1.62 0.87
-2 -2 9 1.99 0.9
-2 -2 8 359.67 11.29
-2 -2 8 336.78 11.98
2 2 -8 341.42 11.62
2 2 -8 341.03 11.49
-2 -2 7 64 4.29
2 2 -7 68.58 4.28
2 2 -7 61.8 3.95
-2 -2 7 61.07 3.71
-2 -2 6 0.69 0.47
-2 -2 6 1.36 0.44
-2 -2 6 0.61 0.58
2 2 -6 0.74 0.6
2 2 -6 0.81 0.52
-2 -2 5 15.07 1.3
2 2 -5 13.1 1.61
-2 -2 5 12.92 1.42
-2 -2 5 15.25 1.93
2 2 -5 14.91 1.87
-2 -2 4 702.7 18.38
2 2 -4 687.6 17.63
-2 -2 4 657.7 15.55
2 2 -4 662.44 16.92
-2 -2 4 700.4 17.75
-2 -2 4 679.47 16.05
-2 -2 3 59.36 3.8
-2 -2 3 59.38 2.78
-2 -2 3 67.55 3.72
2 2 -3 56.6 3.23
2 2 -3 65.93 3.74
-2 -2 3 58.9 1.89
-2 -2 3 63.35 2.79
-2 -2 2 360.34 10.81
-2 -2 2 332.8 9.01
-2 -2 2 353.64 10.44
2 2 -2 353.42 10.48
2 2 -2 354.23 9.78
2 2 -2 357.28 10.53
-2 -2 2 352.98 8.65
-2 -2 1 294.7 8.86
-2 -2 1 275.2 9.01
-2 -2 1 274.73 7.78
-2 -2 1 277.56 8.34
2 2 -1 297.27 9.05
2 2 -1 289.24 8.92
2 2 -1 280.36 8.26
-2 -2 1 297.92 6.95
-2 -2 0 7.37 1.21
2 2 0 6.21 0.92
-2 -2 0 8.66 0.98
2 2 0 9.12 1.29
2 2 0 7.01 1.2
-2 -2 0 7.2 1.09
-2 -2 0 8.45 0.58
2 2 1 44.62 2.42
2 2 1 43.62 2.87
-2 -2 -1 43.77 2.34
-2 -2 -1 47.49 2.92
2 2 1 44.97 2.52
2 2 1 44.47 2.83
-2 -2 -1 44.61 2.62
-2 -2 -2 795.85 19.23
-2 -2 -2 793.46 18
2 2 2 784.28 18.49
2 2 2 798.91 18.05
-2 -2 -2 818.9 18.65
2 2 2 794.67 19.3
-2 -2 -3 41.24 2.78
-2 -2 -3 43.08 2.5
2 2 3 41.34 2.57
-2 -2 -3 42.39 2.25
2 2 3 38.77 2.71
2 2 3 40.49 2.12
-2 -2 -4 103.16 4.5
2 2 4 94.94 4.52
2 2 4 94.45 4.26
-2 -2 -4 101.95 3.98
-2 -2 -4 95.03 3.6
2 2 4 95.72 3.39
2 2 4 93.23 2.85
-2 -2 -5 72.42 3.67
-2 -2 -5 67.84 3.07
2 2 5 76.68 2.88
2 2 5 66.83 3.59
2 2 5 72.36 3.79
-2 -2 -5 66.7 2.85
2 2 5 68 2.6
-2 -2 -6 97.63 3.51
-2 -2 -6 96.25 4.42
2 2 6 98.33 4.61
-2 -2 -6 99.68 3.76
2 2 6 92.3 4.42
-2 -2 -6 95.06 2.72
2 2 6 96.28 3.56
-2 -2 -7 341.09 9.38
-2 -2 -7 308.99 7.98
-2 -2 -7 305.63 9.56
2 2 7 313.96 9.75
2 2 7 333.46 9.51
-2 -2 -7 265.57 6.4
-2 -2 -7 312.56 7.69
2 2 7 294.27 8.25
-2 -2 -8 661 16.31
-2 -2 -8 640.66 14.66
-2 -2 -8 614.83 14.23
-2 -2 -8 645.95 16.81
2 2 8 657.79 17.3
2 2 8 624.81 16.31
-2 -2 -8 661.62 16.7
2 2 8 600.05 15.48
-2 -2 -9 36.05 2.67
-2 -2 -9 31.83 1.69
2 2 9 33.44 3.01
-2 -2 -9 30.45 1.83
2 2 9 29.26 2.46
-2 -2 -9 33.76 2.78
-2 -2 -9 35.22 2.75
2 2 9 32.86 2.48
-2 -2 -10 0.54 0.54
-2 -2 -10 1.51 0.61
2 2 10 0.18 0.49
-2 -2 -10 0.8 0.42
-2 -2 -10 0.81 0.82
2 2 10 0.33 0.4
2 2 10 1.31 0.78
-2 -2 -10 0.54 0.26
-2 -2 -11 6.68 1.41
-2 -2 -11 8.61 1.41
2 2 11 6.34 1.29
-2 -2 -11 8.05 0.97
-2 -2 -11 6.11 1.28
2 2 11 7.1 1.55
2 2 11 9.47 1.47
-2 -2 -12 0.02 0.56
-2 -2 -12 0.41 0.59
2 2 12 -0.64 0.52
-2 -2 -12 0.76 0.4
-2 -2 -12 -0.23 0.82
2 2 12 -0.71 0.83
2 2 12 1.36 0.76
-2 -2 -13 0.56 0.67
-2 -2 -13 1.99 0.95
-2 -2 -13 1.08 0.73
2 2 13 1.07 0.89
-2 -2 -13 0.45 0.44
2 2 13 0.48 0.5
2 2 13 1.33 1.05
-2 -2 -14 27.22 2.85
2 2 14 26.59 3.56
2 2 14 30.37 2.96
-2 -2 -14 27.44 2.74
2 2 14 24.63 3.01
-2 -2 -15 76.61 5.2
2 2 15 85.62 5.26
-2 -2 -15 71.05 4.63
2 2 15 83.21 6.5
2 2 15 63.93 5.23
-2 -2 -16 6.01 1.44
-2 -2 -16 3.92 1.26
2 2 16 4.3 1.78
2 2 16 2.06 1.07
-2 -2 -17 23.93 3.18
2 2 17 29.39 4.24
-2 -2 -17 27.46 3
2 2 17 24.77 3.21
-2 -3 14 0.83 1
-2 -3 14 -0.44 0.96
2 3 -14 -0.55 0.95
2 3 -14 0.31 0.73
-2 -3 13 15.96 3
-2 -3 13 19.16 3.25
2 3 -13 19.55 3.1
2 3 -13 17.4 2.92
-2 -3 12 -0.18 0.63
-2 -3 12 0.42 0.66
2 3 -12 0.65 0.67
-2 -3 11 1.34 0.81
-2 -3 11 -0.27 0.82
2 3 -11 0.17 0.63
2 3 -11 0.23 0.74
-2 -3 10 50.07 4.71
2 3 -10 57.47 4.78
-2 -3 10 44.18 4.54
2 3 -10 50.02 4.47
-2 -3 9 1.35 0.8
-2 -3 9 1.57 0.8
2 3 -9 -0.13 0.77
2 3 -9 0.81 0.64
-2 -3 8 43.2 4.13
-2 -3 8 44.97 4.21
2 3 -8 47.54 4.03
2 3 -8 44.99 3.95
-2 -3 7 22.03 2.88
-2 -3 7 21.24 2.72
2 3 -7 18.8 2.47
2 3 -7 20.93 2.6
-2 -3 6 87.87 5.63
-2 -3 6 93.07 5.73
2 3 -6 90.16 5.31
2 3 -6 87.6 5.23
-2 -3 6 81.7 4.21
-2 -3 5 6.82 1.15
-2 -3 5 9.21 0.99
-2 -3 5 8.68 1.77
-2 -3 5 9.28 0.92
-2 -3 5 8.43 1.72
2 3 -5 8.51 1.67
2 3 -5 10.94 1.74
-2 -3 4 12.34 2.01
-2 -3 4 12.26 1.14
-2 -3 4 12.62 1.97
-2 -3 4 13.13 1.55
-2 -3 4 12.25 1.08
2 3 -4 9.01 1.69
2 3 -4 9.24 1.55
-2 -3 3 807.41 22.02
-2 -3 3 818.2 18.74
2 3 -3 846.39 21.63
-2 -3 3 883.29 22.52
-2 -3 3 825.84 20.09
2 3 -3 881.87 22.11
-2 -3 3 893.53 18.99
-2 -3 2 351.65 11.78
-2 -3 2 369.01 12.04
-2 -3 2 374.37 9.28
2 3 -2 381.09 11.77
2 3 -2 364.28 11.78
-2 -3 2 353.42 10.23
2 3 -2 362.13 11.4
-2 -3 1 41.05 3.21
-2 -3 1 43.62 2.26
2 3 -1 43.83 3.18
2 3 -1 47.15 3.43
-2 -3 1 46.23 3.46
2 3 -1 44.25 3.22
-2 -3 1 45.06 2.72
-2 -3 0 743.31 19.77
-2 -3 0 772.34 17.16
2 3 0 776.82 19.6
-2 -3 0 748.37 18.15
2 3 0 766.38 19.54
2 3 0 748.39 19.26
-2 -3 -1 19.16 2.15
2 3 1 18.98 1.31
-2 -3 -1 18.71 1.74
2 3 1 17.29 1.92
2 3 1 18.42 1.94
-2 -3 -1 20.15 1.46
2 3 1 16.35 1.89
-2 -3 -2 230.28 8.5
2 3 2 244.47 5.91
2 3 2 242.62 8.49
-2 -3 -2 229.54 6.64
2 3 2 235.34 6.44
2 3 2 231.37 8.27
2 3 2 232.29 8.24
-2 -3 -2 235.92 7.4
2 3 3 467.62 10.33
-2 -3 -3 481.28 13.75
-2 -3 -3 460.67 11.37
-2 -3 -3 479.8 12.21
2 3 3 459.66 13.39
2 3 3 464.94 13.25
2 3 3 476.48 10.86
-2 -3 -4 -0.41 0.51
2 3 4 -0.1 0.19
2 3 4 0.49 0.57
2 3 4 0.25 0.14
-2 -3 -4 0.19 0.28
2 3 4 -0.23 0.46
-2 -3 -4 0.14 0.44
-2 -3 -4 -0.31 0.6
2 3 5 128.88 3.95
-2 -3 -5 128.91 5.89
-2 -3 -5 126.74 4.29
-2 -3 -5 127.74 4.7
2 3 5 121.32 5.6
2 3 5 128.74 5.91
-2 -3 -5 122.09 4.19
2 3 6 501.83 11.93
-2 -3 -6 516.23 14.44
2 3 6 500.93 14.13
-2 -3 -6 509.84 12.58
-2 -3 -6 490.62 11.91
2 3 6 512.78 14.73
-2 -3 -6 503.3 11.87
2 3 7 2837.25 58.9
-2 -3 -7 3002.75 61.6
2 3 7 2878.68 61.09
-2 -3 -7 2854.25 58.98
2 3 7 2965.47 62.42
-2 -3 -7 2933.33 58.23
-2 -3 -7 2838.49 58.38
2 3 8 707.58 17.22
-2 -3 -8 707.22 16.87
2 3 8 725.68 18.69
-2 -3 -8 697.05 19.04
2 3 8 747.47 19.98
-2 -3 -8 765.29 19.23
-2 -3 -8 770.16 16.31
-2 -3 -8 703.17 16.23
2 3 9 192.94 6.78
-2 -3 -9 214.34 7.98
-2 -3 -9 198.54 6.18
-2 -3 -9 199.18 5.75
-2 -3 -9 199.96 7.95
2 3 9 202.84 8.57
2 3 9 205.72 7.6
2 3 10 291.87 9.43
-2 -3 -10 311.15 10.4
-2 -3 -10 297.61 8.36
-2 -3 -10 305.09 7.87
2 3 10 309.65 10.03
2 3 10 322.63 11.71
-2 -3 -10 310.23 10.28
-2 -3 -10 287.05 10.27
-2 -3 -11 4.46 1.05
-2 -3 -11 4.12 1.31
-2 -3 -11 4.7 1.23
2 3 11 2.31 0.83
-2 -3 -11 4.33 0.7
-2 -3 -11 2.42 0.64
2 3 11 3.99 1.25
2 3 11 4.52 1.11
-2 -3 -12 34.94 3.17
-2 -3 -12 35.72 3.16
-2 -3 -12 31.44 2.15
2 3 12 33.64 2.89
-2 -3 -12 33.08 1.92
-2 -3 -12 30.93 2.89
2 3 12 33.16 3.63
2 3 12 31.25 2.85
-2 -3 -13 -0.15 0.51
2 3 13 0.24 0.6
-2 -3 -13 0.51 0.4
-2 -3 -13 0.27 0.77
2 3 13 0.49 0.71
-2 -3 -13 -0.49 0.68
2 3 13 0.5 0.53
-2 -3 -14 39.57 3.59
-2 -3 -14 32.22 2.36
-2 -3 -14 32.08 3.2
2 3 14 39.93 4.41
2 3 14 34.79 3.14
-2 -3 -14 29.18 2.93
2 3 14 32.19 3.25
-2 -3 -15 0.43 0.63
-2 -3 -15 0.46 0.54
2 3 15 -0.01 0.54
2 3 15 0.83 0.76
2 3 15 -0.61 0.91
-2 -3 -15 0.14 0.4
-2 -3 -16 13.99 2.05
-2 -3 -16 15 2.51
2 3 16 10.31 2.06
2 3 16 18.65 2.43
2 3 16 12.96 2.97
-2 -3 -17 52.84 4.82
2 3 17 62.48 6.27
2 3 17 65.45 4.87
-2 -3 -17 55.91 4.27
2 3 17 50.74 4.94
-2 -4 13 5.56 1.82
-2 -4 13 5.88 2
2 4 -13 6.54 1.88
2 4 -13 2.4 1.32
-2 -4 12 8.14 2.14
-2 -4 12 8.68 2.45
2 4 -12 6.2 1.89
2 4 -12 7.81 2.04
-2 -4 11 27.64 3.81
-2 -4 11 23.6 3.66
2 4 -11 33.01 4.05
2 4 -11 25.72 3.63
-2 -4 10 1.89 1.03
2 4 -10 2.74 1.35
-2 -4 10 1.63 1.34
2 4 -10 3.32 1.56
-2 -4 9 1.71 1.18
-2 -4 9 0.27 0.86
2 4 -9 0.48 1.09
2 4 -9 0.41 0.61
-2 -4 8 129.5 7.82
-2 -4 8 128.72 8.01
2 4 -8 119.2 7.49
2 4 -8 136.74 7.74
-2 -4 7 0.87 0.76
-2 -4 7 1.8 1.16
2 4 -7 1.01 1.19
2 4 -7 0.77 1.01
-2 -4 6 7 1.93
-2 -4 6 7.02 1.81
2 4 -6 9.01 1.95
2 4 -6 5.44 1.46
-2 -4 5 17.81 2.61
-2 -4 5 21 1.86
2 4 -5 23.64 2.88
-2 -4 5 18.48 2.77
2 4 -5 18.83 2.59
-2 -4 4 0.45 0.49
-2 -4 4 1.08 0.37
-2 -4 4 -1 0.87
-2 -4 4 0.28 0.66
-2 -4 4 1.41 0.63
2 4 -4 0.03 0.66
2 4 -4 0.17 0.5
-2 -4 3 74.99 5.12
-2 -4 3 74.68 3.72
2 4 -3 73.86 4.94
-2 -4 3 72.57 5.26
-2 -4 3 74.17 3.69
2 4 -3 73.13 5.04
-2 -4 3 78.6 2.91
-2 -4 2 88.75 5.45
-2 -4 2 85.24 5.61
-2 -4 2 87.08 3.24
-2 -4 2 84.64 4
-2 -4 2 89.63 4.06
2 4 -2 88.72 5.38
2 4 -2 91.84 5.43
2 4 -2 81.19 5.26
-2 -4 1 11.06 1.96
-2 -4 1 9.72 1.82
-2 -4 1 13.99 1.51
2 4 -1 11.54 1.98
-2 -4 1 12.7 1.13
2 4 -1 9.25 1.75
2 4 -1 10.73 1.8
-2 -4 0 465.61 14.77
2 4 0 453.87 14.31
2 4 0 451.98 14.32
-2 -4 0 486.82 12.52
-2 -4 0 477.17 11.3
2 4 0 462.54 14.74
-2 -4 -1 244.01 9.58
2 4 1 223.72 7.81
-2 -4 -1 247.02 7.68
-2 -4 -1 255.99 6.83
2 4 1 234.35 9.09
2 4 1 249.93 9.28
2 4 1 223 9.21
-2 -4 -2 16.73 1.65
2 4 2 14.79 1.5
-2 -4 -2 17.09 2.28
-2 -4 -2 14.41 1.27
2 4 2 14.8 2.04
-2 -4 -2 13.46 1.46
2 4 2 12.1 1.81
2 4 2 12.66 2
-2 -4 -3 43.2 3.63
2 4 3 45.55 2.47
2 4 3 47.79 3.71
-2 -4 -3 46.34 2.74
2 4 3 41.32 3.49
2 4 3 43.67 1.89
2 4 3 43.03 3.42
-2 -4 -3 49.99 2.87
-2 -4 -3 39.39 2.2
-2 -4 -4 32.15 1.95
-2 -4 -4 37.96 3.35
2 4 4 35.66 2.09
-2 -4 -4 34.37 2.33
2 4 4 35.57 3.08
-2 -4 -4 36.96 2.44
2 4 4 36.03 3.31
2 4 5 385.41 10.09
2 4 5 378.58 12.36
-2 -4 -5 386.47 10.56
-2 -4 -5 408.25 13.08
-2 -4 -5 407.67 10.76
-2 -4 -5 396.86 9.92
2 4 5 368.23 12.73
-2 -4 -6 0.88 0.93
2 4 6 2.7 0.68
-2 -4 -6 0.88 0.41
2 4 6 -0.76 0.81
-2 -4 -6 1.66 0.81
-2 -4 -6 0.72 0.51
2 4 6 0.1 0.51
2 4 6 1.15 0.87
2 4 7 151.25 5.43
-2 -4 -7 154.28 7.18
-2 -4 -7 153.13 5.47
2 4 7 147.45 6.76
2 4 7 158.24 7.66
-2 -4 -7 167.2 5.63
-2 -4 -7 148.77 4.99
2 4 8 154.73 5.71
-2 -4 -8 153.62 7.13
2 4 8 151.26 7.65
-2 -4 -8 148.6 5.39
2 4 8 153.5 6.77
-2 -4 -8 165.66 5.62
-2 -4 -8 154.06 4.99
2 4 9 1.17 0.61
-2 -4 -9 2.93 0.97
2 4 9 3.54 0.79
-2 -4 -9 4.53 1.2
-2 -4 -9 3.01 0.64
2 4 9 3.77 1.45
-2 -4 -9 2.84 0.67
2 4 10 42.66 2.97
-2 -4 -10 38.99 3.53
-2 -4 -10 40.27 2.5
2 4 10 38.78 3.08
-2 -4 -10 36.17 2.22
2 4 10 46.38 4.21
-2 -4 -10 40.39 3.44
2 4 11 232.98 8.43
-2 -4 -11 248.08 9.73
-2 -4 -11 234.1 7.41
-2 -4 -11 234.39 9
-2 -4 -11 238.91 9.42
-2 -4 -11 237.91 6.89
2 4 11 226.95 8.77
2 4 11 260.07 10.97
-2 -4 -12 1.53 0.76
-2 -4 -12 1.41 0.79
-2 -4 -12 -0.05 0.78
2 4 12 2.25 0.88
-2 -4 -12 0.61 0.54
2 4 12 1.59 0.85
2 4 12 0.85 0.81
-2 -4 -12 0.5 0.38
2 4 13 105.12 5.68
-2 -4 -13 109.03 6.32
-2 -4 -13 105.22 4.5
-2 -4 -13 100.67 5.9
2 4 13 103.36 7.07
2 4 13 115.52 5.72
-2 -4 -13 103.63 5.58
-2 -4 -13 91.61 3.89
2 4 14 58.63 4.36
-2 -4 -14 64.5 5
-2 -4 -14 61.26 3.41
2 4 14 66.08 5.82
-2 -4 -14 54.67 4.32
2 4 14 70.62 4.49
-2 -4 -14 59.77 4.2
-2 -4 -15 12.58 1.93
-2 -4 -15 15.18 2.52
-2 -4 -15 12.69 2.13
-2 -4 -15 14.06 1.64
2 4 15 13.03 2.71
-2 -4 -16 8.04 1.36
-2 -4 -16 9.94 2.17
2 4 16 9.8 2.52
-2 -4 -17 -0.56 0.45
-2 -4 -17 2.06 2.03
2 4 17 2.24 1.57
-2 -5 12 19.19 3.57
-2 -5 12 17.25 3.49
2 5 -12 18.74 3.37
2 5 -12 19.84 3.53
-2 -5 11 10.19 2.45
2 5 -11 9.26 2.37
-2 -5 11 13.47 3.04
2 5 -11 10.5 2.54
-2 -5 10 10.14 2.4
-2 -5 10 10.04 2.63
2 5 -10 5.67 1.81
2 5 -10 9.68 2.47
-2 -5 9 23.16 3.5
2 5 -9 26.45 3.74
-2 -5 9 25.04 3.9
2 5 -9 26.58 3.82
-2 -5 8 46.93 4.92
-2 -5 8 41.47 4.98
2 5 -8 46.07 4.76
2 5 -8 41.54 4.76
-2 -5 7 125.44 7.99
-2 -5 7 113.72 8.16
2 5 -7 125.27 7.82
2 5 -7 120.12 8.05
-2 -5 6 53.49 5.39
2 5 -6 55.99 4.97
-2 -5 6 48.41 4.73
-2 -5 5 20.63 3
-2 -5 5 18.27 3.16
2 5 -5 22.44 3.17
2 5 -5 24.13 3.3
-2 -5 4 9.15 2.08
-2 -5 4 10.22 2.16
-2 -5 4 10.93 1.64
2 5 -4 12.74 2.37
2 5 -4 13.52 2.48
-2 -5 3 47.95 4.44
-2 -5 3 49.48 4.84
-2 -5 3 54.53 3.63
2 5 -3 51.92 4.52
-2 -5 3 50.37 2.99
-2 -5 3 60.5 2.48
2 5 -3 45.44 4.46
2 5 -3 48.1 4.49
-2 -5 2 19.12 2.73
2 5 -2 17.53 2.54
2 5 -2 18.2 2.81
-2 -5 2 18.81 2.1
-2 -5 2 23.59 1.9
-2 -5 2 14.41 2.58
-2 -5 2 19.54 2.19
2 5 -2 17.25 2.6
-2 -5 2 20.57 1.39
-2 -5 1 7.39 1.6
-2 -5 1 9.69 0.96
2 5 -1 8.37 1.89
-2 -5 1 9.23 1.53
2 5 -1 4.39 1.22
-2 -5 1 9.04 1.49
2 5 -1 6.3 1.58
-2 -5 1 9.15 1.19
-2 -5 0 0.57 0.3
-2 -5 0 -0.33 0.5
-2 -5 0 0.03 0.58
2 5 0 0.36 0.41
2 5 0 -0.03 0.67
-2 -5 0 -0.02 0.39
2 5 0 0.66 0.93
2 5 0 -0.16 0.75
-2 -5 -1 151.48 7.79
2 5 1 136.02 7.15
2 5 1 143.91 6.67
-2 -5 -1 155.12 4.86
-2 -5 -1 148.21 5.5
2 5 1 147.93 7.46
-2 -5 -1 148.12 6.3
2 5 1 140.78 7.83
-2 -5 -2 10.54 2.01
-2 -5 -2 7.67 0.93
2 5 2 8.04 1.43
-2 -5 -2 8.6 1.17
2 5 2 8.22 1.66
-2 -5 -2 10.45 1.55
2 5 2 7.98 1.69
2 5 2 5.16 1.39
-2 -5 -3 30.99 3.38
-2 -5 -3 31.02 2.25
2 5 3 30.07 3.1
-2 -5 -3 31.68 1.96
2 5 3 32.31 3.18
-2 -5 -3 36.51 2.82
2 5 3 21.4 2.8
2 5 4 21.56 2.04
-2 -5 -4 16.64 2.47
-2 -5 -4 22.34 1.9
-2 -5 -4 23.61 2.21
2 5 4 23.51 2.88
-2 -5 -4 19.72 1.54
2 5 4 17.4 2.4
-2 -5 -5 153.8 7.74
2 5 5 155.69 5.97
-2 -5 -5 152.1 5.58
-2 -5 -5 153.04 5.12
-2 -5 -5 159.63 6.33
2 5 5 147.87 7.86
2 5 5 154.96 7.41
-2 -5 -6 1.74 0.96
2 5 6 2.44 0.69
-2 -5 -6 3.33 0.84
-2 -5 -6 1.87 0.65
-2 -5 -6 2.24 0.8
2 5 6 0.23 0.49
2 5 6 2.82 1.16
-2 -5 -7 6.33 0.93
-2 -5 -7 7.12 1.63
2 5 7 8.09 1.19
2 5 7 7.12 1.8
-2 -5 -7 8.01 1.21
-2 -5 -7 8.74 1.34
2 5 7 6.83 1.59
2 5 7 6.54 1.6
-2 -5 -8 0.15 0.95
2 5 8 1.26 1.14
-2 -5 -8 0.22 0.44
-2 -5 -8 0.73 0.51
2 5 8 2.05 0.9
-2 -5 -8 -0.14 0.39
-2 -5 -9 12.23 2.06
-2 -5 -9 14.59 1.55
-2 -5 -9 11.62 1.33
2 5 9 14.51 2.6
2 5 9 9.23 1.61
-2 -5 -10 0.03 0.8
-2 -5 -10 0.49 0.59
-2 -5 -10 -0.09 0.37
2 5 10 0.18 0.75
-2 -5 -10 -0.91 0.78
2 5 10 0.64 0.51
-2 -5 -11 0.01 0.76
-2 -5 -11 0.24 0.44
-2 -5 -11 -0.21 0.49
-2 -5 -11 -0.2 0.6
2 5 11 -0.09 0.9
2 5 11 -0.19 0.49
-2 -5 -12 4.02 1.51
-2 -5 -12 3.81 0.95
-2 -5 -12 3.27 1.19
2 5 12 2.88 1.3
-2 -5 -12 4.05 0.89
-2 -5 -13 258.57 10.84
-2 -5 -13 250.08 8.13
-2 -5 -13 233.64 7.45
-2 -5 -13 226.72 9.7
2 5 13 239.84 11.79
-2 -5 -14 30.44 3.62
-2 -5 -14 32.36 2.58
-2 -5 -14 33.6 2.42
-2 -5 -14 33.24 3.38
2 5 14 35.67 4.5
2 5 15 13.6 2.98
-2 -5 -15 13.64 2.43
-2 -5 -15 11.73 1.69
-2 -5 -15 13.43 2.17
-2 -5 -16 22.37 2.35
-2 -5 -16 20.62 3.08
-2 -5 -16 21.06 2.84
2 5 16 20.99 3.72
-2 -6 10 0.09 1.21
2 6 -10 0.37 0.78
2 6 -10 1.88 1.26
-2 -6 9 1.69 1.16
-2 -6 9 0.98 1.1
-2 -6 9 2.59 1.2
2 6 -9 0.88 1.13
-2 -6 8 18.78 3.26
-2 -6 8 17.09 3.51
-2 -6 8 15.11 2.4
2 6 -8 15.32 3
2 6 -8 15.93 3.25
-2 -6 7 12.52 2.88
-2 -6 7 13.71 2.75
2 6 -7 11.16 2.59
-2 -6 7 10.24 1.98
2 6 -7 14.05 2.79
-2 -6 6 9.03 2.24
-2 -6 6 7.38 1.7
-2 -6 6 2.99 1.62
2 6 -6 6.32 1.89
2 6 -6 9.33 2.52
-2 -6 5 95.78 7.11
-2 -6 5 108.59 8.29
2 6 -5 100.87 7.29
-2 -6 5 117.4 6.39
2 6 -5 95.47 7.55
-2 -6 4 19.24 3.1
-2 -6 4 19.32 3.44
-2 -6 4 18.57 2.43
2 6 -4 19.89 3.12
2 6 -4 21.83 3.38
2 6 -4 22.28 3.29
-2 -6 3 18.97 2.97
-2 -6 3 12.74 1.99
-2 -6 3 14.73 2.13
2 6 -3 13.36 2.46
2 6 -3 12.61 2.56
2 6 -3 10.09 2.28
-2 -6 2 41.67 4.35
-2 -6 2 41.18 2.23
2 6 -2 43.77 4.43
-2 -6 2 44.59 3.71
-2 -6 2 47.65 3.85
2 6 -2 45.52 4.9
2 6 -2 41.02 4.49
-2 -6 1 -0.11 1.01
2 6 -1 2.03 1.24
2 6 -1 -0.48 0.55
-2 -6 1 -0.11 0.52
-2 -6 1 0.81 0.46
-2 -6 1 0.07 0.58
2 6 -1 0.57 1.04
2 6 -1 0.8 0.97
-2 -6 0 29.44 3.56
2 6 0 24.57 3.21
-2 -6 0 25.32 2.79
-2 -6 0 31.01 1.91
-2 -6 0 24.75 1.98
2 6 0 26.04 3.35
-2 -6 0 26.17 2.81
2 6 0 30.35 3.85
-2 -6 -1 15 1.49
-2 -6 -1 11.91 2.3
-2 -6 -1 13.38 1.3
2 6 1 12.03 2.26
-2 -6 -1 12.74 1.91
2 6 1 12.21 2.29
2 6 1 16.54 2.88
-2 -6 -1 9.83 1.86
-2 -6 -2 8.94 2.19
-2 -6 -2 9.3 1.11
-2 -6 -2 9.08 1.25
2 6 2 7.87 1.84
-2 -6 -2 10.56 1.73
2 6 2 9.75 2.13
2 6 2 6.55 1.84
-2 -6 -3 227.14 10.48
-2 -6 -3 219.71 7.18
-2 -6 -3 224.28 6.77
2 6 3 214.73 9.75
2 6 3 215.89 9.79
-2 -6 -3 223.33 8.81
2 6 3 226.32 10.97
-2 -6 -4 75.3 5.72
-2 -6 -4 75.4 3.73
-2 -6 -4 77.68 3.46
2 6 4 85.26 5.72
-2 -6 -4 78.99 4.82
2 6 4 75.8 5.99
-2 -6 -5 24.24 3.18
-2 -6 -5 24.5 2.06
-2 -6 -5 25.32 1.9
2 6 5 25.2 3.01
-2 -6 -5 30.05 2.84
2 6 5 24.57 3.34
-2 -6 -6 5.82 1.6
-2 -6 -6 6.3 1.01
-2 -6 -6 5.08 0.95
-2 -6 -6 6.26 1.32
2 6 6 6.45 1.57
2 6 6 4.57 1.27
-2 -6 -7 1.14 0.58
-2 -6 -7 2 0.8
-2 -6 -7 1.28 0.57
2 6 7 0.01 0.81
-2 -6 -7 2.65 0.92
2 6 7 -0.09 0.48
2 6 7 0.9 0.72
2 6 8 12.77 2.56
-2 -6 -8 10.7 2.12
-2 -6 -8 9.42 1.3
-2 -6 -8 10.18 1.3
-2 -6 -8 11.04 1.76
2 6 8 10.21 1.82
2 6 8 8.22 1.97
-2 -6 -9 8.52 1.9
-2 -6 -9 11.3 1.52
2 6 9 10.54 2.38
-2 -6 -9 8.96 1.21
-2 -6 -9 8.07 1.51
-2 -6 -10 1.35 0.63
-2 -6 -10 2.13 0.75
-2 -6 -10 2.88 0.74
2 6 10 2.37 1.38
-2 -6 -11 24.4 3.19
-2 -6 -11 28.5 2.41
-2 -6 -11 23.65 2.22
-2 -6 -11 28.66 3.13
2 6 11 27.7 3.84
-2 -6 -12 6.93 1.77
-2 -6 -12 7.28 1.27
-2 -6 -12 8.79 1.3
-2 -6 -12 6.27 1.54
2 6 12 7.84 2
-2 -6 -13 1.24 0.67
-2 -6 -13 -0.05 0.73
-2 -6 -13 0.2 0.55
2 6 13 -0.56 1.21
-2 -6 -13 0.59 0.57
-2 -6 -14 31.24 3.72
-2 -6 -14 27.6 2.6
2 6 14 30.97 4.27
-2 -6 -14 27.84 2.37
-2 -6 -14 26.24 3.12
-2 -6 -15 6.89 1.32
-2 -6 -15 8.49 2.03
2 6 15 5.59 2.02
-2 -6 -15 4.62 1.09
-2 -6 -15 5.86 1.58
-2 -7 7 12.34 3.14
2 7 -7 14.67 3.1
-2 -7 7 17.47 2.74
2 7 -7 21.06 4
-2 -7 6 3.55 2.09
-2 -7 6 2.13 1.07
2 7 -6 3.28 1.7
2 7 -6 4.51 1.91
2 7 -6 6.24 2.04
-2 -7 5 1.87 1.4
-2 -7 5 2.09 1.68
-2 -7 5 -0.87 0.92
2 7 -5 1.23 1.26
2 7 -5 0.94 0.92
2 7 -5 0.31 0.94
-2 -7 4 4.95 1.67
2 7 -4 3.91 1.67
-2 -7 4 4.18 1.34
2 7 -4 5.8 2.2
2 7 -4 7.97 2.39
-2 -7 3 -0.71 1.01
-2 -7 3 0.49 0.8
2 7 -3 0.49 0.81
2 7 -3 0.88 1.01
2 7 -3 2.58 1.5
-2 -7 2 67.89 6.05
-2 -7 2 82.81 5.72
2 7 -2 71.88 6.17
2 7 -2 63.08 5.87
-2 -7 2 71.6 5.25
2 7 -2 65.31 6.47
2 7 -1 14.04 2.65
-2 -7 1 11.08 2.48
-2 -7 1 11.37 1.26
-2 -7 1 10.44 2.1
-2 -7 1 12.53 2.13
2 7 -1 11.37 2.71
2 7 -1 8.24 2.05
-2 -7 0 7.73 2.18
-2 -7 0 4.71 1.5
2 7 0 5.9 1.91
-2 -7 0 5.88 0.97
-2 -7 0 5.88 1.52
2 7 0 4.14 1.3
2 7 0 7.52 2.28
-2 -7 -1 67.15 5.9
-2 -7 -1 75.39 3.51
-2 -7 -1 68.94 5.28
2 7 1 64.32 5.55
2 7 1 71.33 5.86
-2 -7 -1 77.6 5.32
2 7 1 69.97 6.53
-2 -7 -2 22.4 3.34
-2 -7 -2 17.38 1.71
-2 -7 -2 19.12 1.71
-2 -7 -2 20.88 2.73
2 7 2 16.21 2.8
2 7 2 17.91 2.9
2 7 2 12.63 2.65
-2 -7 -2 19.95 3.01
-2 -7 -3 828.16 25.17
-2 -7 -3 790.63 19.09
-2 -7 -3 788.87 18.79
2 7 3 762 23.66
-2 -7 -3 796.83 22.45
2 7 3 760.21 25.58
2 7 3 837.78 24.3
-2 -7 -4 0.96 1.31
-2 -7 -4 1.95 0.74
-2 -7 -4 0.89 0.64
-2 -7 -4 3.96 1.34
2 7 4 0.52 0.66
2 7 4 0.82 0.99
-2 -7 -5 1.24 0.93
-2 -7 -5 1.22 1.1
-2 -7 -5 0.99 0.53
-2 -7 -5 1.1 0.72
2 7 5 1.68 1.46
2 7 5 0.57 1.15
-2 -7 -6 12.58 2.56
-2 -7 -6 12.46 1.5
-2 -7 -6 9.68 1.37
-2 -7 -6 9.92 1.83
2 7 6 9.51 2.26
-2 -7 -7 1.15 0.93
-2 -7 -7 0.45 0.37
2 7 7 1.18 0.99
-2 -7 -7 -0.28 0.53
-2 -7 -7 1.58 0.68
2 7 7 0.88 0.86
-2 -7 -8 0.83 0.84
-2 -7 -8 1.55 0.65
-2 -7 -8 0.65 0.62
2 7 8 -0.55 1.21
-2 -7 -8 1.48 0.86
2 7 8 1.6 1.28
-2 -7 -9 1.18 0.92
-2 -7 -9 1.81 0.75
-2 -7 -9 1.18 0.64
2 7 9 2.24 1.28
-2 -7 -9 1.64 0.83
2 7 9 -0.14 1
-2 -7 -10 21.83 2.14
-2 -7 -10 20.81 3.15
-2 -7 -10 19.1 1.97
2 7 10 18.25 3.27
-2 -7 -11 -0.32 0.73
-2 -7 -11 0.41 0.58
-2 -7 -11 2.31 0.85
2 7 11 0.77 1.03
-2 -7 -12 20.85 2.15
-2 -7 -12 19.19 2.12
-2 -7 -12 19.07 3.02
2 7 12 21.85 3.67
-2 -7 -13 37.98 4.34
-2 -7 -13 46.33 3.4
-2 -7 -13 39.69 3.12
2 7 13 41.28 5.13
2 8 -4 76.32 7.12
-2 -8 4 74.41 6.01
2 8 -4 71.22 7.11
2 8 -4 78.33 7.9
-2 -8 3 3.82 1.44
2 8 -3 6.97 2.1
2 8 -3 5.25 2.07
2 8 -3 6.33 2.1
2 8 -2 4.36 1.75
-2 -8 2 3.83 1.5
2 8 -2 3.64 1.8
2 8 -2 3.1 1.93
-2 -8 1 6.31 1.93
-2 -8 1 10.87 2.19
-2 -8 1 11.35 2.3
2 8 -1 5.09 1.83
2 8 -1 9.05 2.56
-2 -8 0 2.82 1.39
-2 -8 0 6.4 1.81
-2 -8 0 5.9 1.66
2 8 0 5.53 1.87
2 8 0 2.16 1.51
-2 -8 -1 35.43 4.5
-2 -8 -1 29.77 3.88
-2 -8 -1 27.42 3.43
2 8 1 37.73 5.24
2 8 1 26.05 3.77
-2 -8 -1 31.13 2.39
-2 -8 -2 101.8 7.71
2 8 2 93.86 8.19
-2 -8 -2 97.75 4.57
-2 -8 -2 95.91 7.03
-2 -8 -2 105.9 6.84
-2 -8 -3 137.28 8.92
-2 -8 -3 137.33 8.51
-2 -8 -3 131.22 7.75
-2 -8 -3 126.63 5.38
2 8 3 123.13 9.41
-2 -8 -4 138.09 8.96
-2 -8 -4 150.85 5.78
-2 -8 -4 143.55 5.8
-2 -8 -4 119.14 7.45
-2 -8 -4 146.25 8.91
2 8 4 130.21 9.6
-2 -8 -5 15.53 1.75
-2 -8 -5 16.98 3.04
-2 -8 -5 13.85 1.69
-2 -8 -5 12.62 2.39
2 8 5 14.38 3.34
-2 -8 -5 8.5 2.35
-2 -8 -6 262.63 12.84
-2 -8 -6 274.84 8.83
-2 -8 -6 261.28 8.8
-2 -8 -6 272.26 11.65
2 8 6 259.22 13.88
-2 -8 -7 32.62 4.16
-2 -8 -7 33 2.66
-2 -8 -7 30.77 2.58
-2 -8 -7 33.75 3.75
2 8 7 35 4.84
-2 -8 -8 1.34 1.4
-2 -8 -8 2.2 0.86
-2 -8 -8 3.05 1.04
2 8 8 3.33 1.26
-2 -8 -8 2.79 1.19
2 8 8 1.55 0.94
-2 -8 -9 7.71 2.2
-2 -8 -9 3.89 1.1
-2 -8 -9 4.82 1.18
2 8 9 6.46 2.21
-2 -8 -9 4.92 1.6
2 8 9 4.53 1.85
-2 -8 -10 7.67 2.07
-2 -8 -10 11.54 1.68
-2 -8 -10 11.8 1.74
2 8 10 11.99 3.12
-2 -8 -11 13.03 2.61
-2 -8 -11 10.8 1.65
-2 -8 -11 9.55 1.6
2 8 11 7.06 2.32
-3 6 6 4.16 1.95
3 -6 -6 3.23 1.49
3 -6 -6 0.65 0.88
-3 6 5 4.96 1.92
3 -6 -5 4.65 1.53
3 -6 -5 5.61 1.99
3 -6 -4 18.4 3.01
-3 6 4 21.66 4.04
3 -6 -4 20.49 3.48
-3 6 3 1.99 1.75
3 -6 -3 1.34 0.93
3 -6 -3 0.46 0.87
-3 6 2 90.87 8.31
3 -6 -2 93.43 7.52
3 -6 -2 80.03 6.39
-3 6 1 -0.26 1.43
3 -6 -1 0.64 1
3 -6 -1 -0.15 0.78
-3 6 0 108.77 9.44
3 -6 0 111.96 8.48
3 -6 0 105.57 7.3
-3 6 -1 65.25 7.51
3 -6 1 73.99 6.86
3 -6 1 72.86 5.95
-3 6 -2 52.92 6.54
3 -6 2 43.14 5.22
3 -6 2 41.52 4.44
-3 6 -3 -0.26 0.95
3 -6 3 0.39 0.82
3 -6 3 -0.44 0.73
3 -5 -10 5.42 1.77
-3 5 10 5.88 2.16
-3 5 9 5.97 2
3 -5 -9 1.99 1.12
3 -5 -8 28.13 3.65
-3 5 8 27.5 4.19
3 -5 -8 26.26 3.55
-3 5 7 5.51 1.97
3 -5 -7 6.05 1.8
3 -5 -7 3.39 1.31
-3 5 6 12.32 2.79
-3 5 6 12.96 1.56
3 -5 -6 15.14 2.64
3 -5 -6 12.38 2.49
-3 5 5 82.14 7.26
-3 5 5 83.69 4.13
3 -5 -5 87.71 6.63
3 -5 -5 87.28 6.34
-3 5 4 30.51 4.44
-3 5 4 23.19 2.1
3 -5 -4 25.69 3.29
3 -5 -4 22.76 3.36
-3 5 3 7.71 2.49
-3 5 3 11.31 1.45
3 -5 -3 8.06 1.79
3 -5 -3 11.22 2.37
-3 5 2 6.95 1.16
-3 5 2 3.35 1.41
3 -5 -2 4.51 1.44
3 -5 -2 6.08 1.81
-3 5 1 4.59 1.81
-3 5 1 6.98 1.2
3 -5 -1 5.48 1.68
3 -5 -1 3.85 1.26
-3 5 0 -0.75 1.55
-3 5 0 2.94 0.79
3 -5 0 3.41 1.23
3 -5 0 2.25 1.15
3 -5 0 1.75 1.01
-3 5 -1 153.92 10.67
3 -5 1 150.24 9.24
-3 5 -1 151.86 5.92
3 -5 1 155.01 8.33
-3 5 -2 10.8 1.47
-3 5 -2 11.27 3.04
3 -5 2 11.22 2.63
3 -5 2 12.05 2.25
-3 5 -2 9.76 2.36
-3 5 -3 18.17 1.79
-3 5 -3 15.97 3.51
3 -5 3 17.49 3.15
3 -5 3 16.46 2.58
-3 5 -3 17.31 3.24
-3 5 -4 74.91 7.47
3 -5 4 66.96 6.22
3 -5 4 69.25 5.35
-3 5 -4 80.21 6.91
-3 5 -5 9.87 2.48
-3 5 -5 9.13 2.69
3 -5 5 10.1 1.99
3 -5 5 5.87 1.88
-3 5 -6 62.13 7.03
3 -5 6 58.61 6.03
-3 5 -6 69.31 6.75
-3 5 -7 11.81 3.1
3 -5 7 10.64 2.61
-3 5 -7 13.95 3.14
3 -5 8 6.21 1.99
-3 5 -8 7.22 2.58
-3 5 -8 7.72 2.35
3 -4 -12 0.37 0.72
-3 4 12 1 1.01
3 -4 -12 1.12 0.92
3 -4 -11 2.97 1.12
-3 4 11 2.19 1.17
3 -4 -11 1.91 1.06
3 -4 -10 14.24 2.31
-3 4 10 13.34 2.78
3 -4 -10 17.05 2.84
3 -4 -9 254.5 10.2
-3 4 9 251.33 12.47
3 -4 -9 246.67 11.36
3 -4 -8 2.4 0.99
-3 4 8 4.18 1.7
-3 4 8 2.93 0.77
3 -4 -8 3.04 1.29
3 -4 -8 4.64 1.4
3 -4 -7 32.33 3.6
-3 4 7 25.47 3.64
-3 4 7 23.76 2
3 -4 -7 25.28 3.17
-3 4 6 364.37 15.56
3 -4 -6 365.33 13.77
3 -4 -6 358.41 13.72
-3 4 6 369.94 10.31
-3 4 5 114.02 8.01
-3 4 5 120.6 4.9
3 -4 -5 117.92 6.91
3 -4 -5 119.68 7.15
3 -4 -5 121.72 7.09
-3 4 4 177.68 10.35
-3 4 4 186.48 6.51
3 -4 -4 193.85 9.04
3 -4 -4 186.38 8.94
3 -4 -4 192.27 9.38
-3 4 3 18.55 3.24
-3 4 3 21.85 1.9
3 -4 -3 22.84 2.88
3 -4 -3 24.8 2.98
3 -4 -3 20.91 2.94
-3 4 2 4.16 1.67
3 -4 -2 6.96 1.61
-3 4 2 5.19 0.97
3 -4 -2 4.33 1.26
3 -4 -2 3.06 1.31
-3 4 1 34.62 4.5
3 -4 -1 29.77 3.55
-3 4 1 28.92 2.21
3 -4 -1 27.11 3.09
3 -4 -1 28.55 3.16
-3 4 0 1.76 0.6
-3 4 0 2.79 1.59
3 -4 0 1.71 1.17
3 -4 0 4.06 1.29
3 -4 0 1.26 0.8
-3 4 -1 184.11 10.96
3 -4 1 184.07 9.59
-3 4 -1 184.74 6.44
3 -4 1 191.54 8.74
3 -4 1 186.22 8.56
-3 4 -1 194.35 9.65
3 -4 2 1.08 0.73
-3 4 -2 -0.01 1.08
-3 4 -2 0.71 0.61
3 -4 2 0.23 0.73
3 -4 2 -0.87 0.71
-3 4 -2 -0.24 0.86
-3 4 -3 258.62 13.36
3 -4 3 248.63 11.7
-3 4 -3 262.59 8
3 -4 3 249.36 10.19
-3 4 -3 243.74 11.54
-3 4 -4 450.27 11.96
-3 4 -4 425.76 18.43
3 -4 4 445.84 16.85
3 -4 4 461.91 14.9
-3 4 -4 437.13 16.79
3 -4 5 14.91 2.81
-3 4 -5 14.8 1.47
-3 4 -5 13.62 3.02
3 -4 5 15.21 2.25
-3 4 -5 19.58 3.18
-3 4 -6 5.65 1.01
3 -4 6 3.77 1.47
3 -4 6 4.75 1.29
-3 4 -6 3.44 1.74
-3 4 -6 3.88 1.79
-3 4 -7 4.86 2.04
-3 4 -7 3.71 0.78
3 -4 7 2.97 1.56
-3 4 -7 2.81 1.55
3 -4 8 21.54 3.47
-3 4 -8 13.08 2.91
3 -4 9 4.29 1.72
-3 4 -9 1.4 1.24
-3 4 -9 3.63 1.18
3 -4 10 0.86 1.26
-3 4 -10 4.43 1.81
-3 4 -10 3.93 1.3
3 -3 -13 55.54 5.09
-3 3 13 45.64 4.97
3 -3 -12 6.3 1.73
-3 3 12 6.96 1.86
3 -3 -11 9.99 2.02
-3 3 11 6.47 1.73
3 -3 -11 10.85 2.26
3 -3 -10 6.24 1.44
-3 3 10 5.46 1.8
3 -3 -10 3.06 1.29
3 -3 -9 27.86 3.01
-3 3 9 29.03 3.85
3 -3 -9 30.58 3.52
3 -3 -8 34.76 3.17
-3 3 8 21.54 3.26
-3 3 8 28.7 2.04
3 -3 -8 30.33 3.4
3 -3 -8 26.32 3.36
3 -3 -7 43.9 3.45
-3 3 7 40.06 4.35
-3 3 7 45.19 2.68
3 -3 -7 42.86 3.71
3 -3 -7 37.09 3.96
3 -3 -7 51.31 4.37
3 -3 -6 1702.11 37.33
-3 3 6 1673.37 41.71
-3 3 6 1616.41 35.2
3 -3 -6 1616.93 38.81
3 -3 -6 1599.41 39.32
3 -3 -6 1613.72 40.47
3 -3 -5 233.97 8
-3 3 5 207.99 10.48
-3 3 5 213.04 6.97
3 -3 -5 219.32 9.94
3 -3 -5 213.02 9.15
3 -3 -5 212.44 9.23
3 -3 -4 0.31 0.48
3 -3 -4 0.71 0.94
-3 3 4 0.11 0.79
-3 3 4 0.94 0.45
3 -3 -4 0.09 0.73
3 -3 -4 1.17 0.99
-3 3 3 125.39 7.8
-3 3 3 110.74 4.61
3 -3 -3 118.82 6.78
3 -3 -3 124.32 6.68
3 -3 -3 114.44 6.29
3 -3 -2 33.75 3.43
-3 3 2 34.46 2.36
-3 3 2 29.07 3.59
3 -3 -2 33.92 3.43
3 -3 -2 36.33 3.35
-3 3 1 12.4 1.45
-3 3 1 11.36 2.42
3 -3 -1 10.81 1.85
3 -3 -1 15.3 2.12
3 -3 -1 11.24 2.01
-3 3 1 13.57 2
-3 3 0 4.23 1.51
3 -3 0 2.59 1.17
-3 3 0 4.5 0.88
3 -3 0 4.08 1.28
3 -3 0 2.36 1.05
-3 3 0 2.45 0.98
-3 3 -1 36.09 4.23
3 -3 1 29.28 3.32
-3 3 -1 34.19 2.32
3 -3 1 29.86 3.18
3 -3 1 33.58 3.09
-3 3 -1 36.64 3.48
3 -3 2 24.19 3.02
-3 3 -2 24.21 1.9
3 -3 2 23.45 2.78
-3 3 -2 20.28 3.35
3 -3 2 22.82 2.52
-3 3 -2 19.77 2.65
3 -3 3 13.36 2.17
-3 3 -3 12.91 1.39
-3 3 -3 11.4 2.51
3 -3 3 12.25 2.24
3 -3 3 10.39 1.7
-3 3 -3 9.35 1.86
-3 3 -4 16.28 1.54
-3 3 -4 16.37 3.14
3 -3 4 20.97 2.99
3 -3 4 22.38 2.77
3 -3 4 19.32 2.27
-3 3 -4 18.02 2.64
-3 3 -5 141.03 8.97
3 -3 5 126.74 7.72
-3 3 -5 139.37 5.07
-3 3 -5 133.26 5.35
3 -3 5 136.27 6.45
-3 3 -5 122.12 7.4
-3 3 -6 66.05 6.21
3 -3 6 57.07 5.19
-3 3 -6 68.48 3.27
-3 3 -6 65.34 3.69
3 -3 6 65.09 4.25
3 -3 6 63.46 5.11
-3 3 -6 60.6 5.19
-3 3 -7 7.69 1.29
-3 3 -7 8.03 1.06
3 -3 7 7.84 1.83
3 -3 7 8.34 1.99
-3 3 -7 8.3 2.05
-3 3 -8 0.71 0.42
3 -3 8 0.66 0.87
-3 3 -8 0.16 0.8
3 -3 9 117.22 8.06
3 -3 9 114.18 7.68
-3 3 -9 123.29 5.95
-3 3 -9 114.29 8.03
-3 3 -10 7.4 1.49
3 -3 10 11.55 2.55
-3 3 -10 9.17 2.44
3 -3 10 5.64 1.74
3 -3 11 93.55 7.43
3 -3 11 79.78 6.73
-3 3 -11 88.61 5.39
-3 3 -11 90.66 7.46
3 -3 12 58.16 5.93
3 -3 12 49.46 5.42
-3 3 -12 60.51 4.62
-3 3 -12 49.15 5.67
3 -2 -14 11 2.36
-3 2 14 7.39 1.97
3 -2 -13 27.68 3.66
-3 2 13 28.88 3.72
3 -2 -12 1.29 1.06
3 -2 -12 -0.11 0.7
-3 2 12 0.91 0.88
3 -2 -11 0.76 0.61
-3 2 11 0.44 0.9
3 -2 -11 0.86 0.8
3 -2 -11 0.64 1.08
3 -2 -10 3.73 1.19
-3 2 10 6.05 1.69
3 -2 -10 7.18 1.86
3 -2 -10 5.62 1.52
3 -2 -9 -0.47 0.78
-3 2 9 -0.29 0.72
3 -2 -9 0.25 0.55
3 -2 -9 -0.32 0.69
3 -2 -8 46.14 3.67
-3 2 8 43.79 4.17
-3 2 8 46.07 2.58
3 -2 -8 41.99 4.25
3 -2 -8 48.46 4.06
3 -2 -7 382.95 12.21
-3 2 7 362.38 13.85
-3 2 7 404.37 10.45
3 -2 -7 367.14 11.89
3 -2 -7 378.52 14.24
3 -2 -7 388.79 13.22
3 -2 -6 263.35 9.11
-3 2 6 261.87 11.07
3 -2 -6 236.84 10.75
-3 2 6 267.66 7.97
3 -2 -6 264.93 10.17
3 -2 -6 276.06 9.51
3 -2 -5 7.09 1.21
-3 2 5 5.52 1.56
-3 2 5 6.41 1.01
3 -2 -5 5.21 1.14
3 -2 -5 4.98 1.49
3 -2 -4 58.27 3.28
-3 2 4 46.74 4.29
-3 2 4 53.81 2.95
3 -2 -4 54.2 3.74
3 -2 -4 50.01 4.33
3 -2 -4 51.52 3.84
3 -2 -3 45.69 2.68
-3 2 3 38.67 3.89
-3 2 3 39.81 2.52
3 -2 -3 39.78 3.28
3 -2 -3 37.6 3.15
3 -2 -3 35.82 3.58
3 -2 -2 109.33 4.16
-3 2 2 98.5 6.26
-3 2 2 106.95 4.43
3 -2 -2 109.39 5.63
3 -2 -2 100.91 6.07
3 -2 -2 99.65 5.31
-3 2 2 103.14 4.69
3 -2 -1 30.92 1.85
-3 2 1 29.25 3.36
-3 2 1 34.7 2.36
3 -2 -1 34.55 3.09
3 -2 -1 26.8 2.94
3 -2 -1 28.4 2.64
-3 2 1 27.61 2.45
3 -2 0 2.57 0.94
-3 2 0 2.67 1.41
-3 2 0 6.56 1.03
3 -2 0 3.26 1.16
3 -2 0 3.18 0.93
-3 2 0 3.08 0.79
3 -2 1 152.51 7.44
-3 2 -1 161.17 8.55
3 -2 1 157.42 7.36
-3 2 -1 160.71 5.74
3 -2 1 157.51 6.63
-3 2 -1 165.64 4.7
-3 2 -1 163.21 6.91
-3 2 -2 679.55 21.38
3 -2 2 675.73 19.56
-3 2 -2 668.73 16.68
-3 2 -2 689.2 15.74
3 -2 2 677.5 19.37
3 -2 2 681.87 18.07
-3 2 -2 682.56 18.76
-3 2 -3 47.58 4.58
3 -2 3 48.25 4.05
3 -2 3 47.32 3.48
-3 2 -3 50.65 2.84
3 -2 3 50.72 3.93
3 -2 3 50.86 2.76
-3 2 -3 50.5 2.5
3 -2 3 52.88 3.43
-3 2 -3 44.63 3.53
-3 2 -4 60.91 5.37
3 -2 4 58.33 4.7
-3 2 -4 67.33 3.31
3 -2 4 69.41 4.69
3 -2 4 68.23 4.33
3 -2 4 75.78 3.62
-3 2 -4 73.43 3.32
3 -2 4 62.74 3.8
-3 2 -4 66.75 4.51
3 -2 5 50.36 4.38
-3 2 -5 60.5 3.13
-3 2 -5 56.91 3.01
3 -2 5 65.15 4.57
3 -2 5 65.51 3.46
3 -2 5 57.21 4.15
3 -2 5 60.48 3.65
-3 2 -5 60.21 4.44
-3 2 -6 12.33 1.32
3 -2 6 15.01 2.13
3 -2 6 13.09 1.72
3 -2 6 17.21 2.59
-3 2 -6 13.33 1.46
3 -2 6 13.97 1.74
-3 2 -6 17.73 2.46
3 -2 7 91.85 6.26
-3 2 -7 93.07 3.85
3 -2 7 91.78 5.75
-3 2 -7 86.9 4.25
-3 2 -7 93.39 6.08
-3 2 -8 4.93 1.12
-3 2 -8 5.54 0.84
3 -2 8 5.14 1.42
3 -2 8 5.48 1.71
-3 2 -8 3.4 1.27
3 -2 9 66.46 5.56
3 -2 9 74.88 5.5
-3 2 -9 67.88 4.02
-3 2 -9 63.33 5.34
-3 2 -10 5.14 1.22
3 -2 10 4.91 1.44
3 -2 10 4.72 1.53
-3 2 -10 4.79 1.56
3 -2 11 24.14 3.61
3 -2 11 16.66 2.78
-3 2 -11 21.65 2.48
-3 2 -11 18.16 3.06
-3 2 -12 0.73 0.97
3 -2 12 3.22 1.39
3 -2 12 0.65 1.16
-3 2 -12 2.53 1.5
-3 2 -13 10.64 1.88
3 -2 13 7.76 2.08
3 -2 13 10.7 2.5
-3 2 -13 8.31 2.21
-3 2 -14 17.78 2.56
3 -2 14 12.34 2.66
-3 2 -14 12.95 2.81
3 -1 -15 6.74 2.13
-3 1 15 7.06 2.05
3 -1 -14 0.87 1.08
-3 1 14 0.12 0.65
3 -1 -14 -1.85 1.18
3 -1 -13 15.32 2.59
-3 1 13 16.83 2.81
3 -1 -13 17.3 3.09
3 -1 -12 21.26 2.97
-3 1 12 20.88 2.92
3 -1 -12 18.42 3.16
3 -1 -11 0.94 0.76
-3 1 11 0.95 0.83
3 -1 -11 1.85 1.07
3 -1 -11 0.02 0.97
-3 1 11 -0.42 0.47
3 -1 -10 41.85 3.81
-3 1 10 39.78 3.86
3 -1 -10 42.29 4.44
-3 1 10 39.77 3.44
3 -1 -10 43.9 3.87
3 -1 -9 1.07 0.8
3 -1 -9 0.04 0.54
-3 1 9 0.11 0.61
-3 1 9 0.3 0.57
3 -1 -9 0.93 0.77
3 -1 -8 168.02 7.6
-3 1 8 167.5 8.15
3 -1 -8 176.51 9.08
-3 1 8 187.6 5.87
-3 1 8 173.63 6.89
3 -1 -8 179.36 7.98
3 -1 -7 52.56 3.74
-3 1 7 44.64 3.89
-3 1 7 61.56 3.01
3 -1 -7 54.35 4.68
-3 1 7 58.92 3.41
3 -1 -7 52.29 3.96
3 -1 -6 63.73 3.93
-3 1 6 63.72 4.61
-3 1 6 65.96 3.23
3 -1 -6 58.91 4.14
3 -1 -6 68.21 3.62
3 -1 -6 62.56 4.87
-3 1 6 61.84 3.27
3 -1 -5 100.62 4.86
-3 1 5 105.32 5.97
-3 1 5 110.45 4.45
3 -1 -5 106.85 4.78
3 -1 -5 102.99 6.28
-3 1 5 103.27 4.12
3 -1 -5 96.29 5.26
3 -1 -4 339.57 10.06
-3 1 4 340.33 11.93
3 -1 -4 332.28 12.34
-3 1 4 346.69 9.68
3 -1 -4 344.26 10.21
-3 1 4 332.55 8.75
3 -1 -4 325.35 10.88
3 -1 -3 98.39 4.24
-3 1 3 102.76 5.75
-3 1 3 91.53 4.19
3 -1 -3 102.54 4.72
3 -1 -3 90.52 5.7
-3 1 3 91.6 3.26
3 -1 -3 91.53 4.82
3 -1 -2 8.15 1.05
-3 1 2 7.65 1.18
-3 1 2 7.97 1.62
3 -1 -2 8.31 1.72
-3 1 2 8.11 0.73
3 -1 -2 7.66 0.6
3 -1 -2 7.52 1.24
3 -1 -2 7.39 1.3
-3 1 2 8.21 0.85
3 -1 -1 4.97 0.79
-3 1 1 6.94 1.45
-3 1 1 5.17 0.56
3 -1 -1 5.63 0.57
-3 1 1 5.06 0.92
3 -1 -1 5.12 1.34
3 -1 -1 6.02 1.16
3 -1 -1 5.16 1.08
-3 1 1 4.6 0.72
3 -1 0 213.92 6.02
-3 1 0 228.83 9.15
3 -1 0 216.11 8
3 -1 0 215.5 8.95
3 -1 0 221.1 5.72
3 -1 0 218.35 7.62
-3 1 0 234.14 6.97
-3 1 -1 242.46 6.1
-3 1 -1 224.69 9.56
3 -1 1 225.86 8.43
3 -1 1 234.57 9.25
-3 1 -1 234.89 5.78
3 -1 1 244.08 6.32
3 -1 1 224 7.71
-3 1 -1 230.37 6.49
-3 1 -1 234.17 7.41
3 -1 2 20.29 2.28
-3 1 -2 23.31 1.94
-3 1 -2 19.92 2.46
-3 1 -2 21.25 1.26
3 -1 2 21.94 1.71
3 -1 2 23.28 1.52
3 -1 2 21.52 1.93
-3 1 -2 21.39 1.58
-3 1 -2 21.87 1.94
3 -1 2 20.77 2.43
-3 1 -3 123.43 6.79
3 -1 3 116.01 5.9
-3 1 -3 118.64 4.74
-3 1 -3 112.29 3.78
3 -1 3 112.28 4.69
3 -1 3 118.7 4.23
3 -1 3 108.87 4.71
-3 1 -3 121.52 4.43
3 -1 3 112.38 5.9
-3 1 -3 118.43 5.17
-3 1 -4 369.93 13.13
3 -1 4 368.44 12.36
-3 1 -4 350.35 10.01
3 -1 4 363.11 12.04
-3 1 -4 366.36 9.21
3 -1 4 366.52 10.6
3 -1 4 405.67 9.9
3 -1 4 344.44 10.14
-3 1 -4 358.04 9.83
-3 1 -4 352.31 11.04
-3 1 -4 349.21 10
3 -1 5 115.24 6.42
-3 1 -5 124.41 4.83
3 -1 5 134.49 6.37
3 -1 5 126.35 5.51
3 -1 5 134.18 4.88
3 -1 5 120.29 4.85
-3 1 -5 125.25 4.91
-3 1 -5 124.29 4.71
-3 1 -5 124.13 5.87
3 -1 6 94.64 5.85
-3 1 -6 100.98 4.21
3 -1 6 114.77 5.92
3 -1 6 102.18 5.16
3 -1 6 112.9 4.62
-3 1 -6 106.85 4.58
3 -1 6 98.65 4.26
-3 1 -6 110.35 5.05
-3 1 -6 102.62 5.48
-3 1 -7 5.84 1.37
-3 1 -7 9.58 1.39
-3 1 -7 8.45 1.11
-3 1 -7 7.72 1.2
3 -1 7 8.88 1.86
3 -1 7 7.03 1.41
3 -1 7 9.98 1.35
3 -1 8 50.83 4.49
-3 1 -8 54.26 2.77
-3 1 -8 51.08 3.29
3 -1 8 57.56 4.11
3 -1 8 59.59 3.6
-3 1 -8 48.48 4.07
-3 1 -9 4.91 1.02
3 -1 9 7.22 1.82
3 -1 9 2.73 1
3 -1 9 4.54 1.14
-3 1 -9 5.46 1.47
-3 1 -10 0.57 0.89
-3 1 -10 0.13 0.55
3 -1 10 -0.26 0.57
3 -1 10 2.05 1.33
3 -1 10 -0.12 0.46
-3 1 -11 2.25 1.29
-3 1 -11 2.22 0.71
3 -1 11 2.16 0.89
3 -1 11 3.32 1.48
3 -1 11 3.23 1.08
3 -1 12 126.1 8.03
3 -1 12 117.06 7.33
3 -1 12 136.49 7.01
-3 1 -12 125.23 6.12
-3 1 -13 4.25 1.54
-3 1 -13 5.6 1.33
3 -1 13 3.94 1.41
-3 1 -14 1.77 1.15
-3 1 -14 0.32 0.58
3 -1 14 -0.53 0.78
3 -1 15 188.62 10.76
-3 1 -15 225.48 9.52
-3 1 -15 194.37 11.12
-3 0 15 51.5 5.08
3 0 -15 44.01 4.92
-3 0 15 39.74 4.39
-3 0 14 50.86 4.78
3 0 -14 42.59 4.57
3 0 -13 -0.39 0.86
-3 0 13 -0.62 0.53
-3 0 13 0.13 0.61
3 0 -12 27.16 3.47
-3 0 12 34.48 3.69
-3 0 12 25.82 3.05
3 0 -11 12.49 2.29
-3 0 11 16.44 2.43
-3 0 11 13.34 2.13
3 0 -10 6.91 1.47
-3 0 10 6.07 1.48
-3 0 10 5.36 1.26
-3 0 9 18.06 2.55
3 0 -9 16.35 2.44
3 0 -9 19.16 3.03
-3 0 9 9.92 1.62
3 0 -8 44.42 3.73
-3 0 8 49.19 3.88
3 0 -8 52.08 4.6
-3 0 8 43.8 3.17
3 0 -8 53.19 3.92
3 0 -7 87.24 5.11
-3 0 7 103.05 5.5
3 0 -7 93.74 6.14
3 0 -7 94.58 4.71
3 0 -7 94.94 5.21
-3 0 7 90.18 4.45
3 0 -6 22.59 2.46
-3 0 6 41.35 3.39
3 0 -6 42.92 4.09
3 0 -6 23.08 2.59
3 0 -6 27.42 2.38
3 0 -6 31.66 2.6
3 0 -5 -0.01 0.41
-3 0 5 0.62 0.58
-3 0 5 0.39 0.31
3 0 -5 0.34 0.27
3 0 -5 0 0.49
3 0 -5 0.14 0.4
3 0 -5 0.36 0.38
3 0 -5 0.1 0.58
3 0 -4 -0.23 0.52
-3 0 4 0.1 0.69
3 0 -4 0.06 0.61
-3 0 4 0.18 0.22
3 0 -4 0.14 0.31
3 0 -4 0.13 0.47
3 0 -4 0.21 0.34
3 0 -4 0.84 0.45
3 0 -3 241.24 7.86
-3 0 3 251.05 8.77
-3 0 3 230.8 6.23
3 0 -3 244.11 7.16
3 0 -3 255.33 7.71
3 0 -3 237.97 8.22
3 0 -3 241.5 9.63
3 0 -3 241.98 7.22
3 0 -2 13.6 1.45
-3 0 2 15.24 1.9
3 0 -2 15.93 1.48
-3 0 2 14.16 0.87
3 0 -2 13.95 2.11
3 0 -2 15.24 1.69
3 0 -2 13.75 1.33
-3 0 1 190.68 7.41
3 0 -1 185.4 6.42
3 0 -1 201.75 8.33
3 0 -1 191.2 6.81
3 0 -1 204.18 6.07
-3 0 0 163.46 6.74
-3 0 0 184.32 5.77
3 0 0 161.42 6
3 0 0 184.07 7.74
3 0 0 159.77 5.24
3 0 0 148.88 5.77
-3 0 0 157.43 4.19
3 0 1 41.76 2.36
-3 0 -1 49.84 2.42
-3 0 -1 46.66 3.42
3 0 1 44.34 2.96
3 0 1 44.03 2.69
-3 0 -1 52.47 2.16
3 0 1 46.53 3.58
-3 0 -2 10.36 0.93
3 0 2 11.71 0.84
-3 0 -2 9.95 1.66
3 0 2 9.46 1.64
3 0 2 9.83 1.5
3 0 2 9.71 1.13
3 0 2 8.1 1.08
-3 0 -2 11.62 1.08
-3 0 -2 7.62 1.13
-3 0 -3 132.46 5.06
-3 0 -3 139.03 6.21
3 0 3 134.78 5.79
-3 0 -3 131.1 4.97
3 0 3 140.63 4.13
3 0 3 130.41 4.57
3 0 3 122.62 4.52
3 0 3 130.89 5.94
-3 0 -3 133.01 4.64
-3 0 -4 23.65 1.07
3 0 4 26.42 2.56
-3 0 -4 22.78 1.92
3 0 4 25.73 2.52
-3 0 -4 30.73 2.41
3 0 4 28.37 1.9
3 0 4 26.46 2.01
-3 0 -4 23.99 1.8
3 0 4 26.09 1.82
-3 0 -4 27.01 2.05
-3 0 -4 24.7 2.05
-3 0 -5 1023.54 21
3 0 5 1029.81 25.76
-3 0 -5 1007.77 23.47
-3 0 -5 1079.96 24.3
3 0 5 1010.4 25.09
-3 0 -5 1025.77 23.24
3 0 5 1070.89 23.43
-3 0 -5 1054.06 23.45
3 0 5 996.89 23.41
3 0 5 984.23 22.46
-3 0 -5 1046.97 23.86
-3 0 -6 42.98 2.49
3 0 6 41.04 3.5
-3 0 -6 37.39 2.46
-3 0 -6 40.87 2.76
3 0 6 43.08 3.24
-3 0 -6 41.25 2.61
3 0 6 42.56 2.84
3 0 6 46.57 2.79
3 0 6 38.73 2.1
-3 0 -6 40.15 2.78
-3 0 -7 6.44 1.17
-3 0 -7 5.15 1
-3 0 -7 6.64 0.94
-3 0 -7 5.51 1.03
-3 0 -7 5.57 0.93
3 0 7 6.1 1.18
3 0 7 5.21 0.99
3 0 7 3.17 1.24
-3 0 -8 373.4 10.82
3 0 8 353.98 12.88
-3 0 -8 358.42 9.92
-3 0 -8 380.29 10.44
3 0 8 353.31 11.49
3 0 8 374.1 11.06
-3 0 -8 375.43 11.2
-3 0 -9 0.84 0.68
-3 0 -9 0.74 0.55
3 0 9 1.13 0.97
3 0 9 0.64 0.65
3 0 9 0.58 0.56
3 0 10 61.35 4.43
3 0 10 67.3 4.07
-3 0 -10 63.64 4
3 0 11 44.68 3.96
3 0 11 46.99 3.66
-3 0 -11 54.38 3.76
-3 0 -12 10.88 2.19
-3 0 -12 10.15 1.76
3 0 12 9.03 1.85
3 0 12 12.33 1.93
-3 0 -13 2.11 0.94
-3 0 -13 2.47 1.04
3 0 13 1.23 0.89
3 0 13 4.53 1.46
3 0 14 29.76 3.67
3 0 14 36.43 3.64
-3 0 -14 32.92 3.18
-3 0 -14 27.91 3.75
-3 0 -15 325.32 11.83
3 0 15 282.75 13.26
-3 0 -15 295.52 13.84
3 0 16 54.31 5.55
-3 0 -16 67.86 5.03
-3 0 -16 63.87 6.09
3 1 -15 7.13 1.87
-3 -1 15 8.95 2.14
-3 -1 15 5.65 1.81
3 1 -14 90.22 6.82
-3 -1 14 87.81 6.53
-3 -1 13 58.94 4.96
3 1 -13 55.89 5.16
-3 -1 13 53.15 4.74
3 1 -12 1.2 0.74
-3 -1 12 0.21 0.5
-3 -1 11 43.04 3.89
3 1 -11 46.09 4.32
3 1 -11 48.15 4.14
-3 -1 11 43.64 3.96
3 1 -10 714.02 21.24
-3 -1 10 790.99 21.02
3 1 -10 760.94 20.99
-3 -1 10 682.64 20.08
3 1 -9 267.94 10.67
-3 -1 9 298.86 10.52
3 1 -9 280.86 10.41
-3 -1 9 257.68 9.81
3 1 -8 11.18 1.74
-3 -1 8 12.84 1.87
-3 -1 8 13.26 1.82
3 1 -8 13.42 1.93
3 1 -7 120.14 6.21
-3 -1 7 135.18 6.02
-3 -1 7 126.84 5.72
3 1 -7 138.7 6.37
3 1 -7 122.22 5.06
3 1 -6 27.64 2.72
-3 -1 6 39.69 2.94
3 1 -6 41.84 3.17
-3 -1 6 32.6 2.54
3 1 -6 33.99 2.26
-3 -1 5 180.73 6.67
3 1 -5 178.98 7.01
3 1 -5 158.33 6.93
-3 -1 5 163.5 6.11
3 1 -5 173.43 5.52
-3 -1 4 25.52 2.13
3 1 -4 20.73 1.03
3 1 -4 23.72 2.19
3 1 -4 25.87 2.8
-3 -1 4 23.87 1.89
3 1 -4 25.49 2.25
3 1 -4 22.57 1.49
-3 -1 3 320.99 9.44
3 1 -3 330.36 7.74
3 1 -3 324.84 9.98
3 1 -3 341.38 11.46
-3 -1 3 314.47 8.7
3 1 -3 322.04 9.83
3 1 -3 306.95 7.67
-3 -1 2 26.58 2.06
3 1 -2 26.11 1.57
-3 -1 2 23.7 1.61
3 1 -2 26.09 2.67
3 1 -2 26.61 2.3
3 1 -2 21.89 2.05
3 1 -2 23.57 2.22
-3 -1 1 155.63 5.63
-3 -1 1 169.01 6.38
3 1 -1 166.5 5.25
3 1 -1 141.16 6
3 1 -1 171.3 7.16
-3 -1 1 166.95 4.78
3 1 -1 159.05 6
3 1 -1 164.32 6.11
-3 -1 0 1800.41 37.81
-3 -1 0 1776.52 38.34
3 1 0 1785.95 39.93
3 1 0 1733.01 37.4
3 1 0 1801.18 38.11
3 1 0 1725.38 38.34
-3 -1 0 1725.46 38.63
-3 -1 -1 379.56 10.4
-3 -1 -1 397.56 10.46
3 1 1 385.94 10.46
-3 -1 -1 384.79 11.01
3 1 1 359.76 8.17
3 1 1 394.75 10.34
3 1 1 363.07 10.73
3 1 1 395.05 12.02
-3 -1 -2 75.12 3.52
-3 -1 -2 70.72 3.59
3 1 2 77.3 3.9
-3 -1 -2 73.77 3.88
3 1 2 74.98 4.35
3 1 2 76.87 2.42
3 1 2 76.45 3.44
3 1 2 70.73 3.79
-3 -1 -2 71.91 3.79
-3 -1 -3 24.24 1.85
3 1 3 25.27 2.26
-3 -1 -3 23.25 2.09
-3 -1 -3 28.68 2.26
3 1 3 23.82 2.3
3 1 3 22.63 2.09
3 1 3 24.97 1.75
-3 -1 -3 26.05 2.14
3 1 3 25.03 1.45
3 1 4 5.64 1.05
-3 -1 -4 11.27 1.21
-3 -1 -4 7.56 1.15
3 1 4 7.92 1.31
3 1 4 10.83 1.58
-3 -1 -4 9.47 1.33
3 1 4 7.97 0.92
3 1 4 9.55 1.02
-3 -1 -5 0.87 0.4
-3 -1 -5 0.58 0.42
3 1 5 0.86 0.52
3 1 5 0.5 0.5
3 1 5 0.24 0.29
-3 -1 -5 0.4 0.44
3 1 5 0.19 0.41
-3 -1 -6 27.53 1.82
-3 -1 -6 25.54 2.08
3 1 6 24.94 2.26
-3 -1 -6 22.72 2.14
3 1 6 25.59 2.06
-3 -1 -6 27.27 2.08
3 1 6 22.16 2.1
-3 -1 -7 34.44 2.09
3 1 7 39.47 2.92
-3 -1 -7 32.14 2.65
-3 -1 -7 35.13 2.36
3 1 7 34.81 2.6
-3 -1 -7 36.87 2.45
-3 -1 -7 33.45 2.74
3 1 7 34.22 2.61
-3 -1 -8 49.75 2.67
-3 -1 -8 47.2 2.79
-3 -1 -8 49.99 2.66
-3 -1 -8 48.99 3.34
3 1 8 45.11 3.22
-3 -1 -8 49.26 3.47
3 1 8 50.57 3.32
-3 -1 -9 106.17 4.28
-3 -1 -9 107.53 4.26
-3 -1 -9 98.41 3.87
-3 -1 -9 101.68 5.09
3 1 9 100.3 5.33
3 1 9 104.42 5.08
-3 -1 -9 103.97 5.34
-3 -1 -10 22.96 1.92
-3 -1 -10 18.9 2.16
3 1 10 17.19 2.24
3 1 10 20.41 2.24
-3 -1 -10 19.19 2.28
-3 -1 -11 0.79 0.66
-3 -1 -11 1.53 0.94
3 1 11 -0.23 0.56
3 1 11 0.23 0.51
3 1 12 0.31 0.56
-3 -1 -12 -0.6 0.66
-3 -1 -12 -0.28 0.69
3 1 12 1.17 0.78
-3 -1 -13 1.3 0.96
3 1 13 -0.52 0.58
3 1 13 1.04 0.81
-3 -1 -14 3.28 1.11
3 1 14 2.36 1.13
3 1 14 1.91 1.03
-3 -1 -15 6.02 1.52
3 1 15 5.97 1.79
3 1 15 4.59 1.38
3 1 16 31.17 4.12
3 1 16 40.91 4.03
-3 -1 -16 34.43 3.51
3 1 17 33.41 4.58
-3 -1 -17 41.38 3.87
-3 -2 14 15.98 2.79
-3 -2 14 17.38 2.95
3 2 -14 20.56 3.23
-3 -2 13 4.89 1.42
-3 -2 13 5.46 1.65
3 2 -13 5.69 1.71
3 2 -12 61.88 5.25
-3 -2 12 45.07 4.43
-3 -2 12 57.05 4.77
3 2 -11 100.15 6.52
-3 -2 11 106.02 6.22
3 2 -10 209.77 9.59
-3 -2 10 213.94 8.83
-3 -2 9 56.05 3.97
-3 -2 9 47.81 4.06
3 2 -9 52.1 4.33
3 2 -9 49.15 3.76
-3 -2 8 -0.19 0.55
-3 -2 8 -0.12 0.58
3 2 -8 0.14 0.56
3 2 -8 -0.05 0.59
-3 -2 7 141.18 6.03
-3 -2 7 127.71 5.33
3 2 -7 134.7 6.84
-3 -2 7 131.07 6.42
3 2 -7 142.21 6.18
-3 -2 6 383.75 11.04
-3 -2 6 348.79 10.61
3 2 -6 378.35 12.53
-3 -2 6 373.42 11.88
3 2 -6 375.91 11.24
-3 -2 5 37.87 2.56
-3 -2 5 32.05 2.42
3 2 -5 32.61 3.15
3 2 -5 33.4 3.06
-3 -2 5 32.84 2.79
3 2 -5 34.28 2.53
-3 -2 4 19.15 1.68
-3 -2 4 19.73 2.51
-3 -2 4 18.08 1.84
-3 -2 4 17.97 2.01
3 2 -4 18.63 2.25
3 2 -4 16.94 2.1
3 2 -4 16.97 1.7
-3 -2 3 0.51 0.41
-3 -2 3 0.89 0.73
-3 -2 3 0.66 0.42
-3 -2 3 -0.12 0.4
3 2 -3 0.4 0.73
3 2 -3 -0.56 0.59
3 2 -3 -0.3 0.36
-3 -2 2 47.07 2.36
-3 -2 2 49.1 3.59
-3 -2 2 45.11 2.9
3 2 -2 49.01 3.57
3 2 -2 52.98 3.56
-3 -2 2 48.07 3.08
3 2 -2 45.2 3.32
3 2 -2 46.33 2.54
-3 -2 1 377.87 9.45
-3 -2 1 411.8 12.31
3 2 -1 406.48 12.17
3 2 -1 384 11.89
-3 -2 1 396.31 11.12
-3 -2 1 427.83 11.26
3 2 -1 373.07 11.77
3 2 -1 383.26 10.02
-3 -2 0 64.35 2.4
-3 -2 0 64.73 3.88
3 2 0 59.11 3.79
3 2 0 69.18 3.98
-3 -2 0 69 3.64
3 2 0 54.99 3.67
3 2 0 64.56 2.89
-3 -2 0 60.36 3.68
-3 -2 -1 1430.52 29.15
-3 -2 -1 1409.18 32.33
-3 -2 -1 1368.72 31.6
3 2 1 1455.95 32.52
-3 -2 -1 1414.7 32.11
3 2 1 1397.98 32.75
3 2 1 1468.09 30.45
-3 -2 -2 270.03 6.65
-3 -2 -2 276.44 9.01
-3 -2 -2 285.92 8.65
3 2 2 259 9.22
3 2 2 285.53 9.16
-3 -2 -2 273.88 8.85
-3 -2 -3 27 2.35
-3 -2 -3 17.93 1.31
-3 -2 -3 24.71 2.08
3 2 3 22.56 2.12
3 2 3 21.38 2.28
3 2 3 24.06 1.87
-3 -2 -3 22.66 2.11
-3 -2 -4 3.95 0.88
-3 -2 -4 2.99 0.85
3 2 4 3.06 0.8
3 2 4 3 0.76
3 2 4 1.22 0.73
-3 -2 -4 3.74 0.86
-3 -2 -5 539.96 13.97
3 2 5 483.19 13.04
-3 -2 -5 519.46 13.6
3 2 5 472.78 14.06
3 2 5 488.81 13.19
-3 -2 -5 510.52 13.17
-3 -2 -6 3.07 0.76
-3 -2 -6 6.05 1.11
-3 -2 -6 5.06 0.98
3 2 6 5.49 0.97
3 2 6 4.32 0.92
3 2 6 3.99 1
-3 -2 -7 49.44 3.1
-3 -2 -7 41.24 2.67
-3 -2 -7 43.9 2.68
3 2 7 51.97 3.01
3 2 7 39.85 2.92
3 2 7 43.85 3.27
-3 -2 -8 139.39 5.69
-3 -2 -8 136.19 5.14
-3 -2 -8 132.57 6.29
3 2 8 137.83 6.12
3 2 8 142.39 6.22
-3 -2 -8 134.61 5.04
-3 -2 -9 62.74 3.55
-3 -2 -9 56.34 2.98
-3 -2 -9 53.51 3.87
3 2 9 53.77 3.85
-3 -2 -9 57.16 2.93
3 2 9 55.7 3.8
-3 -2 -9 59.41 4.1
-3 -2 -10 4.47 0.8
-3 -2 -10 4.85 1.27
-3 -2 -10 6.04 1.23
-3 -2 -10 4.37 1.26
-3 -2 -10 5.62 0.9
3 2 10 7.07 1.45
3 2 10 4.14 1.14
-3 -2 -11 10.76 1.75
-3 -2 -11 6.65 1.19
-3 -2 -11 10.85 1.2
-3 -2 -11 9.71 1.71
3 2 11 11.63 1.96
3 2 11 7.86 1.47
-3 -2 -12 0.9 0.78
-3 -2 -12 1.21 0.77
-3 -2 -12 1.5 0.88
3 2 12 -0.59 0.56
3 2 12 1.34 0.79
-3 -2 -13 137.34 6.36
-3 -2 -13 122.81 6.59
3 2 13 122.76 7.46
3 2 13 148.8 6.9
-3 -2 -13 130.52 6.68
-3 -2 -14 -0.65 0.62
-3 -2 -14 0.49 0.51
-3 -2 -14 -0.1 0.72
3 2 14 -0.64 0.9
3 2 14 -0.04 0.73
-3 -2 -15 14.79 2.37
3 2 15 13.93 2.68
3 2 15 13.41 2.26
-3 -2 -16 0.4 0.66
3 2 16 0.93 0.82
-3 -2 -17 5.15 1.44
3 2 17 4.81 1.55
-3 -3 13 2.13 1.06
-3 -3 13 4.59 1.76
-3 -3 13 6.01 1.89
3 3 -13 6.16 2.02
-3 -3 12 2.5 1
-3 -3 12 1.2 0.76
-3 -3 12 0.85 1.12
3 3 -12 3.05 1.55
-3 -3 11 2.9 1.08
-3 -3 11 4.2 1.6
-3 -3 11 2.63 1.19
3 3 -11 3.6 1.52
-3 -3 10 14.39 2.27
-3 -3 10 8.08 2.06
-3 -3 10 10.17 2.13
3 3 -10 11.98 2.28
3 3 -10 12.11 2.16
-3 -3 9 24.03 3.41
-3 -3 9 21.59 2.95
3 3 -9 26.01 3.06
3 3 -9 22.36 3.16
-3 -3 9 22.01 2.62
-3 -3 8 27.58 3.46
-3 -3 8 29.07 3.3
3 3 -8 31.39 3.5
3 3 -8 21.92 2.71
-3 -3 8 27.21 2.77
-3 -3 7 9.95 1.56
-3 -3 7 12.49 2.36
-3 -3 7 11.99 2.08
3 3 -7 10.91 1.97
3 3 -7 7.4 1.59
-3 -3 6 52.12 4.54
-3 -3 6 51.48 2.87
3 3 -6 51.55 4.29
-3 -3 6 49.19 4.17
3 3 -6 52.51 3.89
-3 -3 6 54.55 3.46
-3 -3 5 4.5 0.94
-3 -3 5 6.85 1.61
-3 -3 5 5.54 1.42
-3 -3 5 4.5 0.89
3 3 -5 4.38 1.36
3 3 -5 6.94 1.43
-3 -3 4 209.1 8.14
-3 -3 4 222.53 9.7
-3 -3 4 229.21 9.11
3 3 -4 237.41 9.52
-3 -3 4 217.45 7.12
3 3 -4 224.5 9.25
3 3 -4 230.03 8.48
-3 -3 4 229.94 7.32
-3 -3 3 6.27 0.95
-3 -3 3 8.56 1.8
3 3 -3 6.91 1.3
-3 -3 3 6.01 1.01
-3 -3 3 4.7 1.14
-3 -3 3 6.7 1.45
3 3 -3 7.5 1.65
3 3 -3 5.46 1.45
-3 -3 2 56.89 4.2
3 3 -2 57.17 4.13
-3 -3 2 51.76 3
-3 -3 2 59.41 4.03
3 3 -2 53.72 3.97
3 3 -2 58.8 3.59
-3 -3 2 48.98 3.45
-3 -3 2 59.73 2.72
-3 -3 1 30.75 3.01
3 3 -1 33.41 3.05
-3 -3 1 38.67 3.16
-3 -3 1 33.9 2.37
3 3 -1 27.58 2.77
3 3 -1 33.54 2.62
-3 -3 1 33.18 2.74
-3 -3 1 35.03 1.83
-3 -3 0 14.12 2.17
3 3 0 12.29 1.67
-3 -3 0 10.41 1.36
-3 -3 0 13.29 1.81
3 3 0 10.32 1.92
3 3 0 11.52 1.56
3 3 0 10.98 1.83
-3 -3 -1 13.99 1.78
-3 -3 -1 14.4 1.98
-3 -3 -1 13.05 1.47
3 3 1 12.45 1.57
3 3 1 11.25 1.83
3 3 1 12.42 1.52
3 3 1 14.11 1.97
-3 -3 -2 60.77 4.1
-3 -3 -2 67.17 3.49
3 3 2 68.03 3.61
3 3 2 64.25 4.26
-3 -3 -2 65.72 3.87
3 3 2 64.78 3.65
-3 -3 -3 719.65 19.06
3 3 3 710.46 17.37
-3 -3 -3 736.3 18.25
3 3 3 679.93 19.09
-3 -3 -3 695.48 17.11
3 3 3 673.87 17.71
3 3 4 4.68 1.1
-3 -3 -4 3.44 0.95
-3 -3 -4 4.88 1.06
3 3 4 4.26 0.82
3 3 4 1.95 0.79
-3 -3 -4 3.92 0.94
-3 -3 -5 54.27 3.85
-3 -3 -5 48.83 2.88
3 3 5 48.79 3.44
3 3 5 49.65 2.68
3 3 5 48.82 3.73
-3 -3 -5 53.02 3.31
-3 -3 -6 15.82 2.12
-3 -3 -6 19.97 1.99
-3 -3 -6 16.97 1.64
3 3 6 19.01 1.55
3 3 6 21.35 2.35
3 3 6 19.29 2.37
-3 -3 -7 30.97 2.82
-3 -3 -7 31.96 2.4
3 3 7 31.08 2.82
3 3 7 31.89 2.97
-3 -3 -7 28.5 1.63
-3 -3 -7 26.8 2.02
-3 -3 -8 117.9 5.76
3 3 8 109.77 5.76
-3 -3 -8 107.43 4.67
3 3 8 108.24 5.71
-3 -3 -8 106.05 4.32
-3 -3 -9 68.12 4.4
-3 -3 -9 69.43 3.57
-3 -3 -9 76.13 5.18
3 3 9 62.73 4.48
3 3 9 68.7 4.41
-3 -3 -9 56.72 3.01
3 3 10 6.57 1.15
-3 -3 -10 8.89 1.55
-3 -3 -10 6.26 1.6
-3 -3 -10 6.91 0.96
-3 -3 -10 5.95 1.03
3 3 10 7.69 1.63
3 3 10 8.49 1.51
-3 -3 -11 18.9 2.28
-3 -3 -11 16.23 2.37
-3 -3 -11 16.1 1.62
3 3 11 17.09 2.53
3 3 11 18.47 2.34
-3 -3 -11 15.36 2.29
-3 -3 -11 17.85 1.52
-3 -3 -12 127.2 6.43
-3 -3 -12 144.62 7.24
3 3 12 131.38 6.62
3 3 12 128.62 7.48
-3 -3 -12 147.28 7.26
-3 -3 -13 12.41 2.08
-3 -3 -13 13.09 2.01
-3 -3 -13 12.4 1.44
-3 -3 -13 15.4 2.32
3 3 13 15.51 2.72
3 3 13 12.18 1.89
-3 -3 -14 26.35 2.92
-3 -3 -14 24.99 2
3 3 14 20.85 3.32
-3 -3 -14 26.09 3.07
3 3 14 24.67 2.78
-3 -3 -14 21.92 2.86
-3 -3 -15 21.12 2.7
-3 -3 -15 14.57 2.3
-3 -3 -15 17.83 2.64
3 3 15 19.24 3.21
3 3 15 17.54 2.47
-3 -3 -16 1.84 0.93
-3 -3 -16 2.53 0.91
3 3 16 0.29 0.99
3 3 16 1.62 0.94
-3 -3 -17 8.67 1.77
-3 -3 -17 7.53 1.73
3 3 17 6.94 1.72
3 3 17 6.16 2.05
-3 -4 13 1.98 1.26
-3 -4 13 3.62 1.84
3 4 -13 1.23 1.94
-3 -4 12 15.48 3.12
-3 -4 12 17.46 3.32
3 4 -12 21.57 3.68
-3 -4 11 -0.05 0.92
-3 -4 11 3.36 1.35
3 4 -11 3.95 1.58
3 4 -11 5.16 1.71
-3 -4 10 19.29 3.32
-3 -4 10 17.15 3.01
3 4 -10 22 3.33
3 4 -10 19.87 3.07
-3 -4 9 1.51 1.12
3 4 -9 0.2 1.09
-3 -4 9 -0.77 0.89
3 4 -9 0.89 0.83
-3 -4 8 4.3 1.64
-3 -4 8 5.53 1.71
3 4 -8 6.97 1.81
3 4 -8 5.16 1.49
-3 -4 7 4.45 1.38
-3 -4 7 4.83 1.56
3 4 -7 4.86 1.69
3 4 -7 2.94 1.06
-3 -4 6 10.35 1.65
-3 -4 6 10.43 2.27
-3 -4 6 9.32 2.01
3 4 -6 13.1 2.43
3 4 -6 10.99 2.01
-3 -4 5 124.87 7.64
3 4 -5 146.03 7.9
-3 -4 5 140.36 7.9
3 4 -5 141.03 7.91
3 4 -5 138.2 7.31
-3 -4 5 135.05 6.17
-3 -4 4 121.09 7.29
-3 -4 4 135.1 4.9
3 4 -4 132.84 7.4
-3 -4 4 125.47 7.23
3 4 -4 139.36 7.56
-3 -4 4 122.91 5.91
3 4 -4 139.74 7.15
-3 -4 3 89.09 5.95
3 4 -3 86.37 5.82
-3 -4 3 94.36 6.15
-3 -4 3 92.79 3.94
3 4 -3 96.32 6.07
-3 -4 3 87.1 4.75
3 4 -3 91.03 5.53
-3 -4 2 -0.1 0.55
-3 -4 2 0.38 0.72
-3 -4 2 0.1 0.32
-3 -4 2 1.09 0.89
3 4 -2 1.05 0.9
3 4 -2 0.92 0.88
3 4 -2 1.76 0.97
-3 -4 1 112.03 6.44
-3 -4 1 115.07 4.54
3 4 -1 113.64 6.44
-3 -4 1 102.45 5.2
3 4 -1 108.12 6.2
3 4 -1 113.77 6
-3 -4 0 75.69 5.18
-3 -4 0 85.75 3.79
3 4 0 79.63 5.19
-3 -4 0 78.01 4.38
3 4 0 76.78 5.07
3 4 0 75.52 4.74
-3 -4 -1 228.98 9.2
3 4 1 202.1 8.67
-3 -4 -1 226.66 6.87
-3 -4 -1 225.26 7.93
3 4 1 199.44 8.62
3 4 1 206.85 8.26
-3 -4 -2 1.19 1.21
-3 -4 -2 3.49 0.76
3 4 2 2.35 0.71
-3 -4 -2 3.81 1.15
3 4 2 3.62 1.32
3 4 2 2.87 1.16
3 4 2 1.46 0.85
-3 -4 -3 7.09 1.58
-3 -4 -3 11.28 1.59
-3 -4 -3 7.66 1.12
3 4 3 6.34 1.01
3 4 3 9.08 1.71
3 4 3 6.72 1.44
-3 -4 -4 225.4 9.42
-3 -4 -4 213.66 7.14
3 4 4 234.04 6.89
-3 -4 -4 235.9 8.2
3 4 4 238.35 9.49
3 4 4 223.63 8.89
-3 -4 -5 2.33 0.74
-3 -4 -5 1.62 0.95
-3 -4 -5 1.98 0.68
3 4 5 1.69 0.78
3 4 5 1.55 0.9
3 4 5 1.89 0.89
-3 -4 -6 25.69 2.85
-3 -4 -6 22.03 1.88
-3 -4 -6 27.43 2.33
3 4 6 21.77 2.61
-3 -4 -6 25.12 1.96
3 4 6 19.17 2.51
-3 -4 -7 23.56 2.17
-3 -4 -7 19.62 2.48
3 4 7 26.42 2.88
3 4 7 21.99 2.62
-3 -4 -7 23.02 1.85
-3 -4 -7 25.21 1.89
-3 -4 -8 16.62 1.83
-3 -4 -8 21.58 2.64
-3 -4 -8 15.22 1.49
3 4 8 17.04 2.43
3 4 8 16.46 2.24
-3 -4 -9 10.36 1.88
-3 -4 -9 14.89 1.7
-3 -4 -9 12.74 1.35
3 4 9 16.26 2.37
3 4 9 14.06 2.13
-3 -4 -10 52.62 4.26
-3 -4 -10 53.75 3.22
-3 -4 -10 60.65 4.68
3 4 10 54.09 4.58
3 4 10 53 4.06
-3 -4 -10 56.45 2.9
-3 -4 -11 1462.15 34.2
-3 -4 -11 1341.63 30.63
-3 -4 -11 1418.55 34.53
3 4 11 1427.32 35.4
-3 -4 -11 1349.84 29.77
3 4 11 1332.85 33.14
-3 -4 -12 28.57 3.14
-3 -4 -12 28.7 2.29
-3 -4 -12 31.15 3.39
-3 -4 -12 31.82 2.11
3 4 12 36.02 3.95
3 4 12 27.77 3.02
-3 -4 -12 32.96 3.43
-3 -4 -13 4.22 1.32
-3 -4 -13 4.97 1.39
-3 -4 -13 8.1 1.23
-3 -4 -13 5.09 0.87
-3 -4 -13 5.36 1.53
3 4 13 3.38 1.45
3 4 13 6.66 1.54
-3 -4 -14 0.93 0.9
-3 -4 -14 1.88 1.04
-3 -4 -14 0.22 0.46
-3 -4 -14 1.45 0.94
3 4 14 -0.7 1.2
3 4 14 -0.37 0.6
-3 -4 -15 2.52 1.03
-3 -4 -15 3.65 1.28
-3 -4 -15 2.97 0.88
-3 -4 -15 5.44 1.58
3 4 15 1.56 1.08
3 4 15 3.12 0.86
-3 -4 -16 -0.7 0.89
-3 -4 -16 1.77 0.97
-3 -4 -16 0.79 0.92
3 4 16 -0.16 0.7
3 4 16 0.66 0.72
-3 -4 -17 6.32 1.58
-3 -4 -17 11.56 2.37
3 4 17 10.2 2.69
3 4 17 8.54 1.81
-3 -4 -17 7.7 2
-3 -5 11 -1.16 1.08
-3 -5 11 -0.55 0.95
3 5 -11 -0.91 0.92
-3 -5 10 0.18 0.98
-3 -5 10 1.16 1.47
3 5 -10 3.02 1.38
3 5 -10 0.63 0.66
-3 -5 9 3.15 1.58
-3 -5 9 3.46 1.69
3 5 -9 2.76 1.07
3 5 -9 3.93 1.65
-3 -5 8 19.28 3.3
-3 -5 8 17.08 3.13
3 5 -8 24.74 3.71
3 5 -8 20.85 3.34
-3 -5 7 131.02 8.59
3 5 -7 143.1 8.86
-3 -5 7 133.1 8.75
3 5 -7 140.29 8.58
-3 -5 6 0.51 1.01
-3 -5 6 1.37 1.14
3 5 -6 2.72 1.07
3 5 -6 0.97 1.04
-3 -5 5 2.29 1.29
-3 -5 5 2.16 1.2
3 5 -5 0.94 0.82
3 5 -5 1.57 1.04
3 5 -5 1.01 1.03
-3 -5 4 8.97 2.07
-3 -5 4 11.79 2.44
-3 -5 4 7.55 1.38
3 5 -4 11.07 2.21
3 5 -4 9.01 1.91
3 5 -4 7.74 2.02
-3 -5 3 23.5 3.37
-3 -5 3 20.99 3.11
-3 -5 3 20.13 2.13
-3 -5 3 19.42 1.62
3 5 -3 19.38 2.82
3 5 -3 22.24 3
3 5 -3 17.68 2.83
-3 -5 2 53.38 4.83
-3 -5 2 61.61 3
3 5 -2 51.75 4.7
-3 -5 2 51.4 4.9
-3 -5 2 59.02 3.48
-3 -5 2 54.95 3.68
3 5 -2 54.23 4.81
3 5 -2 53.49 4.73
-3 -5 1 29.15 2.04
-3 -5 1 31 3.59
-3 -5 1 29.95 2.69
3 5 -1 28.26 3.38
3 5 -1 25.31 3.17
3 5 -1 27.07 3.18
-3 -5 0 25.35 3.17
-3 -5 0 26.23 2.53
3 5 0 22.18 2.95
-3 -5 0 25.79 1.96
3 5 0 21.76 2.86
3 5 0 17.47 2.58
-3 -5 -1 456.53 15.65
-3 -5 -1 452.01 11.72
3 5 1 426.8 15.04
-3 -5 -1 461.71 13.29
3 5 1 446.64 15.33
3 5 1 429.72 14.96
-3 -5 -2 62.9 5.04
-3 -5 -2 62.63 3.88
-3 -5 -2 58.79 3.09
3 5 2 56.99 4.58
3 5 2 56.51 4.6
3 5 2 62.48 4.77
-3 -5 -3 124.58 7.23
-3 -5 -3 133.07 5.8
-3 -5 -3 121.52 4.81
3 5 3 122.24 7.01
3 5 3 112.04 6.61
3 5 3 123.35 6.92
-3 -5 -4 234.59 10.33
-3 -5 -4 239.6 8.35
-3 -5 -4 231.33 7.22
3 5 4 223.43 9.78
-3 -5 -4 228.03 8.04
3 5 4 206.71 9.4
-3 -5 -5 77.22 5.58
-3 -5 -5 73.61 4.17
-3 -5 -5 78.62 3.68
3 5 5 69.07 5.06
-3 -5 -5 83.2 4.24
3 5 5 73.24 5.19
-3 -5 -6 10.92 2.06
3 5 6 7.44 1.8
-3 -5 -6 10.15 1.45
-3 -5 -6 7.82 1.32
-3 -5 -6 10.98 1.39
3 5 6 8.48 1.8
3 5 6 11.26 2.07
-3 -5 -7 6.55 1.66
-3 -5 -7 6.2 1.01
3 5 7 7.93 1.72
-3 -5 -7 7.32 1.29
-3 -5 -7 7.55 1.2
3 5 7 5.84 1.45
-3 -5 -8 3.64 1.29
-3 -5 -8 4.43 1.09
3 5 8 3.19 1.07
-3 -5 -8 3.87 0.8
3 5 8 5.53 1.47
-3 -5 -9 51.89 4.51
-3 -5 -9 49.14 3.2
-3 -5 -9 46.09 2.75
3 5 9 55.68 4.85
3 5 9 51.56 4.34
-3 -5 -10 218.53 9.72
-3 -5 -10 199.9 7.16
-3 -5 -10 189.7 6.58
3 5 10 205.92 10.12
3 5 10 189.37 8.79
-3 -5 -11 94.34 6.27
-3 -5 -11 97.31 4.69
-3 -5 -11 96.8 4.19
-3 -5 -11 101.27 6.42
3 5 11 102.8 6.93
3 5 11 90.87 5.69
-3 -5 -12 198.54 9.27
-3 -5 -12 169.27 6.56
-3 -5 -12 176.09 6.06
-3 -5 -12 183.97 9.03
3 5 12 176.08 9.59
3 5 12 176.87 8.3
-3 -5 -13 1.87 0.61
-3 -5 -13 -0.71 0.73
-3 -5 -13 0.99 0.68
-3 -5 -13 1.23 0.62
-3 -5 -13 0.66 0.95
3 5 13 0.97 0.67
3 5 13 1.04 1.03
-3 -5 -14 165.25 8.75
-3 -5 -14 151.82 8.34
-3 -5 -14 164.78 6.47
-3 -5 -14 157.33 5.77
3 5 14 180.6 10.24
3 5 14 166.03 7.91
-3 -5 -14 183.55 8.58
-3 -5 -15 40.02 4.29
-3 -5 -15 40.83 2.98
-3 -5 -15 37.53 3.98
3 5 15 37.61 4.68
3 5 15 37.42 3.55
-3 -5 -15 35.9 3.65
-3 -5 -16 2.23 1.21
-3 -5 -16 2.76 0.9
-3 -5 -16 2.72 1.13
3 5 16 -0.46 1.06
-3 -6 10 7.21 2.15
-3 -6 10 9.48 2.69
3 6 -10 6.83 2.38
3 6 -10 7.09 2.1
-3 -6 9 9.56 2.54
-3 -6 9 6.11 2.16
3 6 -9 7.61 2.49
3 6 -9 9.26 2.8
-3 -6 8 0.05 1.38
-3 -6 8 -0.21 1.38
3 6 -8 -0.3 1.09
3 6 -8 0.65 0.67
-3 -6 7 1.56 1.24
-3 -6 7 0.35 1.04
3 6 -7 -0.34 1.19
3 6 -7 3.89 1.64
3 6 -7 5.75 2.27
-3 -6 6 0.2 0.84
-3 -6 6 -0.66 1.02
3 6 -6 -0.07 0.93
3 6 -6 0.83 0.96
3 6 -6 2.46 1.6
-3 -6 5 21.89 3.55
-3 -6 5 19.91 3.48
3 6 -5 23.05 3.57
3 6 -5 23.57 3.64
3 6 -5 19.57 3.33
-3 -6 4 114.32 7.96
-3 -6 4 121.67 8.73
3 6 -4 119.65 8.23
3 6 -4 114.34 7.95
3 6 -4 128.38 8.47
-3 -6 3 43.69 4.77
3 6 -3 48.39 4.96
3 6 -3 46.94 4.89
3 6 -3 54.81 5.33
-3 -6 2 20.7 1.63
-3 -6 2 20.37 3.13
-3 -6 2 15.83 1.92
3 6 -2 21.49 3.23
3 6 -2 21.41 3.24
3 6 -2 19.02 3.12
-3 -6 1 43.72 4.61
-3 -6 1 46.74 2.59
3 6 -1 42.59 4.47
-3 -6 1 48.32 3.7
-3 -6 1 45.15 3.27
3 6 -1 42.26 4.47
3 6 -1 42.12 4.53
-3 -6 0 12.78 2.66
-3 -6 0 18.05 2.01
-3 -6 0 14.56 1.43
3 6 0 18.42 2.88
-3 -6 0 15.87 2.18
3 6 0 16.83 2.74
3 6 0 18.93 3.05
-3 -6 -1 430.62 16.1
3 6 1 408.26 15.43
-3 -6 -1 447.77 12.71
3 6 1 419.9 15.5
-3 -6 -1 419.54 13.44
3 6 1 405.74 15.73
-3 -6 -1 422.82 11.18
-3 -6 -2 27.3 3.63
3 6 2 36.08 3.92
-3 -6 -2 25.56 2.39
-3 -6 -2 27.17 2.05
3 6 2 28.48 3.53
-3 -6 -2 31.64 2.99
3 6 2 29.05 3.64
-3 -6 -3 23.1 3.22
-3 -6 -3 20.39 2.15
-3 -6 -3 18.69 2.24
3 6 3 18.63 2.75
-3 -6 -3 16.16 1.62
3 6 3 15.61 2.63
3 6 3 16.69 2.69
-3 -6 -4 165.44 9.06
-3 -6 -4 156.82 5.63
-3 -6 -4 153.2 6.42
3 6 4 143.15 8.12
-3 -6 -4 158.55 7.02
3 6 4 141.45 8.25
-3 -6 -5 31.15 3.78
-3 -6 -5 27.42 2.12
-3 -6 -5 30.34 2.61
3 6 5 28.02 3.36
-3 -6 -5 32.59 2.92
3 6 5 29.79 3.59
-3 -6 -6 8.99 2.39
-3 -6 -6 4.53 1.12
-3 -6 -6 2.56 0.75
-3 -6 -6 6.26 1.38
3 6 6 5.57 1.85
3 6 6 6.56 1.97
-3 -6 -7 5.13 1.59
-3 -6 -7 4.27 0.84
-3 -6 -7 3.96 1
3 6 7 5.15 1.76
-3 -6 -7 6.74 1.36
3 6 7 4.06 1.3
3 6 7 5.56 1.64
-3 -6 -8 2.79 0.79
-3 -6 -8 1.46 1.13
-3 -6 -8 2.51 0.89
3 6 8 0.81 0.79
-3 -6 -8 2.19 0.82
3 6 8 1.62 1.23
-3 -6 -9 103.29 6.99
3 6 9 93.13 6.81
3 6 9 94.76 6.22
-3 -6 -10 26.85 3.47
-3 -6 -10 23.26 2.26
-3 -6 -10 21.51 1.93
3 6 10 24.7 3.47
3 6 10 24.04 3.04
-3 -6 -11 1.04 0.99
-3 -6 -11 0.08 0.47
-3 -6 -11 0.04 0.41
3 6 11 0.86 0.93
3 6 11 -0.16 0.72
-3 -6 -12 17.41 3.08
-3 -6 -12 11.54 1.74
-3 -6 -12 19.89 3.09
3 6 12 22.49 3.67
3 6 12 15.4 2.41
-3 -6 -13 27.93 3.68
-3 -6 -13 30.11 2.67
-3 -6 -13 33.4 3.75
-3 -6 -13 26.27 2.34
3 6 13 29.57 4.05
-3 -6 -14 4.61 1.62
-3 -6 -14 2.52 0.81
-3 -6 -14 3.44 1.04
-3 -6 -14 6.18 1.6
3 6 14 4.81 1.81
-3 -6 -15 12.2 2.45
-3 -6 -15 9.04 1.52
-3 -6 -15 6.36 1.13
-3 -6 -15 13.79 2.54
3 6 15 15.07 3.15
-3 -7 7 2.83 1.47
-3 -7 7 5.08 2.31
-3 -7 7 7.88 1.94
3 7 -7 6.86 2.33
3 7 -7 10.21 2.72
3 7 -7 5.47 2.19
-3 -7 6 1.33 1.56
-3 -7 6 -1.23 1.48
-3 -7 6 -0.55 0.79
3 7 -6 -0.48 1.21
3 7 -6 -3.24 1.58
3 7 -6 1.94 1.49
-3 -7 5 33.57 4.59
3 7 -5 51.39 5.67
-3 -7 5 51.08 6.08
-3 -7 5 39.73 3.97
3 7 -5 41.85 5.19
3 7 -5 42.19 5.25
-3 -7 4 35.5 4.64
3 7 -4 34.72 4.68
-3 -7 4 35.67 3.73
3 7 -4 32.99 4.55
3 7 -4 31.63 4.61
-3 -7 3 15.57 2.96
-3 -7 3 16.91 2.55
3 7 -3 16.3 3.17
3 7 -3 14.26 3.07
3 7 -3 15.64 3
-3 -7 2 3.25 1.6
-3 -7 2 5.84 1.51
3 7 -2 2.93 1.53
3 7 -2 7.26 2.44
3 7 -2 3.4 1.66
-3 -7 1 12 2.71
-3 -7 1 11.77 1.32
-3 -7 1 11.69 2.03
3 7 -1 10.66 2.35
3 7 -1 10.44 2.38
3 7 -1 12.61 2.81
-3 -7 0 2.16 1.55
-3 -7 0 2.68 0.77
3 7 0 2.75 1.47
-3 -7 0 3.08 1.14
3 7 0 2.79 1.54
3 7 0 0.92 0.75
-3 -7 0 2.22 0.96
-3 -7 -1 62.77 5.84
-3 -7 -1 55.91 3.03
3 7 1 54.02 5.34
-3 -7 -1 45.59 4.23
-3 -7 -1 60.82 3.68
3 7 1 55.45 5.26
-3 -7 -1 51.81 4.28
3 7 1 51.52 5.44
-3 -7 -2 1.4 1.21
-3 -7 -2 1.65 0.63
-3 -7 -2 3.42 0.9
3 7 2 4.73 1.63
-3 -7 -2 2.78 1.08
3 7 2 3.2 1.32
3 7 2 3.63 1.48
-3 -7 -3 48.75 5.19
-3 -7 -3 51.2 2.94
-3 -7 -3 53.6 3.48
3 7 3 47.14 4.88
3 7 3 45.52 4.71
-3 -7 -3 51.02 4.14
3 7 3 48.21 5.26
-3 -7 -4 31 4.06
-3 -7 -4 33.66 2.73
-3 -7 -4 31.02 2.29
3 7 4 32.33 3.92
-3 -7 -4 29.31 3.13
3 7 4 29.57 4.07
-3 -7 -5 6.04 1.8
-3 -7 -5 8.44 1.4
-3 -7 -5 6.54 1.09
-3 -7 -5 6.34 1.52
3 7 5 6.43 2
3 7 5 10.08 2.52
-3 -7 -6 38.33 4.51
-3 -7 -6 33.51 2.77
-3 -7 -6 31.87 2.43
3 7 6 30.81 3.81
-3 -7 -6 34.16 3.4
3 7 6 36.36 4.43
-3 -7 -7 27.77 3.86
-3 -7 -7 31.76 2.7
-3 -7 -7 29.19 2.31
3 7 7 28 3.97
3 7 7 25.93 3.47
-3 -7 -7 32.05 3.24
3 7 7 27.24 3.81
-3 -7 -8 6.43 2.06
-3 -7 -8 4.13 0.92
-3 -7 -8 2.64 0.79
3 7 8 4.57 1.88
-3 -7 -8 4.42 1.24
3 7 8 3.27 1.35
3 7 8 2.16 1.04
-3 -7 -9 0.59 1.15
-3 -7 -9 0.88 0.62
-3 -7 -9 0.92 0.68
3 7 9 0.73 0.81
-3 -7 -10 34.83 4.21
-3 -7 -10 33.87 2.87
3 7 10 36.24 4.63
-3 -7 -10 40.76 2.83
-3 -7 -11 3.53 1.45
-3 -7 -11 3.16 0.94
-3 -7 -11 4.88 1.14
3 7 11 3.59 1.56
-3 -7 -12 4.53 1.62
-3 -7 -12 5.28 1.28
-3 -7 -12 4.63 1.05
-3 -7 -12 3.93 1.28
3 7 12 7.07 2.05
-3 -7 -13 0.21 0.75
-3 -7 -13 -0.13 0.5
-3 -7 -13 -0.95 0.81
-3 -7 -13 1.35 0.71
3 7 13 0.51 1.19
-3 -7 -14 3.83 1.68
-3 -7 -14 0.77 0.56
-3 -7 -14 0.75 0.71
-3 -7 -14 -0.19 1
3 7 14 1.96 1.55
-3 -8 4 1.83 1.28
-3 -8 4 1.38 0.93
3 8 -4 3.78 2.02
3 8 -4 1.31 1.15
3 8 -4 4.81 2.15
-3 -8 3 -0.62 0.81
-3 -8 3 1.17 0.98
3 8 -3 1.72 1.28
3 8 -3 1.02 0.89
3 8 -3 2.56 1.84
-3 -8 2 0.84 1.16
-3 -8 2 1.59 0.99
3 8 -2 0.03 1.4
3 8 -2 0.51 1.22
3 8 -2 1.42 1.15
-3 -8 1 0.76 0.97
3 8 -1 3.65 1.85
-3 -8 1 2.37 1.08
3 8 -1 2.38 1.42
3 8 -1 1.16 1.3
-3 -8 0 6.99 1.1
3 8 0 5.13 2.16
-3 -8 0 5.31 1.53
3 8 0 5.46 1.96
3 8 0 2.12 1.14
-3 -8 -1 46.75 5.44
-3 -8 -1 45.4 2.86
3 8 1 44.62 5.11
-3 -8 -1 44.62 4.46
3 8 1 45.48 5.16
-3 -8 -1 44.09 4.32
3 8 1 42.34 5.38
-3 -8 -2 11.79 2.7
-3 -8 -2 18.98 1.85
-3 -8 -2 19.91 2.87
3 8 2 19.25 3.28
3 8 2 15.5 2.97
3 8 2 13.77 3.11
-3 -8 -2 13.62 2.54
-3 -8 -3 15.55 3.26
-3 -8 -3 19.79 2.07
-3 -8 -3 18.84 1.93
3 8 3 15.97 3.01
-3 -8 -3 17.37 2.72
3 8 3 17.19 3.03
3 8 3 15.05 3.15
-3 -8 -4 50.52 5.64
-3 -8 -4 55.93 3.59
-3 -8 -4 57.65 3.34
3 8 4 48.4 5.14
-3 -8 -4 48.08 4.49
3 8 4 54.04 6.02
-3 -8 -5 26.58 3.97
-3 -8 -5 25.9 2.45
-3 -8 -5 25.04 2.2
-3 -8 -5 26.35 3.3
3 8 5 25.75 3.64
3 8 5 20.59 3.6
-3 -8 -6 14.14 2.93
-3 -8 -6 17.96 1.93
-3 -8 -6 16.18 1.91
-3 -8 -6 20.52 2.89
3 8 6 15.03 3.1
-3 -8 -7 74.68 6.66
-3 -8 -7 72.03 4.25
-3 -8 -7 74.28 4.05
-3 -8 -7 74.44 5.58
3 8 7 67.91 6.59
-3 -8 -8 1.09 1.13
-3 -8 -8 0.73 0.7
-3 -8 -8 0.71 0.4
3 8 8 -0.5 0.88
-3 -8 -8 2.1 0.96
3 8 8 2.12 1.86
-3 -8 -9 0.24 0.75
-3 -8 -9 0.85 0.65
-3 -8 -9 -0.33 0.53
3 8 9 1.95 1.44
3 8 9 0.46 1.45
-3 -8 -10 2.38 1.1
-3 -8 -10 3.88 1.1
-3 -8 -10 3.49 1.05
-3 -8 -11 8.72 2.3
-3 -8 -11 12.1 1.91
-3 -8 -11 10.37 1.57
3 8 11 11.74 2.99
-3 -9 -2 7.6 2.4
-3 -9 -2 4.55 1.08
-3 -9 -2 9.28 2.27
3 9 2 5.8 2
-3 -9 -2 8.74 2.23
3 9 2 1.81 0.89
-3 -9 -3 8.99 1.39
-3 -9 -3 13.97 3.19
-3 -9 -3 13.7 2.64
3 9 3 12.24 3.3
-3 -9 -3 12.33 2.72
-3 -9 -4 6.45 2.35
-3 -9 -4 7.86 1.32
-3 -9 -4 9.57 2.22
3 9 4 7.75 2.8
-3 -9 -4 7.62 2.18
-3 -9 -5 3.24 1.61
-3 -9 -5 6.59 1.29
-3 -9 -5 7.06 1.29
-3 -9 -5 5.58 1.8
3 9 5 7.32 2.83
-3 -9 -5 5.14 2.09
-3 -9 -6 101.57 8.29
-3 -9 -6 100.46 5.14
-3 -9 -6 94.18 4.92
-3 -9 -6 107.24 7.36
3 9 6 96.45 8.51
-4 5 6 37.96 5.19
4 -5 -6 33.26 4.3
4 -5 -6 37.4 4.43
-4 5 5 2.3 1.29
4 -5 -5 4.52 1.75
4 -5 -5 3.66 1.42
-4 5 4 -0.03 0.99
4 -5 -4 1.69 1.39
4 -5 -4 1.11 0.97
4 -5 -3 34.56 4.45
-4 5 3 35.38 5.12
4 -5 -3 35.98 4.24
4 -5 -2 1.56 1.54
4 -5 -2 1.95 1.23
-4 5 1 8.62 2.47
4 -5 -1 7.08 1.7
4 -5 -1 6.46 1.74
4 -5 -1 6.49 2.11
-4 5 0 91.81 8.57
4 -5 0 81.93 7.15
4 -5 0 93.87 6.57
4 -5 0 86.5 6.57
-4 5 -1 88.52 8.45
4 -5 1 79.2 7.1
4 -5 1 84.42 6.37
4 -5 1 81.49 6.34
-4 5 -2 151.54 11.45
4 -5 2 157.21 10.23
4 -5 2 168.94 9.32
-4 5 -3 3.82 2.15
4 -5 3 1.25 1.06
4 -5 3 1.86 1.05
-4 5 -4 2.71 2.01
4 -5 4 1 0.85
4 -5 4 0.64 0.84
-4 4 9 62.66 6.37
4 -4 -9 71.49 6.2
-4 4 8 173.06 10.66
-4 4 8 151.71 6.15
4 -4 -8 162.73 9.49
-4 4 7 -0.5 1.21
-4 4 7 0.83 0.48
4 -4 -7 -0.47 0.79
-4 4 6 3.12 1.46
-4 4 6 5.15 1.09
4 -4 -6 3.45 1.35
4 -4 -6 5.1 1.59
-4 4 5 2.02 1.32
-4 4 5 3.67 1.02
4 -4 -5 4.32 1.56
4 -4 -5 2.67 0.98
-4 4 4 3.4 1.91
-4 4 4 1.11 0.54
4 -4 -4 2.62 1.28
4 -4 -4 2.2 1.27
4 -4 -4 1.14 1.14
-4 4 3 5.23 1.1
-4 4 3 6.28 2.02
4 -4 -3 6.95 1.79
4 -4 -3 7.98 2.02
4 -4 -3 7.27 1.82
-4 4 2 -1.68 1.62
-4 4 2 0.7 0.42
4 -4 -2 -0.49 0.54
4 -4 -2 -0.18 0.86
4 -4 -2 0.13 0.58
-4 4 1 10.76 2.76
-4 4 1 7.09 1.2
4 -4 -1 6.76 1.72
4 -4 -1 9.98 2.31
4 -4 -1 4.49 1.42
-4 4 0 10.29 2.75
-4 4 0 12.14 1.59
4 -4 0 9.6 2.11
4 -4 0 8.58 2.31
4 -4 0 10.54 2.04
-4 4 -1 103.76 8.56
4 -4 1 105.9 7.52
-4 4 -1 100.35 4.79
4 -4 1 89.61 6.43
4 -4 1 101.41 6.57
4 -4 2 5.63 1.68
-4 4 -2 5.27 1.7
-4 4 -2 5.21 1.05
4 -4 2 3.25 1.43
4 -4 2 2.08 1.06
-4 4 -3 11.53 3.12
-4 4 -3 11.87 1.61
4 -4 3 11.59 2.28
4 -4 3 14.19 2.89
4 -4 3 14.42 2.39
-4 4 -4 17.27 1.86
-4 4 -4 18.3 3.58
4 -4 4 19.32 3.3
4 -4 4 16.88 2.57
-4 4 -5 9.16 1.33
-4 4 -5 7.54 2.43
4 -4 5 10.56 2.58
4 -4 5 10.99 2.06
-4 4 -6 11.98 1.52
-4 4 -6 9.33 2.86
4 -4 6 9.33 2.4
-4 4 -7 38.38 5.42
4 -4 7 34.77 4.81
-4 4 -7 31.31 2.47
-4 4 -8 0.95 1.22
4 -4 8 5.65 2.19
4 -3 -11 3.66 1.54
-4 3 11 2.2 1.27
4 -3 -11 1.08 0.68
4 -3 -10 16.84 2.69
-4 3 10 14.47 2.8
4 -3 -10 22.24 3.38
-4 3 9 300.87 14.12
4 -3 -9 333.22 13.88
-4 3 8 132.84 8.86
-4 3 8 156.54 5.86
4 -3 -8 130.1 8.67
4 -3 -8 140.57 8.38
-4 3 7 5.86 2.15
-4 3 7 8.34 1.27
4 -3 -7 8.96 2.13
4 -3 -7 5.62 1.5
-4 3 6 27.2 3.77
-4 3 6 27.42 2.3
4 -3 -6 28.66 3.78
4 -3 -6 27.67 3.5
-4 3 5 53.24 5.38
-4 3 5 57.45 3.42
4 -3 -5 59.59 4.79
4 -3 -5 56.64 4.87
4 -3 -5 47.73 4.84
-4 3 4 1.59 1.15
-4 3 4 0.22 0.41
4 -3 -4 1.72 0.96
4 -3 -4 1.2 0.84
4 -3 -4 0.61 0.67
-4 3 3 11.06 2.54
-4 3 3 14.95 1.71
4 -3 -3 12.12 2.4
4 -3 -3 14.14 2.37
4 -3 -3 15.6 2.48
-4 3 2 260.94 13.01
4 -3 -2 276.46 12.22
4 -3 -2 269.16 11.55
-4 3 2 296.1 9.24
4 -3 -2 279.1 11.31
-4 3 1 2.05 1.18
-4 3 1 3.73 1
4 -3 -1 2.56 1.35
4 -3 -1 5.37 1.55
4 -3 -1 1.08 0.74
-4 3 0 200.52 11.28
4 -3 0 192.98 9.77
-4 3 0 207.79 7.33
4 -3 0 185.72 9.58
4 -3 0 206.48 9.23
-4 3 -1 47.05 5.23
4 -3 1 49.65 4.72
-4 3 -1 60.11 3.52
4 -3 1 51.85 4.8
4 -3 1 60.11 4.6
-4 3 -2 18.62 1.91
4 -3 2 17.59 2.72
4 -3 2 19.03 2.89
-4 3 -2 19.74 3.37
4 -3 2 17.07 2.37
-4 3 -3 28.61 2.36
4 -3 3 31.35 3.6
-4 3 -3 32.16 4.36
4 -3 3 25.72 3.49
4 -3 3 32.36 3.27
-4 3 -4 -0.2 0.51
-4 3 -4 0.47 0.88
4 -3 4 0.56 1.05
4 -3 4 0.98 0.97
4 -3 4 -0.14 0.63
-4 3 -5 165.02 10.72
4 -3 5 166.15 9.66
-4 3 -5 172.65 6.46
4 -3 5 191.99 9.46
4 -3 5 172.64 8.07
-4 3 -6 3.32 0.79
-4 3 -6 4.9 2.14
4 -3 6 3.67 1.61
-4 3 -7 10.66 1.39
-4 3 -7 12.77 3
4 -3 7 12.27 2.71
-4 3 -7 9.71 2.26
4 -3 8 32.94 4.36
-4 3 -8 23.91 4.2
-4 3 -8 26.63 3.69
-4 3 -9 3.39 1.89
4 -3 9 4.61 1.93
-4 3 -9 4.44 1.59
-4 3 -10 8.28 1.59
4 -3 10 7.44 2.31
-4 3 -10 11.33 2.75
-4 3 -11 0.33 0.51
4 -3 11 0.03 1.06
-4 3 -11 0.96 0.78
4 -2 -12 74.67 6.14
-4 2 12 82.28 6.62
4 -2 -12 84.31 6.58
4 -2 -11 0.1 0.72
-4 2 11 0.09 0.84
4 -2 -11 0.44 0.76
4 -2 -11 2.04 1.27
4 -2 -10 2.25 1.08
-4 2 10 1.65 1.23
4 -2 -10 4.76 1.89
4 -2 -10 1.14 1.17
4 -2 -9 16.12 2.43
-4 2 9 16.71 2.87
4 -2 -9 15.23 2.9
4 -2 -9 14.61 2.51
-4 2 8 2.91 1.3
-4 2 8 3.74 0.93
4 -2 -8 4.42 1.65
4 -2 -8 2.01 0.97
4 -2 -7 43.46 3.73
-4 2 7 42.23 4.46
-4 2 7 37.77 2.7
4 -2 -7 35.15 4.29
4 -2 -7 34.34 3.65
4 -2 -6 154.44 7.05
-4 2 6 134.93 8.18
-4 2 6 141.65 5.85
4 -2 -6 131.77 8.44
4 -2 -6 140.05 7.64
-4 2 5 56.34 5.03
-4 2 5 60.53 3.52
4 -2 -5 51.25 4.06
4 -2 -5 47.61 4.87
4 -2 -5 48.13 4.22
-4 2 4 8.57 1.43
-4 2 4 7.59 1.9
4 -2 -4 7.74 1.9
4 -2 -4 7.26 1.55
4 -2 -4 8.72 1.8
-4 2 3 213.53 10.59
4 -2 -3 226.31 9.39
-4 2 3 236.04 8.01
4 -2 -3 212.06 10.57
4 -2 -3 220.32 9.45
-4 2 2 866.53 26.44
4 -2 -2 918.7 24.61
-4 2 2 957.01 22.3
4 -2 -2 882.88 26.23
4 -2 -2 889.01 24.27
-4 2 1 690.66 22.45
4 -2 -1 712.63 20.71
-4 2 1 752.43 18.47
4 -2 -1 694.93 21.93
4 -2 -1 722.54 20.25
-4 2 0 66.93 5.61
4 -2 0 65.71 5.26
4 -2 0 62.34 4.77
-4 2 0 71.76 3.91
4 -2 0 60.07 4.38
4 -2 1 26.31 3.24
4 -2 1 34.14 3.51
-4 2 -1 35 2.69
4 -2 1 37.16 3.3
-4 2 -1 31.94 3.83
-4 2 -2 5.04 1.52
-4 2 -2 3.05 0.92
4 -2 2 2.25 0.94
4 -2 2 2.88 1.2
4 -2 2 5.26 1.26
-4 2 -3 2.37 0.89
4 -2 3 1.43 0.96
-4 2 -3 2.65 1.69
4 -2 3 0.75 1.27
4 -2 3 1.65 0.6
-4 2 -4 12.61 1.62
-4 2 -4 15.39 2.82
4 -2 4 16.23 2.54
4 -2 4 15.32 1.61
4 -2 4 12.75 2.44
4 -2 4 15.16 2.05
-4 2 -5 18.3 1.91
-4 2 -5 12.39 2.57
4 -2 5 14.33 2.42
4 -2 5 12.06 1.8
4 -2 5 13.43 2.53
-4 2 -5 14.23 1.55
4 -2 5 14.08 1.96
-4 2 -5 11.57 2.03
-4 2 -6 65.21 6.21
4 -2 6 63.64 5.56
-4 2 -6 73.5 3.84
4 -2 6 73.93 5.48
4 -2 6 75.15 4.19
-4 2 -6 69.45 3.74
-4 2 -6 66.6 5.08
-4 2 -7 60.28 5.83
4 -2 7 58.82 5.42
-4 2 -7 69 3.64
4 -2 7 63.62 4.03
-4 2 -7 64.67 3.73
-4 2 -7 64.52 5.13
4 -2 8 67.49 5.88
-4 2 -8 62.9 3.45
-4 2 -8 63.32 3.9
-4 2 -8 66.75 5.42
4 -2 9 164.06 9.71
-4 2 -9 163.26 6.81
-4 2 -9 146.8 8.73
-4 2 -10 4.61 1.24
4 -2 10 5.27 1.75
-4 2 -10 3.67 1.59
4 -2 11 43.27 5.06
-4 2 -11 41.73 3.49
-4 2 -11 33.4 4.26
-4 2 -12 5.36 1.42
4 -2 12 5.67 2.05
-4 2 -12 5.13 1.83
4 -2 13 57.51 6.09
-4 2 -13 54.63 4.38
-4 2 -13 53.24 5.73
4 -1 -13 -0.76 0.95
-4 1 13 -0.39 0.92
4 -1 -13 -0.38 0.86
4 -1 -12 4.07 1.59
-4 1 12 4.07 1.63
4 -1 -12 4.06 1.55
4 -1 -11 19.78 3.08
-4 1 11 22.88 3.28
4 -1 -11 20.25 3.57
4 -1 -11 21.78 3.19
4 -1 -10 94.06 6.38
-4 1 10 96.91 6.7
4 -1 -10 104.51 7.94
4 -1 -10 107.19 6.92
4 -1 -9 4.51 1.37
-4 1 9 4.76 1.66
4 -1 -9 7.9 2.11
4 -1 -9 6.71 1.69
4 -1 -8 32.76 3.38
-4 1 8 32.95 3.69
4 -1 -8 33.38 4.24
4 -1 -8 29.09 3.36
4 -1 -7 23.5 2.77
-4 1 7 20.92 2.94
-4 1 7 23.96 2.18
4 -1 -7 27.86 3.73
4 -1 -7 25.25 3
4 -1 -6 2.57 1.02
-4 1 6 1.63 1.15
-4 1 6 0.85 0.58
4 -1 -6 0.75 0.87
4 -1 -6 0.56 0.62
4 -1 -5 57.07 3.91
-4 1 5 53.69 4.58
-4 1 5 60.28 3.61
4 -1 -5 56.79 5.15
4 -1 -5 57.25 4.35
4 -1 -4 0.6 0.49
-4 1 4 0.65 1.1
-4 1 4 1.03 0.44
4 -1 -4 0.35 0.74
4 -1 -4 0.34 0.59
4 -1 -4 0.41 0.6
4 -1 -3 264.93 8.86
-4 1 3 258.2 10.85
4 -1 -3 265.35 9.45
-4 1 3 276.54 9.07
4 -1 -3 259.8 11.73
4 -1 -3 250.93 9.84
4 -1 -2 50.69 3.09
-4 1 2 51.39 4.41
4 -1 -2 52.05 3.75
-4 1 2 58.7 3.63
4 -1 -2 54.61 4.84
4 -1 -2 49.43 3.8
-4 1 1 108.72 6.62
4 -1 -1 117.54 5.93
-4 1 1 110.91 5.25
4 -1 -1 110.45 7.02
4 -1 -1 110.08 5.76
-4 1 0 30.1 3.39
4 -1 0 33.89 3.16
-4 1 0 31.67 2.66
4 -1 0 33.27 3.63
4 -1 0 32.48 2.87
4 -1 1 21.1 2.5
-4 1 -1 21.47 2.17
4 -1 1 23.75 3.01
4 -1 1 26.92 1.7
4 -1 1 24.71 2.46
-4 1 -1 20.5 2.86
-4 1 -2 291.89 12.43
4 -1 2 292.92 11.26
-4 1 -2 314.57 10.03
4 -1 2 306.44 12.16
4 -1 2 323.93 8.65
4 -1 2 289.76 10.1
-4 1 -2 329.12 8.96
-4 1 -3 162.93 8.9
4 -1 3 147.56 7.76
-4 1 -3 163.79 6.68
4 -1 3 154.42 6.78
-4 1 -3 166.71 6.08
4 -1 3 165.49 8.42
-4 1 -4 3.62 0.75
-4 1 -4 2.51 0.76
-4 1 -4 2.29 1.4
4 -1 4 2.26 1.16
4 -1 4 1.7 1.12
4 -1 4 1.96 0.77
4 -1 4 1.09 0.62
-4 1 -4 2.39 0.79
-4 1 -5 0.99 0.55
-4 1 -5 0.71 0.47
-4 1 -5 1.16 0.95
4 -1 5 1.2 0.86
4 -1 5 0.73 1
4 -1 5 0.08 0.38
4 -1 5 0.8 0.52
-4 1 -5 1.35 0.75
-4 1 -6 113.37 7.35
4 -1 6 101.8 6.59
-4 1 -6 110.75 5
4 -1 6 110.95 6.47
-4 1 -6 112.59 5.93
4 -1 6 101.59 4.94
4 -1 6 107.59 5.03
-4 1 -6 103.6 4.84
-4 1 -6 106.85 5.88
4 -1 7 33.86 3.85
-4 1 -7 37.36 2.73
4 -1 7 39.71 3.78
4 -1 7 39.06 2.95
-4 1 -7 38.41 2.9
-4 1 -7 33.33 3.32
-4 1 -8 -0.57 0.47
-4 1 -8 1.54 0.77
-4 1 -8 0.79 0.55
4 -1 8 0.54 0.79
4 -1 8 0.69 0.47
4 -1 9 94.22 6.94
4 -1 9 111.01 5.56
-4 1 -9 105.28 5.33
-4 1 -9 87.48 6.03
-4 1 -10 14.07 2.38
4 -1 10 14.52 2.74
4 -1 10 19.15 2.3
-4 1 -10 16.1 2.03
-4 1 -11 1.16 0.96
-4 1 -11 0.91 0.8
4 -1 11 3.17 1.45
4 -1 11 0.4 0.67
-4 1 -12 2.6 1.2
-4 1 -12 2.05 0.95
4 -1 12 3.65 1.64
4 -1 12 2.12 0.96
4 -1 13 53.39 4.54
-4 1 -13 47.28 3.92
-4 1 -14 1.77 1.3
-4 1 -14 3.18 1.2
4 0 -13 4.67 1.53
-4 0 13 3.61 1.32
4 0 -13 5.49 2.16
4 0 -12 42.05 4.48
-4 0 12 47.39 4.6
4 0 -12 44.49 5.3
-4 0 11 24.18 3.16
4 0 -11 20.04 2.98
4 0 -11 15.5 3.06
4 0 -10 8.72 1.84
-4 0 10 10.61 2.02
4 0 -10 10.36 2.53
4 0 -9 4.65 1.38
-4 0 9 4.66 1.44
4 0 -9 3 1.47
4 0 -8 76.53 5.32
-4 0 8 93.53 5.84
4 0 -8 82.79 6.69
4 0 -8 92.8 5.85
4 0 -7 24.26 2.79
-4 0 7 18.96 2.53
-4 0 7 24.86 2.25
4 0 -7 22.75 3.31
4 0 -7 25.98 2.95
4 0 -6 72.12 4.78
-4 0 6 74.22 5.03
-4 0 6 82.75 4.32
4 0 -6 73.75 4.93
4 0 -6 77.66 6.11
4 0 -5 2.52 0.9
-4 0 5 4.39 1.38
-4 0 5 4.77 1.03
4 0 -5 6.09 1.72
4 0 -5 6.5 1.5
4 0 -4 31.84 2.82
-4 0 4 34.07 3.19
-4 0 4 29.03 2.58
4 0 -4 35.21 3.89
4 0 -4 32.69 3.05
-4 0 3 41.96 3.62
4 0 -3 45.95 2.92
-4 0 3 45.73 3.25
4 0 -3 43.11 4.25
4 0 -3 50.74 3.71
-4 0 2 95.87 5.48
4 0 -2 87.25 4.4
-4 0 2 92.15 4.81
4 0 -2 85.69 5.97
4 0 -2 88.94 4.93
4 0 -2 94.81 4.01
-4 0 1 2.71 0.83
-4 0 1 2.23 1.02
-4 0 1 2.27 0.67
4 0 -1 1.39 0.89
4 0 -1 2.64 0.8
4 0 -1 3.44 1.04
4 0 -1 1.69 0.54
-4 0 0 7.17 1.22
-4 0 0 7.86 1.7
-4 0 0 0.21 0.5
4 0 0 10.74 2.33
4 0 0 3.61 1.14
4 0 0 1.67 0.86
4 0 0 2.45 0.65
-4 0 -1 9.6 1.19
-4 0 -1 6.28 1.42
-4 0 -1 10.73 1.53
4 0 1 10.65 2.02
4 0 1 7.54 1.33
4 0 1 9.87 1.48
4 0 1 7.06 1.09
-4 0 -2 0.16 0.67
4 0 2 -0.07 0.75
4 0 2 0.61 0.6
4 0 2 0.53 0.48
4 0 2 0.08 0.33
-4 0 -2 -0.46 0.49
-4 0 -3 5.39 1.46
4 0 3 6.83 1.56
-4 0 -3 4.99 1.06
4 0 3 5.82 1.29
4 0 3 6.92 1.19
4 0 3 6.37 1.04
-4 0 -3 6.34 0.95
-4 0 -4 21.73 2.89
4 0 4 20.92 2.52
-4 0 -4 19.7 2.11
-4 0 -4 21.04 2.38
-4 0 -4 23.41 1.96
4 0 4 22.15 1.99
4 0 4 21.1 1.96
-4 0 -4 24.34 2.09
4 0 4 21.27 2.62
-4 0 -4 21.61 2.26
-4 0 -5 48.29 4.51
4 0 5 52.7 4.23
-4 0 -5 56.71 3.51
-4 0 -5 57.57 3.89
4 0 5 52.94 4.24
-4 0 -5 55.92 3.14
4 0 5 55.9 3.26
4 0 5 54.05 3.13
-4 0 -5 48.7 3.29
-4 0 -5 49.57 3.33
-4 0 -5 54.39 3.43
-4 0 -6 7.2 1.38
-4 0 -6 9.27 1.41
-4 0 -6 7.76 1.24
-4 0 -6 6.84 1.19
4 0 6 9.43 1.76
4 0 6 7.83 1.68
-4 0 -6 10.31 1.39
4 0 6 7.98 1.14
4 0 6 10.2 1.39
-4 0 -6 7.53 1.41
4 0 7 103.85 6.56
-4 0 -7 117.29 5.28
4 0 7 115.86 6.37
-4 0 -7 118.49 5.14
-4 0 -7 120.05 5.72
4 0 7 117.43 5.3
-4 0 -7 115.72 5.55
-4 0 -7 110.63 5.84
-4 0 -8 0.28 0.68
-4 0 -8 0.59 0.57
-4 0 -8 0.26 0.37
-4 0 -8 -0.4 0.4
-4 0 -8 0.18 0.44
4 0 8 0.59 0.94
4 0 8 -0.64 0.74
4 0 8 -0.04 0.53
4 0 8 0.06 0.47
4 0 9 57.14 5.07
-4 0 -9 64.96 3.64
-4 0 -9 62.6 3.83
4 0 9 62.6 4.29
4 0 9 66.56 4.18
-4 0 -9 68.63 4.32
-4 0 -9 56.07 4.43
-4 0 -10 0.95 0.97
-4 0 -10 2.33 1
4 0 10 1.06 0.66
4 0 10 1.02 0.6
4 0 10 1.12 0.68
-4 0 -11 5.41 1.62
-4 0 -11 8.94 1.73
4 0 11 9.71 1.89
4 0 11 11.36 1.87
-4 0 -12 19.16 2.96
4 0 12 16.83 2.57
-4 0 -12 22.28 2.64
4 0 13 29.83 3.61
4 0 13 33.42 3.54
-4 0 -13 29.61 3.09
-4 0 -13 25.52 3.56
-4 0 -14 11.22 2.47
-4 0 -14 14.13 2.15
4 0 14 9.66 2.17
4 0 14 13.5 2.35
-4 0 -15 6.35 2.06
-4 0 -15 7.26 1.68
4 0 15 5.31 1.69
4 0 15 10.2 2.08
-4 -1 13 1.37 0.97
4 1 -13 2.83 1.57
-4 -1 12 7.04 1.69
4 1 -12 6.83 1.93
-4 -1 11 24.34 3.01
4 1 -11 22.58 3.65
-4 -1 10 4.79 1.37
4 1 -10 1.7 1.7
-4 -1 9 20.04 2.55
4 1 -9 17.06 3.04
-4 -1 8 17.23 2.26
4 1 -8 18.13 3.06
-4 -1 7 50.14 3.88
-4 -1 7 59.33 3.64
4 1 -7 61.34 4.38
4 1 -7 59.36 5.35
-4 -1 6 7.41 1.41
4 1 -6 8.26 2.12
4 1 -6 8.02 1.53
-4 -1 5 50.57 3.7
4 1 -5 47.22 4.65
4 1 -5 54.95 3.93
4 1 -5 58.59 3.91
-4 -1 4 26.06 2.49
4 1 -4 23.71 2.51
4 1 -4 18.61 2.76
4 1 -4 24.53 2.41
-4 -1 3 149.4 6.3
-4 -1 3 140.77 6.68
4 1 -3 158.3 8.16
4 1 -3 139.04 6.43
4 1 -3 146.4 6.63
4 1 -3 138.28 6.21
-4 -1 2 109.42 5.24
-4 -1 2 109.73 5.63
4 1 -2 104.02 4.32
4 1 -2 120.54 5.73
4 1 -2 117.33 6.8
4 1 -2 111.4 5.51
4 1 -2 108.99 5.26
-4 -1 1 45.89 3.14
-4 -1 1 39.82 3.17
4 1 -1 43.72 2.73
4 1 -1 45.44 4.09
4 1 -1 39.79 3.1
4 1 -1 45.49 3.19
-4 -1 0 18.91 2
-4 -1 0 15.75 1.86
4 1 0 15.57 1.73
-4 -1 0 16.22 2.08
4 1 0 15.22 2.38
4 1 0 16.03 1.93
4 1 0 12.57 1.61
-4 -1 -1 4.42 0.95
-4 -1 -1 4.03 1.03
-4 -1 -1 6.24 1.44
4 1 1 3.87 1.26
4 1 1 5.28 1.07
4 1 1 4.32 0.97
4 1 1 5.4 1.13
-4 -1 -2 5.98 1.17
-4 -1 -2 8.52 1.27
-4 -1 -2 6.71 1.25
4 1 2 5.6 1.36
4 1 2 6.35 1.29
-4 -1 -2 6.51 1.32
4 1 2 6.78 1.15
4 1 2 5.64 1.16
-4 -1 -3 250.3 7.78
-4 -1 -3 220.09 8.58
4 1 3 229.16 8.66
-4 -1 -3 239.79 8.78
4 1 3 231.13 9.45
4 1 3 234.7 7.69
4 1 3 229.13 8.22
-4 -1 -3 217.96 8.3
-4 -1 -4 3.7 0.8
-4 -1 -4 3.11 1
-4 -1 -4 2.53 0.81
4 1 4 4.33 1.31
4 1 4 3.17 1.02
4 1 4 5.12 0.75
-4 -1 -4 3.8 0.95
4 1 4 4.06 0.87
4 1 4 1.84 0.75
4 1 5 137.67 6.84
-4 -1 -5 141.26 6.67
-4 -1 -5 136.85 6.21
4 1 5 139.03 6.8
4 1 5 145.17 4.99
4 1 5 130.78 5.9
4 1 5 137.1 5.24
-4 -1 -5 133.18 5.93
4 1 6 20.4 2.7
-4 -1 -6 21.46 2.28
4 1 6 21.79 2.46
-4 -1 -6 20.22 2.16
4 1 6 20.39 1.85
4 1 6 21.48 2.19
4 1 6 18.69 1.67
-4 -1 -6 19.02 2.03
-4 -1 -7 105.13 5.18
4 1 7 110.9 5.85
-4 -1 -7 106.65 5.29
4 1 7 105.43 4.84
-4 -1 -7 118.49 5.28
4 1 7 103 5.19
-4 -1 -8 85.05 4.54
4 1 8 85.9 5.13
-4 -1 -8 79.35 4.62
4 1 8 84.74 4.55
-4 -1 -8 88.42 4.38
4 1 8 80.38 4.6
-4 -1 -8 84.61 4.99
-4 -1 -9 149.05 6.3
-4 -1 -9 168.28 6.62
-4 -1 -9 168.48 7.19
4 1 9 165.65 7.14
4 1 9 178.89 7.29
-4 -1 -9 168.66 7.5
-4 -1 -10 1.02 0.99
-4 -1 -10 2.13 0.7
4 1 10 2.77 1.07
4 1 10 3.27 1.06
-4 -1 -11 4.7 1.41
-4 -1 -11 6.2 1.36
4 1 11 8.29 1.72
4 1 11 6.22 1.39
-4 -1 -12 84.67 5.25
4 1 12 85.1 5.75
4 1 12 91.21 5.44
-4 -1 -12 77.69 5.2
-4 -1 -13 5.92 1.64
4 1 13 6.63 1.72
4 1 13 4.81 1.37
-4 -1 -14 1.28 1.19
4 1 14 1.13 0.92
4 1 14 1.27 0.98
-4 -1 -15 -1.01 0.92
4 1 15 0.45 0.81
4 1 15 -0.65 0.6
-4 -1 -16 1.98 0.96
4 1 16 0.38 0.66
4 1 16 1.56 1.03
-4 -2 13 9.76 2.08
-4 -2 12 37.02 3.87
-4 -2 11 4.72 1.34
4 2 -11 8.84 2.13
-4 -2 10 3.15 1.16
4 2 -10 5.19 1.58
-4 -2 9 35.98 3.29
4 2 -9 36.47 3.85
-4 -2 9 26.73 2.93
4 2 -9 29.11 3.48
-4 -2 8 0.55 0.69
-4 -2 8 0.26 0.54
4 2 -8 0.78 0.86
4 2 -8 1.35 0.81
-4 -2 7 67.94 4.25
-4 -2 7 68.04 4.22
4 2 -7 73.39 5.2
-4 -2 7 60.42 4.12
4 2 -7 71.8 5.01
-4 -2 6 507.94 14.12
-4 -2 6 475.84 16.13
-4 -2 6 469.08 14.19
4 2 -6 530.02 16.24
4 2 -6 503.78 17.39
-4 -2 6 457.57 14.04
4 2 -6 513.15 15.83
-4 -2 5 41.64 2.95
-4 -2 5 36.53 3.63
-4 -2 5 34.9 2.99
4 2 -5 38.29 3.57
4 2 -5 39.19 4.04
-4 -2 5 40.16 3.04
4 2 -5 42 3.61
-4 -2 4 8.39 1.25
-4 -2 4 6.18 1.52
-4 -2 4 7.84 1.38
4 2 -4 12.83 2.26
-4 -2 4 9.26 1.44
4 2 -4 8.75 1.62
4 2 -4 9.97 1.79
-4 -2 3 11.54 1.41
-4 -2 3 8.97 1.55
-4 -2 3 11.08 1.84
-4 -2 3 12.04 1.51
4 2 -3 9.44 1.82
4 2 -3 9.5 1.66
4 2 -3 10.57 1.84
-4 -2 2 8.2 1.14
-4 -2 2 11.21 1.9
-4 -2 2 7.75 1.43
-4 -2 2 9.63 1.33
4 2 -2 7.9 1.7
4 2 -2 8.78 1.67
4 2 -2 10.61 1.71
-4 -2 1 0.22 0.63
-4 -2 1 0.25 0.41
-4 -2 1 1.02 0.86
4 2 -1 1.17 0.84
4 2 -1 1.1 0.87
4 2 -1 0.06 0.51
-4 -2 0 22.98 2.56
-4 -2 0 25.78 1.86
-4 -2 0 21.68 2.44
-4 -2 0 24.49 2.52
4 2 0 22.11 2.68
4 2 0 22.4 2.51
-4 -2 -1 646.25 15.29
-4 -2 -1 657.29 17.62
-4 -2 -1 632.85 17.38
4 2 1 658.99 18.67
4 2 1 653.78 18.13
-4 -2 -1 611.88 17.58
-4 -2 -2 13.27 1.33
-4 -2 -2 14.44 1.86
-4 -2 -2 12.92 1.86
4 2 2 9.66 1.8
4 2 2 11.48 1.13
-4 -2 -2 13.02 1.84
4 2 2 10.56 1.75
-4 -2 -3 245.73 8.82
-4 -2 -3 250.75 7.67
-4 -2 -3 258.21 9.01
4 2 3 264.81 9.85
4 2 3 249.86 7.12
4 2 3 248.05 9.27
-4 -2 -3 241.03 8.94
-4 -2 -4 136.13 5.96
-4 -2 -4 115.63 4.94
4 2 4 132.22 6.39
-4 -2 -4 133.74 5.96
4 2 4 128.47 4.66
4 2 4 133.85 6.37
-4 -2 -4 140.57 6.19
-4 -2 -5 154.97 6.39
-4 -2 -5 133.95 5.59
-4 -2 -5 140.43 6.18
4 2 5 139.83 6.54
4 2 5 142.63 5.26
4 2 5 144.58 6.67
-4 -2 -5 148.11 6.39
-4 -2 -6 64.74 3.8
-4 -2 -6 60.62 3.79
4 2 6 55.91 3.85
4 2 6 61.71 3.38
-4 -2 -6 63.57 3.92
4 2 6 57.61 4.01
-4 -2 -7 66 3.8
-4 -2 -7 60.15 3.76
4 2 7 67.57 4.13
4 2 7 65.09 3.74
-4 -2 -7 67.3 4.04
4 2 7 62.98 4.28
-4 -2 -8 3.1 1.03
-4 -2 -8 3.24 0.88
-4 -2 -8 3.35 1.01
-4 -2 -8 2.15 0.94
4 2 8 1.78 0.74
4 2 8 0.72 0.57
4 2 8 3.16 1.05
-4 -2 -9 147.37 5.92
-4 -2 -9 134.6 5.75
-4 -2 -9 141.57 5.88
-4 -2 -9 132.12 6.8
4 2 9 141.97 6.54
4 2 9 131.15 6.55
-4 -2 -10 0.03 0.73
-4 -2 -10 0.23 0.56
-4 -2 -10 1.05 1.05
4 2 10 0.99 0.68
-4 -2 -10 0.88 0.43
4 2 10 0.3 0.47
-4 -2 -11 143.28 7.21
4 2 11 142.89 7.29
4 2 11 153.43 7.25
-4 -2 -11 137.49 7.3
-4 -2 -12 15.03 2.37
-4 -2 -12 11.92 2.08
4 2 12 13.09 2.26
4 2 12 11.59 1.87
-4 -2 -13 36.21 3.7
4 2 13 39.47 4.11
4 2 13 48.21 3.99
-4 -2 -13 45.8 4.12
-4 -2 -14 14.58 2.5
-4 -2 -14 13.61 2.27
4 2 14 19.39 3.06
4 2 14 23.13 2.88
-4 -2 -15 3.41 1.35
4 2 15 1.23 1.22
4 2 15 0.3 0.8
-4 -2 -16 5.07 1.54
4 2 16 1.55 1.2
4 2 16 2.58 1.17
-4 -3 12 17.56 2.75
-4 -3 12 18.82 3.33
-4 -3 12 16.61 2.88
4 3 -12 22.32 3.58
-4 -3 11 32.05 4.34
4 3 -11 37.49 4.48
-4 -3 11 34.58 3.95
-4 -3 11 39.63 3.91
-4 -3 10 38.46 4.45
4 3 -10 45.09 4.78
-4 -3 10 37.21 3.95
4 3 -10 39.88 4.38
-4 -3 10 40.78 3.79
-4 -3 9 0.39 0.54
-4 -3 9 -0.16 1.03
-4 -3 9 -0.78 0.7
4 3 -9 1.5 1.06
4 3 -9 0.11 0.6
-4 -3 8 23.51 3.45
4 3 -8 31.95 3.76
-4 -3 8 27.38 3.14
4 3 -8 29.24 3.57
-4 -3 8 33.52 3.02
-4 -3 7 434.53 16.09
-4 -3 7 417.29 14.45
4 3 -7 473.37 16.28
4 3 -7 463.82 15.86
-4 -3 7 424.74 13.11
-4 -3 6 505.56 13.75
-4 -3 6 474.63 16.9
4 3 -6 505.31 16.74
-4 -3 6 474.99 13.67
-4 -3 6 462.5 15.23
4 3 -6 452.11 15.99
-4 -3 5 127.94 5.37
-4 -3 5 130.1 7.57
-4 -3 5 126.14 5.68
4 3 -5 124.7 7.13
-4 -3 5 117.13 6.32
4 3 -5 126.95 7.11
-4 -3 4 129.51 5.06
-4 -3 4 130.35 7.42
-4 -3 4 117.15 5.56
4 3 -4 123.39 6.98
-4 -3 4 134.08 6.59
4 3 -4 126.9 6.91
-4 -3 3 125.84 4.67
-4 -3 3 105.72 5.97
-4 -3 3 119.06 6.97
-4 -3 3 117.01 5.48
4 3 -3 116.51 6.63
4 3 -3 122.25 6.77
-4 -3 3 126.45 6.23
4 3 -3 116.9 6.53
-4 -3 2 94.95 3.74
-4 -3 2 104.66 6.24
-4 -3 2 96.1 4.9
4 3 -2 95.76 5.88
4 3 -2 100.82 5.93
4 3 -2 96.68 5.8
-4 -3 2 100.49 5.41
4 3 -2 95.75 4.5
-4 -3 2 91.55 5.3
-4 -3 1 11.56 1.05
-4 -3 1 10.65 2.01
-4 -3 1 11.67 1.67
4 3 -1 9.46 1.74
4 3 -1 9.31 1.87
-4 -3 1 10.09 1.67
4 3 -1 11.46 1.97
4 3 -1 9.73 1.28
-4 -3 0 47.12 3.88
4 3 0 42.69 3.62
-4 -3 0 41.02 3.13
4 3 0 40.79 3.67
4 3 0 46.1 3.81
4 3 0 44.03 2.77
-4 -3 0 43.77 3.5
-4 -3 -1 51.14 3.99
-4 -3 -1 50.65 3.48
4 3 1 55.01 4.29
4 3 1 54.24 3.95
4 3 1 54.25 4.16
4 3 1 56.98 3.19
-4 -3 -1 50.61 3.78
-4 -3 -2 1.59 0.89
-4 -3 -2 0.84 0.72
-4 -3 -2 1.95 0.8
4 3 2 1.26 0.86
4 3 2 3.04 1.17
4 3 2 1.55 0.49
-4 -3 -3 236.65 9.24
-4 -3 -3 235.32 8.34
4 3 3 226.54 8.75
4 3 3 222.73 7.9
4 3 3 227.46 9.35
-4 -3 -3 232.29 8.83
-4 -3 -4 519.63 15.75
-4 -3 -4 524.7 14.66
4 3 4 541.2 15.21
4 3 4 519.32 14.39
4 3 4 506.23 15.99
-4 -3 -4 541.39 15.46
-4 -3 -5 318.16 11.18
-4 -3 -5 318.18 10.2
4 3 5 327.11 10.43
4 3 5 304.88 10.04
-4 -3 -5 332.65 10.89
4 3 5 296.99 11.38
-4 -3 -6 76.5 4.8
-4 -3 -6 70.27 4.05
4 3 6 71.51 4.03
4 3 6 71.99 4.18
-4 -3 -6 74.43 4.49
4 3 6 61.44 4.52
-4 -3 -7 9.45 1.62
-4 -3 -7 10.05 1.72
4 3 7 10.44 1.48
4 3 7 11.24 1.68
-4 -3 -7 10.42 1.55
4 3 7 9.49 1.79
-4 -3 -8 24.42 2.61
4 3 8 27.64 2.34
-4 -3 -8 24.23 2.2
-4 -3 -8 26.92 2.51
4 3 8 25.52 2.63
4 3 8 24.69 2.81
-4 -3 -9 453.41 13.17
-4 -3 -9 435.01 12.6
4 3 9 463.45 14.39
4 3 9 436.53 14.61
-4 -3 -10 18.22 2.23
-4 -3 -10 16.38 1.73
-4 -3 -10 21 2.12
-4 -3 -10 23.92 2.95
4 3 10 21.4 2.63
4 3 10 18.38 2.52
-4 -3 -11 -0.21 0.9
-4 -3 -11 0.99 0.55
-4 -3 -11 0.36 0.46
-4 -3 -11 0.06 0.64
4 3 11 1.18 0.8
-4 -3 -11 0.77 0.65
4 3 11 0.63 0.71
-4 -3 -12 26.01 2.74
-4 -3 -12 26.76 2.25
-4 -3 -12 31.58 3.43
4 3 12 29.74 3.43
4 3 12 28.98 3.12
-4 -3 -12 27.34 3.2
-4 -3 -13 0.81 0.87
-4 -3 -13 0.7 0.74
4 3 13 -0.07 0.73
4 3 13 1.56 0.85
-4 -3 -14 0.58 0.66
-4 -3 -14 -1.14 0.81
4 3 14 0.2 0.89
4 3 14 -0.73 1.12
-4 -3 -15 3.8 1.39
-4 -3 -15 4.24 1.42
4 3 15 3 1.33
4 3 15 6.55 1.72
-4 -3 -16 -0.22 0.62
-4 -3 -16 0.7 0.73
4 3 16 -0.95 0.77
4 3 16 0.79 0.73
-4 -4 12 2.33 1.59
-4 -4 12 1.2 1.05
4 4 -12 0.06 0.87
-4 -4 11 10.59 2.5
-4 -4 11 7.23 2.13
4 4 -11 9.79 2.45
-4 -4 10 0.17 0.88
-4 -4 10 1.67 1.06
4 4 -10 3.05 1.58
4 4 -10 1.53 1.39
-4 -4 9 92.27 7.28
4 4 -9 108 7.77
-4 -4 9 84.22 6.49
4 4 -9 90.46 7.37
-4 -4 8 6.43 1.44
-4 -4 8 7.53 2.15
-4 -4 8 3.96 1.51
4 4 -8 4.76 1.74
4 4 -8 8.47 2.18
-4 -4 7 15.79 2.88
-4 -4 7 17.28 2.72
4 4 -7 16.24 2.81
-4 -4 7 16.36 2.3
4 4 -7 16.65 3.03
-4 -4 7 16.52 2.09
-4 -4 6 5.48 1.43
-4 -4 6 6.37 1.26
-4 -4 6 5.11 1.82
-4 -4 6 4.81 1.56
4 4 -6 6.23 1.87
4 4 -6 4.29 1.67
-4 -4 5 4.92 1.68
-4 -4 5 3.55 0.86
-4 -4 5 4.28 1.34
-4 -4 5 3.47 1.11
4 4 -5 3.67 1.53
4 4 -5 4.15 1.47
4 4 -5 4.33 1.28
-4 -4 4 3.04 0.89
-4 -4 4 1.42 1.42
-4 -4 4 1.02 0.77
-4 -4 4 1.23 1.14
4 4 -4 0.96 0.92
4 4 -4 4.03 1.36
4 4 -4 1.64 0.84
-4 -4 3 342.8 13.57
-4 -4 3 329.03 10.28
4 4 -3 347 13.28
-4 -4 3 351.97 12.91
4 4 -3 337.39 13.07
4 4 -3 328.36 11.59
-4 -4 3 325.4 11.6
-4 -4 2 103.32 6.66
4 4 -2 103.46 6.56
-4 -4 2 109.42 6.45
-4 -4 2 105.94 4.97
4 4 -2 98.21 6.3
4 4 -2 101.01 5.54
-4 -4 2 93.98 5.5
-4 -4 1 67.63 5.23
-4 -4 1 60.76 3.68
4 4 -1 66.03 4.52
4 4 -1 62.74 4.97
4 4 -1 63.13 4.82
-4 -4 1 57.67 4.14
4 4 -1 61.05 4.12
-4 -4 0 28.69 3.34
-4 -4 0 27.84 2.46
4 4 0 31.79 3.48
4 4 0 34.16 3.12
4 4 0 26.18 3.07
-4 -4 0 27.77 2.83
4 4 0 34.6 2.99
-4 -4 -1 22.82 2.86
-4 -4 -1 24.89 2.3
4 4 1 17.5 2.15
-4 -4 -1 21.3 2.47
4 4 1 16.08 2.46
4 4 1 22.3 2.37
4 4 1 18.22 2.49
-4 -4 -2 1.94 0.95
-4 -4 -2 2.39 0.8
4 4 2 1.14 0.68
-4 -4 -2 0.59 0.53
4 4 2 0.09 0.59
4 4 2 1.07 0.62
-4 -4 -3 8.31 1.68
-4 -4 -3 6.58 1.18
-4 -4 -3 5.62 1.38
4 4 3 7.87 1.39
4 4 3 7.35 1.66
4 4 3 6.51 1.29
-4 -4 -4 135.93 7.23
4 4 4 143.87 6.13
-4 -4 -4 139.8 6.68
4 4 4 126.36 7.16
-4 -4 -4 123.02 5.64
4 4 4 138.12 6.51
-4 -4 -5 24.38 2.96
-4 -4 -5 27.22 2.44
4 4 5 27.77 2.39
4 4 5 23.39 2.63
-4 -4 -5 27.76 2.79
4 4 5 24.49 3.02
-4 -4 -6 9.87 1.7
-4 -4 -6 9.68 1.81
-4 -4 -6 8.1 1.27
4 4 6 8.09 1.54
4 4 6 6.32 1.56
-4 -4 -7 27.92 2.69
-4 -4 -7 22.79 2.22
4 4 7 27.93 2.98
4 4 7 26.07 3.05
-4 -4 -8 37.52 3.64
-4 -4 -8 34.11 2.68
-4 -4 -8 38.62 3.15
4 4 8 35.09 3.42
4 4 8 40.2 3.82
-4 -4 -9 101.56 5.98
-4 -4 -9 86.54 4.34
-4 -4 -9 83.48 4.67
4 4 9 89.59 5.71
4 4 9 92.64 5.91
-4 -4 -10 11.09 2.09
-4 -4 -10 11.26 1.48
4 4 10 10.16 1.88
-4 -4 -10 9.65 1.43
4 4 10 9.2 1.8
-4 -4 -11 2.51 0.92
-4 -4 -11 3.07 0.81
-4 -4 -11 3.31 1.38
-4 -4 -11 2.48 0.92
4 4 11 3.95 1.26
4 4 11 2.36 0.84
-4 -4 -12 15.66 2.38
-4 -4 -12 18.79 2.07
-4 -4 -12 15.18 1.66
-4 -4 -12 23.32 3.14
4 4 12 19.67 2.98
4 4 12 20.62 2.76
-4 -4 -13 0.39 0.75
-4 -4 -13 0.02 0.85
-4 -4 -13 0.84 0.71
-4 -4 -13 0.72 0.77
4 4 13 2.2 1.09
4 4 13 0.69 0.65
-4 -4 -14 1.97 1.23
-4 -4 -14 3.66 1.27
-4 -4 -14 3.78 1.01
-4 -4 -14 6.55 1.76
4 4 14 3.45 1.41
4 4 14 2.69 1.16
-4 -4 -15 0.75 1.2
-4 -4 -15 0.01 0.52
-4 -4 -15 3.03 1.7
4 4 15 3.8 1.74
4 4 15 0.21 0.74
-4 -4 -16 13.83 2.54
-4 -4 -16 16.68 2.83
4 4 16 15.6 3.13
4 4 16 14.46 2.43
-4 -5 10 0.92 1.24
-4 -5 10 1.92 1.36
4 5 -10 1.77 1.42
4 5 -10 -0.41 0.93
-4 -5 9 35.5 4.81
-4 -5 9 25.86 3.84
4 5 -9 28.52 4.46
4 5 -9 27.9 4.21
-4 -5 8 7.46 2.25
-4 -5 8 6.1 1.87
4 5 -8 7.54 2.07
4 5 -8 5.21 1.97
-4 -5 7 0.02 1.18
-4 -5 7 0.11 0.76
4 5 -7 2.65 1.41
4 5 -7 -0.34 0.85
-4 -5 6 -0.25 0.75
-4 -5 6 0.01 0.9
4 5 -6 0.42 0.96
4 5 -6 1.76 1.27
4 5 -6 1.1 0.97
-4 -5 5 0.36 0.71
-4 -5 5 -0.21 0.9
-4 -5 5 -0.35 0.78
4 5 -5 -0.1 1.13
4 5 -5 2.05 1.08
4 5 -5 1.75 0.89
-4 -5 4 38.51 4.5
4 5 -4 40.46 4.51
-4 -5 4 36.43 4.29
-4 -5 4 37.15 2.62
4 5 -4 38.14 4.39
-4 -5 4 36.17 3.33
4 5 -4 39.96 4.06
-4 -5 3 4.95 1.37
-4 -5 3 5.15 1.82
-4 -5 3 4 0.91
-4 -5 3 5.26 1.68
4 5 -3 4.27 1.51
4 5 -3 3.03 1.44
4 5 -3 6.92 1.69
-4 -5 2 1.1 0.84
-4 -5 2 1.41 0.62
4 5 -2 2.08 1.01
-4 -5 2 1.71 0.79
4 5 -2 1.94 1.25
4 5 -2 1.38 0.88
-4 -5 1 669.69 21.73
-4 -5 1 675.01 17.53
4 5 -1 690.8 21.76
-4 -5 1 713.64 19.57
4 5 -1 711.17 21.77
4 5 -1 727.6 20.76
-4 -5 0 2.48 1.36
-4 -5 0 6.11 1.18
-4 -5 0 5.32 1.48
4 5 0 6.67 1.49
4 5 0 2.96 1.6
4 5 0 5.91 1.77
4 5 0 3.03 1.32
-4 -5 -1 7.19 1.67
-4 -5 -1 7.75 1.24
-4 -5 -1 9.49 1.72
4 5 1 7.65 1.43
4 5 1 11.65 2.22
4 5 1 11.67 2.27
4 5 1 8.33 1.75
-4 -5 -2 40.6 4.13
4 5 2 43.02 4.24
-4 -5 -2 44.01 2.97
-4 -5 -2 43.88 3.63
4 5 2 34.44 3.75
4 5 2 34.71 3.41
-4 -5 -3 10.91 2.27
-4 -5 -3 10.3 1.78
-4 -5 -3 8.9 1.34
4 5 3 7.31 1.69
4 5 3 8.37 1.66
-4 -5 -4 37.42 3.95
-4 -5 -4 33.27 2.59
-4 -5 -4 37.9 3.33
4 5 4 32.5 3.6
4 5 4 26.97 2.96
-4 -5 -5 5.39 1.35
-4 -5 -5 4.84 1.52
-4 -5 -5 6.51 1.22
4 5 5 3.67 1.15
4 5 5 5.95 1.44
-4 -5 -6 3.24 1.23
-4 -5 -6 5.18 1.03
4 5 6 6.7 1.64
4 5 6 5.84 1.55
-4 -5 -6 4.79 1.09
-4 -5 -7 -0.41 0.94
-4 -5 -7 0.71 0.64
4 5 7 1.81 0.9
-4 -5 -7 1.19 0.59
4 5 7 1.84 1.22
-4 -5 -7 1.52 0.6
-4 -5 -8 38.45 3.98
-4 -5 -8 26.75 2.4
4 5 8 31.69 3.6
4 5 8 26.76 3.33
-4 -5 -8 35.18 3.02
-4 -5 -9 10.71 2.03
-4 -5 -9 13.83 1.69
4 5 9 15.65 2.55
-4 -5 -9 12.59 1.82
4 5 9 14.78 2.42
-4 -5 -10 19.24 2.82
-4 -5 -10 18.07 2.15
4 5 10 18.37 2.77
4 5 10 18.54 2.83
-4 -5 -10 19.87 1.96
-4 -5 -11 7.71 1.84
-4 -5 -11 7.44 1.25
-4 -5 -11 8.39 1.51
4 5 11 6.43 1.71
4 5 11 4.84 1.38
-4 -5 -12 45.65 4.35
-4 -5 -12 44.3 3.21
-4 -5 -12 33.33 2.54
-4 -5 -12 43.55 4.44
4 5 12 47.18 4.72
4 5 12 38.32 3.96
-4 -5 -13 2.42 1.33
-4 -5 -13 1.43 0.63
-4 -5 -13 0.63 0.5
-4 -5 -13 1.05 1.02
4 5 13 1.51 1.06
4 5 13 1.5 1.03
-4 -5 -14 53.03 4.78
-4 -5 -14 45.4 3.27
-4 -5 -14 54.59 5.07
4 5 14 61.01 5.69
4 5 14 49.25 4.43
-4 -5 -14 49.77 4.81
-4 -5 -15 135.48 7.97
-4 -5 -15 118.08 5.59
-4 -5 -15 119.65 7.77
4 5 15 128.22 8.85
4 5 15 119.19 7.17
-4 -5 -15 125.56 7.74
-4 -5 -16 16.9 2.68
-4 -5 -16 18.97 3.01
-4 -5 -16 17.49 2.02
-4 -5 -16 19.23 3.06
4 5 16 19.96 3.52
4 5 16 18.77 2.74
-4 -6 9 -0.48 0.77
-4 -6 9 0.72 1.82
4 6 -9 0.7 1.05
4 6 -9 -1.12 1.12
-4 -6 8 -1.96 1.29
-4 -6 8 0.45 0.82
4 6 -8 1.53 1.38
4 6 -8 1.49 1.16
-4 -6 7 1.95 1.85
-4 -6 7 -0.1 0.8
4 6 -7 1.71 1
4 6 -7 2.23 1.47
4 6 -7 1.12 1.09
-4 -6 6 11.93 2.78
-4 -6 6 17.32 3.17
4 6 -6 14.67 3.09
4 6 -6 10.5 2.65
4 6 -6 15.85 2.96
-4 -6 5 9.44 2.48
-4 -6 5 5.56 1.94
4 6 -5 6.79 2.14
4 6 -5 11.11 2.7
4 6 -5 10.05 2.33
-4 -6 4 -0.76 1.04
-4 -6 4 -1 1
4 6 -4 0.57 0.93
4 6 -4 -0.98 1
4 6 -4 1.08 1.27
-4 -6 3 33.33 4.32
4 6 -3 33.58 4.3
-4 -6 3 32.31 3.15
4 6 -3 38.33 4.53
4 6 -3 34.28 4.1
-4 -6 2 64.01 5.87
-4 -6 2 71.69 3.68
4 6 -2 71.01 6.08
-4 -6 2 68.74 4.61
4 6 -2 57.47 5.55
4 6 -2 64.56 5.59
-4 -6 1 24.38 3.64
-4 -6 1 26.89 2.2
-4 -6 1 22.5 2.57
4 6 -1 25.37 3.61
4 6 -1 25.79 3.61
4 6 -1 26.3 3.42
-4 -6 0 57.58 5.44
-4 -6 0 52.82 3.19
4 6 0 54.34 5.2
-4 -6 0 57.02 4.24
4 6 0 46.9 4.86
4 6 0 58.03 5.1
-4 -6 -1 128.67 8.29
-4 -6 -1 136.31 5.54
4 6 1 128.38 8.13
-4 -6 -1 135.91 6.73
4 6 1 123.98 7.89
4 6 1 132.6 7.83
-4 -6 -2 20.1 3.24
-4 -6 -2 23.3 2.14
-4 -6 -2 27.04 2.86
4 6 2 28.83 3.65
4 6 2 20.16 3.09
4 6 2 24.66 3.21
-4 -6 -3 0.33 0.87
-4 -6 -3 1.05 1.21
-4 -6 -3 0.85 0.63
4 6 3 0.1 0.77
4 6 3 0.3 0.79
4 6 3 -0.11 0.82
-4 -6 -4 76.48 6.19
-4 -6 -4 71.6 3.92
-4 -6 -4 81.07 4.95
4 6 4 69.87 5.73
4 6 4 68.3 5.48
-4 -6 -5 93.9 6.91
-4 -6 -5 96.3 4.58
-4 -6 -5 95.76 5.42
4 6 5 91.77 6.57
-4 -6 -5 92 5.12
4 6 5 87.15 6.21
-4 -6 -6 0.89 0.94
-4 -6 -6 1.12 0.69
-4 -6 -6 -0.09 0.47
-4 -6 -6 -0.48 0.75
4 6 6 -0.22 1.14
4 6 6 0.18 0.72
-4 -6 -7 190.81 10.08
-4 -6 -7 174.22 6.68
-4 -6 -7 184.74 7.76
4 6 7 181.76 9.64
4 6 7 168.14 9.31
-4 -6 -7 187.56 7.61
-4 -6 -8 12.92 2.6
-4 -6 -8 14.2 1.76
4 6 8 12.89 2.5
-4 -6 -8 13.14 1.9
4 6 8 14.32 2.57
-4 -6 -9 10.55 2.26
-4 -6 -9 9.47 1.62
4 6 9 8.97 2.24
-4 -6 -9 9.99 1.43
4 6 9 14.03 2.59
-4 -6 -10 7.86 2.14
-4 -6 -10 5.63 1.11
-4 -6 -10 7.98 1.52
4 6 10 8.25 2.01
4 6 10 8.61 1.98
-4 -6 -11 0.69 0.89
-4 -6 -11 0.22 0.56
-4 -6 -11 2.69 1.01
4 6 11 1.83 0.96
4 6 11 2.55 1.3
-4 -6 -12 -0.63 1.05
-4 -6 -12 -0.68 0.71
-4 -6 -12 1.16 1
4 6 12 0.59 0.89
-4 -6 -12 0.86 0.66
4 6 12 -0.98 0.87
-4 -6 -13 11.93 2.48
-4 -6 -13 8.3 1.3
-4 -6 -13 9.91 1.63
-4 -6 -13 12.44 2.59
4 6 13 13.85 2.87
4 6 13 13.41 2.42
-4 -6 -14 144.86 8.69
-4 -6 -14 136.61 6.32
-4 -6 -14 130.76 5.57
-4 -6 -14 133.05 8.56
4 6 14 147.29 9.56
4 6 14 139.09 7.89
-4 -6 -15 136.12 8.55
-4 -6 -15 128.46 6.04
-4 -6 -15 125.63 8.21
4 6 15 135.6 9.3
4 6 15 128.86 7.57
-4 -6 -15 125.02 7.94
-4 -7 7 5.97 2.22
-4 -7 7 5.88 2.15
4 7 -7 6.16 2.22
4 7 -7 6.55 2.23
4 7 -7 6.24 2.15
-4 -7 6 2.7 1.52
-4 -7 6 7.86 2.34
4 7 -6 5.18 2.19
4 7 -6 5.96 2.14
4 7 -6 3.5 1.68
-4 -7 5 0.13 1.2
4 7 -5 -0.42 1.08
4 7 -5 0.07 0.84
4 7 -5 1.25 0.93
-4 -7 4 -0.34 1.15
4 7 -4 -1.21 1.52
4 7 -4 2.23 1.27
4 7 -4 1.5 1.45
-4 -7 3 2.79 1.53
4 7 -3 0.65 1.42
4 7 -3 0.89 1.35
4 7 -3 1 1.05
-4 -7 2 2.73 1.47
4 7 -2 1.74 1.34
4 7 -2 1.77 1.17
4 7 -2 2.2 1.39
-4 -7 1 32.51 4.4
-4 -7 1 35.18 2.5
-4 -7 1 38.51 3.36
4 7 -1 32.16 4.36
4 7 -1 27.21 3.99
4 7 -1 32.22 4.25
-4 -7 0 17.17 2.21
-4 -7 0 17.2 1.74
-4 -7 0 10.46 2.51
4 7 0 16.47 3.02
4 7 0 13.07 2.7
4 7 0 17.13 3.1
-4 -7 -1 47.01 5.24
-4 -7 -1 56.55 3.28
4 7 1 53.29 5.42
-4 -7 -1 47.95 3.78
4 7 1 53.07 5.4
-4 -7 -1 43.7 3.93
4 7 1 52.36 5.3
-4 -7 -2 9.19 2.33
-4 -7 -2 13.72 1.58
4 7 2 14.28 2.89
-4 -7 -2 10.76 1.95
-4 -7 -2 13.23 1.96
4 7 2 11.21 2.49
4 7 2 13.39 2.64
-4 -7 -3 14.45 2.99
-4 -7 -3 15.55 1.73
4 7 3 18.95 3.2
-4 -7 -3 18.64 2.54
-4 -7 -3 11.42 1.83
4 7 3 12.85 2.55
4 7 3 13.2 2.61
-4 -7 -4 3.58 1.52
-4 -7 -4 0.62 0.47
-4 -7 -4 1.29 0.81
-4 -7 -4 0.71 0.59
4 7 4 1.68 1.24
4 7 4 1.18 1.01
-4 -7 -5 26.51 3.87
-4 -7 -5 20.96 1.98
-4 -7 -5 21.04 2.63
-4 -7 -5 21.02 2.42
4 7 5 20.51 3.22
4 7 5 22.7 3.38
-4 -7 -6 7.08 2.17
-4 -7 -6 2.17 0.55
-4 -7 -6 3.12 1.06
-4 -7 -6 2.56 1.04
4 7 6 4.42 1.63
4 7 6 3.8 1.4
-4 -7 -7 39.02 4.69
-4 -7 -7 31.61 2.5
-4 -7 -7 31.68 2.99
4 7 7 30.1 4.09
4 7 7 36.05 4.27
-4 -7 -7 35.17 3.44
4 7 7 35.85 4.34
-4 -7 -8 112.5 8.01
-4 -7 -8 97.69 5.4
-4 -7 -8 93.39 4.57
4 7 8 97.76 7.57
4 7 8 92.27 6.98
-4 -7 -9 16.74 3.1
-4 -7 -9 19.65 2.4
-4 -7 -9 15.8 1.8
4 7 9 21.49 3.49
4 7 9 18.1 3.04
-4 -7 -10 26.06 3.78
-4 -7 -10 26.32 2.66
-4 -7 -10 25.25 2.36
4 7 10 27.07 3.96
4 7 10 28.78 3.75
-4 -7 -11 1.89 1.22
-4 -7 -11 3.62 1
-4 -7 -11 5.3 1.36
4 7 11 1.23 0.95
4 7 11 5.75 1.72
-4 -7 -12 0.77 1.23
-4 -7 -12 2.46 0.79
-4 -7 -12 3.59 1.01
4 7 12 3.48 1.65
4 7 12 1.91 1.16
-4 -7 -13 5.26 1.89
-4 -7 -13 4.62 1.3
-4 -7 -13 3.18 0.97
-4 -7 -13 4.16 1.86
4 7 13 2.53 1.27
-4 -8 4 2.56 1.63
-4 -8 4 4.05 1.67
4 8 -4 1.41 1.74
4 8 -4 3.75 1.93
4 8 -4 5.38 2.15
-4 -8 3 7.29 2.57
4 8 -3 10.44 3.04
-4 -8 3 7.81 1.91
4 8 -3 7.09 2.52
4 8 -3 11.86 2.96
-4 -8 2 35.8 4.97
4 8 -2 44.6 5.56
-4 -8 2 38.65 4.16
4 8 -2 35.84 4.94
4 8 -2 37.18 5.13
-4 -8 1 33.14 4.73
4 8 -1 45.95 5.55
4 8 -1 40.39 5.24
-4 -8 1 41.55 4.25
4 8 -1 36.77 4.98
-4 -8 0 41.98 5.25
-4 -8 0 44.45 2.88
4 8 0 40.24 5.14
4 8 0 39.73 5.11
-4 -8 0 45.2 4.39
4 8 0 49.01 5.62
-4 -8 -1 28.62 4.32
-4 -8 -1 22.63 2.03
-4 -8 -1 24.24 3.17
4 8 1 25.55 4.06
4 8 1 20.86 3.54
4 8 1 25.36 4.08
-4 -8 -2 1.45 1.79
-4 -8 -2 -0.52 0.5
-4 -8 -2 0.66 0.46
4 8 2 -0.05 0.99
-4 -8 -2 0.7 0.96
4 8 2 1.39 1.44
4 8 2 0.2 1.06
-4 -8 -3 -1.04 1.04
-4 -8 -3 -0.57 0.67
-4 -8 -3 0.5 0.5
4 8 3 0.81 1.19
-4 -8 -3 0.58 0.81
4 8 3 -3.22 1.49
4 8 3 3.15 1.9
-4 -8 -4 1.65 0.95
-4 -8 -4 3.16 0.81
-4 -8 -4 2.3 0.94
-4 -8 -4 2.84 1.22
4 8 4 2.41 1.22
4 8 4 -0.21 0.98
-4 -8 -5 0.6 0.81
-4 -8 -5 -0.23 0.58
-4 -8 -5 1.2 0.86
-4 -8 -5 0.93 0.85
4 8 5 0.36 0.69
4 8 5 1.33 0.98
-4 -8 -6 6.1 2.17
-4 -8 -6 7.63 1.28
-4 -8 -6 9.74 1.71
-4 -8 -6 4.98 1.48
4 8 6 7.08 2.04
4 8 6 9.98 2.64
-4 -8 -7 5.8 2.23
-4 -8 -7 4.99 1.06
-4 -8 -7 5.34 1.37
4 8 7 3.83 1.43
-4 -8 -7 6.66 1.65
4 8 7 4.8 1.77
4 8 7 2.93 1.72
-4 -8 -8 6.02 2.1
-4 -8 -8 4.99 1.14
-4 -8 -8 3.95 1.21
4 8 8 5.76 1.97
4 8 8 10.29 2.6
4 8 8 4.82 1.73
-4 -8 -9 0.86 1.27
-4 -8 -9 0.6 0.8
-4 -8 -9 0.64 0.63
4 8 9 -0.26 0.89
4 8 9 0.38 0.97
-4 -8 -10 15.8 3.12
-4 -8 -10 11.11 1.6
4 8 10 13.56 3.13
-4 -8 -10 9.2 1.65
-4 -8 -11 2.27 1.36
-4 -8 -11 1.97 0.85
-4 -8 -11 0.2 0.64
4 8 11 1.36 1.36
-4 -9 -2 2.09 1.55
-4 -9 -2 0.91 0.61
4 9 2 0.27 1.03
-4 -9 -2 1.27 0.89
4 9 2 2.35 1.41
4 9 2 0.91 1.61
-4 -9 -3 1.86 0.7
-4 -9 -3 -1.15 0.84
-4 -9 -3 -0.12 0.76
4 9 3 0.61 0.98
-4 -9 -3 1.74 1.24
-4 -9 -4 5.37 2.25
-4 -9 -4 4.89 1.05
-4 -9 -4 6.47 1.45
-4 -9 -4 3.55 1.32
4 9 4 5.03 2.03
4 9 4 6.17 2.36
-4 -9 -5 36.79 5.05
-4 -9 -5 32.35 3.02
-4 -9 -5 29.88 2.59
-4 -9 -5 30.23 3.8
4 9 5 24.5 4
4 9 5 26.21 4.34
-4 -9 -6 -1.23 1.14
-4 -9 -6 0.84 0.77
-4 -9 -6 -0.42 0.7
-4 -9 -6 -1.02 1.04
4 9 6 -0.84 1.05
4 9 6 0.63 1.14
5 -4 -5 -0.42 0.76
-5 4 4 14.65 3.32
5 -4 -4 16.27 3.02
5 -4 -4 14.01 2.74
5 -4 -4 16.63 2.99
5 -4 -3 34.27 4.38
-5 4 3 32.98 4.82
5 -4 -3 33.23 4.29
5 -4 -3 30.32 3.98
-5 4 2 88.35 8.11
5 -4 -2 79.22 6.87
5 -4 -2 81.15 6.77
5 -4 -2 91.21 6.91
-5 4 1 -1.13 0.93
5 -4 -1 0.41 1
5 -4 -1 -0.05 0.81
5 -4 -1 -0.13 0.86
-5 4 0 7.13 2.42
5 -4 0 5.14 1.77
5 -4 0 7.87 2.21
5 -4 0 6.21 1.79
5 -4 1 38.39 5.02
-5 4 -1 32.88 5.18
5 -4 1 33.77 4.26
5 -4 1 34.07 4.08
-5 4 -2 -1.3 1.16
5 -4 2 0.67 0.77
5 -4 2 1.69 1.17
5 -4 2 0.31 0.68
-5 4 -3 18.73 3.99
5 -4 3 18.27 3.13
5 -4 3 20.57 3.65
5 -4 3 18.95 3
5 -4 4 4.41 1.56
-5 4 -4 2.33 1.62
5 -4 4 6.85 2.24
5 -4 4 4.13 1.43
-5 3 8 172.27 10.73
5 -3 -8 178.95 10.3
-5 3 7 0.53 1
-5 3 7 1.41 0.66
5 -3 -7 0.6 1.14
5 -3 -7 1.03 1.18
-5 3 6 -0.77 1.15
-5 3 6 -0.11 0.48
5 -3 -6 2.12 1.31
5 -3 -6 3.44 1.53
-5 3 5 7.42 2.3
5 -3 -5 5.9 1.94
5 -3 -5 6.04 1.69
-5 3 5 7.09 1.29
-5 3 4 20.26 3.49
-5 3 4 22.95 2.41
5 -3 -4 21.66 3.56
5 -3 -4 24.02 3.41
-5 3 3 92.24 7.68
5 -3 -3 86.56 6.5
-5 3 3 87.83 4.89
5 -3 -3 92.28 7.32
5 -3 -3 89.97 6.55
-5 3 2 61.72 6.42
5 -3 -2 75.43 6.08
-5 3 2 67.14 4.18
5 -3 -2 66.69 6.12
5 -3 -2 77.49 6.03
-5 3 1 -0.41 0.92
-5 3 1 0.52 0.56
5 -3 -1 0.92 0.72
5 -3 -1 0.42 0.94
-5 3 0 2.28 1.43
-5 3 0 1.93 0.81
5 -3 0 -0.16 0.67
5 -3 0 0.46 0.77
5 -3 0 0.77 0.9
-5 3 -1 -0.53 1.17
-5 3 -1 -0.43 0.54
5 -3 1 -0.2 0.95
5 -3 1 0.84 0.93
5 -3 1 -0.22 0.75
-5 3 -2 -0.82 1.36
-5 3 -2 -0.64 0.54
5 -3 2 0.89 0.86
5 -3 2 -0.5 0.99
5 -3 2 0.02 0.94
-5 3 -3 40.52 5.62
5 -3 3 44.09 5.04
-5 3 -3 54.7 3.64
5 -3 3 54.17 5.25
5 -3 3 45.39 4.35
-5 3 -4 3.49 1
-5 3 -4 5.69 2.17
5 -3 4 4.75 1.53
5 -3 4 3.38 1.51
5 -3 4 1.54 0.87
-5 3 -5 73.77 7.46
5 -3 5 71.73 6.68
-5 3 -5 75.57 4.35
5 -3 5 83.65 6.59
-5 3 -6 3.34 0.9
-5 3 -6 1.37 1.21
5 -3 6 6.62 1.93
5 -3 6 6.52 2.12
5 -3 7 41.68 5.3
-5 3 -7 40.72 3.04
-5 3 -7 28.83 5.09
-5 3 -8 8.86 2.78
5 -3 8 10.77 2.79
-5 2 10 3.09 1.78
5 -2 -10 2.73 1.39
5 -2 -10 1.19 1.02
-5 2 9 29.69 3.98
5 -2 -9 17.1 3.42
5 -2 -9 26.75 3.71
-5 2 8 9.62 2.38
5 -2 -8 7.33 2.21
5 -2 -8 11.58 2.37
-5 2 7 31.71 4.11
-5 2 7 29.2 2.6
5 -2 -7 25.62 4.04
5 -2 -7 27.19 3.63
-5 2 6 -0.49 1.05
-5 2 6 2.49 0.93
5 -2 -6 0.34 0.78
5 -2 -6 2.75 1.39
-5 2 5 43.1 4.78
-5 2 5 49.13 3.52
5 -2 -5 41.68 4.95
5 -2 -5 41.82 4.31
-5 2 4 20.11 3.18
-5 2 4 17.71 2.18
5 -2 -4 20.39 3.47
5 -2 -4 19.85 2.91
-5 2 3 3.15 1.25
-5 2 3 3.6 1.01
5 -2 -3 4.56 1.67
5 -2 -3 1.26 1.13
5 -2 -3 3.17 1.47
-5 2 2 1.43 1.42
-5 2 2 0.38 0.56
5 -2 -2 0.59 0.79
5 -2 -2 0.64 0.82
5 -2 -2 0.58 0.81
-5 2 1 55.41 5.5
5 -2 -1 45.52 4.39
-5 2 1 58.39 3.91
5 -2 -1 50.6 5.21
5 -2 -1 52.96 4.59
-5 2 0 44.51 5.08
5 -2 0 48.92 4.56
-5 2 0 56.5 3.81
5 -2 0 49.01 5.01
5 -2 0 45.53 4.22
-5 2 -1 14.64 2.87
5 -2 1 13.84 2.73
5 -2 1 17.3 2.7
5 -2 1 17.27 2.52
-5 2 -1 15.5 2.01
5 -2 2 35.43 4.05
-5 2 -2 33.55 2.91
-5 2 -2 27.66 4.14
5 -2 2 36.97 4.27
5 -2 2 32.34 3.4
-5 2 -3 5.28 1.23
-5 2 -3 4.6 1.94
5 -2 3 6.61 1.91
5 -2 3 8.08 1.91
5 -2 3 7.34 1.61
-5 2 -4 2.27 0.87
-5 2 -4 3.99 1.96
5 -2 4 1.19 1.06
5 -2 4 0.51 1.14
5 -2 4 1.94 0.83
-5 2 -5 28.44 2.62
-5 2 -5 23.52 3.9
5 -2 5 23.91 3.39
5 -2 5 25.51 3.68
-5 2 -6 15.7 1.94
-5 2 -6 14.94 3.22
5 -2 6 17.39 2.86
5 -2 6 20.22 3.42
-5 2 -7 8.25 1.32
-5 2 -7 5.2 2.24
5 -2 7 9.73 2.25
5 -2 7 5.77 2.2
-5 2 -8 29.24 2.6
-5 2 -8 29.72 4.38
5 -2 8 28.66 4.2
-5 2 -9 4.25 2.28
5 -2 9 7 2.29
-5 2 -10 2.95 1.68
5 -2 10 5.64 2.08
5 -1 -11 1.14 0.92
-5 1 11 2.3 1.26
5 -1 -11 1.76 1.43
5 -1 -11 2.55 1.53
5 -1 -10 42.22 4.56
-5 1 10 45.61 4.81
5 -1 -10 42.01 5.55
5 -1 -10 44.4 4.78
5 -1 -9 1.92 1.08
-5 1 9 2.74 1.19
5 -1 -9 1.89 1.44
5 -1 -9 3.12 1.12
5 -1 -8 71.7 5.52
-5 1 8 67.51 5.66
5 -1 -8 70.35 6.78
5 -1 -8 66.63 5.6
5 -1 -7 -0.09 0.49
-5 1 7 0.9 0.91
-5 1 7 1.33 0.8
5 -1 -7 -0.85 1.15
5 -1 -7 2.34 1.25
-5 1 6 29.18 3.62
-5 1 6 34.09 2.95
5 -1 -6 28.74 4.28
5 -1 -6 31.26 3.61
-5 1 5 18.94 2.98
-5 1 5 19.19 2.26
5 -1 -5 18.25 3.25
5 -1 -5 15.85 2.54
-5 1 4 10.58 2.2
-5 1 4 13.93 1.93
5 -1 -4 7.79 2.16
5 -1 -4 10.19 1.99
-5 1 3 8.61 1.98
-5 1 3 10.39 1.69
5 -1 -3 7.01 2.06
5 -1 -3 6.08 1.7
-5 1 2 6.84 1.85
-5 1 2 8.05 1.58
5 -1 -2 9.73 2.3
5 -1 -2 6.87 1.53
5 -1 -2 6.75 1.56
-5 1 1 12.21 2.34
-5 1 1 11.16 1.77
5 -1 -1 9.36 2.26
5 -1 -1 8.96 1.76
5 -1 -1 10.92 1.96
-5 1 0 -0.25 0.89
-5 1 0 1.27 0.57
5 -1 0 0.23 1.22
5 -1 0 1.01 0.89
5 -1 0 0.86 0.75
-5 1 -1 362.21 14.79
5 -1 1 379.12 13.86
-5 1 -1 420.88 12.8
5 -1 1 388.25 15.53
5 -1 1 370.54 12.99
-5 1 -2 458.35 17.45
5 -1 2 472.06 16.2
-5 1 -2 496.1 14.51
5 -1 2 487.46 17.48
5 -1 2 456.87 14.82
-5 1 -3 211.08 10.94
5 -1 3 190.35 9.49
-5 1 -3 202.4 8.12
5 -1 3 200.6 10.27
5 -1 3 204.81 8.59
-5 1 -4 14.94 2.81
-5 1 -4 17.42 2.17
5 -1 4 19.41 2.97
5 -1 4 17.43 2.7
5 -1 4 11.51 1.83
-5 1 -5 0.8 0.83
-5 1 -5 1.65 1.12
-5 1 -5 1.5 0.65
5 -1 5 0.79 0.94
5 -1 5 0.11 0.65
5 -1 5 0.53 0.8
5 -1 5 2.12 0.73
-5 1 -6 46.86 5.14
5 -1 6 44.07 4.68
-5 1 -6 50 3.57
-5 1 -6 55.95 4.59
5 -1 6 49.63 4.71
5 -1 6 50.23 3.38
-5 1 -6 53.9 3.56
-5 1 -7 4.12 1.19
-5 1 -7 2.91 0.96
-5 1 -7 2.74 1.31
5 -1 7 4.96 1.69
5 -1 7 1.21 0.79
5 -1 7 2.05 0.82
-5 1 -8 22.95 2.31
-5 1 -8 18.82 3.23
5 -1 8 20.36 3.04
5 -1 8 16.72 3.07
5 -1 8 22.1 2.4
-5 1 -8 20.72 2.33
5 -1 9 53.08 5.59
5 -1 9 67.44 4.42
-5 1 -9 58.5 4.05
5 -1 10 33.84 4.55
5 -1 10 36.54 3.5
-5 1 -10 36.47 3.26
5 -1 11 87.66 7.5
5 -1 11 91.41 5.99
-5 1 -11 79.36 6.34
-5 1 -12 14.22 2.21
5 -1 12 12.8 2.78
5 -1 12 12.29 2.12
-5 1 -12 8.93 2.2
-5 0 11 15.26 2.74
5 0 -11 16.33 3.47
-5 0 10 11.82 2.36
5 0 -10 9.8 2.74
-5 0 9 74.39 5.71
5 0 -9 74.36 7.11
-5 0 8 24.02 3.13
5 0 -8 24.97 4.01
5 0 -8 20.18 3
-5 0 7 1.12 0.79
-5 0 7 2.4 0.84
5 0 -7 3.64 1.7
5 0 -7 2.64 1.21
-5 0 6 60.2 4.05
5 0 -6 52.34 5.55
5 0 -6 53.55 4.53
-5 0 5 13.43 2.32
-5 0 5 12.46 1.84
5 0 -5 11.77 2.81
5 0 -5 9.91 1.96
-5 0 4 102.53 6.29
-5 0 4 100.98 5.51
5 0 -4 90.73 7.19
5 0 -4 98.42 6.05
-5 0 3 52.49 4.4
-5 0 3 60.79 4.17
5 0 -3 60.98 5.72
5 0 -3 54.57 4.33
-5 0 2 31.51 3.37
-5 0 2 31.9 3
5 0 -2 36.5 4.33
5 0 -2 34.67 3.37
-5 0 1 12.28 2.14
-5 0 1 8.99 1.55
5 0 -1 10.09 2.32
5 0 -1 10.06 1.71
5 0 -1 11.06 1.82
-5 0 0 9.19 1.89
-5 0 0 2.94 0.98
5 0 0 6.68 1.9
5 0 0 5.71 1.37
5 0 0 3.52 1.16
-5 0 -1 624.1 19.03
5 0 1 567.41 17.5
-5 0 -1 635.47 17.5
5 0 1 607.53 20.38
5 0 1 585.44 17.14
-5 0 -2 341.53 12.94
5 0 2 325.36 12.07
5 0 2 352.91 13.95
5 0 2 356.39 10.06
5 0 2 336.56 11.31
-5 0 -3 153.03 8.28
5 0 3 142.05 7.56
-5 0 -3 152.21 6.95
-5 0 -3 163.03 7.98
5 0 3 159.09 6.05
5 0 3 148.22 6.73
5 0 3 150.32 8.48
-5 0 -4 142.6 8.44
5 0 4 147.09 7.91
-5 0 -4 156.64 7.06
-5 0 -4 159.65 7.92
5 0 4 168.3 6.35
5 0 4 165.7 8.75
5 0 4 145.09 6.6
-5 0 -4 163.82 7.41
-5 0 -5 87.77 6.7
5 0 5 80.68 5.89
-5 0 -5 82.04 4.93
-5 0 -5 100.55 6.02
5 0 5 95.47 6.51
5 0 5 98.51 4.77
5 0 5 91.48 4.91
-5 0 -5 97.87 5.05
-5 0 -5 97.56 5.39
-5 0 -6 19.02 2.49
-5 0 -6 16.6 2.11
-5 0 -6 15.38 2.84
5 0 6 14.94 2.39
5 0 6 18.83 2.9
5 0 6 23.15 2.24
-5 0 -6 18.79 2.19
-5 0 -7 5.16 1.17
-5 0 -7 6.69 1.31
-5 0 -7 6.77 1.82
-5 0 -7 8.19 1.58
5 0 7 9.27 2.06
5 0 7 6.27 1.78
5 0 7 9.28 1.54
-5 0 -8 14.93 2
-5 0 -8 16.82 2.06
5 0 8 18.96 2.77
-5 0 -8 13.53 2.77
5 0 8 14.96 2.71
5 0 8 18.23 2.2
-5 0 -9 0.39 0.65
-5 0 -9 2.37 1.01
-5 0 -9 1.34 0.63
5 0 9 2.48 1.33
5 0 9 0.28 0.88
5 0 9 2.95 1.17
-5 0 -10 6.81 1.73
-5 0 -10 11.09 1.94
5 0 10 7.65 2.11
5 0 10 9.09 1.64
-5 0 -11 10.07 2.05
-5 0 -11 12.21 2.07
5 0 11 12.8 2.02
5 0 12 85.66 5.68
-5 0 -12 77.62 5.22
-5 0 -12 66.09 5.53
5 0 13 27.63 3.31
-5 0 -13 27.53 3.07
-5 0 -14 15.65 2.86
-5 0 -14 22.48 2.91
5 0 14 21.45 2.95
-5 -1 12 21.63 3.15
5 1 -12 21.64 4.06
-5 -1 11 0.39 0.69
5 1 -11 1.53 1.26
-5 -1 10 4.52 1.51
5 1 -10 4.51 1.76
-5 -1 9 -0.37 0.69
5 1 -9 -0.07 0.87
-5 -1 8 32.25 3.36
5 1 -8 34 4.7
-5 -1 7 3.97 1.32
5 1 -7 3.03 1.54
-5 -1 6 2.61 0.9
5 1 -6 1.23 0.74
-5 -1 5 41.58 3.56
-5 -1 5 40.53 3.39
5 1 -5 38.56 4.6
-5 -1 4 0.87 0.84
-5 -1 4 1.46 0.98
5 1 -4 1.29 0.9
-5 -1 3 0.64 0.52
-5 -1 3 -0.25 0.48
5 1 -3 -0.14 0.78
5 1 -3 0.5 0.72
-5 -1 2 55.54 4.03
-5 -1 2 55.39 4.15
5 1 -2 58.33 5.37
5 1 -2 55.23 4.22
-5 -1 1 42.89 3.5
-5 -1 1 43.05 3.55
5 1 -1 42.04 3.09
-5 -1 1 38.64 3.54
5 1 -1 39.66 4.31
5 1 -1 44.61 3.65
5 1 -1 40.71 3.25
-5 -1 0 1.04 0.65
-5 -1 0 4.01 1.04
-5 -1 0 3.3 1.31
5 1 0 3.8 1.29
5 1 0 2.52 0.95
5 1 0 2.8 0.94
5 1 0 0.26 0.47
-5 -1 -1 40.29 3.37
5 1 1 32.01 2.91
-5 -1 -1 39.89 3.63
5 1 1 33.32 3.88
5 1 1 34.58 3
5 1 1 34.88 2.96
-5 -1 -2 5.6 1.36
-5 -1 -2 6.28 1.5
-5 -1 -2 8.35 1.8
5 1 2 6.71 1.71
5 1 2 6.01 1.42
5 1 2 6.54 1.32
5 1 2 7.78 1.39
-5 -1 -3 14.3 2.1
-5 -1 -3 11.28 1.92
-5 -1 -3 13.87 2.05
5 1 3 13.99 2.32
5 1 3 13.9 2.04
5 1 3 15.66 1.97
5 1 3 13.03 1.79
-5 -1 -4 8.35 1.59
-5 -1 -4 12.57 2.1
-5 -1 -4 12.25 1.97
5 1 4 12.23 2.26
5 1 4 11.55 2.05
5 1 4 12.16 1.69
5 1 4 10.94 1.69
5 1 5 137.04 7.48
-5 -1 -5 151.6 7.69
-5 -1 -5 152.21 7.35
5 1 5 147.01 7.96
5 1 5 154.43 6.7
5 1 5 152.34 6.24
-5 -1 -5 134.75 6.7
-5 -1 -6 23.76 2.75
-5 -1 -6 16.74 2.62
5 1 6 21.68 2.86
-5 -1 -6 26.55 2.61
5 1 6 17.97 2.82
5 1 6 21.37 2.33
-5 -1 -6 23.98 2.61
5 1 7 29.98 3.53
-5 -1 -7 28.37 3.23
-5 -1 -7 28.83 2.81
-5 -1 -7 30.02 3
5 1 7 32.93 3.56
-5 -1 -7 26.66 2.64
5 1 7 33.13 2.96
-5 -1 -7 30.62 2.88
-5 -1 -8 0.23 0.67
-5 -1 -8 -0.32 0.5
-5 -1 -8 0.67 0.63
-5 -1 -8 0.99 0.73
5 1 8 1.07 0.78
5 1 8 0.35 0.46
-5 -1 -9 88.53 5
-5 -1 -9 90.43 5.23
5 1 9 101.65 6.26
-5 -1 -9 92.92 5.26
5 1 9 93.98 5.4
-5 -1 -9 87.28 5.56
-5 -1 -10 2.08 0.98
-5 -1 -10 1.22 0.87
5 1 10 0.81 0.74
-5 -1 -11 11.74 2.11
-5 -1 -11 6.45 1.51
5 1 11 9.99 1.82
-5 -1 -12 12.34 2.23
-5 -1 -12 14.52 2.26
5 1 12 14.36 2.2
-5 -1 -13 3.79 1.42
-5 -1 -13 3.63 1.42
-5 -1 -13 2.67 1.26
5 1 13 5.43 1.54
-5 -1 -14 1.84 1.25
-5 -1 -14 4.21 1.41
5 1 14 1.72 1.21
-5 -2 12 35.61 3.99
5 2 -12 39.73 5.4
-5 -2 11 0.46 0.63
5 2 -11 1.19 1.29
-5 -2 10 -0.19 0.77
-5 -2 10 1.67 1.08
5 2 -10 1.2 1.4
-5 -2 9 15.11 2.25
-5 -2 9 11.65 2.32
5 2 -9 14.15 2.95
-5 -2 8 0.45 0.65
-5 -2 8 1.24 0.82
5 2 -8 1.25 1.25
-5 -2 7 0.32 0.61
-5 -2 7 -0.38 0.88
-5 -2 7 -0.17 0.78
5 2 -7 -0.15 1.19
-5 -2 6 8.38 1.59
-5 -2 6 11.24 2.2
-5 -2 6 9.59 1.75
5 2 -6 14.07 2.85
5 2 -6 11.41 2.05
-5 -2 5 5.5 1.2
-5 -2 5 5.88 1.8
-5 -2 5 4.89 1.3
5 2 -5 6.57 1.95
5 2 -5 6.25 1.68
-5 -2 4 5.51 1.23
-5 -2 4 3.62 1.25
-5 -2 4 6.38 1.56
5 2 -4 6.49 1.88
5 2 -4 1.88 1.12
5 2 -4 0.96 0.95
-5 -2 3 73.89 4.17
-5 -2 3 80.66 5.58
-5 -2 3 68.75 4.78
5 2 -3 79.76 5.44
5 2 -3 82.7 6.39
5 2 -3 89.89 5.5
-5 -2 2 0.98 0.58
-5 -2 2 0.39 0.67
-5 -2 2 2.12 1
5 2 -2 0.02 0.78
5 2 -2 0.25 0.73
5 2 -2 0.43 0.87
-5 -2 1 259.35 8.54
-5 -2 1 266.55 10.61
-5 -2 1 239.47 9.85
5 2 -1 260.24 11.65
5 2 -1 276.19 10.4
-5 -2 0 52 4.09
-5 -2 0 44.71 3.77
5 2 0 52.7 4.79
5 2 0 43.28 3.72
-5 -2 -1 9.7 1.8
-5 -2 -1 7.79 1.68
5 2 1 10.53 2.16
-5 -2 -1 10.84 1.97
5 2 1 7.98 1.71
-5 -2 -2 4.88 1.3
-5 -2 -2 4.61 1.2
-5 -2 -2 4.42 1.48
5 2 2 2.87 1.13
5 2 2 0.41 0.75
-5 -2 -3 0.26 0.45
5 2 3 -0.18 0.55
5 2 3 -0.08 0.44
-5 -2 -3 0.18 0.78
-5 -2 -4 21.97 2.4
-5 -2 -4 23.12 2.65
5 2 4 21.35 2.86
5 2 4 26.36 2.82
-5 -2 -4 21.93 2.57
-5 -2 -5 2.75 1.11
-5 -2 -5 2.29 1.05
5 2 5 2.56 1.07
5 2 5 2.67 0.93
-5 -2 -6 42.94 3.53
5 2 6 44.11 3.89
5 2 6 41.04 3.63
-5 -2 -6 35.44 3.18
-5 -2 -7 358.32 12.23
5 2 7 377.15 12.97
5 2 7 382.57 12.8
-5 -2 -7 368.05 12.3
-5 -2 -8 5.75 1.35
-5 -2 -8 3.88 1.12
-5 -2 -8 4.83 1.41
5 2 8 2.14 0.92
5 2 8 3.29 1.32
-5 -2 -9 0.63 0.57
-5 -2 -9 0.25 0.51
5 2 9 0.1 0.69
-5 -2 -9 0.35 0.8
5 2 9 0.24 0.63
-5 -2 -10 35.8 3.07
-5 -2 -10 34.37 3.43
5 2 10 35.97 3.44
-5 -2 -10 41.7 3.9
-5 -2 -11 6.96 1.75
-5 -2 -11 11.88 2.02
5 2 11 13.47 2.18
-5 -2 -12 44.1 4.1
5 2 12 52.5 4.35
-5 -2 -12 49.61 4.49
-5 -2 -13 11.12 2.2
-5 -2 -13 13.51 2.33
5 2 13 11.48 2.15
-5 -2 -14 0.73 0.81
-5 -2 -14 1.77 1.44
5 2 14 2.39 1.28
-5 -2 -15 0 0.69
-5 -2 -15 -0.3 0.6
5 2 15 -0.45 0.91
-5 -3 11 23.67 3.75
5 3 -11 30.05 4.52
-5 -3 11 26.96 3.25
-5 -3 10 8.68 1.83
-5 -3 10 4.21 1.75
5 3 -10 5.07 1.92
5 3 -10 7.98 2.15
-5 -3 9 5.94 1.38
-5 -3 9 6.42 2.02
5 3 -9 4.3 1.64
5 3 -9 3.52 1.43
-5 -3 8 67.78 4.57
-5 -3 8 57.69 5.49
5 3 -8 70.51 5.96
5 3 -8 68.38 6.4
-5 -3 7 24.4 3.59
5 3 -7 22.43 3.53
5 3 -7 25.79 3.49
5 3 -7 23.81 3.34
-5 -3 6 45.56 4.63
-5 -3 6 44.76 3.65
5 3 -6 51.36 4.82
5 3 -6 52.75 5.37
5 3 -6 49.37 4.63
-5 -3 5 2.86 1.54
-5 -3 5 0.93 0.86
5 3 -5 -0.25 0.9
5 3 -5 0.98 0.84
5 3 -5 -0.45 0.58
-5 -3 4 2.57 1.24
-5 -3 4 4.57 1.26
5 3 -4 2.31 1.21
5 3 -4 2.92 1.3
5 3 -4 4.11 1.38
-5 -3 3 1.4 1.12
-5 -3 3 1.43 0.59
5 3 -3 0.34 0.74
5 3 -3 0.9 0.62
5 3 -3 0.02 0.53
-5 -3 2 40.54 4.1
-5 -3 2 36.55 3.25
5 3 -2 34.01 3.63
5 3 -2 31.25 3.74
5 3 -2 36.99 3.7
-5 -3 2 33.54 3.55
-5 -3 1 5.34 1.53
-5 -3 1 7.51 1.73
-5 -3 1 8.82 1.59
5 3 -1 6.3 1.67
5 3 -1 8.86 1.86
5 3 -1 6.16 1.59
-5 -3 0 16.07 2.42
5 3 0 24.08 3.09
-5 -3 0 21.32 2.49
-5 -3 0 20.57 2.71
5 3 0 14.72 2.27
-5 -3 -1 0.32 0.81
-5 -3 -1 2.18 1.09
-5 -3 -1 2.32 0.85
5 3 1 2.81 1.2
5 3 1 4.39 1.28
-5 -3 -2 0.93 0.77
-5 -3 -2 -0.26 0.95
5 3 2 -0.62 0.72
-5 -3 -2 1.14 0.72
5 3 2 1.18 0.82
-5 -3 -3 5.06 1.35
-5 -3 -3 4.81 1.39
-5 -3 -3 3.13 1.09
5 3 3 6.47 1.6
5 3 3 3.96 1.22
-5 -3 -4 4.05 1.24
-5 -3 -4 4.27 1.26
-5 -3 -4 5 1.34
5 3 4 6.35 1.59
5 3 4 4.09 1.22
-5 -3 -5 67.86 4.7
-5 -3 -5 69.94 4.54
5 3 5 65.47 4.71
5 3 5 64.86 4.9
-5 -3 -5 58.53 4.35
-5 -3 -6 99.21 5.73
-5 -3 -6 92.27 5.28
5 3 6 96.35 5.7
5 3 6 99.88 6.28
-5 -3 -6 89.33 5.47
-5 -3 -7 156.64 7.4
5 3 7 152 7.2
-5 -3 -7 142.39 6.82
-5 -3 -7 153.34 7.26
5 3 7 153.21 7.86
-5 -3 -8 8.86 1.63
-5 -3 -8 6.24 1.37
5 3 8 5.81 1.33
5 3 8 4.56 1.42
-5 -3 -9 14.01 1.99
-5 -3 -9 14.95 1.98
5 3 9 10.29 1.69
5 3 9 11.68 2.13
-5 -3 -10 9.89 1.61
-5 -3 -10 10.92 2.07
5 3 10 11.03 1.87
5 3 10 9.69 1.93
-5 -3 -10 10.53 1.65
-5 -3 -11 -0.77 0.65
-5 -3 -11 3.09 1.39
5 3 11 2 0.96
5 3 11 -0.11 0.65
-5 -3 -11 0.75 0.63
-5 -3 -12 34.34 3.82
5 3 12 37.92 3.9
5 3 12 31.72 3.5
-5 -3 -12 36.05 4.05
-5 -3 -13 25.77 3.41
5 3 13 33.48 3.79
5 3 13 28.05 3.37
-5 -3 -13 33.17 3.81
-5 -3 -14 2.56 1.14
-5 -3 -14 4.07 1.73
5 3 14 2.83 1.11
5 3 14 2.02 0.99
-5 -3 -15 107.68 7.05
5 3 15 115.74 7.9
5 3 15 102.95 6.85
-5 -3 -15 108.72 7.25
-5 -4 10 20.34 3.75
5 4 -10 18.77 3.43
5 4 -10 20.66 3.5
-5 -4 9 19.19 3.38
5 4 -9 19.51 3.49
5 4 -9 22.78 3.58
-5 -4 8 6.74 2.21
-5 -4 8 6.11 1.69
5 4 -8 7.87 2.21
5 4 -8 5.67 1.9
-5 -4 7 24.94 3.14
-5 -4 7 29.63 4.13
5 4 -7 37.64 4.45
5 4 -7 31.17 4.06
-5 -4 6 50.92 5.2
5 4 -6 45.42 4.93
5 4 -6 38.75 4.52
-5 -4 6 42.52 4.15
-5 -4 5 24.28 3.61
-5 -4 5 22.41 3.02
-5 -4 5 24.59 2.52
5 4 -5 25.75 3.57
5 4 -5 26.98 3.52
5 4 -5 24.04 3.5
-5 -4 4 -0.49 0.83
-5 -4 4 0.11 0.68
5 4 -4 0.35 0.96
5 4 -4 1.64 1.3
-5 -4 4 -0.24 0.76
5 4 -4 0.46 1.04
-5 -4 3 1181.23 32.3
-5 -4 3 1112.48 27.95
5 4 -3 1154.41 31.66
5 4 -3 1146.45 31.3
5 4 -3 1160.32 31.34
-5 -4 3 1133.5 29.98
-5 -4 2 258.86 11.85
-5 -4 2 250.55 9.36
5 4 -2 252.27 11.41
5 4 -2 255.31 11.28
5 4 -2 243.96 11.09
-5 -4 2 245.25 10.51
-5 -4 1 5.43 1.82
-5 -4 1 3.83 1.08
5 4 -1 5.24 1.67
-5 -4 1 3.14 1.18
5 4 -1 4.52 1.39
5 4 -1 5.5 1.56
-5 -4 0 25.63 3.41
-5 -4 0 33.81 3.02
5 4 0 34.09 3.61
5 4 0 31.32 3.54
5 4 0 30.33 3.5
-5 -4 0 33.48 3.45
-5 -4 -1 82.06 5.93
-5 -4 -1 84.36 4.95
5 4 1 88.12 5.75
5 4 1 81.79 5.9
-5 -4 -1 90.32 5.73
-5 -4 -2 0.18 0.81
-5 -4 -2 -0.29 0.83
-5 -4 -2 1.68 0.86
5 4 2 0.79 0.71
5 4 2 0.4 0.94
-5 -4 -3 0.91 0.62
-5 -4 -3 0.69 0.54
5 4 3 0 0.57
-5 -4 -3 0.61 0.94
5 4 3 0.05 0.62
-5 -4 -4 33.38 3.63
-5 -4 -4 28.55 2.83
5 4 4 32 3.21
5 4 4 29.63 2.83
-5 -4 -4 32.77 3.24
5 4 4 31.53 3.59
-5 -4 -5 1.21 1.14
-5 -4 -5 0.73 0.83
-5 -4 -5 0.63 0.65
5 4 5 -0.08 0.47
5 4 5 -0.02 0.42
5 4 5 -0.09 0.75
-5 -4 -6 1.44 0.83
-5 -4 -6 3.16 1.2
-5 -4 -6 4.09 1.11
5 4 6 1.65 0.73
5 4 6 2.09 1.13
-5 -4 -7 112.1 6.69
-5 -4 -7 106.93 5.66
5 4 7 114.11 6.03
-5 -4 -7 112.8 6.29
5 4 7 102.35 6.67
-5 -4 -8 186.72 8.88
-5 -4 -8 165.97 7.33
-5 -4 -8 185.38 8.21
5 4 8 184.16 8.14
5 4 8 182.34 9.12
-5 -4 -9 112.38 6.64
-5 -4 -9 95.88 5.25
-5 -4 -9 111.17 6.01
5 4 9 110.77 6.27
5 4 9 102.92 6.78
-5 -4 -10 3.06 1.16
-5 -4 -10 2.54 0.84
5 4 10 5.01 1.53
5 4 10 3.25 1.21
-5 -4 -10 2.25 0.81
-5 -4 -11 3.06 1.07
-5 -4 -11 3.59 1.01
-5 -4 -11 5.36 1.54
5 4 11 4.39 1.47
-5 -4 -11 2.4 0.93
5 4 11 3.74 1.23
-5 -4 -12 0.7 0.57
-5 -4 -12 0.25 0.79
5 4 12 1.37 1
-5 -4 -12 0.66 0.65
5 4 12 0.87 1.09
-5 -4 -13 12.21 2.38
-5 -4 -13 11.66 2.39
-5 -4 -13 9.93 1.66
5 4 13 11.98 2.35
5 4 13 9.17 2.02
-5 -4 -14 4.69 1.71
-5 -4 -14 2.58 1.29
5 4 14 7.29 1.95
5 4 14 6.05 1.65
-5 -4 -15 2.03 1.28
-5 -4 -15 2.67 1.44
5 4 15 1.28 0.9
5 4 15 1.72 1.06
-5 -5 9 17.73 3.52
5 5 -9 17.26 3.46
5 5 -9 18.82 3.43
-5 -5 8 1.39 1.49
5 5 -8 1.45 1.69
5 5 -8 -0.4 0.82
-5 -5 7 22.93 3.68
5 5 -7 28.13 4.27
5 5 -7 25.69 3.83
-5 -5 6 18.22 3.36
-5 -5 6 24.17 3.47
5 5 -6 19.09 3.42
-5 -5 6 22.57 3.01
5 5 -6 21.22 3.51
-5 -5 5 46.37 5.23
5 5 -5 38.95 4.67
-5 -5 5 38.27 4.25
5 5 -5 37.57 4.57
-5 -5 5 36.81 3.76
-5 -5 4 187.93 10.78
-5 -5 4 190.6 7.53
5 5 -4 206.55 10.94
-5 -5 4 173.44 9.49
5 5 -4 170.28 9.91
-5 -5 4 179.05 8.83
-5 -5 3 0.96 0.89
-5 -5 3 2.81 1.15
-5 -5 3 5.52 1.24
5 5 -3 2.25 0.97
5 5 -3 4.45 1.69
5 5 -3 3.99 1.56
-5 -5 2 125.46 8.28
-5 -5 2 119.31 5.83
5 5 -2 133.96 8.41
5 5 -2 123.74 7.44
5 5 -2 122.22 7.95
-5 -5 2 119.03 6.9
-5 -5 1 53.68 5.3
-5 -5 1 56.42 3.79
5 5 -1 52.59 5.16
5 5 -1 53.53 4.68
5 5 -1 45.88 4.74
-5 -5 1 49.48 4.32
-5 -5 0 263.4 12.11
-5 -5 0 252.79 9.26
5 5 0 259.17 12.06
5 5 0 240.86 10.42
5 5 0 254.76 11.77
-5 -5 0 255.88 10.6
-5 -5 -1 234.47 11.29
-5 -5 -1 224.19 8.71
5 5 1 239.02 11.5
5 5 1 238.38 9.98
5 5 1 228.32 11.05
-5 -5 -1 239 10.15
5 5 1 256.38 9.83
-5 -5 -2 21.79 3.21
-5 -5 -2 18.8 2.19
5 5 2 16.92 2.35
-5 -5 -2 19.93 2.7
5 5 2 17.33 2.31
5 5 2 19.25 2.99
-5 -5 -3 17.37 2.84
-5 -5 -3 22.52 2.45
-5 -5 -3 26.34 3.08
5 5 3 21.07 2.58
5 5 3 16.8 2.83
-5 -5 -4 7.29 1.94
-5 -5 -4 6.47 1.48
-5 -5 -4 4.51 1.04
5 5 4 5.84 1.61
5 5 4 6.35 1.49
-5 -5 -5 34.99 3.94
-5 -5 -5 40.2 3.27
5 5 5 39.7 3.7
-5 -5 -5 43.8 3.88
5 5 5 30.92 3.78
-5 -5 -6 47.79 4.62
-5 -5 -6 41.88 3.37
-5 -5 -6 49.34 4.13
5 5 6 50.19 4.28
5 5 6 48.26 4.69
-5 -5 -7 46.75 4.64
-5 -5 -7 43.36 3.39
-5 -5 -7 48.83 4.12
5 5 7 46.05 4.2
5 5 7 48.56 4.73
-5 -5 -8 111.51 7.18
-5 -5 -8 102.78 5.34
-5 -5 -8 99.3 5.89
5 5 8 100.69 6.42
5 5 8 105.09 7.18
-5 -5 -9 29.74 3.58
-5 -5 -9 27.6 2.62
-5 -5 -9 23.08 2.71
5 5 9 29.06 3.39
5 5 9 24.29 3.35
-5 -5 -10 3.68 1.2
-5 -5 -10 2.54 0.92
5 5 10 2.29 1.08
-5 -5 -10 2.3 0.83
5 5 10 3.21 1.35
-5 -5 -11 0.26 0.66
-5 -5 -11 0 0.45
5 5 11 0.07 0.68
-5 -5 -11 1.34 0.84
5 5 11 -1.65 1.03
-5 -5 -12 5.92 1.72
-5 -5 -12 4.56 1.12
-5 -5 -12 6.85 1.76
5 5 12 3.82 1.44
-5 -5 -12 6.17 1.45
5 5 12 5.73 1.66
-5 -5 -13 -0.16 0.78
-5 -5 -13 0.57 0.73
-5 -5 -13 -1.11 1
-5 -5 -13 0.99 0.65
5 5 13 0.98 0.92
5 5 13 0.8 1.08
-5 -5 -14 -0.02 1.18
-5 -5 -14 3.56 1.37
-5 -5 -14 4.82 1.74
-5 -5 -14 3.04 1.05
5 5 14 4.73 1.84
5 5 14 3.68 1.53
-5 -5 -15 1.03 1.02
-5 -5 -15 -0.31 0.56
-5 -5 -15 2.16 1.35
5 5 15 1.59 1.19
5 5 15 2.49 1.28
-5 -6 8 7 2.44
-5 -6 8 5.6 2.14
5 6 -8 4.69 1.66
-5 -6 7 7.97 2.5
-5 -6 7 4.3 1.67
5 6 -7 6.04 2.15
5 6 -7 4.87 1.8
-5 -6 6 5.26 2.29
-5 -6 6 1.47 0.94
5 6 -6 4.39 2.09
5 6 -6 3.19 1.62
-5 -6 5 5.38 2.11
-5 -6 5 7.08 2.17
5 6 -5 4.57 2.01
5 6 -5 6.52 2.14
-5 -6 4 0.36 1.02
5 6 -4 -0.27 0.87
-5 -6 4 0.15 0.96
5 6 -4 -0.25 0.86
-5 -6 3 0.8 1.02
-5 -6 3 1.22 0.74
5 6 -3 3.25 1.75
5 6 -3 0.7 1.2
-5 -6 2 1.79 1.07
-5 -6 2 2.14 0.67
5 6 -2 3.66 1.14
-5 -6 2 3.82 1.36
5 6 -2 2.28 1.81
5 6 -2 2.46 1.63
-5 -6 1 60.93 5.95
-5 -6 1 63.36 3.95
5 6 -1 71.45 6.37
-5 -6 1 62.45 4.85
5 6 -1 59.42 5.66
-5 -6 0 9.38 2.3
-5 -6 0 4.24 1.06
-5 -6 0 6.89 1.82
5 6 0 8.07 2.06
5 6 0 8.11 2.22
5 6 0 6.88 1.69
-5 -6 -1 7.09 1.92
-5 -6 -1 6.95 1.63
-5 -6 -1 7.31 1.36
5 6 1 8.53 2.26
5 6 1 7.65 1.99
5 6 1 7.49 1.8
-5 -6 -2 31.42 4.03
-5 -6 -2 35.89 3.05
5 6 2 42.02 4.69
-5 -6 -2 35.63 3.71
5 6 2 35.9 4.28
5 6 2 40.44 3.95
-5 -6 -3 72.76 6.27
-5 -6 -3 74.87 4.47
-5 -6 -3 82.02 5.53
5 6 3 71.33 6.15
5 6 3 75.53 5.57
-5 -6 -4 7.89 1.83
-5 -6 -4 4.43 1.58
-5 -6 -4 5.22 1.19
5 6 4 6.35 1.93
5 6 4 5.7 1.59
-5 -6 -5 1.23 0.84
-5 -6 -5 0.53 0.78
-5 -6 -5 1.26 0.87
5 6 5 0.14 0.92
5 6 5 -0.3 0.56
-5 -6 -6 11.38 2.04
-5 -6 -6 13.56 2.62
-5 -6 -6 10.56 1.63
5 6 6 14.12 2.53
5 6 6 16.42 2.83
-5 -6 -7 2.01 1.22
-5 -6 -7 1.57 0.81
5 6 7 1.01 1.02
5 6 7 1.72 1.15
-5 -6 -7 0.46 0.83
-5 -6 -8 8.8 2.46
-5 -6 -8 6.94 1.44
5 6 8 5.02 1.64
5 6 8 11.29 2.31
-5 -6 -8 9.83 1.87
-5 -6 -9 1.08 1.05
-5 -6 -9 1.56 0.82
5 6 9 0.69 0.8
-5 -6 -9 -0.04 0.63
5 6 9 1.38 1
-5 -6 -10 1.45 0.75
-5 -6 -10 1.67 0.81
5 6 10 1.75 1.16
-5 -6 -10 0.77 0.89
5 6 10 1.58 1.23
-5 -6 -11 6.13 1.87
-5 -6 -11 4.7 1.09
5 6 11 2.9 1.29
-5 -6 -11 3.06 1.24
5 6 11 1.61 0.92
-5 -6 -12 1.21 1.14
-5 -6 -12 0.61 0.57
-5 -6 -12 -0.17 0.74
5 6 12 0.38 1.06
5 6 12 0.12 0.63
-5 -6 -13 13.98 2.46
-5 -6 -13 8.54 1.37
-5 -6 -13 12.84 2.56
-5 -6 -13 16.05 2.2
5 6 13 12.79 2.71
5 6 13 14.9 2.75
-5 -6 -14 0.96 0.83
-5 -6 -14 0.51 0.46
-5 -6 -14 2.28 1.03
-5 -6 -14 5.24 1.99
5 6 14 1.57 1.19
5 6 14 4.83 1.72
-5 -7 6 3.85 1.44
5 7 -6 4.47 1.84
5 7 -6 4.32 1.81
-5 -7 5 5.22 2.22
5 7 -5 5.25 2.21
5 7 -5 2.51 1.53
-5 -7 4 19.5 3.76
5 7 -4 12.04 3.04
5 7 -4 16.7 3.38
-5 -7 3 0.72 1.4
5 7 -3 3.12 1.56
5 7 -3 2.49 1.46
-5 -7 2 1.12 1.21
-5 -7 2 5.64 1.47
5 7 -2 7.31 2.48
5 7 -2 6.54 2.14
-5 -7 1 0.34 1.39
-5 -7 1 0.7 0.69
-5 -7 1 0.95 0.67
5 7 -1 1.43 1.15
5 7 -1 1.46 1.17
5 7 -1 1.56 0.98
-5 -7 0 1.96 1.08
-5 -7 0 1.09 0.96
-5 -7 0 1.37 0.72
5 7 0 1.63 1.69
5 7 0 -0.01 0.93
5 7 0 0.68 0.65
-5 -7 -1 18.97 3.42
-5 -7 -1 18.83 2.07
-5 -7 -1 24.56 3.07
5 7 1 22.83 3.81
5 7 1 22.18 3.65
5 7 1 18.86 3.13
-5 -7 -2 44.44 5.1
-5 -7 -2 33 2.82
5 7 2 41.35 5.01
-5 -7 -2 38.2 3.71
5 7 2 32.61 4.44
5 7 2 34.43 4.1
-5 -7 -3 18.72 2.62
-5 -7 -3 20.03 3.5
-5 -7 -3 20.18 2.19
5 7 3 18.48 3.3
5 7 3 17.8 2.92
-5 -7 -4 48.29 5.38
-5 -7 -4 43.58 3.24
-5 -7 -4 36.21 3.67
5 7 4 41.68 4.95
5 7 4 42.76 4.53
-5 -7 -5 9.8 2.68
-5 -7 -5 9.12 1.49
-5 -7 -5 7.76 1.65
5 7 5 12.86 2.72
5 7 5 7.49 2
-5 -7 -5 4.97 1.29
-5 -7 -6 0.36 1.28
-5 -7 -6 0.41 0.56
-5 -7 -6 0.24 0.69
-5 -7 -6 -0.62 0.88
5 7 6 0.54 1.05
5 7 6 1.57 1.24
-5 -7 -7 1.84 1.12
-5 -7 -7 2.58 0.92
5 7 7 -0.02 0.84
-5 -7 -7 1.13 0.79
5 7 7 2.23 1.41
-5 -7 -8 50.3 5.51
-5 -7 -8 48.23 3.46
-5 -7 -8 52.06 4.21
5 7 8 41.84 4.75
5 7 8 53.07 5.43
-5 -7 -9 16.48 3.21
-5 -7 -9 16.1 1.99
5 7 9 9.77 2.27
-5 -7 -9 9.95 1.9
5 7 9 11.26 2.54
-5 -7 -10 5.39 2.06
-5 -7 -10 4.25 1.14
-5 -7 -10 5.84 1.46
5 7 10 2.94 1.44
5 7 10 5.32 1.78
-5 -7 -11 24.18 3.76
-5 -7 -11 27.9 2.98
-5 -7 -11 22.54 2.36
5 7 11 26.43 3.9
5 7 11 26.62 3.8
-5 -7 -12 1.98 1.25
-5 -7 -12 1.93 0.84
-5 -7 -12 1.01 0.81
5 7 12 1.28 1.26
5 7 12 3.36 1.54
-5 -7 -13 3.41 1.75
-5 -7 -13 1.5 0.91
-5 -7 -13 -0.13 1.05
-5 -7 -13 4.04 1.08
5 7 13 -0.09 1.01
5 7 13 3.87 1.54
-5 -8 3 10 2.79
5 8 -3 16.77 3.54
-5 -8 2 -0.21 1.13
5 8 -2 1.72 1.5
5 8 -2 -0.37 1.05
5 8 -2 0.77 0.87
-5 -8 1 5.14 2.04
5 8 -1 5.24 1.98
5 8 -1 2.94 1.89
5 8 -1 5.31 1.85
-5 -8 0 5.93 2.24
-5 -8 0 7.34 1.25
5 8 0 7.44 2.39
-5 -8 0 7.37 1.91
5 8 0 5.71 2.19
5 8 0 8.99 2.44
-5 -8 -1 24.39 4.12
-5 -8 -1 17.5 1.96
5 8 1 14.72 3.24
-5 -8 -1 19.33 2.92
5 8 1 18.53 3.5
5 8 1 23.94 3.81
-5 -8 -1 19.6 2.62
-5 -8 -2 0.51 1.04
-5 -8 -2 0.28 0.52
5 8 2 -0.24 0.91
-5 -8 -2 1.5 0.91
5 8 2 -0.57 0.73
-5 -8 -2 0.93 0.86
5 8 2 0.74 1.28
-5 -8 -3 12.56 3.24
-5 -8 -3 7.95 1.4
-5 -8 -3 8.33 1.9
-5 -8 -3 9.35 1.76
5 8 3 4.69 1.95
5 8 3 7.25 2.2
-5 -8 -4 0.86 0.88
-5 -8 -4 3.45 0.93
-5 -8 -4 0.48 0.63
-5 -8 -4 2.59 0.73
5 8 4 1.77 1.29
5 8 4 1.26 1.07
-5 -8 -5 2.88 1.66
-5 -8 -5 -0.26 0.74
-5 -8 -5 1.1 0.93
-5 -8 -5 0.16 0.62
5 8 5 0.01 0.89
5 8 5 1.39 0.7
-5 -8 -6 3.66 1.82
-5 -8 -6 0.37 0.56
-5 -8 -6 2.62 1.1
-5 -8 -6 3.31 1.31
5 8 6 3.36 1.73
-5 -8 -7 9.52 2.62
-5 -8 -7 8.12 1.4
5 8 7 10.58 2.71
-5 -8 -7 9.33 1.88
5 8 7 5.89 1.95
5 8 7 6.11 2
-5 -8 -8 6.3 2.17
-5 -8 -8 4.94 1.15
5 8 8 5.23 2.04
-5 -8 -8 7.28 1.76
5 8 8 2.82 1.28
-5 -8 -9 0.01 0.83
-5 -8 -9 1.33 0.7
-5 -8 -9 4.14 1.2
5 8 9 5.15 2.07
5 8 9 0.24 0.85
-5 -8 -10 8.74 2.51
-5 -8 -10 5.78 1.28
-5 -8 -10 6.86 1.6
5 8 10 3.95 1.55
5 8 10 7.5 2.04
-6 3 1 43.85 5.67
6 -3 -1 41.19 4.94
6 -3 -1 47.88 5.62
6 -3 -1 41.48 4.78
-6 3 0 2.06 1.53
6 -3 0 4.28 1.65
6 -3 0 5.04 1.9
6 -3 0 3.09 1.42
-6 3 -1 1.59 1.21
6 -3 1 0.69 1.12
6 -3 1 1.38 1.06
6 -3 1 3.17 1.53
-6 3 -2 23.45 4.31
6 -3 2 33.7 4.56
6 -3 2 30.93 4.5
6 -3 2 30.25 3.94
-6 2 6 95.4 7.69
-6 2 6 99.45 5.53
6 -2 -6 88.08 8.18
6 -2 -6 94.56 7.37
-6 2 5 114.45 8.54
-6 2 5 138.04 6.71
6 -2 -5 127.97 9.7
6 -2 -5 122.56 8.29
-6 2 4 25.42 3.87
-6 2 4 26.57 2.84
6 -2 -4 23.85 4.08
6 -2 -4 22.26 3.37
-6 2 3 5.14 1.83
-6 2 3 6.52 1.48
6 -2 -3 4.38 1.88
6 -2 -3 8.97 2.2
-6 2 2 5.17 1.91
-6 2 2 5.41 1.35
6 -2 -2 5.63 2.25
6 -2 -2 5.91 1.76
-6 2 1 31.68 4.45
-6 2 1 35.91 3.3
6 -2 -1 31.29 4.51
6 -2 -1 25.71 3.59
6 -2 -1 31.76 3.87
-6 2 0 17.46 2.34
-6 2 0 16.07 3.17
6 -2 0 16.7 3.29
6 -2 0 11.95 2.58
6 -2 0 10.94 2.25
-6 2 -1 10.21 2.7
-6 2 -1 16.02 2.25
6 -2 1 15.95 3.11
6 -2 1 18.33 3.24
6 -2 1 12.23 2.38
-6 2 -2 5.44 2.07
-6 2 -2 13.09 2.04
6 -2 2 12.32 2.82
6 -2 2 11.27 2.5
6 -2 2 9.65 2.07
-6 2 -3 17.98 2.36
-6 2 -3 13.86 3.21
6 -2 3 10.71 2.7
6 -2 3 12.34 2.66
6 -2 3 13.43 2.43
-6 2 -4 32.57 3.11
-6 2 -4 34.48 4.99
6 -2 4 30.62 4.12
6 -2 4 25.85 4.01
-6 2 -5 -1.62 1.25
-6 2 -5 0.73 0.67
6 -2 5 2.63 1.46
6 -2 5 0.52 1.03
-6 2 -6 0.01 0.74
-6 2 -6 1.29 0.64
6 -2 6 2.22 1.37
6 -2 6 0.13 0.88
-6 2 -7 2.13 0.84
-6 2 -7 2.98 1.74
6 -2 7 3.11 1.43
6 -2 7 3.99 1.84
-6 1 8 5.03 1.78
6 -1 -8 5.37 2.16
6 -1 -8 7.16 2.05
-6 1 7 11.73 2.53
-6 1 7 14.41 2.15
6 -1 -7 19.97 3.91
6 -1 -7 12.12 2.53
-6 1 6 1.83 1.1
-6 1 6 1.14 0.84
6 -1 -6 0.33 1.27
6 -1 -6 0.4 0.98
-6 1 5 73.09 6.19
-6 1 5 64.36 4.53
6 -1 -5 66.23 7.02
6 -1 -5 59.57 5.41
-6 1 4 40.44 4.52
-6 1 4 48.69 3.94
6 -1 -4 47.87 4.68
-6 1 3 7.88 1.97
-6 1 3 12.7 2.04
6 -1 -3 9.18 2.52
6 -1 -3 11.95 2.32
-6 1 2 0.92 0.86
-6 1 2 1.12 0.82
6 -1 -2 -0.05 1.15
6 -1 -2 1.21 0.68
-6 1 1 31.49 4.06
-6 1 1 37.36 3.53
6 -1 -1 32.83 4.46
6 -1 -1 32.08 3.66
-6 1 0 0.71 0.93
-6 1 0 0.42 0.66
6 -1 0 1.11 1.08
6 -1 0 0.91 0.74
6 -1 0 0.61 0.59
-6 1 -1 2.81 1.35
-6 1 -1 1.3 0.89
6 -1 1 2.84 1.76
6 -1 1 0.5 0.68
6 -1 1 3.48 1.37
-6 1 -2 17.57 3.15
-6 1 -2 19.43 2.54
6 -1 2 21.73 3.53
6 -1 2 15.68 2.79
6 -1 2 19.45 2.69
-6 1 -3 0.81 0.99
-6 1 -3 2.62 1.09
6 -1 3 0.48 0.78
6 -1 3 1.5 0.87
6 -1 3 2.85 1.05
-6 1 -4 -1.25 1.05
-6 1 -4 2.44 1.02
-6 1 -4 1.34 0.92
6 -1 4 1.43 0.71
6 -1 4 1.67 1.2
6 -1 4 0.13 0.57
-6 1 -5 5.63 2.1
-6 1 -5 4.51 1.21
-6 1 -5 3.56 1.24
6 -1 5 2.78 1.21
6 -1 5 4.44 1.57
-6 1 -6 1.38 0.71
-6 1 -6 1.52 1.21
-6 1 -6 3.98 1.39
6 -1 6 2.76 1.28
6 -1 6 1.79 1.2
-6 1 -7 46.47 5.5
6 -1 7 44.27 5.12
-6 1 -7 53.97 4.03
6 -1 7 55.77 5.52
-6 1 -8 14.82 2.04
-6 1 -8 17.01 3.31
6 -1 8 16.44 2.92
6 -1 8 10.39 2.57
-6 1 -9 0.84 0.7
6 -1 9 1.1 0.82
-6 1 -10 4.68 1.76
6 -1 10 6.48 2.15
6 -1 10 5.07 1.5
-6 0 9 15.5 2.84
6 0 -9 15.31 3.55
-6 0 8 0.64 0.8
6 0 -8 0.17 1.18
-6 0 7 16.04 2.78
6 0 -7 8.74 2.51
6 0 -7 16.15 2.89
-6 0 6 22.21 3.18
-6 0 6 10.53 1.89
6 0 -6 23.63 4.32
6 0 -6 14.14 2.67
-6 0 5 5.36 1.61
-6 0 5 5.07 1.36
6 0 -5 8.16 2.58
6 0 -5 4.32 1.5
-6 0 4 52.86 4.85
-6 0 4 56.96 4.4
6 0 -4 53.25 6.04
6 0 -4 53.31 4.87
-6 0 3 23.19 3.12
-6 0 3 21.96 2.76
6 0 -3 27.62 4.18
6 0 -3 21.91 3.06
-6 0 2 59.25 5.09
-6 0 2 55.43 4.38
6 0 -2 54.54 5.88
6 0 -2 56.23 4.75
-6 0 1 7.71 1.8
-6 0 1 8.79 1.72
6 0 -1 12.26 2.83
6 0 -1 8.54 1.76
-6 0 0 15.84 2.63
-6 0 0 13.32 2.1
6 0 0 13.91 2.93
6 0 0 15.44 2.44
-6 0 -1 39.97 4.21
6 0 1 35.56 3.67
-6 0 -1 34.61 3.37
6 0 1 33.96 4.47
6 0 1 33.35 3.45
-6 0 -2 78.58 6.12
6 0 2 77.27 5.69
-6 0 -2 75.3 5.11
-6 0 -2 73.55 5.62
6 0 2 77.66 6.62
6 0 2 81.64 5.35
-6 0 -3 1.67 1
-6 0 -3 -0.55 0.86
-6 0 -3 0.64 0.9
-6 0 -3 2.28 1.2
6 0 3 0.29 0.95
6 0 3 2.89 1.36
6 0 3 1.73 0.83
-6 0 -4 35.87 4.2
6 0 4 27.09 3.46
-6 0 -4 29.82 3.17
-6 0 -4 32.71 3.77
6 0 4 29.06 3.96
6 0 4 31.05 3.13
-6 0 -4 28.42 3.26
-6 0 -5 65.81 6.03
6 0 5 59.89 5.32
-6 0 -5 62.95 4.59
-6 0 -5 61.37 5.18
6 0 5 65.82 5.88
6 0 6 58.16 5.5
-6 0 -6 59.87 4.45
-6 0 -6 69.11 5.48
6 0 6 67.44 5.98
6 0 6 67.46 4.18
6 0 7 71.07 6.22
-6 0 -7 79.2 5.1
-6 0 -7 88.08 6.14
6 0 7 76.67 6.26
6 0 7 92.75 5.09
-6 0 -7 83.84 5.15
-6 0 -8 11.03 1.85
-6 0 -8 11.25 1.84
6 0 8 10.48 2.38
6 0 8 12.65 2.71
6 0 8 8.42 1.85
-6 0 -9 0.63 0.69
-6 0 -9 1.12 0.7
6 0 9 0.5 1.09
6 0 9 0.51 0.86
6 0 9 1.29 0.73
-6 0 -10 4.03 1.3
6 0 10 2.63 1.68
6 0 10 5.7 1.45
-6 0 -11 0.71 0.81
6 0 11 -0.01 0.65
-6 -1 9 8.7 1.99
-6 -1 9 7.66 1.9
6 1 -9 9.27 2.75
-6 -1 8 0.45 0.64
-6 -1 8 -0.29 0.71
-6 -1 8 1.08 0.99
6 1 -8 0 1.39
-6 -1 7 2.6 1.21
-6 -1 7 2.74 1.15
-6 -1 7 -0.06 0.9
6 1 -7 2.84 1.73
-6 -1 6 10.65 2.02
-6 -1 6 10.17 2.01
-6 -1 6 12.23 1.94
-6 -1 6 8.28 1.98
6 1 -6 9.7 2.89
-6 -1 5 106.96 6.38
-6 -1 5 90.56 5.94
-6 -1 5 107.8 6.22
-6 -1 5 84.7 6.07
6 1 -5 103.51 8.47
-6 -1 4 2.74 1.24
-6 -1 4 0.58 0.55
-6 -1 4 1.99 1.19
6 1 -4 0.93 1.41
-6 -1 3 16.15 2.42
-6 -1 3 17.18 2.39
-6 -1 3 17.83 2.68
6 1 -3 18.25 3.41
-6 -1 2 42.22 3.78
-6 -1 2 40.06 3.73
-6 -1 2 37.85 3.88
6 1 -2 51.53 5.57
6 1 -2 36.26 3.75
-6 -1 1 61.53 4.62
-6 -1 1 60.91 4.99
6 1 -1 59.33 6.09
6 1 -1 60.83 4.76
-6 -1 0 1.03 0.74
-6 -1 0 0.01 0.73
6 1 0 1.91 0.98
6 1 0 0.54 0.71
-6 -1 -1 9.14 1.71
-6 -1 -1 8 1.84
6 1 1 8.22 2.18
6 1 1 11.67 1.98
6 1 1 11.8 2.09
6 1 2 35.31 3.55
-6 -1 -2 35.72 3.48
-6 -1 -2 38.83 3.98
6 1 2 43.45 4.74
6 1 2 40.79 3.58
-6 -1 -2 35.55 3.82
-6 -1 -3 -0.65 1.07
-6 -1 -3 -0.51 1.05
6 1 3 -1.11 1.28
6 1 3 0.68 0.77
6 1 3 -0.23 0.52
6 1 3 0.54 0.78
-6 -1 -3 -1.18 1.2
-6 -1 -4 3.16 1.19
-6 -1 -4 1.83 1.11
-6 -1 -4 3.95 1.31
6 1 4 1.41 1.33
6 1 4 1.91 1.07
6 1 4 1.34 0.93
6 1 4 2.44 0.98
6 1 5 873.12 26.08
-6 -1 -5 872.23 24.44
-6 -1 -5 943.06 26.17
6 1 5 947.71 27.87
6 1 5 1002.87 24.19
-6 -1 -5 905.68 25.22
6 1 6 305.25 12.91
-6 -1 -6 298.28 11.32
-6 -1 -6 304.58 12.27
6 1 6 310.93 13.3
6 1 6 330.85 11.23
-6 -1 -6 296.33 11.57
-6 -1 -7 0.83 0.91
-6 -1 -7 0.1 0.6
-6 -1 -7 1.58 1.05
6 1 7 0.32 0.88
6 1 7 -0.09 0.79
6 1 7 0.8 0.78
-6 -1 -8 22.91 2.8
-6 -1 -8 24.66 3.02
6 1 8 21.72 3.08
6 1 8 24.5 2.75
-6 -1 -8 23.54 2.85
-6 -1 -9 64.61 4.61
6 1 9 72.05 5.77
6 1 9 74.34 4.97
-6 -1 -9 65.13 4.94
-6 -1 -10 0.13 0.89
6 1 10 0.33 0.6
6 1 10 0.08 0.84
-6 -1 -11 2.78 1.13
6 1 11 4.7 1.44
-6 -1 -12 21.05 2.94
6 1 12 18.23 2.76
-6 -1 -13 3.08 1.26
6 1 13 1.73 1
-6 -2 9 30.42 3.9
6 2 -9 38.62 5.49
-6 -2 8 8.23 1.92
6 2 -8 14.01 3.39
-6 -2 7 1.11 1.08
-6 -2 7 0.94 0.64
6 2 -7 3.18 1.7
-6 -2 6 1.3 1.24
-6 -2 6 -0.26 0.8
6 2 -6 -0.95 1.24
-6 -2 5 16.46 2.65
-6 -2 5 16.25 2.5
6 2 -5 17.14 3.34
-6 -2 4 3.23 1.5
-6 -2 4 1.65 1.02
6 2 -4 1.3 1.01
-6 -2 3 30.37 3.58
-6 -2 3 33.16 3.59
6 2 -3 38.89 4.87
-6 -2 2 37.49 3.91
-6 -2 2 38.7 3.86
6 2 -2 42.09 4.86
-6 -2 1 26.96 3.29
-6 -2 1 24.89 3.1
6 2 -1 25.03 3.77
-6 -2 0 2.66 1.25
6 2 0 2.37 1.31
-6 -2 0 1.67 0.97
6 2 0 0.9 0.79
-6 -2 -1 9.66 2.04
6 2 1 8.41 2.16
-6 -2 -1 7.64 1.84
6 2 1 8.95 1.71
-6 -2 -2 3.65 1.39
6 2 2 4.33 1.66
-6 -2 -2 2.97 1.11
6 2 2 5.44 1.48
-6 -2 -3 11.38 2.17
-6 -2 -3 11.06 2.21
6 2 3 11.95 2.51
6 2 3 10.38 1.97
-6 -2 -4 161.93 8.28
6 2 4 157.43 8.96
6 2 4 166.15 7.91
-6 -2 -4 154.21 8.03
-6 -2 -5 6.63 1.58
-6 -2 -5 7.47 1.68
6 2 5 8.71 2.04
6 2 5 7.3 1.64
-6 -2 -6 72.58 5.26
6 2 6 78.61 5.92
6 2 6 72.46 5.11
-6 -2 -6 75.14 5.2
-6 -2 -7 6.55 1.6
6 2 7 7.06 1.75
-6 -2 -7 7.53 1.74
6 2 7 8.58 1.75
-6 -2 -8 127.17 7.02
6 2 8 133.59 7.8
-6 -2 -8 138.59 7.29
-6 -2 -8 141.16 7.22
6 2 8 133.85 7.19
-6 -2 -9 89.38 5.68
6 2 9 85.46 6.06
-6 -2 -9 89.02 5.81
6 2 9 92.49 5.88
-6 -2 -10 1.03 0.97
-6 -2 -10 2.13 0.97
-6 -2 -10 5.43 1.51
6 2 10 4.5 1.6
6 2 10 2.37 1.09
-6 -2 -11 7.56 1.93
-6 -2 -11 10.62 2.1
6 2 11 8.77 1.81
-6 -2 -12 10.28 2.21
-6 -2 -12 9.21 1.92
6 2 12 5.48 1.39
-6 -2 -13 43.08 4.19
6 2 13 52.78 4.67
-6 -2 -13 43.92 4.5
-6 -3 9 45.07 5.12
6 3 -9 47.76 5.97
-6 -3 8 68.83 6.2
6 3 -8 95.13 8.35
-6 -3 7 7.03 1.93
6 3 -7 10.92 2.89
-6 -3 6 60.57 5.63
-6 -3 6 50.42 4.4
6 3 -6 61.22 6.34
-6 -3 5 144.67 8.9
-6 -3 5 156.56 7.95
6 3 -5 173.45 9.62
6 3 -5 175.85 10.82
-6 -3 4 6.04 1.87
-6 -3 4 6.08 1.6
6 3 -4 7.74 2.33
6 3 -4 1.9 1.03
-6 -3 3 4.25 1.49
-6 -3 3 4.85 1.51
6 3 -3 6.77 2.02
6 3 -3 5.09 1.75
-6 -3 3 4.49 1.66
6 3 -3 7.51 1.92
-6 -3 2 1.18 1.11
-6 -3 2 2.04 1.15
-6 -3 2 1.09 0.83
6 3 -2 3.21 1.61
6 3 -2 2.08 1.16
-6 -3 1 4.94 1.47
-6 -3 1 2.45 1.14
-6 -3 1 3.41 1.5
6 3 -1 2.56 1.5
6 3 -1 6.1 1.67
-6 -3 0 20.96 3.08
-6 -3 0 21.74 2.82
6 3 0 23.7 3.53
6 3 0 24.02 3.17
-6 -3 0 24.05 3.16
-6 -3 -1 11.09 2.23
-6 -3 -1 9.02 1.92
-6 -3 -1 11.72 2.13
6 3 1 10.13 2.21
6 3 1 9.34 1.98
-6 -3 -2 -0.04 0.69
-6 -3 -2 2.73 1.33
6 3 2 0.86 0.83
-6 -3 -2 0.69 1.04
6 3 2 2.52 1.16
-6 -3 -3 58.29 4.73
-6 -3 -3 57.53 4.63
6 3 3 67.66 5.64
6 3 3 70.42 5.42
-6 -3 -3 66.84 5.2
-6 -3 -4 30.68 3.3
6 3 4 33.01 3.82
6 3 4 30.63 3.53
-6 -3 -4 31.62 3.52
-6 -3 -5 -1.47 1.09
6 3 5 1.37 0.95
6 3 5 -0.41 0.64
-6 -3 -5 0.33 0.72
-6 -3 -6 4.02 1.21
6 3 6 5.19 1.6
-6 -3 -6 5.08 1.48
6 3 6 4.44 1.44
6 3 7 25.68 3.16
-6 -3 -7 19.55 2.61
-6 -3 -7 23.02 2.84
6 3 7 23.44 3.03
-6 -3 -8 0.21 0.72
-6 -3 -8 0.16 0.52
6 3 8 -0.08 0.49
6 3 8 1.36 1.09
-6 -3 -9 1.28 0.85
-6 -3 -9 0.19 0.65
6 3 9 1.24 0.85
6 3 9 2.29 1.17
-6 -3 -10 4.87 1.31
-6 -3 -10 3.91 1.18
-6 -3 -10 4.26 1.6
6 3 10 5.14 1.67
-6 -3 -11 18.51 2.4
-6 -3 -11 13.33 2.42
6 3 11 17.31 2.7
-6 -3 -12 14.23 2.71
-6 -3 -12 17.19 2.89
6 3 12 12.78 2.45
-6 -3 -13 -1.58 1.23
-6 -3 -13 -1.08 0.9
6 3 13 1.86 1.19
-6 -3 -14 26.33 3.65
-6 -3 -14 19.46 2.98
6 3 14 21.36 3.11
-6 -4 9 8.61 2.47
6 4 -9 13.71 3.09
6 4 -9 11.14 2.9
-6 -4 9 10.58 2.4
-6 -4 8 2.26 1.37
-6 -4 8 1.92 1.46
6 4 -8 -0.38 0.84
6 4 -8 1.19 1.29
-6 -4 7 4.6 1.67
-6 -4 7 3.95 1.63
6 4 -7 3.85 1.54
6 4 -7 3.08 1.35
-6 -4 6 57.24 5.84
6 4 -6 59.91 5.89
6 4 -6 61.31 6.24
6 4 -6 58.48 5.61
-6 -4 6 55.27 5.12
-6 -4 5 118.2 8.39
-6 -4 5 117.68 6.53
6 4 -5 128.41 8.52
6 4 -5 122.09 8.9
6 4 -5 114.25 7.98
-6 -4 5 112.2 7.43
-6 -4 4 20.75 3.4
-6 -4 4 18.94 2.5
6 4 -4 22.95 3.65
6 4 -4 23.36 3.5
6 4 -4 20.97 3.36
-6 -4 4 23.31 3.26
-6 -4 3 17.01 3.18
-6 -4 3 15.15 2.29
6 4 -3 16.05 3.04
-6 -4 3 14.75 2.58
6 4 -3 15.36 2.93
6 4 -3 14.44 2.79
-6 -4 2 2.22 1.12
-6 -4 2 2.01 0.97
-6 -4 2 2.25 0.84
6 4 -2 3.99 1.54
6 4 -2 2.72 1.28
6 4 -2 2.4 1.13
-6 -4 1 -0.21 1.13
-6 -4 1 0.93 0.7
6 4 -1 -0.33 1.15
6 4 -1 0.36 0.98
6 4 -1 0.91 0.71
-6 -4 1 0.04 0.94
-6 -4 0 1.81 1.26
-6 -4 0 2.63 0.92
6 4 0 5.75 1.73
-6 -4 0 2.1 0.86
6 4 0 2.83 1.09
-6 -4 -1 13.61 2.58
-6 -4 -1 12.1 2.06
-6 -4 -1 12.35 2.35
6 4 1 8.63 2.08
6 4 1 10.75 2.19
-6 -4 -2 25.07 3.35
-6 -4 -2 25.2 2.91
6 4 2 23.62 3.28
6 4 2 26.36 3.59
-6 -4 -2 27.6 3.33
-6 -4 -3 4.49 1.45
-6 -4 -3 0.52 0.66
-6 -4 -3 4.24 1.28
6 4 3 3.73 1.25
6 4 3 3.97 1.31
-6 -4 -4 42.03 4.22
-6 -4 -4 35.94 3.56
6 4 4 37 3.98
6 4 4 36.74 4.19
-6 -4 -4 39.04 3.88
-6 -4 -5 -0.28 0.79
-6 -4 -5 0.34 0.6
6 4 5 1.21 0.84
-6 -4 -5 0.48 0.77
6 4 5 -0.36 1.02
-6 -4 -6 3.1 1.19
-6 -4 -6 2.9 1.12
-6 -4 -6 1.97 0.92
6 4 6 3.07 1.16
-6 -4 -7 3.19 1.19
-6 -4 -7 3.6 1.19
6 4 7 3.25 1.36
-6 -4 -8 5.14 1.52
-6 -4 -8 6.75 1.62
6 4 8 5.32 1.58
-6 -4 -9 11.19 2.03
-6 -4 -9 8.37 1.68
6 4 9 10.86 2.35
-6 -4 -10 14.08 2.17
-6 -4 -10 10.89 1.84
6 4 10 11.56 2.34
-6 -4 -11 0.51 0.54
-6 -4 -11 -0.66 1.14
6 4 11 0.64 0.8
-6 -4 -11 1.3 0.82
-6 -4 -12 7.56 1.49
-6 -4 -12 11 2.41
-6 -4 -12 9.35 1.74
6 4 12 10.41 2.26
-6 -4 -13 1.64 1.02
-6 -4 -13 -0.04 1.2
6 4 13 1.9 1.24
-6 -4 -14 0.3 1.12
-6 -4 -14 0.51 0.99
6 4 14 2.49 1.32
-6 -5 7 -0.32 0.89
-6 -5 7 0.27 0.81
6 5 -7 0.63 1.15
6 5 -7 0.33 1.01
-6 -5 6 2.77 1.32
6 5 -6 1.23 1.01
6 5 -6 4.43 1.84
6 5 -6 4.77 1.83
-6 -5 6 1.62 1.29
-6 -5 5 -0.03 0.97
6 5 -5 0.1 0.87
6 5 -5 0.26 0.81
-6 -5 5 1.95 1.24
6 5 -5 -0.05 0.83
-6 -5 4 21.04 3.64
-6 -5 4 17.97 2.44
6 5 -4 17.26 3.15
-6 -5 4 15.94 2.77
6 5 -4 14.45 2.97
6 5 -4 17.46 3.16
-6 -5 3 104.71 8.14
-6 -5 3 98.01 5.71
6 5 -3 98.66 7.7
6 5 -3 92.98 7.25
6 5 -3 107.25 7.78
-6 -5 3 87.65 6.48
-6 -5 2 14.47 3.08
-6 -5 2 11.69 1.9
-6 -5 2 15.8 2.74
6 5 -2 10.5 2.51
6 5 -2 16.42 3.1
6 5 -2 17.33 3.08
-6 -5 1 31.32 4.19
-6 -5 1 37.17 3.43
6 5 -1 39.84 4.77
6 5 -1 36.91 4.28
6 5 -1 33.14 4.18
-6 -5 1 30.16 3.7
-6 -5 0 35.81 4.4
-6 -5 0 28.73 3.08
6 5 0 31.54 3.86
6 5 0 33.71 4.22
-6 -5 0 33.08 3.77
6 5 0 27.19 3.78
-6 -5 -1 307.84 13.79
-6 -5 -1 289.88 11.09
6 5 1 301.59 12.77
6 5 1 322.92 13.95
-6 -5 -1 298.45 12.43
-6 -5 -2 141.75 8.68
-6 -5 -2 128.8 6.81
6 5 2 122.61 7.55
6 5 2 128.91 8.36
-6 -5 -2 122.52 7.43
-6 -5 -3 8.18 2.14
-6 -5 -3 7.86 1.69
-6 -5 -3 9.95 2.13
6 5 3 7 2.02
-6 -5 -4 7.61 2.11
-6 -5 -4 3.64 0.98
-6 -5 -4 5.86 1.72
6 5 4 2.14 1.14
-6 -5 -5 4.22 1.72
-6 -5 -5 0.49 0.98
-6 -5 -5 3.15 1.14
6 5 5 0.38 1.12
-6 -5 -6 1.8 1.6
-6 -5 -6 2.73 1.22
-6 -5 -6 2.66 1.1
6 5 6 0.58 0.82
-6 -5 -7 0.17 0.78
-6 -5 -7 1.13 1.32
-6 -5 -7 0.31 0.7
6 5 7 -0.21 0.83
-6 -5 -8 16.17 2.52
-6 -5 -8 19.45 3.04
-6 -5 -8 18.15 2.32
6 5 8 17.84 2.94
-6 -5 -9 15.29 2.47
-6 -5 -9 16.81 2.91
-6 -5 -9 12.88 2.04
6 5 9 16.51 2.92
-6 -5 -10 2.79 1.37
-6 -5 -10 0.89 0.62
6 5 10 2.56 1.01
-6 -5 -10 -0.35 0.8
-6 -5 -11 30.01 2.99
-6 -5 -11 32.04 3.37
6 5 11 31.36 4.05
-6 -5 -12 29.67 3.16
-6 -5 -12 25.45 3.78
6 5 12 27.21 3.73
-6 -5 -12 27.29 2.77
-6 -5 -13 2.35 0.91
-6 -5 -13 0.91 0.78
-6 -5 -13 1.77 0.98
6 5 13 0.04 0.74
-6 -5 -14 2.52 1.37
-6 -5 -14 3.26 1.55
-6 -5 -14 5.12 1.33
6 5 14 3.88 1.51
-6 -6 6 20.66 3.87
6 6 -6 22.06 3.75
6 6 -6 25.62 4.4
6 6 -6 18.62 3.59
-6 -6 5 16.28 2.76
-6 -6 5 17.25 3.53
6 6 -5 10.8 2.65
6 6 -5 13.05 3.17
6 6 -5 19.45 3.66
-6 -6 4 17.96 2.77
-6 -6 4 16.74 3.28
6 6 -4 18.51 3.26
6 6 -4 13.97 3.24
6 6 -4 19.18 3.62
-6 -6 3 32.25 4.75
-6 -6 3 31.61 3.06
6 6 -3 39.48 5.04
6 6 -3 32.68 4.2
6 6 -3 36.04 4.72
-6 -6 3 39.66 4.26
-6 -6 2 14.33 3.15
-6 -6 2 11.16 1.83
6 6 -2 14.3 2.75
6 6 -2 15.63 3.3
6 6 -2 15.2 3.08
-6 -6 2 14.59 2.6
-6 -6 1 23.89 3.94
-6 -6 1 24.37 2.69
6 6 -1 17.34 3.28
-6 -6 1 25.25 3.29
6 6 -1 16.85 3.07
-6 -6 0 124.04 8.81
-6 -6 0 108.55 6.01
6 6 0 116 8.57
-6 -6 0 116.94 7.34
6 6 0 124.61 8.68
-6 -6 -1 156.93 9.93
-6 -6 -1 142.53 7.11
-6 -6 -1 163.45 8.73
6 6 1 151.79 9.57
-6 -6 -2 133.49 8.99
-6 -6 -2 123.85 6.55
-6 -6 -2 128.32 7.73
6 6 2 142.18 9.11
-6 -6 -3 3.14 1.83
-6 -6 -3 2.02 1.4
-6 -6 -3 1.26 0.68
6 6 3 1.86 1.3
-6 -6 -4 129.06 8.68
-6 -6 -4 117.18 6.34
-6 -6 -4 128.47 7.66
6 6 4 130.85 8.68
-6 -6 -5 149.43 9.43
-6 -6 -5 141.42 7.06
-6 -6 -5 164.91 8.59
6 6 5 144.39 9.24
-6 -6 -6 9.22 2.16
-6 -6 -6 4.91 1.38
6 6 6 9.55 2.41
-6 -6 -7 8.38 1.91
-6 -6 -7 5.21 1.67
-6 -6 -7 4.52 1.11
6 6 7 3.69 1.58
-6 -6 -8 0.35 1.04
-6 -6 -8 0.12 0.76
-6 -6 -8 1.06 0.55
6 6 8 0.19 0.84
-6 -6 -9 2.63 1.19
-6 -6 -9 1.19 0.97
6 6 9 0.28 0.72
-6 -6 -9 1.62 0.89
-6 -6 -10 27.96 3.89
-6 -6 -10 26.02 2.85
-6 -6 -10 28.61 3.28
6 6 10 31.5 4.23
-6 -6 -11 29.45 3.96
-6 -6 -11 26.2 2.77
-6 -6 -11 28.91 3.31
6 6 11 26.29 3.86
-6 -6 -12 93.25 7.13
-6 -6 -12 77 4.82
-6 -6 -12 92.51 5.83
6 6 12 86.91 6.98
-6 -6 -13 10.4 2.41
-6 -6 -13 11.78 1.82
-6 -6 -13 10.78 2.6
-6 -6 -13 15.66 2.3
6 6 13 12.07 2.64
-6 -7 4 6.71 2.2
6 7 -4 10.58 2.77
6 7 -4 13.08 3.04
-6 -7 3 12.55 3.3
-6 -7 3 13.16 2.35
6 7 -3 13.72 3.35
6 7 -3 11.55 2.86
-6 -7 2 13.75 3.11
-6 -7 2 14.75 2.58
6 7 -2 15.38 3.34
6 7 -2 17.36 3.47
-6 -7 1 13.4 3.22
-6 -7 1 10.71 1.76
-6 -7 1 11.6 2.3
6 7 -1 7.73 2.2
6 7 -1 8.48 2.45
-6 -7 0 1.5 1.46
-6 -7 0 2.81 1.22
-6 -7 0 1.53 0.72
6 7 0 -0.17 1.4
6 7 0 0.99 0.89
-6 -7 -1 2.25 1.35
-6 -7 -1 0.75 1.04
-6 -7 -1 0.77 0.55
6 7 1 2.1 1.31
6 7 1 1.22 1.09
-6 -7 -2 6.33 2.06
-6 -7 -2 5.97 1.68
-6 -7 -2 2.61 0.95
6 7 2 5.13 1.93
-6 -7 -3 17.39 2.78
-6 -7 -3 22.66 3.82
-6 -7 -3 20.66 2.49
6 7 3 20.89 3.57
-6 -7 -4 103.15 8.18
-6 -7 -4 97.69 5.57
-6 -7 -4 111.02 7.1
6 7 4 99.87 8.12
-6 -7 -5 25.9 3.28
-6 -7 -5 28.49 4.22
-6 -7 -5 26.31 2.79
6 7 5 25.12 3.94
-6 -7 -6 7.98 1.84
-6 -7 -6 7.05 2.18
-6 -7 -6 4.56 1.31
6 7 6 3.38 1.63
6 7 6 4.5 1.74
-6 -7 -7 2.58 1.47
-6 -7 -7 1.46 0.69
6 7 7 1.98 0.81
6 7 7 -0.15 1.13
-6 -7 -7 3.49 1.05
-6 -7 -8 0.59 1.04
-6 -7 -8 -0.53 0.62
6 7 8 1.48 1.05
6 7 8 0.55 1.04
-6 -7 -8 -0.04 0.84
-6 -7 -9 0.68 1.67
-6 -7 -9 1.75 0.9
6 7 9 0.61 0.92
-6 -7 -9 -1.09 1
6 7 9 1.47 1.3
-6 -7 -10 -0.65 1.03
-6 -7 -10 1.04 0.68
6 7 10 0.44 0.82
-6 -7 -10 0.04 0.74
6 7 10 -0.9 0.92
-6 -7 -11 32.12 4.45
-6 -7 -11 25.97 2.74
-6 -7 -11 27.09 3.2
6 7 11 32.97 4.56
6 7 11 27.82 4.16
-6 -8 0 4.11 1.42
-6 -8 0 5.17 1.89
-6 -8 0 6.19 1.27
6 8 0 3.69 1.88
6 8 0 2.41 1.33
-6 -8 -1 7.89 1.87
-6 -8 -1 6.36 2.26
-6 -8 -1 9.43 1.62
6 8 1 6.47 2.23
6 8 1 12.2 3.12
-6 -8 -2 14.25 2.47
-6 -8 -2 9.6 2.66
-6 -8 -2 10.32 1.75
6 8 2 9.18 2.56
-6 -8 -3 2.66 0.92
-6 -8 -3 4.04 1.98
-6 -8 -3 4.96 1.23
6 8 3 2.62 1.47
-6 -8 -4 -0.27 1.47
-6 -8 -4 0.8 0.71
-6 -8 -4 2.53 1.15
6 8 4 0.74 1
-6 -8 -4 -0.83 1.21
-6 -8 -5 19.47 3.75
-6 -8 -5 17.54 2.19
-6 -8 -5 14.62 2.44
6 8 5 13.7 3.02
-6 -8 -5 15.05 2.58
6 8 5 17.31 3.14
-6 -8 -6 39.85 5.35
-6 -8 -6 41.3 3.44
-6 -8 -6 45.07 4.36
6 8 6 39.45 4.9
6 8 6 47.54 5.69
6 8 6 41.61 4.8
-6 -8 -7 12.63 3.1
-6 -8 -7 14.36 2.09
6 8 7 12.39 2.81
-6 -8 -7 11.62 2.23
6 8 7 11.13 2.81
-6 -8 -8 6.61 2.1
-6 -8 -8 7.31 1.47
6 8 8 6.78 2.04
-6 -8 -8 4.37 1.51
6 8 8 8.44 2.37
-7 1 2 101.69 7.83
7 -1 -2 109.05 9.3
7 -1 -2 96.53 7.29
-7 1 1 133.73 9.22
7 -1 -1 151.98 10.81
7 -1 -1 134.9 8.61
-7 1 0 3.82 1.8
7 -1 0 4.64 2.18
7 -1 0 3.06 1.5
7 -1 1 -0.45 0.98
7 -1 1 -0.06 0.76
-7 1 -2 4.12 1.8
7 -1 2 3.91 1.37
-7 1 -3 3.45 1.39
7 -1 3 1.31 1.56
7 -1 3 0.58 0.81
7 -1 3 -0.87 1.05
-7 1 -4 3.07 1.2
7 -1 4 3.4 1.75
7 -1 4 3.84 1.49
-7 1 -5 34.12 4.26
7 -1 5 33.96 4.67
-7 0 5 12.07 2.12
7 0 -5 13.36 3.44
7 0 -5 8.18 2.13
-7 0 4 1.06 0.87
7 0 -4 -0.29 0.93
7 0 -4 0.08 0.69
-7 0 3 3.12 1.22
7 0 -3 4.12 1.93
7 0 -3 2.97 1.48
-7 0 2 90.86 6
7 0 -2 76.66 7.65
7 0 -2 68.62 5.84
-7 0 1 63.76 5
-7 0 1 50.23 4.92
7 0 -1 59.99 6.62
7 0 -1 60.64 5.34
-7 0 0 89 6
-7 0 0 81.1 6.28
7 0 0 91.01 8.11
7 0 0 80.84 6.13
-7 0 -1 -0.34 0.55
-7 0 -1 0.1 0.82
7 0 1 0.63 0.61
-7 0 -2 31.58 4.05
-7 0 -2 33.97 3.61
-7 0 -2 30.04 3.89
7 0 2 34.87 4.86
7 0 2 30.15 3.56
7 0 3 96.28 6.99
-7 0 -3 92.44 6.06
-7 0 -3 83.18 6.56
7 0 3 91.24 7.78
7 0 3 92.7 6.26
-7 0 -4 13.04 2.35
-7 0 -4 11.49 2.44
7 0 4 11.54 2.8
7 0 4 13.7 2.73
-7 0 -5 17.37 2.55
-7 0 -5 15.84 2.84
7 0 5 19.55 3.45
7 0 5 17.2 3.12
-7 0 -6 1.56 0.81
-7 0 -6 2.08 1.4
7 0 6 1.07 1.13
7 0 6 1.16 0.9
-7 0 -7 6.5 1.63
-7 0 -7 13.92 2.73
7 0 7 14.44 3.09
7 0 7 9.28 2.46
-7 0 -8 0.55 0.63
7 0 8 2.33 1.48
-7 -1 6 -1.73 1.09
-7 -1 6 2.12 1.05
7 1 -6 2.1 1.95
-7 -1 5 11.81 2.16
-7 -1 5 10.55 2.24
7 1 -5 15.67 3.64
-7 -1 4 7.52 1.79
-7 -1 4 2.79 1.21
7 1 -4 3.89 2.02
-7 -1 3 1.63 0.67
-7 -1 3 0.91 0.77
-7 -1 2 0.66 0.76
-7 -1 2 -0.25 1.08
-7 -1 1 4.2 1.41
-7 -1 1 5.15 1.6
7 1 -1 5.66 1.94
-7 -1 0 -0.12 0.76
-7 -1 0 1.68 1.25
7 1 0 3 1.71
-7 -1 -1 6.93 1.98
-7 -1 -1 6.34 1.6
-7 -1 -1 3.45 1.43
7 1 1 3.19 1.52
7 1 1 4.11 1.51
-7 -1 -2 94.78 6.27
-7 -1 -2 91.59 6.75
7 1 2 102.79 8.24
7 1 2 97.7 6.32
-7 -1 -2 95.67 6.98
7 1 3 75.09 5.8
-7 -1 -3 78.78 5.67
-7 -1 -3 76.71 6.17
7 1 3 81.53 7.13
7 1 3 79.22 5.58
-7 -1 -3 82.03 6.31
-7 -1 -4 7.7 1.98
-7 -1 -4 7.15 1.7
-7 -1 -4 6.07 1.72
7 1 4 6.96 1.9
7 1 4 7.8 2.16
-7 -1 -5 3.72 1.18
-7 -1 -5 8.52 2.02
7 1 5 4.2 1.46
7 1 5 7.88 2.31
-7 -1 -6 0.14 0.91
-7 -1 -6 2.11 1.24
7 1 6 1.15 0.8
7 1 6 1.02 1.2
-7 -1 -7 -0.51 0.92
7 1 7 -0.3 0.67
-7 -1 -8 2.94 1.11
-7 -1 -8 3.81 1.37
-7 -1 -8 3.48 1.37
7 1 8 4.23 1.6
7 1 8 2.95 1.15
-7 -1 -9 3.93 1.22
-7 -1 -9 4.25 1.39
7 1 9 4.92 1.69
7 1 9 7.16 1.61
-7 -1 -10 0.93 0.93
7 1 10 2.63 1.61
7 1 10 2.91 1.1
-7 -2 6 28.15 3.61
7 2 -6 42.71 5.93
-7 -2 5 2.32 1.1
-7 -2 5 1.65 0.96
7 2 -5 1.68 1.81
-7 -2 4 3.35 1.2
-7 -2 4 4.51 1.5
7 2 -4 2.64 1.9
-7 -2 3 0.69 1.12
7 2 -3 4.79 1.99
-7 -2 2 26.7 3.5
7 2 -2 22.41 4.06
-7 -2 1 28.05 3.85
7 2 -1 27.09 4.3
-7 -2 0 1.15 1.28
7 2 0 0.02 0.95
-7 -2 0 0.79 0.81
-7 -2 -1 2.86 1.39
-7 -2 -1 1.94 0.86
7 2 1 3.29 2.25
-7 -2 -2 4.41 1.57
-7 -2 -2 7.44 1.83
7 2 2 5.23 1.74
-7 -2 -3 28.19 3.63
-7 -2 -3 21.64 3.16
7 2 3 27.54 4.07
-7 -2 -4 12.6 2.42
7 2 4 14.9 2.97
-7 -2 -4 13.57 2.48
7 2 4 15.06 2.38
-7 -2 -5 35.76 4.05
7 2 5 41.78 4.91
7 2 5 39.38 3.78
-7 -2 -5 43.78 4.35
-7 -2 -6 9.1 1.95
-7 -2 -6 11.32 2.32
7 2 6 9.95 2.49
7 2 6 9.8 2.03
-7 -2 -7 3.33 1.15
7 2 7 3.33 1.39
-7 -2 -7 1.8 0.83
7 2 7 3.71 1.34
-7 -2 -8 61.4 4.89
-7 -2 -8 60.75 5.17
7 2 8 67.33 5.97
7 2 8 75.98 5.44
-7 -2 -9 243.67 10.94
7 2 9 271.93 12.41
7 2 9 262.24 11.05
-7 -2 -9 266.81 11.49
7 2 10 158.97 9.31
7 2 10 186.02 9.05
-7 -2 -10 159.58 8.81
-7 -2 -11 3.25 1.33
7 2 11 4.26 1.67
7 2 11 1.09 0.77
-7 -3 6 12.55 2.77
-7 -3 6 14.23 2.53
7 3 -6 14.39 3.37
-7 -3 5 13.19 2.66
-7 -3 5 13.95 2.44
7 3 -5 20 3.92
-7 -3 4 1.94 1.18
-7 -3 4 -0.27 0.88
7 3 -4 0.62 1
-7 -3 4 2 0.97
-7 -3 3 0.25 0.74
-7 -3 3 -0.07 0.83
7 3 -3 -0.45 1.11
-7 -3 3 0.76 1.02
-7 -3 2 4.72 1.55
7 3 -2 2.62 1.5
-7 -3 2 6.29 2.04
-7 -3 1 22.83 3.38
-7 -3 1 20.55 2.97
7 3 -1 26.44 4.09
-7 -3 0 18.95 2.87
-7 -3 0 20.63 3.19
7 3 0 16.1 3.25
-7 -3 -1 67.9 5.53
7 3 1 93.78 7.58
7 3 1 85.79 6.34
-7 -3 -1 70.36 6.03
-7 -3 -2 37.45 4.08
7 3 2 37.89 4.78
7 3 2 41.36 4.3
-7 -3 -2 39.98 4.45
-7 -3 -3 21.98 3.2
-7 -3 -3 19.96 3.13
7 3 3 21.01 3.55
7 3 3 21.37 3.07
-7 -3 -4 3.56 1.43
-7 -3 -4 3.66 1.6
7 3 4 3.14 1.42
7 3 4 3.12 1.2
-7 -3 -5 8.7 1.97
-7 -3 -5 10.16 2.1
7 3 5 15.82 2.88
7 3 5 9.24 1.95
-7 -3 -6 14.56 2.48
7 3 6 12.63 2.5
-7 -3 -6 13.92 2.42
7 3 6 13.32 2.41
-7 -3 -7 13.95 2.45
7 3 7 13.78 2.63
-7 -3 -7 15.83 2.59
7 3 7 14.33 2.48
-7 -3 -8 76.18 5.68
7 3 8 76.98 6.11
-7 -3 -8 74.64 5.64
7 3 8 82.31 6.11
-7 -3 -9 95.11 6.38
-7 -3 -9 104.75 6.97
-7 -3 -9 101.22 6.57
7 3 9 106.24 6.99
-7 -3 -10 48.18 4.4
-7 -3 -10 53.88 4.99
-7 -3 -11 2.87 1.39
-7 -3 -11 2.19 1.36
-7 -4 6 45.02 5.31
7 4 -6 53.54 6.38
-7 -4 6 44.3 4.93
-7 -4 5 119.38 8.82
-7 -4 5 129.35 7.49
7 4 -5 132.73 10.12
-7 -4 5 129.76 8.6
-7 -4 4 1.92 1.54
-7 -4 4 0.94 1.11
7 4 -4 0.21 0.89
7 4 -4 0.66 1.14
-7 -4 4 -0.82 0.94
-7 -4 3 27.34 4.06
-7 -4 3 21.09 2.94
-7 -4 3 24.85 3.68
7 4 -3 24.74 4.22
-7 -4 2 1.64 1.29
-7 -4 2 2.02 1.19
-7 -4 2 0.89 0.67
7 4 -2 1.35 0.68
7 4 -2 2.81 1.36
-7 -4 1 32.91 4.35
-7 -4 1 26.22 3.33
7 4 -1 32.84 4.55
7 4 -1 32.75 4.14
-7 -4 1 35.68 4.25
-7 -4 0 26.5 3.84
-7 -4 0 22.99 3.05
7 4 0 28.1 4.22
7 4 0 29.88 3.93
-7 -4 0 30.57 3.9
-7 -4 -1 4.9 1.9
-7 -4 -1 2.76 1
7 4 1 1.22 1.23
-7 -4 -1 2.7 1.01
7 4 1 5.15 1.56
-7 -4 -2 21.4 3.23
-7 -4 -2 25.92 3.29
7 4 2 28.15 4
7 4 2 33 4.14
-7 -4 -3 14.34 2.59
-7 -4 -3 13.02 2.24
7 4 3 12.73 2.57
7 4 3 14.35 2.87
-7 -4 -4 0.98 1.09
7 4 4 -0.04 0.5
7 4 4 0.24 0.67
-7 -4 -4 0.05 0.83
-7 -4 -5 -0.82 0.63
7 4 5 0.93 0.93
-7 -4 -5 1.33 1.12
7 4 5 2.09 1.36
-7 -4 -6 2.04 1.02
-7 -4 -6 0.97 0.71
7 4 6 0.92 0.92
-7 -4 -7 0.15 0.83
-7 -4 -7 0.66 0.92
7 4 7 0.12 0.76
-7 -4 -8 1.33 0.88
-7 -4 -8 1.35 0.96
7 4 8 -0.23 1.06
-7 -4 -9 0.88 1.17
-7 -4 -9 2.03 1.16
7 4 9 1.28 1.04
-7 -4 -10 -0.15 0.55
7 4 10 0.88 0.71
-7 -4 -11 3.52 1.4
-7 -4 -11 4.03 1.3
-7 -4 -11 1.6 0.87
7 4 11 2.29 1.23
-7 -4 -12 41.09 4.7
7 4 12 42.04 4.59
-7 -5 5 16.3 3.35
7 5 -5 14.17 3.28
7 5 -5 18.2 3.44
7 5 -5 18.17 3.4
-7 -5 5 15.79 2.97
-7 -5 4 1 1.36
-7 -5 4 2.39 1.09
7 5 -4 2.13 1.28
7 5 -4 3.36 1.53
-7 -5 4 3.1 1.37
7 5 -4 4.17 1.77
-7 -5 3 1.61 1.24
-7 -5 3 0.6 0.59
7 5 -3 0.33 0.97
-7 -5 3 0.79 0.85
7 5 -3 -1.13 1.12
7 5 -3 1.03 1.15
-7 -5 2 1.89 1.12
-7 -5 2 0.33 0.88
-7 -5 2 3.39 1.59
7 5 -2 0.14 0.92
7 5 -2 1.09 1.12
7 5 -2 1.4 0.95
-7 -5 1 5.02 1.88
-7 -5 1 8.72 2.08
-7 -5 1 6.92 1.69
7 5 -1 6.81 2.3
7 5 -1 4.83 1.82
-7 -5 0 2.66 1.41
-7 -5 0 -0.46 0.98
-7 -5 0 -0.4 1.01
7 5 0 0.73 0.72
7 5 0 0.54 1.04
-7 -5 -1 1.85 1.15
-7 -5 -1 0.79 0.93
-7 -5 -1 1.82 0.92
7 5 1 1.19 0.95
7 5 1 3.66 1.62
-7 -5 -2 2.35 1.34
-7 -5 -2 0.37 0.78
7 5 2 0.78 0.94
7 5 2 1.09 0.95
-7 -5 -2 0.69 1.14
-7 -5 -3 1.99 1.07
-7 -5 -3 1.13 0.82
-7 -5 -3 -0.22 0.86
7 5 3 -0.42 0.89
-7 -5 -4 21.64 3.38
-7 -5 -4 21.27 2.88
-7 -5 -4 20.55 3.12
7 5 4 22.38 3.45
-7 -5 -5 13.47 2.8
-7 -5 -5 10.71 2.13
-7 -5 -5 9.44 2.17
7 5 5 14.02 2.86
-7 -5 -6 7.72 1.8
-7 -5 -6 9.49 2.23
7 5 6 10.45 2.38
-7 -5 -7 10.86 2.27
-7 -5 -7 6.11 1.68
7 5 7 6.99 2
-7 -5 -8 14.2 2.58
-7 -5 -8 10.92 2.04
7 5 8 14.08 2.77
-7 -5 -9 4.29 1.62
-7 -5 -9 3.35 1.18
7 5 9 2.45 1.21
-7 -5 -10 2.8 1.31
-7 -5 -10 0.09 0.76
7 5 10 1.69 1.09
-7 -5 -11 1.82 0.93
7 5 11 2.1 1.03
-7 -5 -11 2.35 0.84
-7 -6 3 7.87 2.07
-7 -6 3 5.03 2.1
-7 -6 3 2.51 1.05
7 6 -3 3.23 1.54
7 6 -3 4.77 2.03
7 6 -3 5.09 1.98
-7 -6 2 1.2 1.01
-7 -6 2 1.51 1.44
-7 -6 2 1.24 0.72
7 6 -2 3.61 1.78
7 6 -2 -0.58 1.39
7 6 -2 0.12 0.81
-7 -6 1 25.22 4.32
-7 -6 1 23.87 2.94
7 6 -1 34.37 4.71
-7 -6 1 27.67 3.76
-7 -6 0 26.82 4.31
-7 -6 0 22.11 2.83
-7 -6 0 26.4 3.66
7 6 0 24.99 3.94
-7 -6 -1 2.14 1.34
-7 -6 -1 3.07 1.07
-7 -6 -1 0.1 1.09
7 6 1 -0.02 1.09
-7 -6 -2 2.74 1.22
-7 -6 -2 1.99 0.94
-7 -6 -2 3.23 1.21
7 6 2 3.66 1.73
-7 -6 -3 17.11 3.29
-7 -6 -3 22.17 2.9
-7 -6 -3 17.91 2.99
7 6 3 16.2 3.29
-7 -6 -4 6.64 2.09
-7 -6 -4 7.34 1.72
-7 -6 -4 5.21 1.8
7 6 4 5.9 2.09
-7 -6 -5 47.51 5.36
-7 -6 -5 43.83 4.03
-7 -6 -5 46.76 4.78
7 6 5 44.67 5.19
-7 -6 -6 7.55 2.37
-7 -6 -6 8.2 2.19
-7 -6 -6 7.3 1.57
7 6 6 7.84 2.28
-7 -6 -7 1.34 1.24
-7 -6 -7 1.07 1.08
-7 -6 -7 1.12 0.74
7 6 7 0.14 0.96
-7 -6 -8 1.23 1.06
-7 -6 -8 -0.21 1.02
-7 -6 -8 -0.4 0.89
7 6 8 0.35 0.89
-7 -6 -9 6.06 1.79
-7 -6 -9 3.4 1.29
7 6 9 4.9 1.85
-7 -6 -10 10.64 2.01
7 6 10 10.4 2.45
-7 -6 -10 12.7 2.16
-7 -7 1 6.7 2.42
-7 -7 1 3.9 1.13
-7 -7 1 5.05 1.76
7 7 -1 3.37 1.99
7 7 -1 7.19 2.45
-7 -7 0 56.14 6.47
-7 -7 0 55.5 4.38
-7 -7 0 60.61 5.59
7 7 0 61.04 6.52
-7 -7 -1 26.85 4.45
-7 -7 -1 25.58 2.99
-7 -7 -1 28.86 3.92
7 7 1 29.12 4.55
-7 -7 -2 5.02 1.84
-7 -7 -2 8.35 2.08
-7 -7 -2 7.75 1.65
7 7 2 9.18 2.59
-7 -7 -3 4.16 1.73
-7 -7 -3 1.92 1.22
-7 -7 -3 2.74 1.11
7 7 3 4.12 1.97
-7 -7 -4 132.84 9.66
-7 -7 -4 128.05 7.04
-7 -7 -4 129.14 8.27
7 7 4 122.51 9.27
-7 -7 -5 150.79 10.3
-7 -7 -5 143.21 7.53
-7 -7 -5 157.85 9.15
7 7 5 146.19 10.07
-7 -7 -6 49.5 5.72
-7 -7 -6 49.05 4.16
-7 -7 -6 45.62 4.77
7 7 6 46.72 5.65
-7 -7 -7 20.23 3.73
-7 -7 -7 20.84 2.71
-7 -7 -7 26.38 3.64
7 7 7 23.69 4.1
-7 -7 -8 36.52 4.82
-7 -7 -8 37.22 3.64
-7 -7 -8 29.15 3.72
7 7 8 37.57 4.95
-8 -2 1 11.11 2.45
8 2 -1 7.3 2.52
-8 -2 1 7.08 2.12
-8 -2 0 0.84 0.86
-8 -2 0 2.38 1.92
8 2 0 -1.57 1.49
-8 -2 -1 7.09 2.19
8 2 1 14.64 3.36
-8 -2 -1 13.83 2.76
-8 -2 -2 29.24 4.08
-8 -2 -2 36.1 4.37
8 2 2 25.76 4.29
-8 -2 -3 10.93 2.39
8 2 3 13.95 3.13
-8 -2 -3 11 2.54
-8 -2 -4 9.73 2.37
-8 -2 -4 6.92 2.06
8 2 4 8.04 2.4
-8 -2 -5 3.23 1.39
-8 -2 -5 3.41 1.64
8 2 5 1.33 1.32
-8 -2 -6 1.55 1.18
8 2 6 2.31 1.43
-8 -3 2 59.33 5.47
8 3 -2 46.65 6.22
-8 -3 2 41.18 4.98
-8 -3 1 0.01 0.84
8 3 -1 1.59 1.5
-8 -3 1 0.39 1.14
-8 -3 0 4.33 1.76
-8 -3 0 2.49 1.32
8 3 0 1.59 1.58
-8 -3 -1 4.64 1.69
-8 -3 -1 4.54 1.58
8 3 1 5.21 2
-8 -3 -2 3.51 1.71
8 3 2 3.04 1.41
-8 -3 -2 2.3 1.08
-8 -3 -3 3.49 1.2
-8 -3 -3 6.82 2.02
8 3 3 5.83 1.76
-8 -3 -4 -0.63 0.93
-8 -3 -4 -1.12 1.17
8 3 4 -0.58 1.09
-8 -3 -5 10.64 2.37
-8 -3 -5 2.4 1.31
8 3 5 9.37 2.5
-8 -3 -6 2.41 1.11
8 3 6 -0.86 1.01
8 3 6 -0.6 1.02
-8 -3 -6 -0.66 0.91
-8 -3 -7 2.78 1.38
8 3 7 1.89 1.39
8 3 7 1.5 0.81
-8 -4 1 10.6 2.32
8 4 -1 11.42 3.08
-8 -4 1 12.77 2.95
-8 -4 0 0.3 0.67
8 4 0 -0.09 1.01
-8 -4 0 -0.32 0.86
-8 -4 -1 1.91 1.07
8 4 1 4.08 1.68
-8 -4 -1 3.08 1.56
-8 -4 -2 24.3 3.74
-8 -4 -2 22.1 3.3
8 4 2 26.18 4.22
8 4 2 25.49 3.76
-8 -4 -3 24.27 3.61
-8 -4 -3 22.06 3.3
8 4 3 23.65 3.89
8 4 3 22.61 3.52
-8 -4 -4 0.72 1.24
8 4 4 3.46 1.72
8 4 4 1.13 1.29
-8 -4 -4 1.53 1.36
-8 -4 -5 22.42 3.3
8 4 5 20.59 3.43
8 4 5 25.47 3.72
-8 -4 -5 19.08 3.2
-8 -4 -6 19.62 3.01
-8 -4 -6 21.05 3.36
8 4 6 22.54 3.47
-8 -4 -7 8.17 2.03
-8 -4 -7 8.21 2.13
8 4 7 5.67 1.63
-8 -4 -8 12.46 2.48
-8 -4 -8 9.68 2.21
8 4 8 12.87 2.7
-8 -5 0 2.79 1.44
8 5 0 0.34 0.83
8 5 0 1.89 1.37
-8 -5 -1 11.86 2.62
-8 -5 -1 9.13 2.14
8 5 1 7.11 2.3
8 5 1 12.04 2.78
-8 -5 -2 0.42 1.17
-8 -5 -2 -0.94 1.07
8 5 2 -0.57 1.18
-8 -5 -3 6.85 2.03
8 5 3 4.49 1.87
-8 -5 -3 2.87 1.43
-8 -5 -4 3.97 1.37
-8 -5 -4 3.61 1.48
8 5 4 3.07 1.57
-8 -5 -5 13.76 2.49
-8 -5 -5 12.47 2.68
8 5 5 19.59 3.54
-8 -5 -6 45.98 4.64
-8 -5 -6 41.17 4.7
8 5 6 48.93 5.36
-8 -5 -7 0.35 1.03
-8 -5 -7 0.64 1.15
8 5 7 0.77 1.14
-8 -6 -3 1.14 1.12
-8 -6 -3 2.9 1.29
-8 -6 -3 4.43 1.85
8 6 3 1.22 1.45
-8 -6 -4 4.31 1.61
-8 -6 -4 0.93 1.31
8 6 4 2.53 1.63
8 6 5 2.48 1.49
