#------------------------------------------------------------------------------
#$Date: 2020-04-22 23:50:13 +0300 (Wed, 22 Apr 2020) $
#$Revision: 251054 $
#$URL: file:///home/coder/svn-repositories/cod/cif/1/55/78/1557859.cif $
#------------------------------------------------------------------------------
#
# This file is available in the Crystallography Open Database (COD),
# http://www.crystallography.net/
#
# All data on this site have been placed in the public domain by the
# contributors.
#
data_1557859
loop_
_publ_author_name
'Yuan, Jie'
'Wang, Yongrong'
'Li, Ling'
'Wang, Shuang'
'Tang, Xingxing'
'Wang, Honglei'
'Li, Mingguang'
'Zheng, Chao'
'Chen, Runfeng'
_publ_section_title
;
 Activating Intersystem Crossing and Aggregation Coupling by
 CN-Substitution for Efficient Organic Ultralong Room Temperature
 Phosphorescence
;
_journal_name_full               'The Journal of Physical Chemistry C'
_journal_paper_doi               10.1021/acs.jpcc.0c01762
_journal_year                    2020
_chemical_formula_moiety         'C8 H4 N2'
_chemical_formula_sum            'C8 H4 N2'
_chemical_formula_weight         128.13
_space_group_crystal_system      triclinic
_space_group_IT_number           2
_space_group_name_Hall           '-P 1'
_space_group_name_H-M_alt        'P -1'
_atom_sites_solution_hydrogens   geom
_atom_sites_solution_primary     dual
_audit_creation_date             2018-05-24
_audit_creation_method
;
Olex2 1.2
(compiled 2017.03.02 svn.r3394 for OlexSys, GUI svn.r5324)
;
_cell_angle_alpha                89.88(4)
_cell_angle_beta                 85.59(3)
_cell_angle_gamma                89.86(3)
_cell_formula_units_Z            4
_cell_length_a                   3.909(4)
_cell_length_b                   11.970(13)
_cell_length_c                   14.614(14)
_cell_measurement_reflns_used    150
_cell_measurement_temperature    297(2)
_cell_measurement_theta_max      0.925
_cell_measurement_theta_min      0.911
_cell_volume                     681.8(12)
_computing_molecular_graphics    'Olex2 (Dolomanov et al., 2009)'
_computing_publication_material  'Olex2 (Dolomanov et al., 2009)'
_computing_structure_refinement  'ShelXL (Sheldrick, 2015)'
_computing_structure_solution    'ShelXT (Sheldrick, 2015)'
_diffrn_ambient_temperature      297.2
_diffrn_detector                 'Bruker APEX2 area detector'
_diffrn_detector_area_resol_mean 7.9
_diffrn_detector_type            'CCD area detector'
_diffrn_measured_fraction_theta_full 0.999
_diffrn_measured_fraction_theta_max 0.983
_diffrn_measurement_device       'three-circle diffractometer'
_diffrn_measurement_device_type  'Bruker SMART APEX-II CCD'
_diffrn_measurement_method       '\w and \f scans'
_diffrn_radiation_monochromator  'mirror optics'
_diffrn_radiation_probe          x-ray
_diffrn_radiation_type           MoK\a
_diffrn_radiation_wavelength     0.71073
_diffrn_reflns_av_R_equivalents  0.0334
_diffrn_reflns_av_unetI/netI     0.0568
_diffrn_reflns_Laue_measured_fraction_full 0.999
_diffrn_reflns_Laue_measured_fraction_max 0.983
_diffrn_reflns_limit_h_max       5
_diffrn_reflns_limit_h_min       -5
_diffrn_reflns_limit_k_max       13
_diffrn_reflns_limit_k_min       -15
_diffrn_reflns_limit_l_max       18
_diffrn_reflns_limit_l_min       -19
_diffrn_reflns_number            5958
_diffrn_reflns_point_group_measured_fraction_full 0.999
_diffrn_reflns_point_group_measured_fraction_max 0.983
_diffrn_reflns_theta_full        25.242
_diffrn_reflns_theta_max         28.071
_diffrn_reflns_theta_min         1.398
_diffrn_source                   'microfocus sealed X-ray tube'
_diffrn_source_type              'Incoatec I\ms'
_exptl_absorpt_coefficient_mu    0.078
_exptl_crystal_density_diffrn    1.248
_exptl_crystal_description       block
_exptl_crystal_F_000             264
_exptl_crystal_size_max          1
_exptl_crystal_size_mid          0.6
_exptl_crystal_size_min          0.6
_refine_diff_density_max         0.150
_refine_diff_density_min         -0.244
_refine_diff_density_rms         0.053
_refine_ls_extinction_method     none
_refine_ls_goodness_of_fit_ref   1.028
_refine_ls_hydrogen_treatment    constr
_refine_ls_matrix_type           full
_refine_ls_number_parameters     181
_refine_ls_number_reflns         3257
_refine_ls_number_restraints     0
_refine_ls_restrained_S_all      1.028
_refine_ls_R_factor_all          0.1167
_refine_ls_R_factor_gt           0.0568
_refine_ls_shift/su_max          0.000
_refine_ls_shift/su_mean         0.000
_refine_ls_structure_factor_coef Fsqd
_refine_ls_weighting_details
'w=1/[\s^2^(Fo^2^)+(0.0618P)^2^+0.0268P] where P=(Fo^2^+2Fc^2^)/3'
_refine_ls_weighting_scheme      calc
_refine_ls_wR_factor_gt          0.1177
_refine_ls_wR_factor_ref         0.1433
_reflns_Friedel_coverage         0.000
_reflns_number_gt                1806
_reflns_number_total             3257
_reflns_threshold_expression     'I > 2\s(I)'
_cod_data_source_file            jp0c01762_si_002.cif
_cod_data_source_block           1
_cod_original_cell_volume        681.9(12)
_cod_database_code               1557859
_shelx_shelxl_version_number     2014/7
_shelx_space_group_comment
;
The symmetry employed for this shelxl refinement is uniquely defined
by the following loop, which should always be used as a source of
symmetry information in preference to the above space-group names.
They are only intended as comments.
;
_shelx_estimated_absorpt_t_max   0.926
_shelx_estimated_absorpt_t_min   0.744
_olex2_refinement_description
;
1. Fixed Uiso
 At 1.2 times of:
  All C(H) groups
2.a Aromatic/amide H refined with riding coordinates:
 C00D(H00D), C00E(H00E), C00H(H00H), C00I(H00I), C00J(H00J), C00K(H00K),
 C006(H006), C008(H008)
;
_shelx_res_file
;
    1.res created by SHELXL-2014/7

TITL 1_a.res in P-1
REM Old TITL 1 in P-1
REM SHELXT solution in P-1
REM R1 0.146, Rweak 0.009, Alpha 0.029, Orientation as input
REM Formula found by SHELXT: C16 N4
CELL 0.71073 3.9094 11.9701 14.6142 89.876 85.592 89.855
ZERR 4 0.0039 0.0128 0.0135 0.037 0.026 0.026
LATT 1
SFAC C H N
UNIT 32 16 8

L.S. 10
PLAN  20
SIZE 1 1 4
TEMP 24.05
BOND $H
list 4
fmap 2
ACTA
REM <olex2.extras>
REM <HklSrc "%.\\1.hkl">
REM </olex2.extras>

WGHT    0.061800    0.026800
FVAR       1.47066
C00B  1    0.848179    0.033039    0.378969    11.00000    0.04781    0.04847 =
         0.05481   -0.00418   -0.00611   -0.00181
C00C  1    0.848413    0.467278   -0.120928    11.00000    0.04820    0.04882 =
         0.05548    0.00702   -0.00559    0.00083
C00D  1    0.376660    0.348893    0.358566    11.00000    0.05142    0.04504 =
         0.06171    0.00853   -0.00630    0.00037
AFIX  43
H00D  2    0.272801    0.418430    0.353810    11.00000   -1.20000
AFIX   0
C00E  1    0.376442    0.150813   -0.141111    11.00000    0.05157    0.04655 =
         0.06190   -0.00726   -0.00505   -0.00252
AFIX  43
H00E  2    0.273400    0.081301   -0.145599    11.00000   -1.20000
AFIX   0
C00F  1    0.289640    0.138690    0.026953    11.00000    0.05246    0.04847 =
         0.05861    0.00152   -0.00114   -0.00239
C00G  1    0.290469    0.361169    0.526856    11.00000    0.05104    0.04768 =
         0.05801   -0.00166    0.00016    0.00016
C00H  1    0.646535    0.187670    0.286671    11.00000    0.05496    0.06062 =
         0.04723   -0.00485   -0.00006   -0.00067
AFIX  43
H00H  2    0.723307    0.149295    0.233727    11.00000   -1.20000
AFIX   0
C00I  1    0.647216    0.312176   -0.213376    11.00000    0.05495    0.06148 =
         0.04632    0.00610    0.00049   -0.00269
AFIX  43
H00I  2    0.724741    0.350444   -0.266385    11.00000   -1.20000
AFIX   0
C00J  1    0.491369    0.208826   -0.219617    11.00000    0.06977    0.06566 =
         0.04845   -0.01115   -0.00600   -0.00410
AFIX  43
H00J  2    0.463756    0.178189   -0.277002    11.00000   -1.20000
AFIX   0
C00K  1    0.491342    0.291051    0.280318    11.00000    0.06825    0.06372 =
         0.04806    0.01106   -0.00637    0.00273
AFIX  43
H00K  2    0.463879    0.321939    0.222890    11.00000   -1.20000
AFIX   0
C002  1    0.687508    0.141192    0.372638    11.00000    0.03720    0.04223 =
         0.04911   -0.00105   -0.00421   -0.00479
C004  1    0.687400    0.358552   -0.127539    11.00000    0.03668    0.04079 =
         0.05042    0.00177   -0.00397    0.00363
C005  1    0.417478    0.302446    0.444714    11.00000    0.03692    0.04183 =
         0.05011   -0.00024   -0.00173   -0.00413
C006  1    0.573767    0.198562    0.452263    11.00000    0.04024    0.04432 =
         0.04523    0.00293   -0.00501   -0.00619
AFIX  43
H006  2    0.602006    0.167785    0.509688    11.00000   -1.20000
AFIX   0
C007  1    0.416581    0.197505   -0.055441    11.00000    0.03787    0.04320 =
         0.04906    0.00018   -0.00007    0.00336
C008  1    0.574212    0.301695   -0.047837    11.00000    0.04124    0.04306 =
         0.04533   -0.00354   -0.00411    0.00366
AFIX  43
H008  2    0.602679    0.332314    0.009507    11.00000   -1.20000
AFIX   0
N00A  3    0.183691    0.092884    0.092175    11.00000    0.08501    0.06783 =
         0.06710    0.01074    0.00820   -0.01147
N001  3    0.974223   -0.053393    0.384244    11.00000    0.07415    0.05730 =
         0.07554   -0.00660   -0.00926    0.00790
N003  3    0.975169    0.553463   -0.116004    11.00000    0.07430    0.05475 =
         0.07704    0.00875   -0.01044   -0.01084
N009  3    0.184283    0.406991    0.592223    11.00000    0.08545    0.06858 =
         0.06795   -0.00905    0.00670    0.00962
HKLF 4

REM  1_a.res in P-1
REM R1 =  0.0568 for    1806 Fo > 4sig(Fo)  and  0.1167 for all    3257 data
REM    181 parameters refined using      0 restraints

END

WGHT      0.0618      0.0268

REM Highest difference peak  0.150,  deepest hole -0.244,  1-sigma level  0.053
Q1    1   0.6892  0.3883  0.5528  11.00000  0.05    0.15
Q2    1   1.0330  0.3273 -0.0266  11.00000  0.05    0.14
Q3    1   0.2582  0.1808 -0.2838  11.00000  0.05    0.14
Q4    1   0.0008  0.2231 -0.0836  11.00000  0.05    0.14
Q5    1   0.5942  0.1202  0.0799  11.00000  0.05    0.14
Q6    1   0.0688  0.2681  0.4179  11.00000  0.05    0.14
Q7    1   0.1735  0.2022  0.1749  11.00000  0.05    0.13
Q8    1   0.0170  0.2593  0.1154  11.00000  0.05    0.13
Q9    1   0.7402  0.2330  0.0931  11.00000  0.05    0.13
Q10   1   0.5762  0.4199  0.6006  11.00000  0.05    0.13
Q11   1   0.5577  0.5794 -0.0968  11.00000  0.05    0.13
Q12   1   0.3959  0.0377  0.2044  11.00000  0.05    0.13
Q13   1  -0.1747  0.3045  0.5588  11.00000  0.05    0.13
Q14   1   0.5551  0.0415  0.0725  11.00000  0.05    0.13
Q15   1   0.9721  0.2364 -0.1009  11.00000  0.05    0.13
Q16   1   0.2241  0.3217  0.2095  11.00000  0.05    0.13
Q17   1   0.1553  0.1975 -0.3474  11.00000  0.05    0.13
Q18   1  -0.2040  0.1758  0.0263  11.00000  0.05    0.12
Q19   1  -0.2239  0.0837  0.0573  11.00000  0.05    0.12
Q20   1   0.1289  0.2823  0.1594  11.00000  0.05    0.12
;
_shelx_res_checksum              71914
_shelx_hkl_file
;
   1   1   0   79.99    4.10
  -1  -1   0   75.39    3.70
  -2  -2   0  183.38    7.50
  -2  -2   0  180.68    8.60
  -3  -3   0    5.80    3.30
  -3  -3   0    1.20    2.50
  -4  -4   0   -9.20    3.80
  -4  -5   0   18.50    4.60
  -3  -4   0  221.38    9.70
  -2  -3   0    2.40    1.50
  -1  -2   0 9999.00  288.07
   1   2   0 9682.23  288.07
   1   2   0 9499.95  288.57
   0  -1   0   -0.10    0.20
   0  -1   0    0.90    0.30
   0   1   0    0.10    0.20
   1   0   0 4507.95  134.39
  -1   0   0 4501.15  134.29
   2   1   0   58.89    4.60
  -3  -2   0   31.00    4.70
  -3  -2   0   33.00    4.70
  -4  -3   0   -2.50    3.80
  -4  -6   0   29.20    4.80
  -3  -5   0    5.10    2.50
  -2  -4   0  846.02   27.10
  -1  -3   0  732.13   22.70
   0  -2   0 2220.58   65.99
   0   2   0 2222.68   65.99
   1  -1   0   74.49    3.80
  -1   1   0   81.19    3.60
  -1   1   0   72.59    3.50
   2   0   0    1.00    2.20
   3   1   0    6.10    4.00
  -4  -2   0   -4.80    4.90
  -4  -2   0    3.20    4.00
  -5  -3   0    2.80    7.20
  -5  -3   0    1.20    8.90
  -4  -7   0    0.80    4.50
  -3  -6   0  111.59    6.50
  -2  -5   0    0.40    1.70
  -1  -4   0  138.39    5.40
   0  -3   0    1.50    0.60
   0   3   0    1.00    0.50
   1  -2   0 9131.39  277.37
  -1   2   0 9640.34  277.17
  -1   2   0 9449.65  277.17
  -1   2   0 9199.48  277.17
   2  -1   0   61.39    4.60
  -2   1   0   60.19    4.30
   3   0   0   83.99    8.10
  -4  -1   0    9.00    5.30
  -4  -1   0    7.20    4.00
  -5  -2   0  -10.60    6.90
  -5  -2   0    2.40    6.90
  -5  -2   0    4.90    8.40
  -4  -8   0    4.60    4.50
  -3  -7   0   -3.30    2.50
  -2  -6   0    5.20    2.20
  -1  -5   0   23.20    2.10
   0  -4   0 1611.54   48.40
   1  -3   0  708.13   23.00
  -1   3   0  747.13   22.90
   2  -2   0  171.28    7.80
  -2   2   0  167.58    7.10
   3  -1   0   -2.30    3.60
  -3   1   0    2.60    3.00
   4   0   0   42.40    6.10
  -4   0   0   38.30    6.70
  -5  -1   0   14.40    7.60
  -5  -1   0    8.00    6.50
  -5  -1   0   11.80    8.30
  -4  -9   0   -1.80    7.40
  -4  -9   0    0.20    5.00
  -3  -8   0    3.90    2.80
  -2  -7   0   34.90    3.50
  -1  -6   0 1176.98   36.30
   0  -5   0    0.30    0.80
   1  -4   0  129.39    5.50
  -1   4   0  134.99    5.50
   2  -3   0    1.70    2.20
  -2   3   0    1.50    1.80
   3  -2   0   30.20    4.30
  -3   2   0   30.50    3.70
   4  -1   0   13.90    5.50
  -4   1   0   11.60    5.10
  -5   0   0    3.10    9.80
  -5   0   0   -3.10    5.90
  -5   0   0  -14.10    7.50
  -5   0   0    6.80    7.60
  -4 -10   0  -13.30    8.00
  -3  -9   0    1.20    3.00
  -2  -8   0  297.27   11.20
  -1  -7   0  352.86   12.10
   0  -6   0 1051.49   32.40
   0  -6   0 1048.10   32.70
   1  -5   0   20.00    2.50
  -1   5   0   22.70    2.40
   2  -4   0  807.62   27.20
  -2   4   0  823.32   26.30
   3  -3   0    1.90    3.20
  -3   3   0   -1.40    2.50
   4  -2   0    8.10    5.50
  -4   2   0   10.30    4.40
   5  -1   0    3.70   11.30
  -5   1   0   -0.30    5.80
  -5   1   0    2.10    7.80
  -3 -10   0   76.19    6.30
  -2  -9   0  135.29    6.40
  -1  -8   0   65.09    3.90
   0  -7   0   -0.80    1.80
   0  -7   0    0.80    1.20
   1  -6   0 1186.68   37.00
  -1   6   0 1166.08   36.80
   2  -5   0    6.50    2.90
  -2   5   0    3.90    1.90
   3  -4   0  179.18   10.10
  -3   4   0  200.18    8.90
   4  -3   0   -0.10    5.40
  -4   3   0   -3.00    4.10
  -4   3   0   -7.20    4.60
   5  -2   0    3.00   11.50
  -5   2   0    1.60    5.70
  -3 -11   0    3.00    3.70
  -3 -11   0    6.80    5.80
  -2 -10   0   46.10    4.40
  -1  -9   0   20.10    2.70
   0  -8   0  540.05   18.40
   0  -8   0  574.94   19.00
   1  -7   0  369.26   13.50
  -1   7   0  369.36   13.30
   2  -6   0    4.90    2.20
  -2   6   0   11.20    2.40
   3  -5   0   -3.00    3.40
  -3   5   0   -1.70    2.60
  -3   5   0    1.00    2.80
   4  -4   0    5.90    5.70
  -4   4   0    4.90    3.60
  -4   4   0   -0.40    6.10
   5  -3   0    5.70   11.30
  -5   3   0   -0.10    5.40
  -3 -12   0    3.40    4.30
  -3 -12   0   -7.10    6.70
  -2 -11   0    4.30    4.70
  -2 -11   0    3.70    2.60
  -1 -10   0  162.18    9.10
  -1 -10   0  158.78    7.10
   0  -9   0   -3.50    2.40
   0  -9   0   -2.50    1.40
   1  -8   0   65.79    4.20
  -1   8   0   56.79    4.40
   2  -7   0   28.90    3.50
  -2   7   0   32.10    4.00
   3  -6   0  104.29    8.10
  -3   6   0   95.99    7.60
   4  -5   0   15.20    6.30
  -4   5   0   10.60    3.80
  -2 -12   0   19.40    5.60
  -2 -12   0   36.00    5.40
  -1 -11   0   23.40    5.50
  -1 -11   0   28.90    3.80
   0 -10   0    0.10    2.90
   0 -10   0    1.60    1.80
   1  -9   0   17.80    2.50
   2  -8   0  274.07   11.60
  -2   8   0  266.47   11.70
   3  -7   0   -6.20    3.80
  -3   7   0   -1.50    3.10
   4  -6   0   28.10    7.10
  -4   6   0   24.40    4.20
  -2 -13   0    2.50    6.30
  -2 -13   0    2.00    3.80
  -1 -12   0   11.50    5.90
  -1 -12   0    6.30    2.70
   0 -11   0   -1.50    2.10
   0 -11   0    2.90    3.40
   1 -10   0  162.48    7.90
   2  -9   0  144.79    8.40
  -2   9   0  144.39    8.00
   3  -8   0   -0.40    4.30
  -3   8   0    8.60    3.30
   4  -7   0    6.60    7.20
  -4   7   0    8.20    4.10
  -2 -14   0   -9.70    4.20
  -2 -14   0    6.70    7.60
  -1 -13   0    1.80    3.20
  -1 -13   0    7.40    5.50
   0 -12   0  170.38    8.50
   0 -12   0  167.78    9.30
   1 -11   0   23.10    3.40
   2 -10   0   53.29    6.70
  -2  10   0   48.80    5.40
   3  -9   0    9.40    4.80
  -3   9   0    4.70    3.40
   4  -8   0    7.90    8.60
  -4   8   0    5.00    4.40
  -1 -14   0   29.80    5.40
  -1 -14   0   33.20    7.20
   0 -13   0    6.30    3.60
   0 -13   0   -3.20    4.10
   1 -12   0   22.40    3.90
   2 -11   0    2.30    4.20
  -2  11   0   10.90    3.40
   3 -10   0   76.59    9.60
  -3  10   0   77.19    6.80
   4  -9   0    2.80    8.70
  -4   9   0    2.20    4.60
  -1 -15   0    9.60    5.00
  -1 -15   0   19.50    7.30
   0 -14   0   13.60    5.00
   1 -13   0    7.30    4.50
   2 -12   0   17.30    5.30
   3 -11   0    8.10    7.40
  -3  11   0    6.50    4.60
   0 -15   0    2.60    5.40
   1 -14   0   36.10    7.50
   3 -12   0   -3.50    7.30
  -3  12   0   -9.30    5.00
   1 -15   0    1.40    6.80
   2 -14  -1    2.90    7.20
   1 -15  -1   -0.70    6.60
   3 -12  -1   41.50    8.80
   2 -13  -1   -2.50    6.40
   1 -14  -1   20.40    6.60
   0 -15  -1    0.70    5.80
  -3  11   1    5.70    4.60
   3 -11  -1    4.40    7.20
   2 -12  -1    0.70    5.10
   1 -13  -1   11.10    4.70
   0 -14  -1   -2.10    4.70
  -1 -15  -1   11.60    6.80
  -1 -15  -1   -5.60    4.90
  -4   9   1    1.10    4.60
   4  -9  -1   -1.90    8.50
  -3  10   1    7.90    4.10
   3 -10  -1   -0.70    5.50
   2 -11  -1   14.40    4.40
   1 -12  -1   -1.20    3.60
   0 -13  -1   25.70    4.50
   0 -13  -1   30.40    4.70
  -1 -14  -1    5.60    5.90
  -1 -14  -1   -2.80    4.10
  -4   8   1   17.00    4.50
   4  -8  -1    8.50    8.80
  -3   9   1    0.10    3.20
   3  -9  -1   -4.90    4.80
  -2  10   1   22.70    3.50
   2 -10  -1   22.40    4.00
   1 -11  -1  106.49    7.30
   0 -12  -1   49.20    5.60
   0 -12  -1   35.60    6.30
  -1 -13  -1    4.40    3.20
  -1 -13  -1    1.60    5.30
  -2 -14  -1   53.09    8.80
  -2 -14  -1   52.49    6.00
  -4   7   1    1.50    4.00
   4  -7  -1    0.70    7.40
  -3   8   1   -1.30    3.10
   3  -8  -1    1.10    4.40
  -2   9   1    3.80    2.80
   2  -9  -1    1.90    3.00
   1 -10  -1    0.40    2.30
   1 -10  -1    0.80    1.70
   0 -11  -1   23.00    3.00
   0 -11  -1   23.90    3.90
  -1 -12  -1   -3.30    2.60
  -1 -12  -1    2.40    5.10
  -2 -13  -1   -1.80    3.70
  -2 -13  -1    4.40    6.40
  -4   6   1    7.30    3.90
   4  -6  -1   31.40    7.30
  -3   7   1   52.39    6.70
   3  -7  -1   62.79    7.80
  -2   8   1    4.60    3.00
   2  -8  -1    3.50    2.60
   1  -9  -1  229.28    9.70
   1  -9  -1  227.38    8.00
   0 -10  -1    6.90    2.90
   0 -10  -1   -0.80    1.80
  -1 -11  -1   10.20    2.40
  -1 -11  -1    0.60    4.90
  -2 -12  -1   16.40    5.70
  -2 -12  -1   22.60    3.40
  -4   5   1   11.20    4.00
   4  -5  -1    8.50    6.00
  -3   6   1  145.89    8.20
   3  -6  -1  156.38    9.60
  -2   7   1   26.30    3.80
   2  -7  -1   17.10    3.00
   1  -8  -1  131.69    6.50
   1  -8  -1  137.09    5.30
   0  -9  -1   96.09    5.80
   0  -9  -1   85.39    4.80
  -1 -10  -1   73.19    6.50
  -1 -10  -1   73.79    4.60
  -2 -11  -1    9.90    2.60
  -2 -11  -1    1.90    4.70
  -3 -12  -1   26.40    7.60
  -3 -12  -1   27.00    5.30
  -4   4   1    8.90    4.10
   4  -4  -1    6.90    5.60
  -3   5   1    6.70    2.90
   3  -5  -1    0.10    3.50
  -2   6   1   27.20    3.60
   2  -6  -1   27.20    3.20
  -1   7   1   39.10    3.40
   1  -7  -1   43.40    2.80
   1  -7  -1   42.40    4.20
   0  -8  -1   19.40    2.90
   0  -8  -1   22.70    2.90
  -1  -9  -1    2.20    2.90
  -1  -9  -1    2.00    1.60
  -2 -10  -1    1.30    2.20
  -2 -10  -1   -1.40    4.00
  -3 -11  -1   -1.40    3.40
  -3 -11  -1    1.50    6.30
   5  -2  -1   16.70   10.70
  -4   3   1   14.10    5.20
   4  -3  -1   16.10    6.10
  -3   4   1   -0.70    2.50
   3  -4  -1    0.20    3.30
  -2   5   1  218.58    8.60
   2  -5  -1  205.98   10.00
  -1   6   1   41.80    3.30
   1  -6  -1   37.60    3.30
   1  -6  -1   39.70    2.80
   0  -7  -1   40.40    3.00
   0  -7  -1   47.50    3.80
  -1  -8  -1    7.40    1.80
  -1  -8  -1   12.10    2.80
  -2  -9  -1    6.40    4.00
  -2  -9  -1   10.00    2.20
  -3 -10  -1    1.40    5.40
  -3 -10  -1    2.10    3.10
  -5   1   1   -2.60    7.90
   5  -1  -1   -7.40   10.70
  -4   2   1   -7.50    4.70
   4  -2  -1    2.00    5.20
  -3   3   1   53.29    4.90
   3  -3  -1   52.39    5.90
  -2   4   1  922.41   28.90
   2  -4  -1  898.31   30.20
  -1   5   1  857.61   26.10
  -1   5   1  865.11   27.20
   1  -5  -1  849.72   27.50
   1  -5  -1  877.01   26.50
   0  -6  -1  231.68    8.20
   0  -6  -1  228.48    8.60
  -1  -7  -1   65.09    4.90
  -1  -7  -1   59.19    3.50
  -2  -8  -1   12.70    2.20
  -3  -9  -1    6.60    4.90
  -3  -9  -1   -2.90    2.90
  -4 -10  -1   -3.20    8.60
  -5   0   1  -13.70    7.70
  -5   0   1   -5.10   10.50
  -4   1   1    2.80    4.70
   4  -1  -1   13.10    5.60
  -3   2   1    1.50    2.50
   3  -2  -1   -0.40    3.10
  -2   3   1 1278.77   39.30
   2  -3  -1 1256.07   40.60
  -1   4   1    1.50    0.70
  -1   4   1    2.60    1.30
   1  -4  -1    2.40    1.60
   1  -4  -1    2.40    1.30
   0  -5  -1  713.33   22.40
   0  -5  -1  703.13   22.10
  -1  -6  -1   16.80    1.90
  -2  -7  -1   -1.40    1.90
  -3  -8  -1   51.29    4.90
  -4  -9  -1   -3.80    4.80
  -4  -9  -1   -1.20    7.30
  -5  -1   1    6.10    7.80
  -5  -1   1   -6.60   10.10
  -4   0   1    2.40    5.30
   4   0  -1   -1.60    5.10
  -3   1   1   80.39    5.80
   3  -1  -1   76.79    7.10
  -2   2   1    6.70    1.70
   2  -2  -1    0.00    2.20
  -1   3   1  271.27    9.10
   1  -3  -1  258.77    9.40
   1  -3  -1  271.27    9.60
   0  -4  -1   11.90    1.80
   0  -4  -1   10.90    1.40
  -1  -5  -1  287.97    9.70
  -2  -6  -1  119.09    5.90
  -3  -7  -1    2.50    2.50
  -4  -8  -1   22.10    7.20
  -4  -8  -1   22.60    4.80
  -5  -2   1    3.00    7.20
  -5  -2   1    4.80   10.00
  -4  -1   1    2.10    4.20
  -4  -1   1   -4.70    5.40
  -4  -1   1   -7.80    5.20
   3   0  -1   -5.70    3.30
  -2   1   1   29.90    3.30
   2  -1  -1   38.00    4.10
  -1   2   1 5528.35  161.08
   1  -2  -1 5448.46  161.78
   1  -2  -1 5303.97  161.68
   0   3   1 2039.70   60.69
   0  -3  -1 2004.40   60.69
   0  -3  -1 2060.19   60.99
  -1  -4  -1 1071.49   32.70
  -2  -5  -1    3.30    1.60
  -3  -6  -1  120.29    6.60
  -4  -7  -1    9.60    4.10
  -4  -7  -1    6.90    6.20
  -5  -3   1   11.10    7.30
  -4  -2   1   -8.90    4.10
  -4  -2   1    0.20    5.10
   3   1  -1   81.59    7.20
   2   0  -1    2.70    2.30
  -1   1   1 3536.95  103.89
  -1   1   1 3484.55  103.19
   1  -1  -1 3383.76  103.89
   0   2   1  296.57    9.40
   0   2   1  298.57    9.60
   0  -2  -1  309.57    9.60
   0  -2  -1  305.97    9.40
  -1  -3  -1 1952.00   58.59
  -2  -4  -1 1459.25   45.00
  -3  -5  -1   99.99    6.20
  -4  -6  -1  268.37   15.60
  -4  -6  -1  277.17   12.40
  -4  -3   1   15.10    4.20
  -4  -3   1    4.30    5.40
  -3  -2   1    4.30    3.40
   2   1  -1   30.10    3.70
  -1   0   1   -0.40    1.40
   1   0  -1    0.60    1.40
   1   2   1 7651.53  226.28
   1   2   1 7526.95  225.68
  -1  -2  -1 7678.53  225.68
  -2  -3  -1 1427.76   44.00
  -3  -4  -1  966.10   31.60
  -4  -5  -1    0.10    3.90
  -4  -4   1    2.60    4.20
  -3  -3   1   55.89    5.30
  -3  -3   1   48.10    6.90
  -2  -2   1    0.30    1.70
  -2  -2   1    3.10    2.10
  -1  -1   1 3478.55  105.19
   1   1  -1 3532.65  105.29
   0   0   1    0.00    0.30
   0   0   1    0.30    0.30
   0   0  -1    0.40    0.30
   0   0  -1    0.70    0.30
  -1  -1  -1   60.79    2.90
  -1  -1  -1   58.39    3.40
  -1  -1  -1   64.69    3.10
  -2  -2  -1 3203.08   95.89
  -2  -2  -1 3164.18   96.99
  -3  -3  -1   23.80    3.70
  -4  -4  -1   -0.20    3.70
  -4  -5   1   18.50    4.70
  -3  -4   1   -0.60    2.70
  -2  -3   1 1317.27   41.20
  -1  -2   1 5714.83  168.38
  -1  -2   1 5557.14  167.48
   1   0   1    1.60    1.20
  -1   0  -1   -0.10    1.10
   2   1   1  794.32   26.20
  -3  -2  -1   35.10    5.40
  -3  -2  -1   30.50    4.30
  -4  -3  -1   -7.30    3.50
  -4  -6   1   11.60    4.50
  -3  -5   1    2.30    2.80
  -2  -4   1  961.60   30.80
  -1  -3   1  266.87    9.20
   0  -2   1  313.77    9.30
   0  -2   1  282.27   10.00
   0   2  -1  309.47    9.50
   0   2  -1  288.87    9.30
   1  -1   1   62.89    3.10
  -1   1  -1   51.69    3.10
  -1   1  -1   59.79    2.80
   2   0   1   -0.80    2.10
   3   1   1   30.00    5.10
  -4  -2  -1    2.20    5.10
  -4  -2  -1    4.80    3.90
  -5  -3  -1   -5.80    7.00
  -5  -3  -1    4.10    8.70
  -4  -7   1    7.90    4.70
  -3  -6   1  167.78    8.30
  -2  -5   1  229.78    9.40
  -1  -4   1    2.30    1.10
   0  -3   1 2058.79   61.29
   0   3  -1 2092.69   61.39
   0   3  -1 2016.60   61.59
   1  -2   1 7033.20  220.68
  -1   2  -1 7815.82  220.98
  -1   2  -1 7419.66  220.58
  -1   2  -1 7500.55  220.18
   2  -1   1  765.72   25.70
  -2   1  -1  796.52   25.50
   3   0   1    3.30    4.00
  -4  -1  -1   12.90    3.90
  -4  -1  -1    9.20    5.10
  -5  -2  -1   17.30    6.90
  -5  -2  -1    1.20    6.70
  -5  -2  -1   10.30    8.50
  -4  -8   1    8.90    5.10
  -3  -7   1   66.59    5.60
  -2  -6   1   30.30    3.50
  -1  -5   1  870.71   27.20
   0  -4   1   10.50    1.30
   0   4  -1   13.60    1.80
   1  -3   1 1939.91   59.29
  -1   3  -1 1988.90   59.49
   2  -2   1 3042.40   94.09
  -2   2  -1 3156.78   93.89
   3  -1   1   25.10    5.40
  -3   1  -1   27.10    3.80
   4   0   1    8.30    5.20
  -4   0  -1   -4.80    4.40
  -4   0  -1   -0.50    5.10
  -5  -1  -1   -2.60    9.20
  -5  -1  -1    7.50    7.20
  -5  -1  -1   -1.20    6.50
  -5  -1  -1    9.80    8.10
  -4  -9   1    3.80    5.20
  -3  -8   1    0.90    2.80
  -2  -7   1   33.10    3.40
  -1  -6   1   42.70    3.00
   0  -5   1  731.93   22.70
   1  -4   1 1069.59   33.60
  -1   4  -1 1097.59   33.70
   2  -3   1 1412.66   43.30
  -2   3  -1 1296.17   41.90
  -2   3  -1 1408.96   42.90
   3  -2   1   30.10    5.00
  -3   2  -1   31.80    4.50
   4  -1   1   11.40    5.30
  -4   1  -1    6.50    4.40
  -4   1  -1   10.00    6.50
  -5   0  -1   -5.50    7.10
  -5   0  -1    0.10    7.40
  -5   0  -1   -7.40    6.20
  -5   0  -1   -7.90    9.40
  -3  -9   1    4.90    3.00
  -2  -8   1    4.90    1.90
  -1  -7   1   38.70    3.30
   0  -6   1  231.28    8.20
   1  -5   1  285.87   10.40
  -1   5  -1  299.87   10.60
   2  -4   1 1372.86   44.10
  -2   4  -1 1422.06   42.20
  -2   4  -1 1394.56   43.70
   3  -3   1   21.10    4.30
  -3   3  -1   22.70    3.30
  -3   3  -1   20.60    3.40
   4  -2   1    0.90    5.10
  -4   2  -1    8.20    4.00
  -4   2  -1   10.40    5.40
   5  -1   1   11.60   10.40
  -5   1  -1    2.80    5.90
  -5   1  -1   -7.80    9.40
  -5   1  -1    9.40    7.50
  -3 -10   1    0.10    3.40
  -2  -9   1    4.10    2.10
  -1  -8   1  130.79    5.70
   0  -7   1   49.20    3.20
   1  -6   1   19.40    2.40
  -1   6  -1   14.70    2.10
   2  -5   1    2.80    2.30
  -2   5  -1    3.10    1.90
   3  -4   1  901.11   31.00
  -3   4  -1  861.41   29.60
  -3   4  -1  913.51   28.80
   4  -3   1    0.00    5.30
  -4   3  -1    3.00    4.00
  -4   3  -1    0.90    4.40
   5  -2   1   18.20   11.30
  -5   2  -1    9.10    6.00
  -3 -11   1    4.60    3.80
  -2 -10   1   16.40    2.70
  -1  -9   1  215.08    8.50
   0  -8   1   18.00    2.40
   1  -7   1   63.59    4.50
  -1   7  -1   62.49    4.30
   2  -6   1  118.79    6.70
  -2   6  -1  104.59    5.90
   3  -5   1   85.29    7.40
  -3   5  -1  106.49    7.20
  -3   5  -1   89.29    5.10
   4  -4   1   -4.20    5.20
  -4   4  -1    4.30    3.70
   5  -3   1    6.90   11.50
  -5   3  -1    2.40    5.70
  -3 -12   1   16.60    7.10
  -3 -12   1   23.70    4.80
  -2 -11   1   19.90    3.00
  -1 -10   1    2.20    1.80
   0  -9   1   81.29    4.40
   0  -9   1   86.49    5.80
   1  -8   1    8.20    1.80
  -1   8  -1    7.80    2.30
   2  -7   1    1.80    2.30
  -2   7  -1   -1.30    2.20
   3  -6   1  123.29    8.20
  -3   6  -1  124.39    8.30
   4  -5   1    2.80    5.70
  -4   5  -1    4.00    3.60
  -2 -12   1    3.00    3.20
  -2 -12   1    1.90    5.50
  -1 -11   1  103.09   10.00
  -1 -11   1   94.29    5.70
   0 -10   1    0.00    1.60
   0 -10   1    1.30    3.00
   1  -9   1    0.80    1.80
  -1   9  -1    3.00    2.70
   2  -8   1   14.90    2.90
  -2   8  -1   11.50    3.40
   3  -7   1   -2.30    3.90
  -3   7  -1   -1.60    3.20
   4  -6   1  269.17   15.90
  -4   6  -1  252.97   11.80
  -2 -13   1    1.50    4.00
  -2 -13   1    7.50    6.30
  -1 -12   1   -0.90    2.70
  -1 -12   1    9.50    5.90
   0 -11   1   20.60    4.10
   0 -11   1   28.10    3.80
   1 -10   1   73.79    5.10
   2  -9   1    7.30    3.10
  -2   9  -1   13.20    3.10
   3  -8   1   44.70    5.60
  -3   8  -1   42.90    5.30
   4  -7   1   -0.40    6.40
  -4   7  -1    9.70    4.20
  -2 -14   1    4.90    4.60
  -2 -14   1    6.50    7.80
  -1 -13   1    3.90    3.10
  -1 -13   1    8.90    5.70
   0 -12   1   41.30    5.10
   0 -12   1   56.39    5.40
   1 -11   1    9.20    2.80
   2 -10   1    0.40    3.30
  -2  10  -1    2.30    3.10
   3  -9   1    3.90    4.90
  -3   9  -1    3.00    3.40
   4  -8   1   25.70    8.10
  -4   8  -1   17.40    4.60
  -1 -14   1   19.50    6.90
  -1 -14   1   24.80    4.90
   0 -13   1   31.90    4.40
   0 -13   1   32.00    4.90
   1 -12   1    1.70    3.20
   2 -11   1    5.00    4.00
  -2  11  -1   -0.80    3.50
   3 -10   1   -0.20    5.30
  -3  10  -1    3.60    3.70
   4  -9   1   23.00    9.10
  -4   9  -1   -0.70    4.60
  -1 -15   1   -6.70    4.50
  -1 -15   1   16.60    7.30
   0 -14   1    4.30    4.70
   1 -13   1   -0.40    4.00
   2 -12   1   28.60    5.60
   3 -11   1   -0.30    6.10
  -3  11  -1    4.00    4.60
   0 -15   1    3.90    5.60
   1 -14   1   -4.60    5.80
   2 -13   1   11.30    6.60
   3 -12   1   44.40    8.90
  -3  12  -1   32.40    5.70
   1 -15   1    2.60    6.20
   2 -14   1   47.20    8.10
   2 -14  -2   25.40    8.20
   1 -15  -2    9.50    6.80
   3 -12  -2   10.10    7.90
   2 -13  -2    3.10    7.10
   1 -14  -2   -7.20    5.70
   0 -15  -2   14.90    6.10
   3 -11  -2    4.60    7.40
   2 -12  -2    0.30    5.40
   1 -13  -2    9.30    4.90
   0 -14  -2    2.50    5.00
  -1 -15  -2    7.10    6.70
  -1 -15  -2    9.50    5.40
  -4   9   2    7.10    5.10
   4  -9  -2   -2.70    8.60
  -3  10   2   -5.90    3.70
   3 -10  -2   -5.60    5.90
   2 -11  -2    3.00    4.60
   1 -12  -2    1.00    3.70
   0 -13  -2    5.10    3.70
   0 -13  -2    0.40    4.00
  -1 -14  -2    1.90    5.70
  -1 -14  -2   -4.00    4.40
  -4   8   2    6.80    4.20
   4  -8  -2   -0.20    8.10
  -3   9   2    9.40    3.50
   3  -9  -2    9.50    5.30
   2 -10  -2   10.10    3.80
   1 -11  -2    0.60    2.90
   0 -12  -2   11.60    3.80
   0 -12  -2    9.50    3.20
  -1 -13  -2   52.39    6.20
  -1 -13  -2   43.90    6.50
  -2 -14  -2    4.90    7.10
  -2 -14  -2   -6.00    4.60
  -4   7   2   16.30    4.30
   4  -7  -2   -4.10    7.40
  -3   8   2    2.90    3.10
   3  -8  -2    4.60    4.50
  -2   9   2   98.39    7.00
   2  -9  -2   97.09    7.10
   1 -10  -2   14.70    2.40
   1 -10  -2    8.10    2.70
   0 -11  -2   52.69    5.60
   0 -11  -2   48.50    4.80
  -1 -12  -2   23.10    5.40
  -1 -12  -2   27.90    3.50
  -2 -13  -2    6.10    3.90
  -2 -13  -2    3.90    6.10
  -4   6   2   12.60    4.20
   4  -6  -2   31.00    7.10
  -3   7   2   27.50    4.80
   3  -7  -2   19.60    4.50
  -2   8   2   89.09    6.20
   2  -8  -2   84.49    6.20
   1  -9  -2   66.39    4.70
   1  -9  -2   69.39    4.40
   0 -10  -2    1.70    2.10
   0 -10  -2    4.60    2.70
  -1 -11  -2    0.60    2.20
  -1 -11  -2   -2.60    4.80
  -2 -12  -2   -3.70    2.90
  -2 -12  -2    7.20    5.00
  -4   5   2    3.30    4.10
   4  -5  -2   -5.50    5.80
  -3   6   2   14.70    3.60
   3  -6  -2   12.50    4.00
  -2   7   2   99.49    5.70
   2  -7  -2  102.59    6.40
   1  -8  -2    9.40    2.10
   1  -8  -2    6.70    1.90
   0  -9  -2   56.69    4.00
   0  -9  -2   54.59    4.70
  -1 -10  -2    1.70    1.90
  -1 -10  -2    0.30    3.30
  -2 -11  -2   28.30    5.60
  -2 -11  -2   30.00    4.50
  -3 -12  -2   -1.30    6.30
  -3 -12  -2    6.00    4.20
  -4   4   2   44.00    5.90
   4  -4  -2   47.40    7.80
  -3   5   2  141.09    7.20
   3  -5  -2  141.89    9.00
  -2   6   2    1.20    2.00
   2  -6  -2   -2.00    2.30
   1  -7  -2  113.69    5.10
   1  -7  -2  101.59    5.80
   0  -8  -2    3.60    2.10
   0  -8  -2    2.20    1.80
  -1  -9  -2   66.09    5.60
  -1  -9  -2   65.89    4.10
  -2 -10  -2   19.50    4.70
  -2 -10  -2   30.60    3.80
  -3 -11  -2    6.50    5.90
  -3 -11  -2   15.40    3.70
   5  -2  -2   19.50   10.60
  -4   3   2   -1.20    4.10
   4  -3  -2    6.70    5.90
  -3   4   2   46.60    4.70
   3  -4  -2   45.80    6.40
  -2   5   2    0.00    1.80
   2  -5  -2    2.20    2.30
  -1   6   2   54.69    3.40
   1  -6  -2   53.39    3.60
   1  -6  -2   49.40    4.20
   0  -7  -2  712.33   23.10
   0  -7  -2  723.23   23.30
  -1  -8  -2    0.60    2.50
  -1  -8  -2    0.50    1.70
  -2  -9  -2   98.49    8.20
  -2  -9  -2   94.09    5.10
  -3 -10  -2   11.80    5.50
  -3 -10  -2   11.60    3.10
   5  -1  -2  -11.80    9.70
  -4   2   2   -3.30    3.70
   4  -2  -2   19.00    6.00
  -3   3   2    3.50    2.40
   3  -3  -2   -3.70    3.20
  -2   4   2   80.39    4.50
   2  -4  -2   78.99    6.40
  -1   5   2   69.39    3.80
   1  -5  -2   67.89    4.10
   1  -5  -2   72.69    4.00
   0  -6  -2    7.00    1.40
   0  -6  -2    4.90    1.60
  -1  -7  -2  138.09    5.60
  -1  -7  -2  136.29    7.20
  -2  -8  -2   14.40    2.30
  -2  -8  -2   20.10    3.80
  -3  -9  -2    4.00    4.90
  -3  -9  -2    4.10    2.80
  -4 -10  -2   -1.90    8.30
  -5   0   2   -0.90   10.10
  -5   0   2   -6.00    7.90
  -4   1   2    2.80    3.50
   4  -1  -2   -0.40    5.50
  -3   2   2   18.10    3.10
   3  -2  -2   17.40    3.70
  -2   3   2   98.59    4.60
   2  -3  -2   88.79    6.30
  -1   4   2  110.19    4.70
   1  -4  -2  108.99    5.30
   1  -4  -2  105.59    5.10
   0  -5  -2 1397.36   43.70
   0  -5  -2 1479.85   44.00
  -1  -6  -2    2.10    1.10
  -1  -6  -2    5.20    2.10
  -2  -7  -2    2.90    2.10
  -2  -7  -2   -0.10    3.70
  -3  -8  -2   50.89    7.50
  -3  -8  -2   44.00    4.80
  -4  -9  -2   -9.90    7.00
  -4  -9  -2    0.90    4.60
  -5  -1   2   13.50    8.20
  -5  -1   2    1.90   10.40
  -4   0   2    7.40    3.90
   4   0  -2    3.80    5.60
  -3   1   2    5.60    2.70
   3  -1  -2   10.00    3.40
  -2   2   2  237.28    8.50
   2  -2  -2  220.88   10.20
  -1   3   2    7.00    1.30
   1  -3  -2    8.00    2.10
   0  -4  -2  339.07   10.60
   0  -4  -2  301.27   10.70
  -1  -5  -2  324.87   10.60
  -1  -5  -2  319.57   12.20
  -2  -6  -2   30.00    3.10
  -2  -6  -2   28.20    4.40
  -3  -7  -2   55.79    6.60
  -3  -7  -2   51.39    4.60
  -4  -8  -2   -0.40    4.10
  -4  -8  -2   -2.70    6.50
  -5  -2   2   23.00   10.90
  -5  -2   2   24.70    8.20
  -4  -1   2    4.60    4.20
  -4  -1   2    3.70    5.60
  -4  -1   2   -7.60    4.50
  -3   0   2   36.40    3.90
   3   0  -2   29.80    4.60
  -2   1   2    5.90    1.90
   2  -1  -2    4.50    2.50
  -1   2   2  580.44   17.50
   1  -2  -2  555.74   19.00
   1  -2  -2  562.14   18.50
   0   3   2 2069.89   62.39
   0  -3  -2 2088.29   62.69
   0  -3  -2 2116.09   62.49
  -1  -4  -2  164.38    7.20
  -1  -4  -2  158.88    5.80
  -2  -5  -2  110.19    5.20
  -2  -5  -2  124.09    7.30
  -3  -6  -2   13.80    2.70
  -3  -6  -2   10.50    3.90
  -4  -7  -2   51.99    7.20
  -4  -7  -2   61.19   10.20
  -4  -2   2    4.80    4.50
  -4  -2   2    3.10    5.50
   3   1  -2   10.30    3.50
   2   0  -2  265.37   11.30
  -1   1   2 1090.09   31.10
   1  -1  -2 1035.10   32.30
   1  -1  -2  966.90   32.90
   0   2   2  158.58    5.30
   0  -2  -2  160.78    5.40
   0  -2  -2  164.58    5.60
   1   3   2  496.25   16.10
  -1  -3  -2  523.55   16.00
  -1  -3  -2  523.05   17.40
  -2  -4  -2   19.10    2.60
  -3  -5  -2  402.46   14.70
  -3  -5  -2  403.26   17.10
  -4  -6  -2    0.80    5.80
  -4  -6  -2   -0.80    3.80
  -4  -3   2   11.70    4.50
  -4  -3   2    7.10    5.90
  -3  -2   2   23.20    4.10
  -3  -2   2   19.00    3.20
   2   1  -2    2.60    2.50
   1   0  -2 4562.44  138.59
   1   0  -2 4634.64  137.69
   0   1   2 3678.63  123.69
   0   1   2 4598.24  123.49
   0  -1  -2 3810.12  123.49
   0  -1  -2 4592.84  123.69
   1   2   2  323.77   10.50
   1   2   2  317.97   10.90
  -1  -2  -2  337.87   11.60
  -1  -2  -2  331.77   10.40
  -2  -3  -2  368.76   12.60
  -3  -4  -2   67.49    5.90
  -4  -5  -2   -6.10    5.50
  -4  -5  -2   14.60    3.80
  -4  -4   2   71.29    7.80
  -3  -3   2    2.60    2.80
  -3  -3   2    4.70    3.60
  -2  -2   2  234.18    9.60
  -2  -2   2  251.37   11.00
   1   1  -2 1072.59   33.70
   0   0  -2  954.40   28.70
   0   0  -2  930.31   28.30
  -1  -1  -2 8649.93  259.57
  -1  -1  -2 8869.41  260.17
  -1  -1  -2 8770.62  259.57
  -2  -2  -2  354.76   12.10
  -2  -2  -2  349.67   13.10
  -3  -3  -2    9.60    3.30
  -4  -4  -2   -5.00    5.40
  -4  -4  -2   -4.70    3.60
  -4  -5   2    5.10    4.60
  -3  -4   2   65.29    5.60
  -2  -3   2   89.39    6.40
  -2  -3   2   96.39    5.30
  -1  -2   2  602.34   19.90
  -1  -2   2  592.04   19.00
   0  -1   2 4669.33  136.29
   0   1  -2 4670.63  136.29
   0   1  -2 4688.43  136.19
   0   1  -2 4379.66  137.09
   1   0   2 3044.50   89.89
  -1   0  -2 3047.99   89.79
  -1   0  -2 2950.70   90.19
   2   1   2  148.59    6.90
  -3  -2  -2   29.00    4.90
  -3  -2  -2   30.00    3.90
  -4  -3  -2    8.20    5.20
  -4  -3  -2    5.50    3.60
  -5  -4  -2   12.50    9.20
  -4  -6   2    5.00    4.70
  -3  -5   2  183.08    8.90
  -2  -4   2   84.09    5.30
  -1  -3   2    6.20    1.30
   0  -2   2  173.78    5.50
   0   2  -2  166.68    5.70
   0   2  -2  166.28    5.50
   0   2  -2  158.38    6.80
   1  -1   2 8067.59  243.68
  -1   1  -2 7811.52  243.48
  -1   1  -2 8335.77  243.78
  -1   1  -2 8704.23  244.38
   2   0   2 1020.30   32.20
  -2   0  -2  992.50   32.30
   3   1   2  134.09    8.40
  -3  -1  -2  144.29    8.50
  -3  -1  -2  137.29    9.00
  -4  -2  -2   33.70    5.40
  -4  -2  -2   41.30    6.00
  -4  -2  -2   27.50    5.60
  -5  -3  -2   11.60    9.10
  -5  -3  -2   25.40    7.30
  -4  -7   2   26.60    5.10
  -3  -6   2   18.60    3.30
  -2  -5   2    1.40    2.00
  -1  -4   2  104.09    4.60
   0  -3   2 2092.09   62.39
   0   3  -2 2101.39   63.69
   0   3  -2 2164.48   62.79
   0   3  -2 2005.60   62.49
   1  -2   2  339.07   10.80
   1  -2   2  302.47   10.40
  -1   2  -2  332.47   11.20
  -1   2  -2  330.27   10.50
  -1   2  -2  328.87   10.30
   2  -1   2  142.39    6.60
  -2   1  -2  138.19    6.50
   3   0   2   36.30    4.70
  -3   0  -2   31.80    4.40
  -4  -1  -2  103.29    9.40
  -4  -1  -2  118.79    8.00
  -4  -1  -2   99.79    9.80
  -5  -2  -2   20.10    8.50
  -5  -2  -2    8.70    6.70
  -5  -2  -2    8.20    6.60
  -4  -8   2    5.50    5.40
  -3  -7   2   21.00    3.50
  -2  -6   2    3.00    1.80
  -1  -5   2   73.89    3.70
   0  -4   2  326.77   10.60
   0   4  -2  326.97   11.00
   1  -3   2  532.25   16.80
   1  -3   2  476.05   16.00
  -1   3  -2  528.55   17.20
  -1   3  -2  566.84   16.00
   2  -2   2  354.36   12.90
  -2   2  -2  365.76   13.20
  -2   2  -2  347.57   12.40
   3  -1   2  136.49    8.90
  -3   1  -2  133.69    7.90
  -3   1  -2  143.59    7.90
   4   0   2   18.80    5.50
  -4   0  -2   23.90    5.50
  -4   0  -2   23.50    5.00
  -5  -1  -2    6.00    6.90
  -5  -1  -2   26.50    9.40
  -5  -1  -2   -3.30    6.50
  -5  -1  -2   23.00    8.00
  -4  -9   2    1.70    5.40
  -3  -8   2   -1.70    3.10
  -2  -7   2  115.99    5.90
  -1  -6   2   56.09    3.50
   0  -5   2 1459.95   43.60
   0   5  -2 1412.16   44.00
   1  -4   2  163.38    6.10
  -1   4  -2  153.58    6.40
   2  -3   2  357.46   13.00
  -2   3  -2  332.57   11.80
  -2   3  -2  369.56   13.10
   3  -2   2   35.50    5.30
  -3   2  -2   33.30    4.00
  -3   2  -2   37.50    5.30
   4  -1   2  105.99   10.30
  -4   1  -2  112.99   11.50
  -4   1  -2  111.99    8.40
  -5   0  -2    1.80    9.20
  -5   0  -2   19.20    7.90
  -5   0  -2   30.90    6.80
  -5   0  -2   20.90    7.30
  -3  -9   2    9.30    3.50
  -2  -8   2   83.59    5.00
  -1  -7   2  105.79    5.10
   0  -6   2    5.90    1.30
   1  -5   2  322.97   11.50
  -1   5  -2  344.67   11.90
   2  -4   2   15.10    2.30
  -2   4  -2   18.30    2.50
  -2   4  -2   11.20    1.90
   3  -3   2    8.90    4.50
  -3   3  -2    5.60    3.00
  -3   3  -2    4.20    2.60
   4  -2   2   28.60    6.10
  -4   2  -2   18.30    4.50
  -4   2  -2   28.60    5.70
   5  -1   2   12.30   10.10
  -5   1  -2   17.00    7.50
  -5   1  -2   -1.10    5.80
  -5   1  -2   -5.30    9.10
  -3 -10   2   -3.30    3.60
  -2  -9   2   92.39    5.60
  -1  -8   2    4.90    1.40
   0  -7   2  733.23   23.30
   1  -6   2    5.40    1.50
  -1   6  -2    2.60    1.70
   2  -5   2  121.89    6.40
  -2   5  -2  119.59    6.10
   3  -4   2   68.69    7.10
  -3   4  -2   60.89    4.80
  -3   4  -2   56.09    6.00
   4  -3   2    1.00    5.40
  -4   3  -2    4.60    3.90
  -4   3  -2    9.60    4.30
   5  -2   2    4.20   10.20
  -5   2  -2    4.20    5.80
  -3 -11   2    7.50    4.40
  -2 -10   2    4.10    2.40
  -1  -9   2   68.19    4.00
   0  -8   2    4.30    1.40
   1  -7   2  137.69    6.30
  -1   7  -2  131.99    6.50
   2  -6   2   25.70    3.80
  -2   6  -2   32.10    3.80
   3  -5   2  403.46   16.30
  -3   5  -2  374.96   15.50
  -3   5  -2  396.66   13.20
   4  -4   2   -1.60    5.50
  -4   4  -2    4.10    3.90
   5  -3   2   10.70   10.80
  -5   3  -2    4.20    6.10
  -3 -12   2    3.80    4.40
  -2 -11   2   12.60    2.90
  -1 -10   2   13.60    2.10
   0  -9   2   56.19    3.60
   1  -8   2    0.60    1.60
  -1   8  -2    0.30    2.20
   2  -7   2    0.10    2.20
  -2   7  -2    2.90    2.60
   3  -6   2   11.80    3.80
  -3   6  -2   13.70    3.30
   4  -5   2    8.10    6.10
  -4   5  -2   13.00    3.80
  -2 -12   2    3.10    3.30
  -1 -11   2    0.10    2.10
   0 -10   2    5.50    1.90
   1  -9   2   60.79    4.40
  -1   9  -2   63.09    5.30
   2  -8   2   16.80    3.00
  -2   8  -2   12.80    3.10
   3  -7   2   53.29    6.90
  -3   7  -2   58.69    6.00
   4  -6   2    3.80    6.40
  -4   6  -2    4.70    3.80
  -2 -13   2   -6.90    6.30
  -2 -13   2    8.90    4.20
  -1 -12   2   -3.30    2.60
   0 -11   2   41.00    6.50
   0 -11   2   44.20    4.10
   1 -10   2   -0.20    2.30
  -1  10  -2    3.70    2.30
   2  -9   2   94.69    7.00
  -2   9  -2  107.69    6.60
   3  -8   2   44.40    5.50
  -3   8  -2   44.90    5.60
   4  -7   2   42.90    8.40
  -4   7  -2   28.70    5.00
  -2 -14   2   21.10    4.80
  -2 -14   2   12.50    8.00
  -1 -13   2   17.80    3.70
  -1 -13   2   17.60    6.30
   0 -12   2    9.40    2.90
   0 -12   2    5.20    4.30
   1 -11   2    1.90    2.60
   2 -10   2   18.30    4.10
  -2  10  -2   21.80    3.40
   3  -9   2   -4.50    4.70
  -3   9  -2   -1.80    3.40
   4  -8   2   11.70    8.10
  -4   8  -2   -4.70    4.30
  -1 -14   2    0.80    4.30
  -1 -14   2   -0.90    6.50
   0 -13   2   14.30    4.60
   0 -13   2    7.10    3.60
   1 -12   2   33.70    4.50
   2 -11   2   23.80    5.10
  -2  11  -2   24.80    4.00
   3 -10   2   14.70    5.70
  -3  10  -2   14.70    3.80
   4  -9   2    2.00    9.80
  -4   9  -2    9.80    4.90
  -1 -15   2    2.30    4.90
  -1 -15   2   11.60    7.20
   0 -14   2    6.30    4.50
   1 -13   2   51.69    7.50
   2 -12   2  -11.20    4.50
  -2  12  -2    3.00    4.00
   3 -11   2   13.20    6.60
  -3  11  -2    9.30    4.40
   0 -15   2    5.20    5.50
   1 -14   2    1.70    5.30
   2 -13   2   -2.30    5.90
   3 -12   2    6.70    7.20
  -3  12  -2    2.40    5.40
   1 -15   2    2.30    6.40
   2 -14   2    0.00    6.90
   2 -14  -3   21.20    8.50
   1 -15  -3   -0.90    7.30
   3 -12  -3   45.00   10.10
   2 -13  -3    8.20    7.20
   1 -14  -3   28.70    7.30
   0 -15  -3  -14.10    5.70
   3 -11  -3    2.60    7.40
   2 -12  -3  111.69   10.80
   1 -13  -3   10.00    4.80
   0 -14  -3   22.70    5.80
  -1 -15  -3    5.40    6.50
  -1 -15  -3   -5.00    5.40
  -4   9   3    4.40    5.10
   4  -9  -3    6.10    9.30
   3 -10  -3    0.40    6.30
   2 -11  -3   37.10    6.00
   1 -12  -3   27.50    4.70
   0 -13  -3   15.80    4.50
   0 -13  -3   16.60    4.30
  -1 -14  -3   -2.00    5.60
  -1 -14  -3    8.20    4.70
  -4   8   3    0.30    4.60
   4  -8  -3   -5.30    8.20
  -3   9   3    5.40    3.50
   3  -9  -3   11.30    5.50
   2 -10  -3    0.10    3.80
   1 -11  -3    8.50    3.40
   1 -11  -3    7.20    2.80
   0 -12  -3    0.30    3.60
   0 -12  -3    1.80    3.40
  -1 -13  -3    6.70    3.60
  -1 -13  -3    3.60    5.00
  -2 -14  -3    1.70    6.90
  -2 -14  -3    3.60    4.90
  -4   7   3    2.90    4.10
   4  -7  -3    7.10    8.10
  -3   8   3   42.90    6.20
   3  -8  -3   57.69    7.10
   2  -9  -3    2.00    3.10
   1 -10  -3    4.40    2.60
   1 -10  -3    0.20    2.70
   0 -11  -3   48.60    5.20
   0 -11  -3   56.39    5.70
  -1 -12  -3   44.20    5.20
  -1 -12  -3   31.90    5.70
  -2 -13  -3    2.40    4.00
  -2 -13  -3    2.90    5.70
  -4   6   3   -3.00    4.20
   4  -6  -3    2.00    6.70
  -3   7   3   14.20    3.90
   3  -7  -3   22.00    4.80
  -2   8   3  116.29    6.60
   2  -8  -3  127.79    7.50
   1  -9  -3    4.70    2.10
   1  -9  -3    4.50    2.60
   0 -10  -3  128.29    6.50
   0 -10  -3  118.99    7.00
  -1 -11  -3   99.49    9.80
  -1 -11  -3   97.29    5.80
  -2 -12  -3    1.60    4.80
  -2 -12  -3   10.30    3.30
  -4   5   3   25.50    5.50
   4  -5  -3   36.10    6.60
  -3   6   3  325.37   12.50
   3  -6  -3  342.87   15.40
  -2   7   3   69.79    4.90
   2  -7  -3   65.09    5.60
   2  -7  -3   72.49    6.80
   1  -8  -3   90.59    5.50
   1  -8  -3   87.99    5.30
   0  -9  -3   42.20    4.50
   0  -9  -3   38.30    3.80
  -1 -10  -3    5.30    3.50
  -1 -10  -3    4.10    2.00
  -2 -11  -3   -2.90    2.60
  -2 -11  -3    4.90    4.70
  -3 -12  -3   -2.10    4.20
  -3 -12  -3   -8.60    6.70
  -4   4   3  168.48    9.30
   4  -4  -3  173.68   12.70
  -3   5   3   38.60    4.20
   3  -5  -3   28.70    4.60
  -2   6   3  232.38    9.20
   2  -6  -3  240.58   11.20
   2  -6  -3  230.68   10.50
   1  -7  -3  114.59    6.20
   1  -7  -3  107.49    5.70
   0  -8  -3   49.90    4.20
   0  -8  -3   58.19    4.30
  -1  -9  -3   65.89    5.70
  -1  -9  -3   65.79    4.20
  -2 -10  -3    8.40    4.20
  -2 -10  -3   12.90    2.50
  -3 -11  -3    1.50    3.50
  -3 -11  -3   -2.10    5.80
  -4   3   3   27.70    3.80
   4  -3  -3   14.70    6.30
  -3   4   3    5.90    2.40
   3  -4  -3    1.80    3.60
  -2   5   3   50.59    3.80
   2  -5  -3   43.90    6.90
   2  -5  -3   48.10    4.60
   1  -6  -3   82.79    5.30
   1  -6  -3   87.39    4.90
   0  -7  -3   71.09    4.10
   0  -7  -3   74.99    4.40
  -1  -8  -3   33.20    4.40
  -1  -8  -3   26.10    3.40
  -2  -9  -3   36.60    6.10
  -2  -9  -3   36.10    3.60
  -3 -10  -3   -1.70    5.20
  -3 -10  -3   -2.20    2.80
  -4   2   3   36.70    5.40
   4  -2  -3   43.40    7.10
  -3   3   3    4.50    2.30
   3  -3  -3    9.40    3.30
  -2   4   3  201.58    7.40
   2  -4  -3  172.08    9.40
   2  -4  -3  188.78   10.20
   1  -5  -3   83.49    5.00
   1  -5  -3   94.29    5.00
   0  -6  -3  155.78    6.30
   0  -6  -3  159.98    6.60
  -1  -7  -3   -0.50    1.20
  -1  -7  -3    4.20    2.30
  -2  -8  -3    0.80    3.20
  -2  -8  -3   -2.70    1.80
  -3  -9  -3   -0.20    4.60
  -3  -9  -3   -3.50    2.60
  -5   0   3   12.40   10.80
  -4   1   3   -2.70    3.40
   4  -1  -3   10.50    5.80
  -3   2   3   66.99    4.50
   3  -2  -3   68.79    6.70
  -2   3   3    0.60    1.50
   2  -3  -3   -3.20    2.60
   1  -4  -3    5.80    2.10
   1  -4  -3    3.80    1.70
   0  -5  -3    2.00    1.00
   0  -5  -3   -1.10    1.20
  -1  -6  -3  105.39    4.50
  -1  -6  -3  103.99    5.90
  -2  -7  -3   40.50    4.00
  -2  -7  -3   33.10    5.30
  -3  -8  -3    5.10    2.50
  -3  -8  -3   12.10    4.20
  -4  -9  -3   -7.40    7.40
  -4  -9  -3    0.00    4.50
  -5  -1   3   -4.60   10.60
  -4   0   3    1.70    3.60
   4   0  -3   -4.00    5.60
  -3   1   3   14.00    2.40
   3  -1  -3   11.40    3.70
  -2   2   3  422.26   13.80
   2  -2  -3  424.96   16.00
  -1   3   3    1.50    0.90
   1  -3  -3    1.10    1.50
   1  -3  -3    2.40    2.10
   0  -4  -3   35.80    2.30
   0  -4  -3   36.00    2.50
  -1  -5  -3  702.23   23.90
  -1  -5  -3  727.93   22.20
  -2  -6  -3   24.60    4.20
  -2  -6  -3   19.60    2.90
  -3  -7  -3   32.80    4.80
  -3  -7  -3   38.30    4.30
  -4  -8  -3   -3.50    4.10
  -4  -8  -3   -3.30    7.00
  -4  -1   3    5.90    6.00
  -4  -1   3   -7.40    3.90
  -4  -1   3   -0.60    4.80
  -3   0   3    3.80    2.40
   3   0  -3   -0.90    3.50
  -2   1   3    6.20    1.60
   2  -1  -3   10.00    2.80
  -1   2   3  154.08    5.30
   1  -2  -3  154.68    6.60
   1  -2  -3  154.68    7.60
   0   3   3   75.89    3.20
   0  -3  -3   87.69    3.70
   0  -3  -3   87.89    3.60
  -1  -4  -3   34.00    3.10
  -1  -4  -3   30.60    1.90
  -2  -5  -3    6.80    1.50
  -2  -5  -3   10.10    3.00
  -3  -6  -3   36.60    4.30
  -3  -6  -3   41.10    6.40
  -4  -7  -3   39.80    4.70
  -4  -7  -3   28.80    7.40
  -4  -2   3   26.00    6.50
  -4  -2   3   27.90    5.50
   3   1  -3   22.60    3.90
   2   0  -3   -3.80    2.60
  -1   1   3  419.36   12.60
   1  -1  -3  401.36   15.30
   1  -1  -3  419.36   14.30
   0   2   3  875.71   26.70
   0  -2  -3  867.51   26.80
   0  -2  -3  900.41   27.10
   1   3   3  167.08    5.90
  -1  -3  -3  170.88    5.70
  -1  -3  -3  167.18    7.10
  -2  -4  -3  611.94   21.90
  -2  -4  -3  609.94   19.50
  -3  -5  -3   48.10    6.10
  -3  -5  -3   56.59    5.60
  -4  -6  -3    9.60    3.80
  -4  -6  -3   -0.70    6.10
  -4  -3   3   25.70    6.30
  -4  -3   3   30.90    5.30
  -3  -2   3   84.39    7.80
  -3  -2   3   95.89    6.30
   2   1  -3    9.40    3.10
   1   0  -3    2.10    1.70
   1   0  -3    2.70    2.80
   0   1   3 1680.13   50.49
   0  -1  -3 1657.83   50.59
   0  -1  -3 1731.93   50.89
   1   2   3  344.97   11.10
  -1  -2  -3  359.96   12.40
  -1  -2  -3  360.96   11.00
  -2  -3  -3 1782.32   53.99
  -2  -3  -3 1775.52   56.09
  -3  -4  -3   23.00    4.50
  -3  -4  -3   17.00    3.40
  -4  -5  -3  136.69   11.80
  -4  -5  -3  133.69    8.20
  -4  -4   3  229.38   12.20
  -3  -3   3    9.10    3.60
  -3  -3   3    9.30    2.90
  -2  -2   3  446.06   17.10
  -2  -2   3  433.66   15.70
   1   1  -3  421.46   14.70
   0   0   3    1.60    0.90
   0   0  -3    0.80    1.00
   0   0  -3    0.50    0.90
  -1  -1  -3  720.13   21.80
  -1  -1  -3  726.93   22.10
  -1  -1  -3  720.13   23.00
  -2  -2  -3  128.19    5.30
  -2  -2  -3  124.99    6.80
  -3  -3  -3  310.37   14.90
  -3  -3  -3  313.47   12.00
  -4  -4  -3    0.60    5.40
  -4  -4  -3    5.40    3.60
  -4  -5   3   33.60    5.50
  -3  -4   3   -3.40    2.80
  -2  -3   3    4.40    2.80
  -2  -3   3   -0.20    2.10
  -1  -2   3  160.38    6.20
  -1  -2   3  155.48    7.00
   1   2  -3  157.48    8.60
   0  -1   3 1648.64   49.30
   0   1  -3 1632.84   49.30
   0   1  -3 1688.33   49.40
   0   1  -3 1669.43   49.70
   0   1  -3 1614.94   50.49
   1   0   3    1.80    1.00
  -1   0  -3    2.40    0.70
  -1   0  -3    1.40    1.20
   2   1   3   74.29    4.80
  -2  -1  -3   79.79    4.70
  -2  -1  -3   79.29    5.20
  -3  -2  -3  103.19    7.50
  -3  -2  -3   92.09    7.90
  -3  -2  -3  103.69    6.00
  -4  -3  -3   -0.10    3.40
  -4  -3  -3   10.70    5.20
  -4  -6   3    6.00    5.10
  -3  -5   3   34.20    5.20
  -2  -4   3  195.58    8.60
  -1  -3   3    2.10    1.10
   0  -2   3  885.31   26.60
   0   2  -3  899.61   26.80
   0   2  -3  869.61   28.20
   0   2  -3  858.31   26.70
   1  -1   3  741.93   22.40
  -1   1  -3  724.93   23.30
  -1   1  -3  722.43   22.70
  -1   1  -3  737.73   22.10
   2   0   3    1.20    2.00
  -2   0  -3   -0.80    1.90
  -3  -1  -3  206.08   10.30
  -3  -1  -3  197.48   10.20
  -3  -1  -3  200.08    8.90
  -4  -2  -3   -8.00    3.40
  -4  -2  -3    0.70    4.80
  -5  -3  -3    2.00    6.60
  -5  -3  -3    8.70    8.80
  -4  -7   3    3.50    5.20
  -3  -6   3  401.66   15.90
  -2  -5   3   46.00    3.70
  -1  -4   3    5.00    1.40
   0  -3   3   85.79    3.40
   0   3  -3   69.09    5.30
   0   3  -3   84.59    3.70
   1  -2   3  363.26   11.50
  -1   2  -3  359.76   12.30
  -1   2  -3  338.77   11.10
  -1   2  -3  368.56   11.40
   2  -1   3   79.99    4.80
  -2   1  -3   74.79    4.70
   3   0   3   -5.00    3.10
  -3   0  -3   -0.30    3.00
  -4  -1  -3   -5.50    4.50
  -4  -1  -3   -3.60    4.70
  -4  -1  -3   -1.80    3.70
  -5  -2  -3    1.20    6.70
  -5  -2  -3  -12.70    6.10
  -4  -8   3    2.70    5.60
  -3  -7   3   14.60    3.60
  -2  -6   3  263.17   10.30
  -1  -5   3   83.29    4.20
   0  -4   3   35.00    2.10
   0   4  -3   39.60    4.80
   0   4  -3   36.60    2.70
   1  -3   3  174.58    6.30
  -1   3  -3  171.58    7.00
  -1   3  -3  182.08    6.20
   2  -2   3  133.89    6.40
  -2   2  -3  136.19    6.80
  -2   2  -3  132.09    6.00
   3  -1   3  195.08    9.80
  -3   1  -3  188.58    9.20
  -3   1  -3  184.58    9.60
   4   0   3   12.00    5.80
  -4   0  -3    3.20    4.80
  -4   0  -3    7.00    4.30
  -5  -1  -3   22.00    8.00
  -5  -1  -3    9.40    6.70
  -5  -1  -3   -4.90    6.40
  -4  -9   3    7.60    5.80
  -3  -8   3   54.09    6.00
  -2  -7   3   80.69    4.90
  -1  -6   3   79.59    4.40
   0  -5   3   -0.30    0.90
   0   5  -3   -1.10    1.30
   1  -4   3   32.40    2.30
   1  -4   3   29.50    1.90
  -1   4  -3   31.60    3.10
  -1   4  -3   35.90    2.90
   2  -3   3 1772.12   54.99
  -2   3  -3 1790.22   55.39
  -2   3  -3 1780.12   53.99
   3  -2   3   91.29    7.40
  -3   2  -3  106.79    6.60
  -3   2  -3   97.99    7.30
   4  -1   3   -4.80    5.10
  -4   1  -3    9.90    6.30
  -4   1  -3    4.00    4.40
  -5   0  -3   -8.80    7.40
  -5   0  -3   -1.70    6.80
  -5   0  -3   -0.60    8.90
  -5   0  -3    3.60    6.40
  -3  -9   3    2.10    3.50
  -2  -8   3  113.79    6.20
  -1  -7   3  116.29    5.40
   0  -6   3  151.68    5.90
   0   6  -3  152.08    6.50
   1  -5   3  718.53   22.20
   1  -5   3  674.93   21.10
  -1   5  -3  732.13   22.90
  -1   5  -3  669.13   21.80
   2  -4   3  614.74   20.90
  -2   4  -3  623.14   19.40
  -2   4  -3  633.14   21.30
   3  -3   3  317.57   14.20
  -3   3  -3  308.07   11.70
  -3   3  -3  301.07   13.20
   4  -2   3    2.30    5.60
  -4   2  -3   -2.10    4.50
  -4   2  -3    1.50    3.90
  -5   1  -3   14.90    7.30
  -5   1  -3   -1.00    5.90
  -5   1  -3    7.30    7.10
  -5   1  -3   27.80    9.40
  -3 -10   3    9.20    3.90
  -2  -9   3    1.30    2.40
  -1  -8   3   90.19    4.60
   0  -7   3   70.19    3.80
   1  -6   3  101.59    4.80
  -1   6  -3  102.89    5.30
   2  -5   3    6.80    2.20
  -2   5  -3    6.40    2.20
   3  -4   3   22.00    4.60
  -3   4  -3   19.80    4.30
  -3   4  -3   19.60    2.70
   4  -3   3    6.40    5.60
  -4   3  -3    1.10    4.00
  -4   3  -3   -3.40    3.90
   5  -2   3    6.60    9.70
  -5   2  -3    6.20    6.00
  -3 -11   3   19.40    4.80
  -2 -10   3    5.30    2.60
  -1  -9   3    0.10    1.50
   0  -8   3   52.49    3.30
   1  -7   3   -0.30    1.70
  -1   7  -3    2.20    1.90
   2  -6   3   21.50    3.30
  -2   6  -3   21.30    3.00
   3  -5   3   52.69    6.40
  -3   5  -3   53.29    6.00
  -3   5  -3   44.90    3.70
   4  -4   3   -3.30    5.50
  -4   4  -3    2.50    3.90
   5  -3   3   -4.30    9.90
  -5   3  -3   -2.70    6.00
  -3 -12   3   29.70    5.30
  -2 -11   3   26.30    3.50
  -1 -10   3   -3.20    1.90
   0  -9   3   43.60    3.10
   1  -8   3   27.90    3.20
  -1   8  -3   26.30    3.40
   2  -7   3   36.20    4.60
  -2   7  -3   43.10    5.30
   3  -6   3   49.80    6.50
  -3   6  -3   36.00    5.40
   4  -5   3  134.99   12.80
  -4   5  -3  124.59    8.60
  -2 -12   3  102.59    7.30
  -1 -11   3    8.00    2.30
   0 -10   3  111.69    5.50
   1  -9   3   70.29    4.40
  -1   9  -3   58.59    5.10
   2  -8   3   -4.20    2.60
  -2   8  -3    6.70    2.70
   3  -7   3   48.20    6.80
  -3   7  -3   43.00    5.80
   4  -6   3    2.40    6.50
  -4   6  -3   -1.70    4.10
  -2 -13   3    0.60    4.10
  -1 -12   3   35.00    4.60
   0 -11   3   59.49    4.50
   1 -10   3    5.80    2.30
  -1  10  -3    8.40    2.60
   2  -9   3   35.00    4.20
  -2   9  -3   37.50    4.40
   3  -8   3    7.70    4.40
  -3   8  -3   13.90    3.60
   4  -7   3   28.40    8.00
  -4   7  -3   36.00    5.10
  -2 -14   3   10.10    4.80
  -2 -14   3   11.10    8.70
  -1 -13   3    0.70    3.30
   0 -12   3   -6.00    4.30
   0 -12   3    2.20    2.60
   1 -11   3  101.19    6.70
   2 -10   3    4.40    3.40
  -2  10  -3    6.90    3.30
   3  -9   3    4.30    5.00
  -3   9  -3   -2.00    3.70
   4  -8   3    4.80    7.90
  -4   8  -3   -4.80    4.50
  -1 -14   3   43.30    7.70
  -1 -14   3   42.80    5.80
   0 -13   3   13.40    3.50
   0 -13   3   18.70    4.90
   1 -12   3   37.60    4.60
   2 -11   3   -2.10    3.80
  -2  11  -3    1.90    3.60
   3 -10   3    6.90    5.40
  -3  10  -3    2.60    3.90
   4  -9   3    7.30   10.40
  -4   9  -3    5.10    5.00
  -1 -15   3   -1.30    7.30
  -1 -15   3   14.30    5.00
   0 -14   3    4.20    4.50
   1 -13   3    3.40    4.10
   2 -12   3   11.00    4.80
  -2  12  -3   12.30    4.20
   3 -11   3    4.60    6.10
  -3  11  -3    6.40    4.40
   0 -15   3   -2.10    5.30
   1 -14   3    5.90    5.50
   2 -13   3    1.80    6.20
  -2  13  -3   11.30    4.70
   3 -12   3   -3.20    7.30
  -3  12  -3    5.10    5.60
   1 -15   3    0.90    6.20
   2 -14   3    1.00    6.80
   1 -15  -4    6.90    8.30
   3 -12  -4    9.40    9.00
   2 -13  -4    1.50    7.10
   1 -14  -4   26.60    7.20
   0 -15  -4   14.00    6.30
   3 -11  -4   12.70    7.80
   2 -12  -4    1.40    6.40
   1 -13  -4   10.50    5.20
   0 -14  -4   -3.50    5.70
  -1 -15  -4   -1.60    5.50
  -1 -15  -4   -2.20    6.90
   3 -10  -4   20.40    8.00
   2 -11  -4    4.30    5.40
   1 -12  -4   56.89    7.90
   0 -13  -4   -3.50    4.10
   0 -13  -4   -2.00    4.50
  -1 -14  -4   -7.10    5.50
  -1 -14  -4   -2.10    4.80
   4  -8  -4   -0.50    8.70
   3  -9  -4   24.60    6.50
   2 -10  -4  117.69    9.50
   1 -11  -4   10.60    4.00
   1 -11  -4   12.10    3.10
   0 -12  -4   -2.60    3.40
   0 -12  -4    4.60    3.60
  -1 -13  -4   30.40    5.90
  -1 -13  -4   22.50    4.20
  -2 -14  -4   -0.30    7.00
  -2 -14  -4   11.00    5.00
   4  -7  -4   17.80    8.60
  -3   8   4   -1.60    4.40
   3  -8  -4   -0.20    5.00
   2  -9  -4    5.30    3.70
   1 -10  -4   68.89    5.80
   1 -10  -4   62.99    6.10
   0 -11  -4   76.19    6.10
   0 -11  -4   66.19    6.00
  -1 -12  -4   32.60    4.00
  -1 -12  -4   34.20    5.60
  -2 -13  -4   14.80    4.10
  -2 -13  -4    7.80    6.00
   4  -6  -4    6.40    8.00
  -3   7   4   18.90    3.30
   3  -7  -4   31.20    5.60
   2  -8  -4   16.80    4.60
   2  -8  -4   15.70    3.50
   1  -9  -4  665.93   22.50
   1  -9  -4  686.03   23.70
   0 -10  -4  347.57   13.20
   0 -10  -4  333.07   13.20
  -1 -11  -4   51.39    8.10
  -1 -11  -4   52.29    4.80
  -2 -12  -4    6.70    5.00
  -2 -12  -4   -1.00    3.10
   4  -5  -4   68.19    8.90
  -3   6   4    7.30    2.60
   3  -6  -4    4.20    4.30
   2  -7  -4  152.88   10.30
   2  -7  -4  168.68    8.70
   1  -8  -4  465.65   17.10
   1  -8  -4  469.75   16.30
   0  -9  -4   45.60    4.50
   0  -9  -4   43.00    4.30
  -1 -10  -4    3.80    2.10
  -1 -10  -4    3.60    3.60
  -2 -11  -4    1.90    2.70
  -2 -11  -4    3.00    4.30
  -3 -12  -4   -2.50    6.30
  -3 -12  -4   10.30    4.40
   4  -4  -4    4.40    6.50
  -3   5   4  124.79    6.30
   3  -5  -4  129.39    9.00
  -2   6   4    5.00    2.10
   2  -6  -4    1.80    2.60
   2  -6  -4    0.80    4.40
   1  -7  -4    1.70    2.00
   1  -7  -4    2.00    2.30
   0  -8  -4   30.40    3.70
   0  -8  -4   28.20    3.80
  -1  -9  -4   57.59    5.20
  -1  -9  -4   46.20    3.90
  -2 -10  -4    0.30    3.80
  -2 -10  -4   -0.90    2.30
  -3 -11  -4    2.20    3.50
   4  -3  -4    6.90    6.80
  -3   4   4   20.20    2.60
   3  -4  -4   21.70    4.40
  -2   5   4    6.90    2.10
   2  -5  -4   10.10    2.70
   2  -5  -4    9.90    4.40
   1  -6  -4   -0.40    2.10
   1  -6  -4    2.20    2.20
   0  -7  -4   96.29    5.00
   0  -7  -4   83.89    4.70
  -1  -8  -4   71.59    5.40
  -1  -8  -4   82.49    4.80
  -2  -9  -4   20.90    2.60
  -2  -9  -4   15.70    4.00
  -3 -10  -4   24.20    3.60
  -3 -10  -4   19.00    5.90
   4  -2  -4   -8.50    6.10
  -3   3   4    5.20    2.30
   3  -3  -4    2.50    3.40
  -2   4   4    4.10    1.70
   2  -4  -4    6.20    2.50
   2  -4  -4    2.30    3.80
   1  -5  -4  118.19    6.10
   1  -5  -4  118.39    6.20
   0  -6  -4   79.69    4.20
   0  -6  -4   84.39    4.50
  -1  -7  -4   28.90    2.60
  -1  -7  -4   24.20    3.90
  -2  -8  -4   40.10    3.80
  -2  -8  -4   40.20    5.80
  -3  -9  -4    1.60    5.00
  -3  -9  -4   -3.00    2.60
   4  -1  -4  -13.00    5.60
  -3   2   4   36.90    3.70
   3  -2  -4   33.30    4.90
  -2   3   4   15.80    1.80
   2  -3  -4   20.00    4.60
   2  -3  -4   15.80    3.70
   1  -4  -4 1357.06   42.90
   1  -4  -4 1381.76   43.20
   0  -5  -4   58.59    3.40
   0  -5  -4   60.49    3.50
  -1  -6  -4  191.78    7.00
  -1  -6  -4  187.98    8.50
  -2  -7  -4  133.59    6.10
  -2  -7  -4  127.69    9.30
  -3  -8  -4   -0.60    4.10
  -3  -8  -4   -1.00    2.40
  -4  -9  -4   -1.70    7.20
  -4  -9  -4    2.40    4.40
   4   0  -4    6.40    5.90
  -3   1   4  155.58    6.60
   3  -1  -4  147.39    9.30
  -2   2   4  110.29    4.40
   2  -2  -4  107.29    7.20
   2  -2  -4  106.99    8.20
   1  -3  -4   10.80    2.50
   1  -3  -4   11.20    2.10
   0  -4  -4  282.37    9.90
   0  -4  -4  294.27   10.10
  -1  -5  -4   10.50    1.40
  -1  -5  -4   10.20    2.10
  -2  -6  -4    5.80    1.70
  -2  -6  -4    6.10    3.30
  -3  -7  -4    2.80    2.40
  -3  -7  -4    3.00    4.00
  -4  -8  -4   -4.60    4.20
  -4  -8  -4    5.70    6.90
  -4  -1   4    0.20    6.20
  -4  -1   4    7.50    4.90
  -3   0   4   37.10    4.00
   3   0  -4   35.20    4.50
  -2   1   4  295.57    9.70
   2  -1  -4  306.17   14.10
   2  -1  -4  286.37   12.60
   1  -2  -4   46.90    3.80
   1  -2  -4   54.39    5.00
   0   3   4 1440.76   42.80
   0  -3  -4 1375.36   43.00
   0  -3  -4 1440.66   43.30
  -1  -4  -4   30.80    1.90
  -1  -4  -4   28.60    3.00
  -2  -5  -4   81.89    4.10
  -2  -5  -4   80.89    6.50
  -3  -6  -4   -0.90    3.70
  -3  -6  -4    0.00    2.50
  -4  -7  -4   11.50    6.50
  -4  -7  -4    6.70    3.90
  -4  -2   4   -3.40    4.80
  -4  -2   4    7.30    6.30
   3   1  -4  162.18    9.50
  -2   0   4  398.06   12.70
   2   0  -4  388.56   15.60
   1  -1  -4  214.78    9.80
   1  -1  -4  205.48    8.50
   0   2   4 5845.82  166.38
   0  -2  -4 5600.74  166.88
   0  -2  -4 5382.56  166.48
   1   3   4   22.00    1.70
  -1  -3  -4   26.80    2.70
  -1  -3  -4   25.60    1.60
  -2  -4  -4    1.70    2.40
  -2  -4  -4   -0.20    1.30
  -3  -5  -4   13.10    3.50
  -3  -5  -4   11.20    4.00
  -4  -6  -4    4.30    6.20
  -4  -6  -4   -2.90    3.70
  -4  -3   4   16.20    6.80
  -4  -3   4    1.90    5.00
  -3  -2   4   27.90    4.30
   2   1  -4  306.37   13.20
   1   0  -4 1210.78   37.60
   1   0  -4 1171.18   39.10
   0   1   4  500.35   15.50
   0  -1  -4  480.85   15.60
   0  -1  -4  506.05   16.10
   1   2   4  429.46   13.50
  -1  -2  -4  443.06   13.40
  -1  -2  -4  447.56   15.00
  -2  -3  -4   89.69    5.90
  -2  -3  -4   80.89    3.90
  -3  -4  -4    2.80    3.70
  -3  -4  -4    4.50    2.60
  -4  -5  -4   32.10    4.20
  -4  -5  -4   40.20    6.80
  -4  -4   4    3.30    5.00
  -3  -3   4   10.90    3.80
  -3  -3   4    3.90    2.80
  -2  -2   4  119.59    7.70
  -2  -2   4  114.79    6.40
   1   1  -4  206.18    8.20
   1   1  -4  165.68    9.40
   0   0   4 2579.24   73.09
   0   0  -4 2377.46   73.79
   0   0  -4 2373.56   73.09
  -1  -1  -4   30.90    2.60
  -2  -2  -4  120.69    6.50
  -2  -2  -4  122.89    5.00
  -3  -3  -4   15.70    2.70
  -3  -3  -4    8.50    4.50
  -4  -4  -4   -0.60    3.30
  -4  -4  -4   -2.00    5.40
  -4  -5   4   64.59    7.30
  -3  -4   4   24.20    3.50
  -2  -3   4   12.70    3.30
  -2  -3   4   13.60    2.80
  -1  -2   4   55.39    3.40
  -1  -2   4   56.39    4.10
   0  -1   4  448.46   14.60
   0  -1   4  466.05   14.20
   0   1  -4  456.45   14.40
   0   1  -4  461.55   15.90
  -1   0  -4 6010.60  178.78
  -2  -1  -4  116.29    5.60
  -2  -1  -4  107.49    6.00
  -2  -1  -4  111.19    4.80
  -3  -2  -4   19.30    4.40
  -3  -2  -4   24.90    2.90
  -4  -3  -4   -3.90    4.80
  -4  -3  -4   -0.20    3.50
  -4  -6   4    7.70    5.80
  -3  -5   4  150.78    8.30
  -2  -4   4    4.40    1.90
  -1  -3   4   11.30    1.60
   1   3  -4   11.70    3.90
   0  -2   4 5632.24  168.18
   0   2  -4 5591.14  170.18
   0   2  -4 5791.82  168.28
   0   2  -4 5682.43  168.38
   1  -1   4   37.40    2.00
  -1   1  -4   35.20    2.50
  -1   1  -4   33.50    1.50
   2   0   4    2.90    2.00
  -2   0  -4    1.70    1.90
  -2   0  -4    1.70    2.00
  -3  -1  -4   29.90    3.90
  -3  -1  -4   29.40    4.30
  -3  -1  -4   28.60    4.10
  -4  -2  -4   -2.10    4.90
  -4  -2  -4   -7.30    3.30
  -5  -3  -4  -10.50    8.30
  -4  -7   4   14.40    6.70
  -3  -6   4    2.50    3.10
  -2  -5   4    5.90    2.00
  -1  -4   4 1394.86   43.00
   0  -3   4 1445.76   43.00
   0   3  -4 1382.96   45.20
   0   3  -4 1444.56   43.30
   1  -2   4  461.75   14.00
  -1   2  -4  420.86   14.20
  -1   2  -4  448.56   15.10
  -1   2  -4  445.56   13.60
   2  -1   4  118.79    5.80
  -2   1  -4  111.89    5.70
   3   0   4    4.60    3.30
  -3   0  -4    0.90    3.00
  -4  -1  -4   32.90    5.40
  -4  -1  -4   47.60    8.10
  -4  -1  -4   38.20    4.70
  -5  -2  -4   -9.10    6.60
  -5  -2  -4    0.90    8.20
  -4  -8   4   12.00    6.10
  -3  -7   4   24.50    4.00
  -2  -6   4    7.30    2.00
  -1  -5   4  113.89    5.30
   0  -4   4  280.97    9.30
   0   4  -4  283.97    9.70
   0   4  -4  264.47   11.80
   1  -3   4   23.20    1.80
  -1   3  -4   18.90    2.50
  -1   3  -4   24.70    2.50
  -1   3  -4   18.90    1.60
   2  -2   4  122.59    6.00
  -2   2  -4  129.99    6.70
  -2   2  -4  124.19    5.70
   3  -1   4   24.70    3.90
  -3   1  -4   26.20    3.70
  -3   1  -4   34.40    4.90
   4   0   4   28.50    6.00
  -4   0  -4   25.00    4.30
  -4   0  -4   21.50    5.20
  -4   0  -4   31.90    5.50
  -4   0  -4   31.40    5.20
  -5  -1  -4   15.40    7.80
  -5  -1  -4    0.70    6.60
  -4  -9   4    3.50    6.00
  -3  -8   4   -2.50    3.40
  -2  -7   4  180.68    8.10
  -1  -6   4   -1.10    1.50
   0  -5   4   57.69    2.90
   0   5  -4   57.69    3.50
   0   5  -4   54.79    6.20
   1  -4   4   29.10    2.20
  -1   4  -4   32.40    3.70
  -1   4  -4   32.10    2.80
   2  -3   4   84.09    4.90
  -2   3  -4   82.09    4.20
  -2   3  -4   81.99    5.10
   3  -2   4   25.30    3.90
  -3   2  -4   23.00    3.50
  -3   2  -4   16.00    4.40
   4  -1   4   32.90    6.80
  -4   1  -4   36.80    5.20
  -4   1  -4   38.70    6.90
  -5   0  -4   -9.20    7.30
  -5   0  -4    8.30    6.50
  -3  -9   4   31.90    4.60
  -2  -8   4   13.40    2.40
  -1  -7   4   -2.60    1.30
   0  -6   4   83.89    4.00
   0   6  -4   81.59    4.40
   1  -5   4   14.20    1.90
  -1   5  -4   15.30    2.10
  -1   5  -4   13.20    2.90
   2  -4   4    2.80    1.80
  -2   4  -4    2.80    1.30
  -2   4  -4    0.90    2.20
   3  -3   4   11.50    4.10
  -3   3  -4   13.20    4.00
  -3   3  -4    9.80    2.50
   4  -2   4   -7.60    5.30
  -4   2  -4    1.10    4.00
  -4   2  -4    0.70    4.70
  -5   1  -4   13.60    7.30
  -5   1  -4   29.60    9.20
  -5   1  -4    8.30    6.10
  -3 -10   4   10.20    4.60
  -2  -9   4    3.90    2.40
  -1  -8   4  469.55   16.00
   0  -7   4   88.79    4.50
   0   7  -4   86.89    4.90
   1  -6   4  194.58    7.40
  -1   6  -4  188.78    8.10
   2  -5   4   82.89    5.10
  -2   5  -4   83.79    4.10
  -2   5  -4   82.99    5.60
   3  -4   4    9.70    5.10
  -3   4  -4    5.50    3.40
  -3   4  -4    5.30    2.30
   4  -3   4    5.90    5.80
  -4   3  -4    4.20    4.00
  -4   3  -4    1.90    4.10
   5  -2   4   -7.20    9.40
  -5   2  -4    8.70    6.20
  -3 -11   4    5.60    4.80
  -2 -10   4  116.49    6.80
  -1  -9   4  609.84   20.30
   0  -8   4   23.70    2.40
   1  -7   4   28.40    3.20
  -1   7  -4   25.60    3.70
   2  -6   4    3.90    2.60
  -2   6  -4    5.80    2.70
   3  -5   4   19.50    4.10
  -3   5  -4    9.90    2.30
  -3   5  -4   12.10    3.30
   4  -4   4   -9.00    5.50
  -4   4  -4    3.40    4.10
  -5   3  -4  -10.70    6.00
  -3 -12   4   -7.60    5.00
  -2 -11   4   20.90    3.50
  -1 -10   4   70.09    4.60
   0  -9   4   40.10    3.20
   1  -8   4   71.99    4.70
  -1   8  -4   80.09    5.70
   2  -7   4  144.49    7.60
  -2   7  -4  130.59    7.60
   3  -6   4   -0.50    3.60
  -3   6  -4    4.30    3.20
   4  -5   4   44.70    7.30
  -4   5  -4   36.10    5.00
  -2 -12   4    1.30    3.50
  -1 -11   4    0.20    2.30
   0 -10   4  336.87   12.40
   1  -9   4   50.69    4.30
  -1   9  -4   53.99    4.70
   2  -8   4   40.90    5.00
  -2   8  -4   49.60    4.50
   3  -7   4    9.90    4.00
  -3   7  -4   13.90    3.50
   4  -6   4    7.10    7.00
  -4   6  -4    2.30    4.10
  -2 -13   4   13.80    4.50
  -1 -12   4   49.30    5.20
   0 -11   4   71.19    5.10
   1 -10   4    5.30    2.30
   1 -10   4    1.40    2.20
  -1  10  -4    3.90    2.60
   2  -9   4   22.40    3.30
  -2   9  -4   17.50    3.20
   3  -8   4   -8.50    4.10
  -3   8  -4    0.60    3.40
   4  -7   4   -4.50    7.50
  -4   7  -4   -2.00    4.30
  -2 -14   4    1.60    5.00
  -1 -13   4    1.30    3.40
   0 -12   4    3.40    2.70
   1 -11   4   47.70    5.10
  -1  11  -4   46.20    5.10
   2 -10   4    5.80    3.20
  -2  10  -4    0.50    2.80
   3  -9   4    7.30    4.90
  -3   9  -4   -5.30    3.60
   4  -8   4   -1.60    8.30
  -4   8  -4    1.60    4.60
  -1 -14   4   29.60    5.20
   0 -13   4    0.10    4.90
   0 -13   4    2.30    3.40
   1 -12   4   29.40    4.10
   2 -11   4    3.40    3.80
  -2  11  -4    0.60    3.40
   3 -10   4   22.50    6.00
  -3  10  -4   13.90    4.20
   4  -9   4    0.20    9.80
  -4   9  -4   -3.20    5.20
  -1 -15   4    5.40    5.40
  -1 -15   4   10.10    7.60
   0 -14   4    1.90    4.70
   1 -13   4   21.50    4.70
   2 -12   4   -7.90    4.30
  -2  12  -4    0.40    4.30
   3 -11   4  -10.00    6.10
  -3  11  -4   11.20    4.70
   0 -15   4    4.00    5.30
   1 -14   4   -0.70    5.40
   2 -13   4   12.00    6.70
  -2  13  -4   13.30    5.20
   3 -12   4   -1.40    7.80
  -3  12  -4   -0.10    4.90
   1 -15   4    2.00    6.30
   2 -14   4   16.10    7.10
   2 -13  -5   57.39    9.50
   1 -14  -5    0.00    6.80
   0 -15  -5   -7.70    6.40
   3 -11  -5    1.40    8.00
   2 -12  -5   25.70    7.90
   1 -13  -5    0.40    5.60
   0 -14  -5   15.50    6.00
  -1 -15  -5   12.20    7.20
   3 -10  -5   18.00    8.60
   2 -11  -5   75.59   10.50
   1 -12  -5   -1.10    4.40
   0 -13  -5   -9.60    5.00
   0 -13  -5    4.60    4.40
  -1 -14  -5   23.80    7.00
  -1 -14  -5   26.60    6.00
   4  -8  -5   -7.30    8.90
   3  -9  -5    2.90    6.50
   2 -10  -5   -6.40    4.60
   1 -11  -5  108.99    7.60
   1 -11  -5  121.89    8.90
   0 -12  -5   11.60    4.10
   0 -12  -5    2.80    3.60
  -1 -13  -5   83.59   10.20
  -1 -13  -5   84.59    7.80
  -2 -14  -5   -6.10    5.80
  -2 -14  -5    8.20    7.20
   4  -7  -5   -6.00    8.40
   3  -8  -5   28.70    6.70
   2  -9  -5   16.30    4.80
   2  -9  -5    8.30    4.40
   1 -10  -5    9.90    3.60
   1 -10  -5    7.90    3.70
   0 -11  -5  283.57   12.00
   0 -11  -5  283.97   12.30
  -1 -12  -5    4.90    4.20
  -1 -12  -5   -1.80    3.40
  -2 -13  -5   72.79    7.80
  -2 -13  -5   50.19    7.60
   3  -7  -5   71.99    9.20
   2  -8  -5    7.00    3.60
   2  -8  -5   14.10    5.40
   1  -9  -5  199.68    9.50
   1  -9  -5  204.38    9.90
   0 -10  -5   38.60    5.10
   0 -10  -5   41.60    4.90
  -1 -11  -5   85.59    5.90
  -1 -11  -5   90.59    8.00
  -2 -12  -5   28.90    5.60
  -2 -12  -5   34.90    4.20
   4  -5  -5   35.90    9.00
  -3   6   5    7.20    2.70
   3  -6  -5    3.50    5.00
   2  -7  -5  990.40   34.60
   2  -7  -5 1030.40   34.50
   1  -8  -5   42.40    5.20
   1  -8  -5   55.99    5.00
   0  -9  -5   20.40    3.10
   0  -9  -5   24.80    4.30
  -1 -10  -5   13.80    5.20
  -1 -10  -5    8.30    2.50
  -2 -11  -5   14.50    3.10
  -2 -11  -5   11.10    4.40
  -3 -12  -5   -3.00    4.60
  -3 -12  -5   -3.80    6.10
   4  -4  -5    5.10    7.20
  -3   5   5  401.76   13.90
   3  -5  -5  398.66   17.50
   2  -6  -5   58.49    8.00
   2  -6  -5   50.99    5.40
   1  -7  -5  262.27   10.70
   1  -7  -5  256.37   10.80
   0  -8  -5   19.10    2.90
   0  -8  -5   17.90    2.60
  -1  -9  -5   36.20    4.00
  -1  -9  -5   34.70    5.30
  -2 -10  -5   -0.80    2.30
  -2 -10  -5   -0.10    3.70
  -3 -11  -5    1.70    3.70
  -3 -11  -5    1.90    5.80
   4  -3  -5  209.78   15.30
  -3   4   5    4.50    2.20
   3  -4  -5    1.70    3.90
   2  -5  -5  331.47   15.10
   2  -5  -5  333.27   13.70
   1  -6  -5    9.00    2.70
   1  -6  -5    4.70    2.60
   0  -7  -5   56.89    4.10
   0  -7  -5   53.49    4.20
  -1  -8  -5   55.49    4.60
  -1  -8  -5   48.60    4.70
  -2  -9  -5   13.80    3.80
  -2  -9  -5   10.90    2.40
  -3 -10  -5    7.10    5.30
  -3 -10  -5   -0.40    3.10
   4  -2  -5    3.90    6.60
  -3   3   5  110.29    5.20
   3  -3  -5  113.69    8.10
  -2   4   5   58.69    3.30
   2  -4  -5   54.89    7.50
   2  -4  -5   56.19    5.20
   1  -5  -5  109.19    6.10
   1  -5  -5  123.09    6.50
   0  -6  -5   96.09    4.90
   0  -6  -5   87.89    4.80
  -1  -7  -5  475.55   15.70
  -1  -7  -5  473.35   17.30
  -2  -8  -5   35.90    4.10
  -2  -8  -5   32.30    5.00
  -3  -9  -5   -0.30    2.70
  -3  -9  -5    0.20    4.50
   4  -1  -5   33.70    7.40
  -3   2   5   13.60    2.20
   3  -2  -5   16.90    4.00
  -2   3   5   53.29    2.90
   2  -3  -5   53.09    5.00
   2  -3  -5   64.19    7.20
   1  -4  -5  545.15   19.60
   1  -4  -5  569.44   19.20
   0  -5  -5   46.50    3.20
   0  -5  -5   41.40    3.20
  -1  -6  -5  122.89    6.50
  -1  -6  -5  120.59    5.00
  -2  -7  -5   27.00    3.40
  -2  -7  -5   21.70    3.50
  -3  -8  -5    3.00    4.20
  -3  -8  -5    1.80    2.30
  -4  -9  -5    4.90    7.20
   4   0  -5   13.70    6.60
  -3   1   5    1.60    1.90
   3  -1  -5    1.90    3.60
  -2   2   5   34.70    2.20
   2  -2  -5   33.90    5.10
   2  -2  -5   46.00    6.90
   1  -3  -5   68.69    4.50
   1  -3  -5   71.49    5.40
   0  -4  -5    0.60    1.20
   0  -4  -5    2.60    1.40
  -1  -5  -5  705.73   22.40
  -1  -5  -5  738.93   24.30
  -2  -6  -5   35.40    2.80
  -2  -6  -5   27.30    4.60
  -3  -7  -5   -1.80    3.90
  -3  -7  -5    7.80    2.40
  -4  -8  -5   14.90    7.20
  -4  -8  -5   -4.30    3.90
  -4  -1   5   27.60    7.20
  -4  -1   5   36.40    6.30
   3   0  -5    1.70    3.60
   2  -1  -5  102.99    7.30
   2  -1  -5   90.49    8.20
   1  -2  -5  122.99    7.20
   1  -2  -5  132.99    6.30
   0  -3  -5  411.96   13.70
   0  -3  -5  395.56   13.30
  -1  -4  -5  220.88    7.40
  -1  -4  -5  218.28    8.90
  -2  -5  -5  256.57    8.90
  -2  -5  -5  258.87   11.50
  -3  -6  -5   55.69    5.30
  -3  -6  -5   53.49    6.40
  -4  -7  -5   -6.50    6.00
  -4  -7  -5    0.00    3.70
  -4  -2   5    8.20    6.90
  -4  -2   5   14.90    5.50
  -3  -1   5   -0.10    2.40
   2   0  -5    3.70    3.40
   2   0  -5   -2.00    3.80
   1  -1  -5 1831.82   55.99
   1  -1  -5 1785.72   57.49
   0   2   5  707.93   21.70
   0  -2  -5  721.73   22.50
   0  -2  -5  678.13   22.00
   1   3   5  278.97    9.00
  -1  -3  -5  284.97   10.60
  -1  -3  -5  282.17    8.90
  -2  -4  -5   47.70    3.00
  -2  -4  -5   51.49    4.70
  -3  -5  -5    5.90    3.60
  -3  -5  -5    7.30    2.40
  -4  -6  -5   15.10    3.90
  -4  -6  -5    7.20    6.10
  -4  -3   5  241.98   13.40
  -4  -3   5  254.67   17.40
  -3  -2   5   15.70    3.80
  -3  -2   5   14.50    3.20
   2   1  -5  106.39    7.70
   1   0  -5    1.20    2.00
   1   0  -5    2.00    2.80
   0   1   5  572.04   17.40
   0  -1  -5  550.74   18.20
   0  -1  -5  529.35   17.50
   1   2   5  181.68    5.90
  -1  -2  -5  189.38    5.90
  -1  -2  -5  183.58    7.40
  -2  -3  -5    3.40    1.30
  -2  -3  -5    5.40    2.40
  -3  -4  -5    1.90    2.00
  -3  -4  -5   -1.10    3.40
  -4  -5  -5    9.50    3.60
  -4  -5  -5   19.00    5.70
  -4  -4   5   -3.90    5.10
  -3  -3   5  130.79    7.60
  -3  -3   5  124.09    9.50
  -2  -2   5   44.50    6.10
  -2  -2   5   31.80    4.30
   1   1  -5 1842.12   55.99
   1   1  -5 1754.52   57.89
   0   0   5   -0.70    1.30
   0   0  -5    2.00    1.40
   0   0  -5    0.40    1.50
  -1  -1  -5  125.99    5.60
  -2  -2  -5  120.19    5.60
  -2  -2  -5  133.59    6.70
  -2  -2  -5  127.99    4.90
  -3  -3  -5  149.39   10.00
  -3  -3  -5  155.18    6.50
  -4  -4  -5   52.89    6.10
  -4  -4  -5   46.30    6.70
  -4  -5   5   23.80    6.50
  -3  -4   5    2.60    3.00
  -2  -3   5   54.99    5.50
  -2  -3   5   54.79    4.50
  -1  -2   5  133.79    6.90
  -1  -2   5  124.19    5.70
   1   2  -5  133.59    8.60
   0  -1   5  509.85   15.90
   0  -1   5  508.35   16.40
   0   1  -5  517.25   17.90
   0   1  -5  504.05   16.10
  -1   0  -5    1.00    1.30
  -2  -1  -5    2.90    1.80
  -2  -1  -5    2.00    1.90
  -2  -1  -5    1.10    1.20
  -3  -2  -5   58.29    7.10
  -3  -2  -5   55.89    4.10
  -4  -3  -5   21.40    5.30
  -4  -3  -5   11.60    3.80
  -4  -6   5   -2.30    6.00
  -3  -5   5  429.56   16.90
  -2  -4   5   61.19    4.30
  -1  -3   5   64.79    4.00
   1   3  -5   74.09    7.00
   0  -2   5  679.63   20.60
   0   2  -5  663.93   20.70
   0   2  -5  689.73   20.90
   0   2  -5  648.94   23.00
   0   2  -5  650.73   21.30
   1  -1   5  125.09    4.30
  -1   1  -5  125.69    4.00
  -1   1  -5  121.69    5.20
   2   0   5    0.80    1.90
  -2   0  -5    0.30    1.80
  -2   0  -5    1.40    1.50
  -3  -1  -5   43.40    5.50
  -3  -1  -5   51.29    4.20
  -3  -1  -5   49.80    5.50
  -4  -2  -5   -4.10    4.70
  -4  -2  -5    0.10    3.50
  -4  -7   5    2.20    6.10
  -3  -6   5    5.40    3.60
  -2  -5   5  339.97   12.90
  -1  -4   5  556.74   18.60
   1   4  -5  564.54   22.40
   0  -3   5  402.96   12.70
   0   3  -5  396.46   13.00
   0   3  -5  381.26   15.40
   1  -2   5  192.98    6.40
  -1   2  -5  187.48    6.10
  -1   2  -5  179.08    7.60
  -1   2  -5  200.18    7.20
   2  -1   5    4.20    2.00
  -2   1  -5    5.40    1.90
  -2   1  -5    3.80    1.40
   3   0   5    1.30    3.20
  -3   0  -5    1.80    2.80
  -4  -1  -5    7.30    4.60
  -4  -1  -5    7.00    3.70
  -4  -1  -5    7.80    4.90
  -5  -2  -5   19.40    8.40
  -5  -2  -5   -2.70    7.30
  -4  -8   5   -6.70    6.10
  -3  -7   5   73.19    7.20
  -2  -6   5   56.49    4.20
  -1  -5   5  118.09    5.70
   0  -4   5    1.90    0.90
   0   4  -5    1.50    3.40
   0   4  -5    3.70    1.30
   1  -3   5  285.77    9.40
  -1   3  -5  297.37   10.50
  -1   3  -5  271.07    9.10
  -1   3  -5  285.37   10.50
   2  -2   5  133.79    6.10
  -2   2  -5  135.49    6.00
  -2   2  -5  131.59    7.00
   3  -1   5   48.30    6.00
  -3   1  -5   53.59    7.20
  -3   1  -5   53.39    5.20
  -4   0  -5    1.70    3.90
  -4   0  -5   -8.30    4.60
  -4   0  -5    7.10    4.70
  -4   0  -5   -5.20    4.30
  -5  -1  -5   -4.40    7.60
  -5  -1  -5    8.20    7.20
  -3  -8   5   18.50    4.20
  -2  -7   5 1067.59   34.70
  -1  -6   5    2.70    1.90
   0  -5   5   48.90    2.80
   0   5  -5   44.00    6.90
   0   5  -5   44.60    3.20
   1  -4   5  224.18    7.70
  -1   4  -5  219.38    8.60
  -1   4  -5  215.88    9.30
   2  -3   5    1.60    1.90
  -2   3  -5    2.80    1.60
  -2   3  -5    2.90    2.30
   3  -2   5   58.69    6.10
  -3   2  -5   58.19    5.30
  -3   2  -5   57.39    6.50
   4  -1   5    4.50    5.50
  -4   1  -5    6.20    5.10
  -4   1  -5    0.70    4.50
  -5   0  -5  -10.80    7.10
  -5   0  -5   -3.00    6.90
  -3  -9   5    8.70    4.10
  -2  -8   5    0.00    2.30
  -1  -7   5  273.47   10.20
   0  -6   5   89.99    4.10
   0   6  -5   84.49    4.60
   1  -5   5  736.03   23.00
  -1   5  -5  737.93   24.10
  -1   5  -5  717.83   24.50
   2  -4   5   51.89    4.00
  -2   4  -5   49.80    3.40
  -2   4  -5   44.70    4.40
   3  -3   5  157.08    9.10
  -3   3  -5  153.28    7.30
  -3   3  -5  162.28    8.90
   4  -2   5    6.20    5.90
  -4   2  -5    2.30    5.00
  -4   2  -5    1.30    4.40
  -5   1  -5   -8.10    6.70
  -5   1  -5    2.10    6.50
  -3 -10   5   25.20    5.40
  -2  -9   5    3.00    2.50
  -1  -8   5   47.50    3.50
   0  -7   5   58.59    3.90
   0   7  -5   62.79    4.20
   1  -6   5  118.09    5.10
  -1   6  -5  120.19    6.20
  -1   6  -5  116.49    7.50
   2  -5   5  258.87   10.30
  -2   5  -5  278.07    9.80
  -2   5  -5  256.27   11.10
   3  -4   5   -3.90    3.90
  -3   4  -5    0.80    2.30
  -3   4  -5    5.60    3.00
   4  -3   5   22.60    6.30
  -4   3  -5   25.80    4.60
  -4   3  -5   14.60    4.10
  -5   2  -5    8.50    6.60
  -3 -11   5   10.40    5.10
  -2 -10   5    1.30    2.90
  -1  -9   5  194.48    8.10
   0  -8   5   19.40    2.40
   0   8  -5   12.10    2.60
   1  -7   5  481.35   16.30
  -1   7  -5  477.25   17.20
   2  -6   5   34.60    4.40
  -2   6  -5   25.80    3.80
  -2   6  -5   35.00    4.30
   3  -5   5   12.50    4.40
  -3   5  -5    6.00    2.40
  -3   5  -5    8.60    3.30
   4  -4   5   35.70    7.20
  -4   4  -5   49.10    7.00
  -2 -11   5  105.99    7.10
  -1 -10   5    9.50    2.10
   0  -9   5   20.70    2.90
   1  -8   5   56.19    4.10
  -1   8  -5   54.19    5.60
   2  -7   5   24.10    3.70
  -2   7  -5   22.20    3.20
   3  -6   5   57.09    7.10
  -3   6  -5   70.89    5.90
   4  -5   5   17.20    6.60
  -4   5  -5    6.90    4.40
  -2 -12   5   21.40    4.60
  -1 -11   5  126.99    6.70
   0 -10   5   28.60    3.50
   1  -9   5   28.90    3.70
  -1   9  -5   36.50    4.00
   2  -8   5   34.00    4.80
  -2   8  -5   30.30    3.60
   3  -7   5    8.00    4.20
  -3   7  -5   -3.70    3.20
   4  -6   5   16.80    7.10
  -4   6  -5   26.00    4.70
  -2 -13   5   94.59    8.20
  -1 -12   5   -1.90    2.80
   0 -11   5  273.37   11.00
   1 -10   5    9.70    2.50
  -1  10  -5   10.10    2.70
   2  -9   5   10.80    3.00
  -2   9  -5   13.70    3.00
   3  -8   5   -6.20    4.40
  -3   8  -5    0.30    3.40
   4  -7   5  -11.80    7.30
  -4   7  -5    2.10    4.50
  -1 -13   5    9.50    3.90
   0 -12   5   14.00    3.10
   1 -11   5   68.39    6.10
  -1  11  -5   83.79    6.10
   2 -10   5   -6.00    3.20
  -2  10  -5   -1.60    3.00
   3  -9   5    2.00    5.20
  -3   9  -5    4.50    3.80
   4  -8   5   32.80    8.90
  -1 -14   5    9.30    4.50
   0 -13   5    3.30    3.40
   1 -12   5    1.80    3.20
   2 -11   5    7.70    4.20
  -2  11  -5    6.70    3.40
   3 -10   5    3.40    5.90
  -3  10  -5    3.40    4.00
   4  -9   5   -0.70    9.20
  -4   9  -5   -3.60    5.30
   0 -14   5   -5.60    4.50
   1 -13   5   85.19    7.70
   2 -12   5   36.50    6.10
  -2  12  -5   41.00    5.40
   3 -11   5    5.60    6.90
  -3  11  -5    3.90    4.70
   0 -15   5    1.20    5.60
   1 -14   5   20.40    5.80
   2 -13   5   54.49    8.20
  -2  13  -5   59.39    8.40
   3 -12   5   -4.60    8.50
  -3  12  -5    3.70    5.30
   2 -14   5   12.60    7.00
   2 -13  -6   29.10    8.70
   1 -14  -6   -8.10    6.90
   3 -11  -6   12.50    9.00
   2 -12  -6   17.50    7.90
   1 -13  -6   15.70    6.60
   0 -14  -6    3.80    6.10
   0 -14  -6   -3.50    6.70
   3 -10  -6   -8.60    8.20
   2 -11  -6   22.10    6.30
   1 -12  -6    0.30    4.70
   0 -13  -6    0.10    4.60
   0 -13  -6   -1.50    4.50
  -1 -14  -6   -0.60    5.60
  -1 -14  -6    2.60    6.60
   3  -9  -6    0.60    7.60
   2 -10  -6    4.90    4.90
   1 -11  -6  220.28   11.60
   1 -11  -6  194.68   10.60
   0 -12  -6    2.40    4.40
   0 -12  -6   -1.10    3.90
  -1 -13  -6   -1.20    4.40
  -1 -13  -6    2.60    5.40
   4  -7  -6   13.70    9.60
   3  -8  -6    7.10    6.30
   2  -9  -6    0.60    5.00
   2  -9  -6   11.70    4.40
   1 -10  -6   60.59    6.70
   1 -10  -6   63.79    7.20
   0 -11  -6  120.19    7.90
   0 -11  -6  127.49    8.00
  -1 -12  -6   25.80    5.70
  -1 -12  -6   37.20    4.40
  -2 -13  -6   40.60    7.10
  -2 -13  -6   56.29    8.30
   4  -6  -6    4.70    8.40
   3  -7  -6   54.59    7.60
   2  -8  -6   19.90    6.00
   2  -8  -6   21.90    4.50
   1  -9  -6  532.65   19.70
   1  -9  -6  564.44   20.50
   0 -10  -6  143.89    7.70
   0 -10  -6  134.99    7.80
  -1 -11  -6  184.78   10.60
  -1 -11  -6  187.58    9.00
  -2 -12  -6    5.40    3.90
  -2 -12  -6    1.90    5.20
   4  -5  -6   -3.70    8.40
   3  -6  -6    7.00    5.20
   2  -7  -6  106.69    7.90
   2  -7  -6   92.29   10.00
   1  -8  -6   40.00    5.80
   1  -8  -6   48.10    5.40
   0  -9  -6 1429.16   44.70
   0  -9  -6 1393.66   44.90
  -1 -10  -6   21.30    3.10
  -1 -10  -6   27.40    4.90
  -2 -11  -6   -0.20    4.10
  -2 -11  -6    8.70    3.10
  -3 -12  -6    1.50    6.70
  -3 -12  -6   -1.20    4.90
   4  -4  -6    1.30    8.20
   3  -5  -6  119.49   10.30
   2  -6  -6   61.99    6.40
   2  -6  -6   63.69    9.10
   1  -7  -6   31.10    3.90
   1  -7  -6   26.40    3.50
   0  -8  -6  141.99    6.90
   0  -8  -6  138.19    7.20
  -1  -9  -6   81.99    5.40
  -1  -9  -6   87.59    7.40
  -2 -10  -6   -0.40    2.50
  -2 -10  -6    1.90    3.90
  -3 -11  -6    1.50    5.50
  -3 -11  -6    4.30    4.10
   4  -3  -6   12.40    7.50
  -3   4   6   34.30    3.70
   3  -4  -6   34.60    5.30
   2  -5  -6   -1.40    2.90
   2  -5  -6    9.30    5.00
   1  -6  -6   70.49    5.70
   1  -6  -6   73.59    5.80
   0  -7  -6  170.68    7.50
   0  -7  -6  156.88    7.50
  -1  -8  -6    3.20    2.50
  -1  -8  -6    6.40    2.70
  -2  -9  -6    7.50    3.80
  -2  -9  -6    9.50    2.40
  -3 -10  -6   -5.40    5.20
  -3 -10  -6    3.50    3.30
   4  -2  -6   -5.00    7.00
  -3   3   6    4.10    2.30
   3  -3  -6   -2.20    4.10
   2  -4  -6    9.20    3.00
   2  -4  -6    8.30    4.80
   1  -5  -6  218.08    9.80
   1  -5  -6  218.68    9.60
   0  -6  -6  192.08    8.10
   0  -6  -6  203.68    8.20
  -1  -7  -6  258.27    9.40
  -1  -7  -6  241.98   10.60
  -2  -8  -6   14.60    3.50
  -2  -8  -6   13.70    3.20
  -3  -9  -6    2.50    4.60
  -3  -9  -6   10.80    3.00
   4  -1  -6    2.70    6.90
   3  -2  -6    5.60    4.40
   2  -3  -6   33.10    4.60
   2  -3  -6   29.80    5.50
   1  -4  -6   32.80    3.80
   1  -4  -6   33.40    4.20
   0  -5  -6  891.51   28.60
   0  -5  -6  909.31   28.80
  -1  -6  -6   18.40    2.80
  -1  -6  -6   21.50    2.60
  -2  -7  -6   38.20    3.40
  -2  -7  -6   32.00    4.60
  -3  -8  -6    6.30    4.10
  -3  -8  -6    1.70    2.50
  -4  -9  -6   14.60    8.00
   4   0  -6   -1.60    6.40
   3  -1  -6   62.69    7.80
   2  -2  -6    8.90    4.50
   2  -2  -6    4.20    2.70
   1  -3  -6  823.52   26.70
   1  -3  -6  786.12   27.70
   0  -4  -6  128.19    5.70
   0  -4  -6  117.99    5.50
  -1  -5  -6    9.50    1.60
  -1  -5  -6    9.70    2.30
  -2  -6  -6    7.00    3.30
  -2  -6  -6    5.00    1.50
  -3  -7  -6   57.99    6.70
  -3  -7  -6   57.89    4.80
  -4  -8  -6   -8.30    6.70
  -4  -1   6   -8.70    5.70
  -4  -1   6    2.10    6.70
   3   0  -6   69.49    7.70
   2  -1  -6  318.87   13.50
   2  -1  -6  326.47   15.90
   1  -2  -6 1280.87   39.60
   1  -2  -6 1179.68   37.10
   1  -2  -6 1269.47   41.10
   0  -3  -6 1548.35   47.10
   0  -3  -6 1498.95   46.60
   1   4   6  344.47   11.30
  -1  -4  -6  361.46   13.10
  -1  -4  -6  356.06   11.40
  -2  -5  -6   11.00    1.60
  -2  -5  -6   12.40    3.40
  -3  -6  -6   10.20    3.60
  -3  -6  -6    8.70    2.60
  -4  -7  -6    3.60    6.10
  -4  -2   6    6.80    7.20
  -4  -2   6    6.90    5.80
  -3  -1   6   74.99    4.80
   3   1  -6   72.79    7.60
   2   0  -6  927.61   34.10
   2   0  -6  897.51   31.30
   1  -1  -6  453.15   16.20
   1  -1  -6  446.66   17.80
   0   2   6   -1.80    1.20
   0  -2  -6    3.70    1.50
   0  -2  -6    0.30    1.40
   1   3   6 1926.71   57.19
  -1  -3  -6 1923.31   57.29
  -1  -3  -6 1904.41   59.09
  -2  -4  -6    4.00    2.40
  -2  -4  -6    1.50    1.10
  -3  -5  -6  185.78   10.50
  -3  -5  -6  190.38    7.50
  -4  -6  -6   -1.20    5.90
  -4  -3   6   18.30    7.50
  -4  -3   6   15.00    6.10
  -3  -2   6   13.40    3.60
  -3  -2   6    5.70    3.90
   2   1  -6  339.97   16.70
   2   1  -6  316.37   13.70
   1   0  -6   46.60    5.50
   1   0  -6   43.30    4.20
   0   1   6  847.82   25.80
   0  -1  -6  834.52   26.90
   0  -1  -6  803.72   25.90
  -1  -2  -6   11.10    1.80
  -2  -3  -6  154.58    5.30
  -2  -3  -6  154.28    7.70
  -2  -3  -6  135.79    6.30
  -3  -4  -6   -2.30    1.80
  -3  -4  -6    3.60    3.30
  -4  -5  -6   19.60    5.90
  -4  -4   6   10.30    6.20
  -3  -3   6    8.10    4.00
  -3  -3   6    4.20    3.30
  -2  -2   6   11.80    2.40
  -2  -2   6    6.40    2.70
   1   1  -6  443.36   18.40
   1   1  -6  458.55   16.40
   0   0   6 1083.99   32.70
   0   0  -6 1070.59   34.00
   0   0  -6 1015.70   32.60
  -1  -1  -6  695.63   22.60
  -2  -2  -6  103.69    3.90
  -2  -2  -6   97.39    4.60
  -2  -2  -6  106.79    6.10
  -3  -3  -6    3.90    3.50
  -3  -3  -6    1.70    1.90
  -4  -4  -6    9.80    5.40
  -4  -5   6   -3.00    6.50
  -3  -4   6   44.20    6.00
  -2  -3   6   27.10    3.00
  -2  -3   6   17.70    3.00
  -1  -2   6 1295.57   40.70
  -1  -2   6 1309.77   42.00
   1   2  -6 1326.67   44.60
   0  -1   6  788.52   24.30
   0  -1   6  774.72   23.70
   0   1  -6  775.32   26.00
   0   1  -6  737.33   23.90
  -1   0  -6    5.20    1.50
  -2  -1  -6 1315.07   41.60
  -2  -1  -6 1320.57   39.20
  -2  -1  -6 1283.17   39.40
  -3  -2  -6    8.20    4.20
  -3  -2  -6    9.50    2.10
  -4  -3  -6   13.20    4.20
  -4  -3  -6    8.10    5.00
  -4  -6   6    2.20    6.30
  -3  -5   6  151.28    8.90
  -2  -4   6    5.70    2.10
  -1  -3   6  793.72   25.10
   1   3  -6  766.22   29.10
   0  -2   6   -0.10    0.90
   0   2  -6    0.30    2.40
   0   2  -6    0.40    1.30
   1  -1   6  632.84   20.20
  -1   1  -6  671.93   22.10
  -1   1  -6  704.93   21.70
   2   0   6  292.47   10.40
  -2   0  -6  298.67    9.60
  -2   0  -6  297.87   10.20
  -2   0  -6  312.67   11.60
  -3  -1  -6   37.60    6.00
  -3  -1  -6   48.90    3.80
  -4  -2  -6   -6.30    4.60
  -4  -2  -6   -0.90    4.20
  -4  -7   6   -2.70    6.10
  -3  -6   6    6.30    3.80
  -2  -5   6   12.60    2.30
  -1  -4   6   28.50    3.20
   1   4  -6   34.00    6.10
   0  -3   6 1552.24   46.60
   0   3  -6 1544.75   46.90
   0   3  -6 1517.85   49.70
   1  -2   6   10.10    1.30
  -1   2  -6    9.40    1.00
  -1   2  -6   10.50    1.90
  -1   2  -6    7.20    2.00
   2  -1   6 1348.86   40.50
  -2   1  -6 1298.47   39.60
  -2   1  -6 1306.77   41.30
  -3   0  -6   51.59    5.60
  -3   0  -6   52.29    5.70
  -3   0  -6   46.20    4.20
  -4  -1  -6    7.60    4.70
  -4  -1  -6    4.70    4.40
  -4  -8   6    3.20    7.10
  -3  -7   6   44.70    6.50
  -2  -6   6   69.79    4.90
  -1  -5   6  221.38    8.90
   0  -4   6  119.59    4.80
   0   4  -6  117.99    5.20
   0   4  -6  112.59    8.30
   1  -3   6 1788.72   55.99
  -1   3  -6 1924.61   57.69
  -1   3  -6 1890.91   57.59
  -1   3  -6 1876.41   56.09
   2  -2   6  110.39    5.50
  -2   2  -6  107.39    5.50
  -2   2  -6  112.09    6.70
   3  -1   6   38.60    5.60
  -3   1  -6   38.00    5.50
  -3   1  -6   45.80    5.10
  -4   0  -6   -4.30    5.50
  -4   0  -6   -5.90    4.40
  -4   0  -6    0.50    4.70
  -4   0  -6   -7.40    4.30
  -5  -1  -6   22.50    7.80
  -3  -8   6    1.80    3.90
  -2  -7   6  109.19    6.20
  -1  -6   6   82.49    4.50
   0  -5   6  892.61   28.10
   0   5  -6  912.21   31.90
   0   5  -6  913.71   28.70
   1  -4   6  341.87   11.20
  -1   4  -6  345.77   13.30
  -1   4  -6  339.27   12.60
   2  -3   6  159.38    6.90
  -2   3  -6  156.08    6.70
  -2   3  -6  161.48    8.10
   3  -2   6   10.70    3.40
  -3   2  -6    9.80    3.10
  -3   2  -6    9.50    3.50
   4  -1   6    9.00    5.80
  -4   1  -6    6.20    4.70
  -4   1  -6    4.00    4.50
  -5   0  -6    9.50    7.20
  -5   0  -6    2.60    7.00
  -3  -9   6    7.90    4.50
  -2  -8   6   27.80    3.40
  -1  -7   6   31.60    2.90
   0  -6   6  193.78    7.30
   0   6  -6  198.98    8.00
   0   6  -6  189.88   11.90
   1  -5   6    9.20    1.30
  -1   5  -6    9.50    3.80
  -1   5  -6    7.60    2.20
   2  -4   6    2.10    1.90
  -2   4  -6   -0.20    2.50
  -2   4  -6    1.10    2.10
   3  -3   6   -3.70    3.40
  -3   3  -6   -0.30    2.50
  -3   3  -6   -2.50    3.20
   4  -2   6    1.60    5.60
  -4   2  -6   -0.40    5.40
  -4   2  -6    8.30    4.60
  -5   1  -6   21.50    7.60
  -3 -10   6    9.90    5.30
  -2  -9   6    5.30    2.80
  -1  -8   6   47.10    3.70
   0  -7   6  160.68    7.00
   0   7  -6  176.28    7.40
   1  -6   6   19.80    2.40
  -1   6  -6   18.90    2.90
  -1   6  -6   24.60    4.60
   2  -5   6   10.80    2.40
  -2   5  -6    5.60    2.90
  -2   5  -6   13.10    2.70
   3  -4   6    2.40    3.80
  -3   4  -6    2.80    2.50
  -3   4  -6   -2.70    2.90
   4  -3   6    7.90    6.00
  -4   3  -6   17.10    4.90
  -4   3  -6    8.90    4.30
  -3 -11   6   -1.30    5.00
  -2 -10   6    2.20    3.00
  -1  -9   6  574.44   19.60
   0  -8   6  132.19    5.90
   0   8  -6  134.99    6.90
   1  -7   6  270.67    9.70
  -1   7  -6  242.68   10.70
  -1   7  -6  245.18   11.60
   2  -6   6    8.90    2.60
  -2   6  -6    8.70    2.80
  -2   6  -6    5.50    3.50
   3  -5   6  194.88   12.20
  -3   5  -6  176.28    9.70
  -3   5  -6  211.98    8.30
   4  -4   6   12.30    6.30
  -4   4  -6    5.40    4.60
  -2 -11   6   23.50    4.10
  -1 -10   6   57.99    4.60
   0  -9   6 1388.26   43.30
   1  -8   6    6.00    2.00
  -1   8  -6    3.40    2.60
   2  -7   6   41.60    5.20
  -2   7  -6   35.90    4.20
   3  -6   6   11.40    4.50
  -3   6  -6    3.70    3.10
   4  -5   6   13.70    6.80
  -4   5  -6   21.50    5.30
  -2 -12   6   16.20    4.50
  -1 -11   6  202.58    9.10
   0 -10   6  141.89    6.90
   1  -9   6   84.69    4.90
  -1   9  -6   64.39    5.40
   2  -8   6   10.00    2.90
  -2   8  -6   11.00    2.90
   3  -7   6   58.09    8.20
  -3   7  -6   53.49    5.80
   4  -6   6   -8.00    6.60
  -4   6  -6    3.60    4.50
  -2 -13   6   65.79    8.30
  -1 -12   6   -0.20    3.10
   0 -11   6  124.09    6.70
   1 -10   6   23.10    3.20
  -1  10  -6   24.80    3.30
   2  -9   6    2.70    2.90
  -2   9  -6   11.60    3.20
   3  -8   6    1.60    4.60
  -3   8  -6   -3.10    3.60
   4  -7   6   -4.60    7.60
  -4   7  -6    6.60    5.10
  -1 -13   6    9.10    4.20
   0 -12   6   -3.40    2.90
   1 -11   6  180.98    9.10
  -1  11  -6  172.18    9.50
   2 -10   6   -1.80    3.30
  -2  10  -6    1.60    3.20
   3  -9   6    8.20    5.60
  -3   9  -6    5.60    4.30
   4  -8   6   10.60    8.50
  -4   8  -6    3.50    5.00
  -1 -14   6    3.10    4.40
   0 -13   6   -3.40    3.60
   1 -12   6   30.10    4.20
  -1  12  -6   29.50    4.30
   2 -11   6   -1.50    3.90
  -2  11  -6   -0.30    3.60
   3 -10   6   -0.20    5.80
  -3  10  -6    2.70    4.50
   4  -9   6   26.00    9.90
  -4   9  -6    7.00    6.20
   0 -14   6    8.30    4.70
   1 -13   6   -0.50    4.10
   2 -12   6    2.60    4.80
  -2  12  -6    0.60    4.70
   3 -11   6    5.10    7.00
  -3  11  -6    2.00    4.90
   1 -14   6    8.70    5.50
   2 -13   6   53.19    8.10
  -2  13  -6   73.09    9.50
   3 -12   6    2.40    9.00
  -3  12  -6   -5.50    5.80
   2 -13  -7   -0.30    8.90
   1 -14  -7   -6.10    7.50
   2 -12  -7   53.49    9.00
   1 -13  -7    3.70    7.00
   0 -14  -7   22.00    7.10
   0 -14  -7   19.90    6.80
   3 -10  -7   -5.00    8.50
   2 -11  -7    5.80    6.90
   1 -12  -7   18.90    5.40
   0 -13  -7    2.20    5.20
   0 -13  -7    8.50    4.90
  -1 -14  -7   -7.00    6.70
  -1 -14  -7   11.60    6.40
   3  -9  -7    8.10    8.40
   2 -10  -7    8.80    5.40
   1 -11  -7  103.79    8.60
   1 -11  -7   84.79    8.90
   0 -12  -7   49.99    7.10
   0 -12  -7   27.30    5.10
  -1 -13  -7    4.00    5.50
  -1 -13  -7    0.30    4.80
   4  -7  -7    8.10   10.00
   3  -8  -7   -1.60    6.90
   2  -9  -7    3.70    5.00
   2  -9  -7    5.00    5.90
   1 -10  -7  101.89    8.40
   1 -10  -7   99.09    8.50
   0 -11  -7   20.30    3.80
   0 -11  -7   10.90    4.70
  -1 -12  -7  136.39   10.10
  -1 -12  -7  124.29    8.80
  -2 -13  -7   51.89    6.70
  -2 -13  -7   75.79   11.00
   4  -6  -7   10.70    9.30
   3  -7  -7    4.00    5.90
   2  -8  -7   10.20    6.00
   2  -8  -7    5.90    4.30
   1  -9  -7    6.50    3.80
   1  -9  -7   15.50    4.00
   0 -10  -7    1.60    3.00
   0 -10  -7   -0.60    3.20
  -1 -11  -7  116.59    7.30
  -1 -11  -7  100.79    8.50
  -2 -12  -7   67.89    9.10
  -2 -12  -7   77.49    7.90
   4  -5  -7   -5.60    8.80
   3  -6  -7   37.20    6.50
   2  -7  -7   11.00    4.00
   2  -7  -7    6.30    5.40
   1  -8  -7  104.29    7.80
   1  -8  -7  108.89    7.50
   0  -9  -7   25.60    3.40
   0  -9  -7   27.70    4.50
  -1 -10  -7   13.70    3.00
  -1 -10  -7   13.00    3.80
  -2 -11  -7    1.00    4.70
  -2 -11  -7    2.90    3.40
   4  -4  -7   14.50    9.30
   3  -5  -7   -4.20    5.10
   2  -6  -7   98.29   10.10
   2  -6  -7  118.69    8.30
   1  -7  -7   95.09    7.00
   1  -7  -7   92.19    6.80
   0  -8  -7    2.60    2.20
   0  -8  -7    4.20    2.70
  -1  -9  -7  120.79    8.30
  -1  -9  -7  122.59    6.70
  -2 -10  -7    3.70    4.10
  -2 -10  -7   -0.10    2.80
  -3 -11  -7  -11.30    6.40
  -3 -11  -7   -9.40    5.40
   4  -3  -7   14.90    9.00
   3  -4  -7   -1.00    4.50
   2  -5  -7   36.30    4.60
   2  -5  -7   30.30    6.00
   1  -6  -7  210.38   10.20
   1  -6  -7  217.48   10.10
   0  -7  -7  134.89    6.60
   0  -7  -7  128.59    7.30
  -1  -8  -7  340.37   14.30
  -1  -8  -7  319.97   12.50
  -2  -9  -7    7.20    2.50
  -2  -9  -7    3.60    3.50
  -3 -10  -7    9.80    3.50
  -3 -10  -7   -6.80    5.10
   4  -2  -7    3.90    8.20
   3  -3  -7   28.70    5.50
   2  -4  -7  174.18    9.30
   2  -4  -7  176.28   12.00
   1  -5  -7   10.10    3.30
   1  -5  -7   10.30    3.00
   0  -6  -7   31.50    3.30
   0  -6  -7   33.70    3.70
  -1  -7  -7  428.66   16.10
  -1  -7  -7  415.86   14.50
  -2  -8  -7   46.60    5.00
  -2  -8  -7   39.80    5.60
  -3  -9  -7    5.10    4.70
  -3  -9  -7    3.00    3.10
   4  -1  -7   17.80    8.30
   3  -2  -7   62.19    7.20
   2  -3  -7   62.49    8.20
   2  -3  -7   54.09    5.60
   1  -4  -7    8.00    2.70
   1  -4  -7    5.90    3.00
   0  -5  -7    1.90    2.10
   0  -5  -7    4.90    1.80
  -1  -6  -7  178.48    6.90
  -1  -6  -7  164.98    8.30
  -2  -7  -7  244.88    8.90
  -2  -7  -7  248.58   11.60
  -3  -8  -7   45.70    7.00
  -3  -8  -7   40.70    4.80
   4   0  -7    5.70    7.60
   3  -1  -7    6.40    4.60
   2  -2  -7  144.09    8.40
   2  -2  -7  147.99   10.80
   1  -3  -7    8.10    2.80
   1  -3  -7   12.20    2.60
   0  -4  -7   44.20    3.80
   0  -4  -7   41.50    3.60
  -1  -5  -7   46.00    3.10
  -1  -5  -7   47.80    4.50
  -2  -6  -7  786.72   27.40
  -2  -6  -7  758.52   24.00
  -3  -7  -7    6.30    3.20
  -3  -7  -7   14.90    4.10
  -4  -8  -7   -4.50    7.00
  -4  -1   7   17.70    7.80
  -4  -1   7    2.30    6.20
   3   0  -7    2.10    4.60
   2  -1  -7    5.20    4.50
   2  -1  -7   -0.90    3.00
   1  -2  -7   59.89    5.80
   1  -2  -7   64.19    4.70
   0  -3  -7  169.08    7.30
   0  -3  -7  164.08    6.80
   1   4   7  131.19    5.20
  -1  -4  -7  147.49    5.50
  -1  -4  -7  152.88    7.00
  -2  -5  -7  582.14   21.50
  -2  -5  -7  575.34   18.10
  -3  -6  -7    6.70    3.70
  -3  -6  -7    6.00    2.10
  -4  -7  -7   10.70    6.20
  -4  -2   7    0.80    8.10
  -4  -2   7   -0.70    6.50
   3   1  -7   14.20    4.60
   2   0  -7   -2.40    3.00
   2   0  -7   -1.80    5.10
   1  -1  -7    7.40    2.40
   1  -1  -7   12.20    3.60
   0   2   7    1.10    1.70
   0  -2  -7    1.20    1.70
   0  -2  -7    3.70    1.70
   1   3   7    9.50    1.40
  -1  -3  -7    9.50    1.40
  -1  -3  -7    5.80    1.90
  -2  -4  -7   -0.30    1.00
  -2  -4  -7   -4.00    2.50
  -2  -4  -7    3.10    2.80
  -3  -5  -7  147.09    9.10
  -3  -5  -7  148.79    5.90
  -4  -6  -7   10.40    5.90
  -4  -3   7   11.30    8.70
  -4  -3   7   11.00    6.60
  -3  -2   7   92.09    8.70
  -3  -2   7   85.89    7.00
   2   1  -7    8.10    4.90
   2   1  -7    5.60    3.00
   1   0  -7    2.10    2.40
   1   0  -7   -5.00    3.30
   0   1   7  298.77   10.00
   0  -1  -7  281.47   10.10
   0  -1  -7  271.07   11.10
  -1  -2  -7   49.30    3.70
  -2  -3  -7   -0.60    1.90
  -2  -3  -7    2.20    2.50
  -2  -3  -7    2.50    0.80
  -3  -4  -7  256.77    8.90
  -3  -4  -7  250.77   12.30
  -4  -5  -7   10.20    6.00
  -4  -4   7   20.60    7.10
  -3  -3   7   23.20    4.90
  -3  -3   7   23.30    4.20
  -2  -2   7  148.99    8.70
  -2  -2   7  154.48    7.50
   2   2  -7  151.08   12.90
   1   1  -7   12.00    4.20
   1   1  -7    5.20    2.40
   0   0   7   -3.20    1.90
   0   0  -7   -1.90    1.80
  -1  -1  -7  722.13   23.60
  -2  -2  -7   15.20    2.80
  -3  -3  -7  280.97   13.20
  -3  -3  -7  278.77    9.70
  -4  -4  -7   17.50    5.70
  -4  -5   7   -7.70    6.80
  -3  -4   7    7.40    3.70
  -2  -3   7   57.99    4.60
  -2  -3   7   62.39    5.80
  -1  -2   7   55.79    3.70
  -1  -2   7   58.99    4.90
   1   2  -7   53.09    7.00
   0  -1   7  269.17    9.00
   0  -1   7  257.37   10.10
   0   1  -7  275.37    9.40
   0   1  -7  267.87   11.50
  -1   0  -7    1.40    1.40
  -2  -1  -7   18.10    2.70
  -3  -2  -7    3.80    3.60
  -3  -2  -7    0.80    1.80
  -4  -3  -7  176.68   11.80
  -4  -6   7    4.80    6.50
  -3  -5   7   -5.20    3.60
  -2  -4   7  207.68    9.00
  -1  -3   7    6.00    1.80
   1   3  -7    7.50    4.60
   0  -2   7    1.10    1.10
   0   2  -7    1.40    1.40
   0   2  -7   -2.20    2.70
  -1   1  -7  728.93   23.40
  -1   1  -7  702.43   23.60
  -2   0  -7    0.60    2.00
  -3  -1  -7   56.19    7.10
  -3  -1  -7   54.49    3.70
  -4  -2  -7   63.49    8.00
  -4  -7   7    1.80    6.90
  -3  -6   7   40.00    5.10
  -2  -5   7   40.40    3.90
  -1  -4   7    5.70    2.10
   1   4  -7    0.60    5.30
   0  -3   7  166.18    6.30
   0   3  -7  167.68    9.90
   0   3  -7  179.38    6.80
   1  -2   7   48.10    2.20
  -1   2  -7   47.50    2.40
  -1   2  -7   55.09    4.10
  -1   2  -7   46.20    3.80
   2  -1   7   14.30    2.50
  -2   1  -7   16.10    1.30
  -2   1  -7   15.80    2.50
  -3   0  -7   -1.60    2.00
  -3   0  -7    0.50    3.30
  -3   0  -7    1.80    2.50
  -4  -1  -7   34.80    5.30
  -3  -7   7   14.10    4.50
  -2  -6   7  109.99    6.30
  -1  -5   7    5.10    2.10
   1   5  -7    8.80    4.90
   0  -4   7   43.60    2.60
   0   4  -7   42.50    3.30
   0   4  -7   39.30    5.70
   1  -3   7   10.60    1.50
  -1   3  -7    5.70    2.10
  -1   3  -7   13.20    2.90
   2  -2   7   17.50    2.60
  -2   2  -7   14.70    1.70
  -2   2  -7   18.50    3.30
  -2   2  -7   17.80    2.60
   3  -1   7   53.19    6.10
  -3   1  -7   44.20    6.00
  -3   1  -7   57.69    5.60
  -4   0  -7    7.90    4.90
  -4   0  -7    7.50    4.50
  -3  -8   7   -0.60    4.40
  -2  -7   7    7.10    2.50
  -1  -6   7  233.28    9.20
   0  -5   7    4.10    1.30
   0   5  -7   -3.60    4.70
   0   5  -7    3.40    1.70
   1  -4   7  144.79    5.30
  -1   4  -7  142.09    6.80
  -1   4  -7  136.39    8.00
   2  -3   7    0.50    2.20
  -2   3  -7    0.50    2.10
  -2   3  -7    4.00    2.80
   3  -2   7   -4.20    3.50
  -3   2  -7   -3.90    3.20
  -3   2  -7    3.30    2.90
  -4   1  -7   43.80    6.10
  -4   1  -7   32.20    5.20
  -3  -9   7   -3.90    5.00
  -2  -8   7   10.70    2.90
  -1  -7   7  100.19    5.20
   0  -6   7   28.40    2.70
   0   6  -7   29.10    3.30
   0   6  -7   46.70    6.50
   1  -5   7   45.30    2.70
  -1   5  -7   40.80    3.80
  -1   5  -7   44.00    6.50
   2  -4   7    0.70    2.10
  -2   4  -7   -3.60    2.30
  -2   4  -7    1.00    2.70
   3  -3   7  281.17   12.40
  -3   3  -7  291.77   11.20
  -3   3  -7  285.27   12.60
   4  -2   7   73.49   10.90
  -4   2  -7   68.19    9.00
  -4   2  -7   70.89    8.80
  -3 -10   7    2.00    5.00
  -2  -9   7    7.30    3.00
  -1  -8   7  130.29    6.20
   0  -7   7  128.29    5.90
   0   7  -7  127.49   10.70
   0   7  -7  121.89    6.30
   1  -6   7  169.58    6.70
  -1   6  -7  165.78    8.10
  -1   6  -7  175.58   10.40
   2  -5   7  594.04   19.40
  -2   5  -7  549.95   20.90
  -2   5  -7  575.64   19.90
   3  -4   7  234.58   11.50
  -3   4  -7  227.58   11.30
  -3   4  -7  265.17   10.00
   4  -3   7  162.68   12.40
  -4   3  -7  172.88   10.80
  -4   3  -7  169.18   10.60
  -3 -11   7    2.50    5.60
  -2 -10   7   -1.40    3.10
  -1  -9   7    8.60    2.20
   0  -8   7    2.30    1.60
   0   8  -7   -1.40    2.20
   1  -7   7  425.06   14.30
  -1   7  -7  415.16   15.80
  -1   7  -7  399.36   17.00
   2  -6   7  781.92   25.10
  -2   6  -7  732.33   25.90
  -2   6  -7  745.93   25.60
   3  -5   7  138.99   10.50
  -3   5  -7  159.68    7.60
  -3   5  -7  141.89    8.40
   4  -4   7    8.80    6.00
  -4   4  -7    2.60    4.80
  -2 -11   7    8.60    3.90
  -1 -10   7  116.39    6.40
   0  -9   7   32.40    3.50
   0   9  -7   40.30    5.60
   1  -8   7  323.77   11.80
  -1   8  -7  311.77   12.70
   2  -7   7  243.88   10.90
  -2   7  -7  249.58   11.50
  -2   7  -7  228.18   10.50
   3  -6   7    5.10    4.10
  -3   6  -7    1.40    3.40
   4  -5   7    0.70    6.60
  -4   5  -7   10.10    5.20
  -2 -12   7   61.09    7.60
  -1 -11   7  101.89    6.20
   0 -10   7    0.40    2.10
   1  -9   7  108.79    6.00
  -1   9  -7  103.49    6.40
   2  -8   7   45.50    4.70
  -2   8  -7   52.69    4.80
   3  -7   7   13.30    4.80
  -3   7  -7   18.50    3.70
   4  -6   7   11.70    6.90
  -4   6  -7   -5.00    4.90
  -2 -13   7    9.10    4.90
  -1 -12   7   14.50    3.60
   0 -11   7   18.60    3.20
   1 -10   7    9.80    2.60
  -1  10  -7   13.50    3.30
   2  -9   7    2.00    3.10
  -2   9  -7   -2.00    2.90
   3  -8   7   38.70    6.00
  -3   8  -7   27.10    4.40
   4  -7   7   -7.10    7.30
  -4   7  -7   -0.40    5.20
  -1 -13   7    4.70    4.20
   0 -12   7   30.50    4.00
   1 -11   7  101.19    7.10
  -1  11  -7  111.69    7.50
   2 -10   7    1.60    3.60
  -2  10  -7   -0.20    3.30
   3  -9   7   10.50    5.40
  -3   9  -7   -2.00    4.10
   4  -8   7    2.80    8.30
  -4   8  -7   -3.50    5.40
  -1 -14   7   18.60    5.10
   0 -13   7   -1.00    3.90
   1 -12   7  118.59    8.60
  -1  12  -7  133.29    8.70
   2 -11   7    2.70    4.60
  -2  11  -7   10.30    3.90
   3 -10   7   -0.20    6.10
  -3  10  -7    2.90    4.70
   0 -14   7   16.40    5.00
   1 -13   7    3.20    4.50
   2 -12   7   73.89    8.00
  -2  12  -7   61.39    8.40
   3 -11   7    3.60    7.10
  -3  11  -7   -0.10    4.90
   1 -14   7    4.80    5.50
   2 -13   7   34.50    8.30
  -2  13  -7   33.20    7.00
   2 -12  -8   24.70    8.20
   1 -13  -8   -2.40    7.30
   0 -14  -8    0.10    6.40
   0 -14  -8   -2.80    7.10
   3 -10  -8   -1.00    9.10
   2 -11  -8    6.50    7.00
   1 -12  -8   69.39   10.20
   1 -12  -8   73.99   14.60
   0 -13  -8   -1.90    5.10
   0 -13  -8   -2.20    5.50
  -1 -14  -8   36.80    7.70
  -1 -14  -8   37.70    8.20
   3  -9  -8   -4.60    8.60
   2 -10  -8   -6.40    6.00
   1 -11  -8    8.00    5.00
   1 -11  -8    7.10    5.70
   0 -12  -8    9.60    4.70
   0 -12  -8    3.70    4.90
  -1 -13  -8   -7.60    5.60
  -1 -13  -8   -7.30    5.10
   3  -8  -8    1.60    8.20
   2  -9  -8   -6.70    4.80
   2  -9  -8    2.80    6.60
   1 -10  -8    0.30    4.40
   1 -10  -8    4.30    4.80
   0 -11  -8    4.70    4.00
   0 -11  -8   24.80    4.90
  -1 -12  -8    3.10    4.40
  -1 -12  -8   -1.40    5.10
  -2 -13  -8   -1.40    6.00
  -2 -13  -8    1.10    7.20
   4  -6  -8   -4.40   10.00
   3  -7  -8   -1.90    6.70
   3  -7  -8    5.30    9.20
   2  -8  -8   30.60    6.90
   2  -8  -8   36.20    5.70
   1  -9  -8   49.40    5.50
   1  -9  -8   43.00    7.40
   0 -10  -8  357.26   15.70
   0 -10  -8  348.57   14.40
  -1 -11  -8    6.60    3.80
  -1 -11  -8    0.70    4.30
  -2 -12  -8    0.50    4.80
  -2 -12  -8    9.50    6.20
   4  -5  -8   36.40   10.20
   3  -6  -8   -5.50    5.80
   3  -6  -8   11.30   10.30
   2  -7  -8   -0.20    5.70
   2  -7  -8    0.50    4.20
   1  -8  -8   41.90    6.80
   1  -8  -8   50.29    6.20
   0  -9  -8   21.90    4.10
   0  -9  -8   22.60    3.60
  -1 -10  -8   93.59    6.60
  -1 -10  -8  103.29    7.90
  -2 -11  -8    1.70    3.80
  -2 -11  -8    2.50    5.10
   4  -4  -8   17.70    9.20
   3  -5  -8    3.40    5.40
   3  -5  -8    9.40   10.60
   2  -6  -8   -3.10    5.50
   2  -6  -8   -6.60    4.00
   1  -7  -8   22.50    4.10
   1  -7  -8   16.20    3.50
   0  -8  -8  141.09    7.30
   0  -8  -8  132.69    7.80
  -1  -9  -8    2.30    3.30
  -1  -9  -8    1.00    3.00
  -2 -10  -8   -3.40    3.20
  -2 -10  -8    0.30    4.20
  -3 -11  -8    3.20    6.20
   4  -3  -8   -6.10    8.60
   3  -4  -8   -0.40    9.40
   3  -4  -8    7.90    5.30
   2  -5  -8   39.90    4.90
   2  -5  -8   48.60    7.20
   1  -6  -8   10.10    3.20
   1  -6  -8    5.30    3.20
   0  -7  -8   16.80    3.80
   0  -7  -8   13.30    2.80
  -1  -8  -8  440.26   17.30
  -1  -8  -8  435.66   16.00
  -2  -9  -8   34.80    6.10
  -2  -9  -8   33.50    3.70
  -3 -10  -8   74.99    9.50
   4  -2  -8   17.00    9.30
   3  -3  -8    0.60    5.50
   2  -4  -8   29.10    6.10
   2  -4  -8   26.00    4.00
   1  -5  -8   14.90    3.40
   1  -5  -8    8.50    3.80
   0  -6  -8    2.80    2.50
   0  -6  -8    4.50    2.10
  -1  -7  -8   -2.60    3.20
  -1  -7  -8    2.00    2.30
  -2  -8  -8   -2.10    2.80
  -2  -8  -8   -2.70    3.30
  -3  -9  -8    6.80    5.00
   4  -1  -8   13.20    9.10
   3  -2  -8    5.20    5.40
   2  -3  -8   -2.20    3.30
   2  -3  -8   11.70    5.40
   1  -4  -8  209.78   10.00
   1  -4  -8  181.08   10.10
   0  -5  -8   22.50    3.40
   0  -5  -8   18.20    2.90
  -1  -6  -8   12.00    2.10
  -1  -6  -8    9.00    2.90
  -2  -7  -8   69.49    4.30
  -2  -7  -8   86.99    6.50
  -3  -8  -8    1.50    4.30
   4   0  -8    8.20    8.70
   3  -1  -8   -9.00    4.90
   2  -2  -8   -1.80    3.40
   2  -2  -8    3.60    5.50
   1  -3  -8    1.00    2.70
   1  -3  -8    1.80    3.40
   0  -4  -8  151.98    7.30
   0  -4  -8  148.69    7.00
  -1  -5  -8   75.19    5.60
  -1  -5  -8   74.49    4.20
  -2  -6  -8  186.18    7.10
  -2  -6  -8  191.48    9.50
  -3  -7  -8    5.90    4.10
  -4  -8  -8   32.50    8.40
  -4  -1   8    1.80    9.20
  -4  -1   8   10.20    7.30
   3   0  -8    0.00    5.00
   2  -1  -8    6.50    3.50
   2  -1  -8    0.20    5.20
   1  -2  -8    0.20    3.30
   1  -2  -8   -0.30    0.90
   1  -2  -8   -0.10    2.40
   0  -3  -8  352.56   12.90
   0  -3  -8  369.16   13.80
   1   4   8  243.88    8.20
  -1  -4  -8  257.77   10.40
  -1  -4  -8  246.58    8.70
  -2  -5  -8    4.50    2.60
  -2  -5  -8   -1.20    1.40
  -3  -6  -8   18.00    4.30
  -4  -7  -8   15.30    6.50
  -4  -2   8    1.20    6.80
  -4  -2   8  -15.30    8.60
   3   1  -8   -9.20    4.60
   2   0  -8  125.69    8.40
   2   0  -8  120.69   11.70
   1  -1  -8   11.40    2.90
   1  -1  -8   12.40    3.70
   0  -2  -8  911.51   29.30
   0  -2  -8  849.61   27.90
   1   3   8   74.99    2.90
  -1  -3  -8   75.39    4.90
  -1  -3  -8   72.39    3.50
  -2  -4  -8   12.50    3.40
  -2  -4  -8   15.00    2.40
  -2  -4  -8   12.70    1.40
  -3  -5  -8   27.00    4.00
  -3  -5  -8   20.80    4.40
  -4  -6  -8    1.70    6.10
  -4  -3   8   12.50    8.40
  -4  -3   8   -5.70    6.00
  -3  -2   8    4.20    3.80
  -3  -2   8    5.60    4.60
   2   1  -8    1.50    3.30
   2   1  -8    2.30    5.90
   1   0  -8   46.00    6.90
   1   0  -8   53.39    5.10
   0  -1  -8   -0.10    1.90
   0  -1  -8   -1.40    1.80
  -1  -2  -8   24.10    3.20
  -2  -3  -8   16.30    3.30
  -3  -4  -8  170.88    6.90
  -3  -4  -8  155.38    9.40
  -4  -5  -8    2.60    5.60
  -4  -4   8    2.30    6.50
  -3  -3   8   -1.50    4.60
  -3  -3   8    5.80    3.90
  -2  -2   8   -2.80    2.30
  -2  -2   8   -1.90    2.80
   2   2  -8   10.10    7.10
  -1  -1   8    8.60    2.00
  -1  -1   8    9.10    2.40
   1   1  -8    7.40    4.60
   0   0   8  552.44   17.90
   0   0  -8  579.24   20.60
  -1  -1  -8  120.39    5.90
  -2  -2  -8  274.97   11.60
  -3  -3  -8   17.60    2.10
  -3  -3  -8   11.90    3.90
  -4  -4  -8   12.50    5.70
  -4  -5   8   33.50    7.70
  -3  -4   8    7.40    4.10
  -2  -3   8   -3.20    2.80
  -2  -3   8    0.70    2.30
   2   3  -8   11.60    5.90
  -1  -2   8   -0.90    2.20
  -1  -2   8   -1.30    1.60
   1   2  -8    2.90    4.50
   0  -1   8   -1.20    1.10
   0   1  -8   -0.40    1.60
   0   1  -8   -1.30    2.70
  -1   0  -8 1466.25   45.90
  -2  -1  -8    7.80    2.50
  -3  -2  -8    9.10    1.80
  -3  -2  -8   10.00    3.50
  -4  -3  -8   -1.90    5.20
  -4  -6   8   -1.40    7.20
  -3  -5   8   -6.80    4.00
  -2  -4   8   23.50    3.20
  -1  -3   8    1.80    1.80
   1   3  -8    3.50    4.80
   0  -2   8  883.91   27.10
   0   2  -8  883.51   27.50
   0   2  -8  851.81   30.60
  -1   1  -8  122.29    6.30
  -1   1  -8  120.49    6.20
  -2   0  -8   82.39    5.20
  -3  -1  -8   11.20    1.70
  -3  -1  -8   16.50    4.30
  -4  -2  -8   27.90    5.50
  -3  -6   8    3.40    4.40
  -2  -5   8   54.89    5.00
  -1  -4   8  188.78    8.30
   1   4  -8  193.88   13.00
   0  -3   8  360.26   11.80
   0   3  -8  349.77   15.80
   0   3  -8  345.37   12.10
   1  -2   8   20.20    1.60
  -1   2  -8   22.80    3.40
  -1   2  -8   26.30    4.00
  -1   2  -8   16.50    1.90
  -1   2  -8   15.00    2.60
  -2   1  -8    4.50    2.90
  -2   1  -8   11.60    2.50
  -3   0  -8  130.99    8.90
  -3   0  -8  127.89    5.30
  -4  -1  -8    3.30    4.60
  -3  -7   8    2.00    4.30
  -2  -6   8    1.40    2.40
  -1  -5   8    9.60    2.30
   1   5  -8    4.30    6.20
   0  -4   8  148.49    5.90
   0   4  -8  146.69    6.50
   0   4  -8  156.98   10.10
   1  -3   8   75.19    3.20
  -1   3  -8   72.79    5.90
  -1   3  -8   72.59    4.70
   2  -2   8  286.27   10.00
  -2   2  -8  281.87   10.90
  -2   2  -8  276.87   12.30
  -2   2  -8  265.87    8.80
   3  -1   8   13.20    3.50
  -3   1  -8    1.10    3.40
  -3   1  -8    5.50    2.60
  -4   0  -8    0.60    4.30
  -4   0  -8   -8.60    4.80
  -3  -8   8   -2.80    5.20
  -2  -7   8   -1.50    2.70
   1   6  -8    2.80    7.40
   0  -5   8   22.90    2.40
   0   5  -8   28.20    5.80
   0   5  -8   23.30    3.10
   1  -4   8  242.88    8.20
  -1   4  -8  228.38   11.60
  -1   4  -8  245.68    9.90
   2  -3   8   16.40    2.60
  -2   3  -8   25.70    4.10
  -2   3  -8   13.70    3.40
   3  -2   8    9.90    3.70
  -3   2  -8    6.10    3.40
  -3   2  -8   12.90    3.60
  -4   1  -8    8.70    5.20
  -4   1  -8    4.50    4.40
  -3  -9   8   17.80    5.70
  -2  -8   8   34.60    5.00
  -1  -7   8   23.00    2.70
   0  -6   8    7.20    1.90
   0   6  -8    4.60    5.70
   0   6  -8    6.20    2.00
   1  -5   8   75.09    3.80
  -1   5  -8   80.29    5.10
  -1   5  -8   85.29    8.00
   2  -4   8   10.10    2.40
  -2   4  -8   14.90    4.00
   3  -3   8   16.30    3.90
  -3   3  -8   22.50    3.20
  -3   3  -8    8.80    3.50
  -4   2  -8   20.20    4.80
  -4   2  -8   17.10    5.70
  -3 -10   8    7.10    5.50
  -2  -9   8   -0.40    3.10
  -1  -8   8   45.20    4.10
   0  -7   8   20.70    3.00
   0   7  -8   11.70    2.50
   0   7  -8   13.90    6.70
   1  -6   8   10.40    1.70
  -1   6  -8    9.30    2.60
  -1   6  -8    8.60    5.30
   2  -5   8    3.20    2.20
  -2   5  -8   -4.10    3.40
  -2   5  -8   -0.10    2.50
   3  -4   8  168.68    9.30
  -3   4  -8  151.28    7.80
  -3   4  -8  144.69    8.50
  -4   3  -8   -4.70    4.90
  -4   3  -8    1.50    5.50
  -2 -10   8    6.30    3.80
  -1  -9   8   65.29    5.00
   0  -8   8  145.79    6.40
   0   8  -8  144.69    7.80
   1  -7   8    2.20    2.00
  -1   7  -8    4.60    5.40
  -1   7  -8    7.20    3.50
   2  -6   8  186.08    8.30
  -2   6  -8  181.18   10.40
  -2   6  -8  178.88    8.80
   3  -5   8   28.70    5.40
  -3   5  -8   37.00    5.80
  -4   4  -8    6.10    4.70
  -2 -11   8    3.10    4.30
  -1 -10   8   -0.30    2.50
   0  -9   8   24.10    3.50
   0   9  -8   28.90    3.90
   1  -8   8  419.26   14.70
  -1   8  -8  415.16   18.70
  -1   8  -8  419.76   16.00
   2  -7   8   65.89    6.80
  -2   7  -8   57.49    8.80
  -2   7  -8   64.89    5.30
   3  -6   8   29.50    5.60
  -4   5  -8    1.30    5.10
  -2 -12   8    6.50    4.40
  -1 -11   8    1.10    2.90
   0 -10   8  389.76   14.30
   1  -9   8    7.10    2.30
  -1   9  -8    7.90    2.80
   2  -8   8    0.40    2.90
  -2   8  -8   -3.10    2.80
   3  -7   8   -0.30    4.50
  -3   7  -8    1.40    3.80
  -4   6  -8    5.20    5.20
  -1 -12   8   68.69    6.60
   0 -11   8   20.60    3.30
   1 -10   8   88.39    6.10
  -1  10  -8   88.49    7.10
   2  -9   8   40.40    4.80
  -2   9  -8   36.80    5.50
   3  -8   8   11.40    5.20
  -3   8  -8   10.60    4.30
  -4   7  -8    2.60    5.50
  -1 -13   8    9.10    4.60
   0 -12   8    4.90    3.30
   1 -11   8    5.70    3.10
  -1  11  -8   10.60    3.80
   2 -10   8    1.70    3.90
  -2  10  -8   -3.20    3.40
   3  -9   8   -8.00    5.40
  -4   8  -8   23.70    6.50
   0 -13   8    5.80    4.50
   1 -12   8    3.60    3.90
  -1  12  -8    7.00    4.80
   2 -11   8    3.20    4.60
  -2  11  -8   -0.90    3.90
   3 -10   8   42.00    7.70
  -3  10  -8   45.30    6.20
   0 -14   8   -6.60    4.90
   1 -13   8   -0.50    5.20
   2 -12   8    6.80    5.80
  -2  12  -8    0.20    4.90
   3 -11   8    5.40    7.40
  -3  11  -8  -10.50    5.10
   1 -14   8   29.60    6.30
   2 -13   8    2.40    7.70
  -2  13  -8    6.20    6.50
   2 -12  -9   -3.10    8.00
   1 -13  -9    5.50    7.80
   2 -11  -9    9.80    7.60
   1 -12  -9   10.70    6.70
   1 -12  -9   -5.60    7.80
   0 -13  -9   -0.20    5.70
   0 -13  -9    6.90    6.20
   3  -9  -9   -1.60    8.60
   2 -10  -9   23.10    6.90
   1 -11  -9   18.20    7.80
   1 -11  -9   19.30    6.00
   0 -12  -9    6.80    5.20
   0 -12  -9   -3.60    4.90
  -1 -13  -9   17.60    6.90
  -1 -13  -9   20.10    6.20
   3  -8  -9   28.60    8.80
   2  -9  -9   -0.60    5.80
   2  -9  -9   -3.10    8.40
   1 -10  -9    9.30    4.80
   1 -10  -9   12.80    6.20
   0 -11  -9    2.90    4.30
   0 -11  -9    4.90    4.40
  -1 -12  -9    0.00    5.30
  -1 -12  -9   -2.90    4.90
   3  -7  -9    7.70    7.80
   3  -7  -9   -1.40    9.90
   2  -8  -9   15.90    5.70
   2  -8  -9   21.70    8.70
   1  -9  -9   -1.70    4.90
   1  -9  -9   -3.20    4.20
   0 -10  -9   45.10    7.00
   0 -10  -9   49.40    5.20
  -1 -11  -9   18.10    4.70
  -1 -11  -9    7.30    4.10
  -2 -12  -9   68.59   10.80
  -2 -12  -9   65.29    8.50
   4  -5  -9   27.70   11.20
   3  -6  -9   -5.00    9.70
   3  -6  -9    4.50    6.60
   2  -7  -9   24.30    5.50
   2  -7  -9   22.90    7.50
   1  -8  -9   -0.50    3.70
   1  -8  -9    7.90    4.70
   0  -9  -9  106.89    7.50
   0  -9  -9  111.79    8.90
  -1 -10  -9    3.60    3.40
  -1 -10  -9   10.50    4.00
  -2 -11  -9   10.10    5.60
  -2 -11  -9    4.40    4.50
   4  -4  -9    6.60    9.60
   3  -5  -9    8.40    6.10
   3  -5  -9   35.70    9.60
   2  -6  -9    3.70    7.00
   2  -6  -9    0.30    4.30
   1  -7  -9   54.49    6.30
   1  -7  -9   48.40    7.30
   0  -8  -9   22.20    3.90
   0  -8  -9   23.00    4.30
  -1  -9  -9    2.00    3.40
  -1  -9  -9   -1.50    3.10
  -2 -10  -9    8.20    4.50
  -2 -10  -9    7.50    3.90
  -3 -11  -9   -3.80    7.70
   4  -3  -9   11.40    9.40
   3  -4  -9   16.40    5.90
   3  -4  -9   11.20    9.40
   2  -5  -9   65.09   11.10
   2  -5  -9   55.89    7.50
   1  -6  -9    7.70    3.70
   1  -6  -9    9.40    3.90
   0  -7  -9   16.90    4.60
   0  -7  -9   20.30    3.40
  -1  -8  -9   70.19    6.70
  -1  -8  -9   76.89    6.30
  -2  -9  -9   25.40    4.10
  -2  -9  -9   25.60    4.40
  -3 -10  -9    0.70    6.00
   4  -2  -9   11.50    9.00
   3  -3  -9  113.99   16.10
   3  -3  -9  128.99   11.80
   2  -4  -9    5.10    3.70
   2  -4  -9   10.10    6.30
   1  -5  -9    1.80    3.50
   1  -5  -9    1.10    3.30
   0  -6  -9    1.40    2.90
   0  -6  -9    1.50    2.20
  -1  -7  -9   50.39    5.90
  -1  -7  -9   55.59    4.70
  -2  -8  -9   61.99    5.30
  -2  -8  -9   64.99    6.90
  -3  -9  -9   -1.80    5.20
   4  -1  -9    8.60    8.60
   3  -2  -9   58.39   10.40
   3  -2  -9   71.19    9.60
   2  -3  -9  133.39   12.30
   2  -3  -9  142.99    9.20
   1  -4  -9   38.20    5.40
   1  -4  -9   36.60    5.20
   0  -5  -9   24.30    3.80
   0  -5  -9   31.80    3.50
  -1  -6  -9   14.80    3.70
  -1  -6  -9   12.80    2.30
  -2  -7  -9   16.10    3.30
  -2  -7  -9   20.10    2.60
  -3  -8  -9   -0.70    4.60
  -4   0   9   -9.20    8.50
  -4   0   9   -5.50    7.30
   3  -1  -9   40.70    7.10
   2  -2  -9   46.80    9.00
   2  -2  -9   67.69    7.20
   1  -3  -9   75.49    7.50
   1  -3  -9   74.79    6.60
   0  -4  -9   34.20    4.40
   0  -4  -9   36.90    4.60
  -1  -5  -9   71.99    5.90
  -1  -5  -9   72.49    4.40
  -2  -6  -9  167.88    9.00
  -2  -6  -9  185.68    7.10
  -3  -7  -9   14.20    4.40
  -4  -1   9   12.50    7.70
  -4  -1   9   22.10    9.30
   3   0  -9   -4.50    4.90
   2  -1  -9   13.70    4.20
   2  -1  -9   20.20    7.80
   1  -2  -9  119.69    7.30
   1  -2  -9  110.29    8.80
   0  -3  -9   15.20    2.60
   0  -3  -9   11.50    2.70
   1   4   9   11.60    1.40
  -1  -4  -9   12.00    2.00
  -1  -4  -9   10.40    2.70
  -2  -5  -9   29.60    4.90
  -2  -5  -9   29.60    3.00
  -3  -6  -9  121.29    8.70
  -4  -7  -9    1.60    6.90
  -4  -2   9   -2.50    8.60
  -4  -2   9   -3.50    7.30
  -3  -1   9   31.30    5.70
  -3  -1   9   38.50    5.40
   2   0  -9   -8.30    3.50
   2   0  -9   -9.40    5.60
   1  -1  -9  352.86   16.80
   1  -1  -9  374.76   14.50
   0  -2  -9    0.90    2.30
   0  -2  -9   -0.90    2.10
   1   3   9  118.79    4.10
  -1  -3  -9  120.49    6.50
  -2  -4  -9   -1.40    2.50
  -3  -5  -9    2.10    3.60
  -4  -6  -9   -1.60    6.30
  -4  -3   9    3.10    9.00
  -4  -3   9    7.00    7.30
  -3  -2   9   71.39    9.40
  -3  -2   9   96.59    8.20
   2   1  -9   13.10    5.90
   1   0  -9    3.50    4.80
   1   0  -9   -1.70    2.70
   0  -1  -9  358.46   14.50
   0  -1  -9  355.86   12.70
  -1  -2  -9   31.80    3.60
  -2  -3  -9   -2.50    2.90
  -3  -4  -9   37.70    5.90
  -4  -5  -9   -7.30    6.00
  -4  -4   9   26.20    7.70
  -3  -3   9  146.19    9.30
  -3  -3   9  145.79   11.50
  -2  -2   9   44.30    6.50
  -2  -2   9   37.50    4.90
   2   2  -9   47.10    7.20
  -1  -1   9  383.46   14.80
  -1  -1   9  367.96   13.40
   1   1  -9  363.16   17.80
   0   0   9    0.40    1.30
   0   0   9    0.50    1.70
   0   0  -9   -1.50    1.80
   0   0  -9   -0.70    2.60
  -1  -1  -9   12.50    2.40
  -2  -2  -9    8.10    3.10
  -3  -3  -9   44.40    6.50
  -4  -4  -9  121.59   10.40
  -4  -5   9   23.50    7.70
  -3  -4   9   13.30    4.40
  -2  -3   9  138.09    9.50
  -2  -3   9  152.68    7.80
   2   3  -9  141.59   13.00
  -1  -2   9  116.89    7.20
  -1  -2   9  107.69    5.80
   1   2  -9  115.69   10.30
   0  -1   9  341.27   11.40
   0   1  -9  334.37   11.80
   0   1  -9  348.37   14.90
  -1   0  -9   -0.40    2.00
  -2  -1  -9   -3.00    2.20
  -3  -2  -9   16.30    4.10
  -4  -3  -9   12.40    5.50
  -3  -5   9    5.60    4.60
  -2  -4   9    3.00    2.60
   2   4  -9   -2.60    5.90
  -1  -3   9   84.99    5.40
   1   3  -9   82.29   10.00
   0  -2   9   -1.50    1.20
   0   2  -9    0.70    1.70
   0   2  -9   -0.60    3.60
  -1   1  -9   12.30    2.40
  -1   1  -9    9.10    2.60
  -2   0  -9    1.00    2.30
  -3  -1  -9    3.90    3.40
  -4  -2  -9   48.10    6.50
  -3  -6   9    8.70    4.80
  -2  -5   9   58.39    5.30
  -1  -4   9   32.80    4.50
   1   4  -9   34.60    7.30
   0  -3   9   16.10    2.20
   0   3  -9   10.80    2.00
   0   3  -9    8.80    4.30
   1  -2   9   23.60    3.40
   1  -2   9   28.70    1.90
  -1   2  -9   31.70    3.70
  -1   2  -9   28.80    4.70
  -2   1  -9    2.00    2.30
  -2   1  -9   -0.30    3.20
  -3   0  -9    6.00    3.90
  -4  -1  -9    6.50    5.00
  -3  -7   9    3.20    5.20
  -2  -6   9    1.80    3.00
   1   5  -9   11.70    7.20
   0  -4   9   40.60    2.80
   0   4  -9   43.10    6.70
   0   4  -9   35.70    3.60
   1  -3   9  121.09    4.50
  -1   3  -9  113.79    6.10
  -1   3  -9  111.29    8.00
  -1   3  -9  118.59    7.70
  -2   2  -9    7.90    2.70
  -2   2  -9    4.60    3.50
  -3   1  -9    9.50    4.40
  -3   1  -9   -2.10    3.40
  -4   0  -9    1.20    4.60
  -4   0  -9    4.60    5.20
  -3  -8   9   21.00    5.90
  -2  -7   9   24.80    3.80
  -1  -6   9    6.10    2.00
   1   6  -9   -5.30    7.60
   0  -5   9   26.30    2.80
   0   5  -9   31.40    6.60
   0   5  -9   25.00    3.30
   1  -4   9   10.30    1.50
  -1   4  -9    9.20    4.40
  -1   4  -9    3.80    2.10
   2  -3   9    1.90    2.20
  -2   3  -9    2.10    3.40
  -2   3  -9    0.80    2.70
   3  -2   9   21.70    3.30
  -3   2  -9   15.30    3.60
  -3   2  -9   19.60    4.50
  -4   1  -9    7.70    4.50
  -4   1  -9    7.90    5.20
  -3  -9   9    3.60    5.30
  -2  -8   9   21.20    3.70
  -1  -7   9   54.49    4.40
   0  -6   9   -0.50    2.00
   0   6  -9   -0.70    1.90
   0   6  -9   -2.30    6.00
   1  -5   9   71.49    3.70
  -1   5  -9   69.89    5.10
  -1   5  -9   72.59    8.60
   2  -4   9    4.20    2.30
  -2   4  -9    3.20    3.40
  -2   4  -9   -3.30    2.40
   3  -3   9   24.30    4.00
  -3   3  -9   31.90    5.20
  -3   3  -9   39.70    5.80
  -4   2  -9   55.49    8.20
  -4   2  -9   61.39    8.40
  -3 -10   9   -6.60    5.70
  -2  -9   9   -4.50    3.30
  -1  -8   9   -0.90    2.20
   0   7  -9   12.00    7.40
   0   7  -9   12.00    2.70
   1  -6   9   16.40    2.00
  -1   6  -9   19.30    5.80
  -1   6  -9   12.90    3.20
   2  -5   9   37.70    4.40
  -2   5  -9   32.40    4.40
  -2   5  -9   37.00    4.90
   3  -4   9   46.30    6.70
  -3   4  -9   45.10    5.80
  -3   4  -9   53.79    5.60
  -4   3  -9    4.20    5.10
  -4   3  -9    6.80    5.10
  -2 -10   9   31.20    4.90
  -1  -9   9    1.30    2.50
   0  -8   9   24.80    2.80
   0   8  -9   26.00    8.60
   0   8  -9   29.90    4.40
   1  -7   9   53.19    4.70
  -1   7  -9   56.69    5.70
  -1   7  -9   51.19    7.10
   2  -6   9  183.18    8.10
  -2   6  -9  167.28    8.60
  -2   6  -9  174.58   11.20
   3  -5   9    1.80    4.60
  -3   5  -9    2.20    4.00
  -3   5  -9    3.10    3.80
  -4   4  -9  119.69   10.40
  -2 -11   9    1.40    4.10
  -1 -10   9   15.80    3.10
   0  -9   9  126.49    6.30
   0   9  -9  119.69    7.70
   1  -8   9   79.09    4.80
  -1   8  -9   57.19    5.50
  -1   8  -9   78.99   11.20
   2  -7   9   23.30    4.40
  -2   7  -9   19.50    3.50
   3  -6   9  118.89   11.00
  -3   6  -9  118.09    8.20
  -4   5  -9    7.40    5.80
  -2 -12   9    2.70    4.80
  -1 -11   9   26.40    3.70
   0 -10   9   47.80    4.70
   1  -9   9   -1.30    2.20
  -1   9  -9    3.40    2.80
   2  -8   9   62.29    6.30
  -2   8  -9   56.09    5.70
   3  -7   9   21.30    5.30
  -3   7  -9   15.70    4.40
  -4   6  -9    3.80    5.30
  -1 -12   9   -3.40    3.90
   0 -11   9    8.70    3.10
   1 -10   9   13.40    3.20
  -1  10  -9    3.10    3.60
   2  -9   9   23.50    4.50
  -2   9  -9   22.90    4.10
   3  -8   9    6.10    5.30
  -3   8  -9   -0.50    4.40
  -4   7  -9   -6.90    5.70
  -1 -13   9    5.20    4.70
   0 -12   9   -2.10    3.60
   1 -11   9   15.70    4.00
  -1  11  -9   20.90    4.40
   2 -10   9    8.70    4.30
  -2  10  -9   -2.90    3.60
   3  -9   9   -2.40    5.80
  -3   9  -9   -6.70    4.60
   0 -13   9   -0.60    4.80
   1 -12   9    2.20    4.10
  -1  12  -9   -5.40    4.60
   2 -11   9   10.20    5.30
  -2  11  -9    5.00    4.20
   3 -10   9   10.60    6.80
  -3  10  -9    4.10    5.20
   1 -13   9    2.80    6.20
  -1  13  -9    7.40    5.70
   2 -12   9   85.79   11.60
  -2  12  -9   67.39    9.00
   2 -11 -10   -3.20    7.90
   1 -12 -10   41.50    8.50
   1 -12 -10   50.99    8.30
   0 -13 -10    4.50    6.70
   0 -13 -10   -5.40    7.20
   3  -9 -10   13.70    9.60
   2 -10 -10   61.69    9.00
   1 -11 -10    5.10    6.80
   1 -11 -10    5.20    6.00
   0 -12 -10    4.40    5.90
   0 -12 -10   15.90    5.90
  -1 -13 -10   10.70    7.10
  -1 -13 -10   17.00    7.40
   3  -8 -10   46.40    9.90
   2  -9 -10   19.20    8.90
   2  -9 -10    5.30    6.40
   1 -10 -10   -0.10    5.00
   1 -10 -10   -3.10    5.90
   0 -11 -10   20.70    5.30
   0 -11 -10   17.30    5.30
  -1 -12 -10    7.60    5.70
  -1 -12 -10    1.40    5.80
   3  -7 -10    3.20   10.30
   3  -7 -10    6.10    8.40
   2  -8 -10   12.40    5.70
   2  -8 -10   -4.70    8.40
   1  -9 -10    6.20    4.50
   1  -9 -10   -0.60    5.80
   0 -10 -10   -4.60    4.10
   0 -10 -10    3.10    4.20
  -1 -11 -10   18.40    4.90
  -1 -11 -10    2.50    4.60
  -2 -12 -10    7.20    6.50
   3  -6 -10    1.60    7.50
   3  -6 -10    5.90   10.30
   2  -7 -10    0.40    7.90
   2  -7 -10    0.90    5.10
   1  -8 -10   13.50    6.80
   1  -8 -10    6.90    4.20
   0  -9 -10   -4.40    3.60
   0  -9 -10    1.60    3.70
  -1 -10 -10   32.30    4.50
  -1 -10 -10   31.60    4.90
  -2 -11 -10   15.30    6.00
   3  -5 -10   16.00    7.40
   3  -5 -10   31.30   10.20
   2  -6 -10    8.20    8.00
   2  -6 -10   -7.20    4.50
   1  -7 -10   76.19   11.00
   1  -7 -10   82.09    7.40
   0  -8 -10    1.50    3.50
   0  -8 -10   -5.00    3.50
  -1  -9 -10   15.40    4.00
  -1  -9 -10   18.50    3.90
  -2 -10 -10   -2.70    5.00
   4  -3 -10   18.60   10.20
   3  -4 -10   76.89   12.20
   3  -4 -10   61.19    8.60
   2  -5 -10   42.60    5.70
   2  -5 -10   46.50    9.60
   1  -6 -10   72.19    7.30
   1  -6 -10   86.49    9.20
   0  -7 -10   10.00    4.20
   0  -7 -10   10.10    4.60
  -1  -8 -10   39.30    5.20
  -1  -8 -10   36.30    4.80
  -2  -9 -10    0.40    4.30
  -3 -10 -10   -3.00    6.50
   4  -2 -10    4.60    9.30
   3  -3 -10   11.50    9.10
   3  -3 -10    7.70    6.50
   2  -4 -10   26.80    8.40
   2  -4 -10   23.20    4.60
   1  -5 -10   16.80    5.20
   1  -5 -10   16.60    4.10
   0  -6 -10   90.29    7.60
   0  -6 -10   92.29    7.40
  -1  -7 -10   11.00    3.00
  -2  -8 -10   -7.20    3.70
  -3  -9 -10   -6.10    5.60
   4  -1 -10    7.20    9.30
   3  -2 -10   -7.50    5.90
   3  -2 -10   -0.70    8.50
   2  -3 -10   13.90    4.50
   2  -3 -10    8.20    7.10
   1  -4 -10   10.10    4.60
   1  -4 -10    9.50    3.90
   0  -5 -10   -1.60    2.90
   0  -5 -10    2.10    3.00
  -1  -6 -10   55.89    4.80
  -1  -6 -10   42.80    4.50
  -2  -7 -10   20.30    3.50
  -3  -8 -10    9.30    5.40
  -4   0  10   56.99    9.10
  -4   0  10   44.70   10.10
   3  -1 -10    8.50    8.90
   3  -1 -10    6.60    5.60
   2  -2 -10  152.78   14.20
   2  -2 -10  140.89    9.50
   1  -3 -10   68.69    7.70
   1  -3 -10   53.09    7.80
   0  -4 -10   -0.80    2.70
   0  -4 -10    1.40    2.80
  -1  -5 -10   19.20    3.00
  -1  -5 -10   16.80    2.70
  -2  -6 -10    6.20    3.10
  -3  -7 -10    6.00    4.80
  -4  -1  10   15.00    9.40
  -4  -1  10   21.00    8.10
   3   0 -10   11.30    5.70
   2  -1 -10   71.89    7.70
   2  -1 -10   65.89   11.50
   1  -2 -10   25.50    4.90
   1  -2 -10   25.70    6.00
   0  -3 -10    7.50    2.80
   0  -3 -10    7.90    3.30
   1   4  10    5.30    1.20
  -1  -4 -10    8.50    2.90
  -1  -4 -10    7.60    2.20
  -2  -5 -10   -2.80    2.70
  -3  -6 -10   -2.80    4.20
  -4  -7 -10   16.50    8.00
  -4  -2  10    4.70    7.50
  -4  -2  10    5.50    9.40
  -3  -1  10   10.30    5.00
  -3  -1  10    3.60    4.80
   2   0 -10  117.69   12.00
   2   0 -10  120.19    8.50
   1  -1 -10  172.08   11.90
   1  -1 -10  166.08    9.60
   0  -2 -10  237.98   11.50
   0  -2 -10  247.58    9.90
  -1  -3 -10    5.60    2.70
  -2  -4 -10   62.79    5.60
  -3  -5 -10  118.99    8.70
  -4  -6 -10   11.00    6.70
  -4  -3  10   14.00    7.50
  -3  -2  10   -2.50    4.50
  -3  -2  10    6.70    5.30
  -2  -1  10   78.59    7.70
  -2  -1  10   89.79    6.50
   2   1 -10   80.29   10.40
   1   0 -10 1266.47   41.30
   1   0 -10 1257.57   44.90
   0  -1 -10  213.68   10.80
   0  -1 -10  209.08    8.80
  -1  -2 -10   -1.90    2.20
  -2  -3 -10  127.89    7.30
  -3  -4 -10   10.00    4.00
  -4  -5 -10    4.00    6.10
  -3  -3  10   -0.20    5.50
  -3  -3  10   -1.70    4.60
  -2  -2  10  139.89    9.50
  -2  -2  10  140.49    7.90
   2   2 -10  151.18   12.50
  -1  -1  10  177.28    8.20
  -1  -1  10  184.28    9.70
   1   1 -10  166.28   12.90
   0   0  10    4.10    1.70
   0   0  10    3.40    2.10
   0   0 -10    6.10    2.20
   0   0 -10    0.20    3.30
  -1  -1 -10   67.39    5.10
  -2  -2 -10   20.80    3.50
  -3  -3 -10   -2.50    3.40
  -4  -4 -10   16.00    6.10
  -3  -4  10   74.49    8.60
  -2  -3  10    9.50    3.20
  -2  -3  10    9.10    3.90
   2   3 -10    7.80    5.80
  -1  -2  10   19.60    3.20
  -1  -2  10   18.30    3.80
   1   2 -10   18.00    6.70
   0  -1  10  211.58    7.70
   0   1 -10  206.48   11.50
   0   1 -10  208.08    8.30
  -1   0 -10    2.20    2.50
  -2  -1 -10   52.09    6.00
  -3  -2 -10    4.40    3.70
  -4  -3 -10   10.30    5.70
  -3  -5  10   22.30    5.30
  -2  -4  10   40.60    5.10
   2   4 -10   20.30    7.40
  -1  -3  10   68.79    5.60
   1   3 -10   77.29   10.40
   0  -2  10  240.68    8.60
   0   2 -10  250.27    9.20
   0   2 -10  218.68   12.40
  -1   1 -10   53.39    4.80
  -1   1 -10   60.09    5.50
  -2   0 -10    2.70    2.80
  -3  -1 -10    0.80    3.60
  -4  -2 -10  -10.10    5.10
  -3  -6  10    5.30    5.60
  -2  -5  10   41.70    4.70
  -1  -4  10   16.40    2.70
   1   4 -10   15.00    6.10
   0  -3  10    5.90    1.60
   0   3 -10    9.40    2.20
   0   3 -10    3.60    4.40
   1  -2  10   -3.80    2.40
   1  -2  10    1.70    1.00
  -1   2 -10    1.40    2.30
  -1   2 -10    2.90    3.20
  -2   1 -10   58.79    5.30
  -2   1 -10   36.20    5.10
  -3   0 -10    6.00    3.70
  -4  -1 -10   -2.50    4.90
  -3  -7  10    2.60    5.60
  -2  -6  10    7.80    3.30
  -1  -5  10   15.10    2.50
   1   5 -10   21.90    7.20
   0  -4  10   -0.60    1.40
   0   4 -10   -3.90    5.20
   0   4 -10    1.40    2.10
   1  -3  10    2.90    1.10
  -1   3 -10    7.30    2.30
  -1   3 -10    4.40    3.50
  -2   2 -10   29.40    3.80
  -2   2 -10   23.80    3.80
  -3   1 -10    3.80    3.70
  -3   1 -10    8.70    4.20
  -4   0 -10    3.90    4.90
  -4   0 -10   -3.10    5.10
  -3  -8  10   48.50    6.90
  -2  -7  10    5.10    3.40
  -1  -6  10   79.09    5.10
   1   6 -10   59.19    9.70
   0  -5  10   -0.70    1.70
   0   5 -10   -2.90    5.50
   0   5 -10    3.70    2.10
   1  -4  10    5.10    1.40
  -1   4 -10    8.00    2.50
  -1   4 -10    0.50    4.40
   2  -3  10  122.69    6.00
  -2   3 -10  130.69    7.40
  -2   3 -10  124.89    7.80
  -3   2 -10    0.40    4.90
  -3   2 -10    5.50    3.90
  -4   1 -10   -5.60    5.40
  -4   1 -10   -1.90    4.70
  -3  -9  10   -0.20    6.00
  -2  -8  10    5.20    3.60
  -1  -7  10   78.69    5.20
   1   7 -10   61.89   10.30
   0  -6  10   91.89    5.30
   0   6 -10   81.89   12.70
   0   6 -10   94.69    5.60
   1  -5  10   20.70    2.50
  -1   5 -10   20.10    3.20
  -1   5 -10   26.40    6.00
   2  -4  10   57.39    4.80
  -2   4 -10   47.60    6.90
  -2   4 -10   48.00    5.00
  -3   3 -10    0.20    3.80
  -3   3 -10    2.60    4.00
  -4   2 -10    0.00    5.20
  -4   2 -10   -4.80    4.80
  -2  -9  10    6.00    4.00
  -1  -8  10    8.10    2.70
   0  -7  10   12.00    2.10
   0   7 -10   10.80    3.00
   0   7 -10   12.10    9.40
   1  -6  10   56.59    3.80
  -1   6 -10   49.90    7.80
  -1   6 -10   57.19    6.10
   2  -5  10   -4.90    2.50
  -2   5 -10   -2.60    2.90
  -2   5 -10    3.00    4.40
  -3   4 -10    3.70    3.80
  -3   4 -10    0.70    3.70
  -4   3 -10    8.80    5.60
  -4   3 -10   19.60    5.60
  -2 -10  10   68.39    8.10
  -1  -9  10    6.90    2.80
   0  -8  10    1.00    2.10
   0   8 -10   -8.30   10.40
   0   8 -10   -2.20    3.60
   1  -7  10   16.10    2.80
  -1   7 -10   12.90    6.70
  -1   7 -10   12.40    3.50
   2  -6  10    2.50    2.80
  -2   6 -10    5.10    2.90
  -2   6 -10    9.30    5.40
   3  -5  10  118.09   10.30
  -3   5 -10  127.59    9.20
  -3   5 -10  121.69    8.40
  -4   4 -10    9.60    5.40
  -2 -11  10    2.50    4.50
  -1 -10  10    2.00    3.10
   0  -9  10    0.90    2.20
   0   9 -10   -2.50    3.20
   1  -8  10   35.00    4.20
  -1   8 -10   28.70    7.80
  -1   8 -10   40.00    4.90
   2  -7  10   14.30    4.30
  -2   7 -10    7.10    6.60
  -2   7 -10   19.20    3.70
   3  -6  10    0.30    6.30
  -3   6 -10   -0.50    3.70
  -4   5 -10   -8.50    5.70
  -1 -11  10    3.40    3.40
   0 -10  10   -1.90    2.50
   1  -9  10   15.80    3.00
  -1   9 -10   10.00    7.80
  -1   9 -10   11.00    3.20
   2  -8  10    2.50    3.60
  -2   8 -10    0.40    3.50
   3  -7  10   -1.80    4.90
  -3   7 -10    5.30    4.30
  -4   6 -10   -0.80    5.70
  -1 -12  10   43.90    5.50
   0 -11  10   14.60    3.60
   1 -10  10   26.30    4.20
  -1  10 -10   23.70    4.30
   2  -9  10   -4.30    3.80
  -2   9 -10   -1.00    3.80
   3  -8  10    7.70    5.40
  -3   8 -10   -0.10    4.50
   0 -12  10   10.40    4.00
   1 -11  10   -2.30    3.80
  -1  11 -10   -2.80    4.50
   2 -10  10    1.50    4.70
  -2  10 -10    3.90    4.10
   3  -9  10   -3.10    5.60
  -3   9 -10   -1.10    5.00
   0 -13  10   -4.20    4.70
   1 -12  10   10.20    4.80
  -1  12 -10   -1.40    4.80
   2 -11  10   11.40    5.60
  -2  11 -10   11.10    4.50
   3 -10  10   -0.40    6.40
  -3  10 -10    1.50    5.70
   1 -13  10   20.90    6.60
  -1  13 -10   15.30    6.40
   2 -12  10    8.90    6.90
  -2  12 -10    5.10    6.00
   1 -12 -11   -6.20    8.50
   1 -12 -11    0.90    8.00
   2 -10 -11    5.90   14.50
   2 -10 -11  -13.10    7.90
   1 -11 -11    6.60    6.60
   1 -11 -11   -3.20    7.40
   0 -12 -11    3.50    6.90
   0 -12 -11    0.30    6.80
   3  -8 -11   10.20    9.70
   2  -9 -11    6.10    8.80
   2  -9 -11    5.90    7.10
   1 -10 -11   16.80    7.50
   1 -10 -11   24.60    6.10
   0 -11 -11   -1.20    5.50
   0 -11 -11   -1.20    5.50
  -1 -12 -11   16.80    6.70
  -1 -12 -11    8.80    6.90
   3  -7 -11   -3.50   11.00
   3  -7 -11    9.60    8.80
   2  -8 -11   -6.00    6.20
   2  -8 -11   -8.30    8.50
   1  -9 -11    4.60    6.00
   1  -9 -11   11.80    5.20
   0 -10 -11    5.90    4.80
   0 -10 -11   11.00    5.10
  -1 -11 -11   13.90    5.50
  -1 -11 -11   -2.10    4.80
   3  -6 -11   -2.30   11.30
   3  -6 -11    8.50    8.30
   2  -7 -11   12.70    8.20
   2  -7 -11    5.50    5.80
   1  -8 -11   14.00    5.10
   1  -8 -11   27.90    6.50
   0  -9 -11    0.50    4.20
   0  -9 -11   -1.10    4.20
  -1 -10 -11    1.10    4.30
  -1 -10 -11    3.60    4.70
  -2 -11 -11    9.60    6.20
   3  -5 -11    7.80   11.00
   3  -5 -11   27.30    8.50
   2  -6 -11   -4.80    7.50
   2  -6 -11    3.80    5.10
   1  -7 -11   -0.70    4.20
   0  -8 -11   48.10    5.30
   0  -8 -11   39.20    6.70
  -1  -9 -11  -10.10    4.20
  -2 -10 -11    7.60    5.40
   3  -4 -11  129.39   19.60
   3  -4 -11  149.79   14.20
   2  -5 -11   -7.30    4.90
   2  -5 -11    0.10    7.00
   1  -6 -11    1.60    5.40
   1  -6 -11   -2.10    3.90
   0  -7 -11    5.00    3.70
   0  -7 -11   13.20    4.30
  -1  -8 -11   61.09    6.40
  -1  -8 -11   59.49    6.50
  -2  -9 -11   13.90    4.90
   3  -3 -11   21.30   10.60
   3  -3 -11   21.60    7.10
   2  -4 -11   83.89   12.30
   2  -4 -11   91.19    9.00
   1  -5 -11   12.00    5.70
   1  -5 -11   12.20    4.00
   0  -6 -11   19.70    5.00
   0  -6 -11   16.90    4.00
  -1  -7 -11    8.30    3.10
  -1  -7 -11    8.10    3.30
  -2  -8 -11   24.50    4.60
  -3  -9 -11    1.70    6.00
   3  -2 -11   77.59    9.30
   3  -2 -11   77.19   11.90
   2  -3 -11    3.80    4.90
   2  -3 -11   -6.40    6.70
   1  -4 -11  110.09    8.30
   1  -4 -11   96.29   10.70
   0  -5 -11   11.40    3.60
   0  -5 -11    9.20    3.40
  -1  -6 -11    9.60    2.80
  -1  -6 -11   11.90    3.10
  -2  -7 -11    1.80    3.60
  -3  -8 -11    8.50    5.60
   3  -1 -11   -1.10    6.20
   3  -1 -11    7.80   10.00
   2  -2 -11  550.74   25.30
   2  -2 -11  515.05   21.20
   1  -3 -11   35.00    5.20
   1  -3 -11   31.50    6.60
   0  -4 -11   88.29    6.20
   0  -4 -11   86.89    7.20
  -1  -5 -11   15.80    2.90
  -1  -5 -11    6.20    2.60
  -2  -6 -11   -0.30    3.00
  -3  -7 -11   -3.00    4.90
   3   0 -11   -5.40    5.90
   3   0 -11  -19.80    9.30
   2  -1 -11   70.09   10.80
   2  -1 -11   66.29    8.10
   1  -2 -11   10.30    4.70
   1  -2 -11    4.30    4.50
   0  -3 -11    9.40    2.90
   0  -3 -11    7.90    4.00
   1   4  11  154.38    5.80
  -1  -4 -11  159.58    8.20
  -1  -4 -11  148.19    6.40
  -2  -5 -11    2.90    2.90
  -3  -6 -11  107.19    9.20
  -3  -1  11   10.80    5.40
  -3  -1  11    8.40    5.70
   2   0 -11    1.10    6.40
   2   0 -11   -8.20    4.00
   1  -1 -11    5.20    4.60
   1  -1 -11   11.40    5.10
   0  -2 -11  175.58    8.10
   0  -2 -11  171.28   10.40
  -1  -3 -11   23.80    3.40
  -2  -4 -11  184.48    9.40
  -3  -5 -11   -0.30    4.40
  -4  -6 -11    2.90    7.60
  -3  -2  11   96.29    8.90
  -3  -2  11   78.19   11.50
  -2  -1  11   62.69    7.40
  -2  -1  11   61.29    6.10
   2   1 -11   74.99   10.40
   1   0 -11    2.10    4.20
   0  -1 -11   70.79    7.60
  -1  -2 -11  351.96   14.50
  -2  -3 -11   52.09    5.20
  -3  -4 -11    8.30    4.10
  -4  -5 -11    5.70    6.60
  -3  -3  11    1.60    6.00
  -3  -3  11   21.00    5.40
  -2  -2  11  513.75   19.10
  -2  -2  11  517.45   21.30
   2   2 -11  508.95   24.90
  -1  -1  11    4.00    3.60
  -1  -1  11    9.20    4.50
   1   1 -11    2.60    4.50
   0   0  11    0.60    2.40
   0   0  11    1.40    1.70
   0   0 -11    0.40    3.90
   0   0 -11    2.60    2.40
  -1  -1 -11   78.29    6.50
  -2  -2 -11   21.40    3.40
  -3  -3 -11    3.60    3.80
  -4  -4 -11   -0.10    5.80
  -3  -4  11  169.48   11.10
  -2  -3  11    9.30    3.30
   2   3 -11   -4.20    7.30
  -1  -2  11    7.90    2.90
   1   2 -11    5.60    5.50
   0  -1  11   66.49    3.90
   0   1 -11   68.79    4.70
   0   1 -11   68.09    8.20
  -1   0 -11   -0.10    2.80
  -2  -1 -11    2.90    2.90
  -3  -2 -11   -0.60    3.70
  -4  -3 -11   14.20    5.90
  -3  -5  11   33.40    6.80
  -2  -4  11  113.59    7.70
  -1  -3  11   33.30    4.40
   1   3 -11   36.70    6.40
   0  -2  11  172.08    6.80
   0   2 -11  150.38   11.50
   0   2 -11  177.68    7.50
  -1   1 -11   84.19    6.80
  -1   1 -11   79.99    5.60
  -2   0 -11    3.40    3.40
  -3  -1 -11   -2.20    3.70
  -4  -2 -11   13.40    5.30
  -3  -6  11   14.10    6.00
  -2  -5  11   -3.00    3.40
  -1  -4  11  107.09    6.20
   1   4 -11  119.69   12.40
   0  -3  11    6.90    1.80
   0   3 -11    5.60    6.40
   0   3 -11    6.90    2.40
   1  -2  11  323.07   10.20
  -1   2 -11  307.27   12.40
  -1   2 -11  323.37   14.70
  -2   1 -11    7.90    4.00
  -2   1 -11    1.70    3.40
  -3   0 -11   -7.30    3.40
  -3   0 -11   -5.10    3.80
  -4  -1 -11    0.20    5.30
  -4  -1 -11   -7.80    5.30
  -3  -7  11    4.50    5.80
  -2  -6  11   -4.80    3.40
  -1  -5  11    7.90    2.60
   1   5 -11    0.90    7.50
   0  -4  11   97.19    4.90
   0   4 -11   99.59   13.00
   0   4 -11   95.89    5.70
   1  -3  11   18.90    2.30
  -1   3 -11   15.60    2.90
  -1   3 -11    5.30    4.60
  -2   2 -11   19.00    4.70
  -2   2 -11   29.20    4.20
  -3   1 -11   -3.00    4.00
  -3   1 -11   -6.10    3.50
  -4   0 -11    1.70    5.50
  -4   0 -11    1.10    5.20
  -3  -8  11    3.20    6.20
  -2  -7  11    8.80    3.70
  -1  -6  11    1.00    2.50
   1   6 -11    0.30    7.60
   0  -5  11   10.00    2.50
   0   5 -11   17.00    2.80
   0   5 -11    6.10    8.00
   1  -4  11  151.18    5.70
  -1   4 -11  126.99   11.10
  -1   4 -11  147.89    7.60
  -2   3 -11   46.50    7.50
  -2   3 -11   41.40    5.60
  -3   2 -11    3.40    3.90
  -3   2 -11    0.60    4.10
  -4   1 -11   -0.30    5.20
  -4   1 -11   -3.80    5.60
  -2  -8  11    5.60    3.90
  -1  -7  11   -1.10    2.50
   1   7 -11   -1.20    9.40
   0  -6  11   15.90    2.40
   0   6 -11    5.90    9.80
   0   6 -11   18.70    3.00
   1  -5  11   12.80    1.90
  -1   5 -11   15.20    6.20
  -1   5 -11   10.90    3.50
   2  -4  11  179.88    7.50
  -2   4 -11  164.38    9.00
  -2   4 -11  173.48   11.20
  -3   3 -11    2.10    3.90
  -3   3 -11    4.80    4.80
  -4   2 -11    8.30    5.60
  -4   2 -11   14.40    5.30
  -2  -9  11    3.40    4.60
  -1  -8  11   20.70    3.30
   0  -7  11    1.60    2.00
   0   7 -11   12.70    9.70
   0   7 -11    0.10    3.50
   1  -6  11   10.70    2.10
  -1   6 -11    9.00    7.20
  -1   6 -11    6.10    3.20
   2  -5  11    2.70    2.80
  -2   5 -11    2.20    5.00
  -2   5 -11   -1.20    3.20
  -3   4 -11    4.40    4.00
  -3   4 -11    5.90    6.10
  -4   3 -11   12.70    5.90
  -4   3 -11   11.70    6.10
  -2 -10  11   -1.20    4.80
  -1  -9  11    9.10    3.10
   0  -8  11   37.20    4.20
   0   8 -11   40.20   10.20
   0   8 -11   43.30    4.80
   1  -7  11    9.10    2.50
  -1   7 -11    4.60    7.30
  -1   7 -11    8.80    3.20
   2  -6  11    2.50    3.00
  -2   6 -11    6.00    3.20
  -2   6 -11   -5.60    5.90
  -3   5 -11    3.10    5.90
  -3   5 -11    6.40    4.20
  -4   4 -11   -2.50    6.10
  -2 -11  11   12.90    5.30
  -1 -10  11   24.30    4.10
   0  -9  11   -0.90    2.50
   0   9 -11   -2.70    3.50
   1  -8  11   60.49    5.10
  -1   8 -11   63.69    6.00
  -1   8 -11   83.39   14.30
   2  -7  11    3.60    4.20
  -2   7 -11    0.40    3.40
  -2   7 -11    6.20    7.00
  -3   6 -11   81.89    7.90
  -4   5 -11    4.90    6.40
  -1 -11  11    6.30    4.50
   0 -10  11   17.50    3.50
   0  10 -11   21.70    4.30
   1  -9  11    0.90    2.80
  -1   9 -11    1.10    9.00
  -1   9 -11    1.00    3.30
   2  -8  11   22.50    4.30
  -2   8 -11   17.30    4.10
  -3   7 -11    1.70    4.60
  -1 -12  11    7.20    4.70
   0 -11  11    3.60    3.80
   1 -10  11    0.10    3.50
  -1  10 -11    0.90    3.70
   2  -9  11    3.90    4.10
  -2   9 -11    5.00    4.20
  -3   8 -11   -2.00    4.60
   0 -12  11   13.40    5.20
   1 -11  11   13.30    4.60
  -1  11 -11   11.40    5.20
   2 -10  11    6.00    4.90
  -2  10 -11   10.90    4.60
  -3   9 -11    8.40    5.40
   1 -12  11   19.50    5.60
  -1  12 -11    9.80    6.30
   2 -11  11   -8.20    5.50
  -2  11 -11    2.60    4.70
   2 -10 -12   11.50    8.70
   2 -10 -12   37.80   14.90
   1 -11 -12   17.10    8.20
   1 -11 -12   44.80    9.90
   0 -12 -12   51.69    9.30
   0 -12 -12   40.70    8.40
   2  -9 -12   38.90   11.30
   2  -9 -12   30.10    8.50
   1 -10 -12   17.60    7.10
   1 -10 -12   28.70    8.60
   0 -11 -12    8.00    6.90
   0 -11 -12    2.80    6.40
  -1 -12 -12    2.10    7.00
   3  -7 -12   11.50    9.20
   3  -7 -12   11.90   12.40
   2  -8 -12   15.80   10.00
   2  -8 -12    9.50    7.20
   1  -9 -12   15.00    7.40
   1  -9 -12   17.40    6.10
   0 -10 -12   -6.80    5.60
   0 -10 -12    9.30    5.80
  -1 -11 -12    9.20    5.80
   3  -6 -12  -15.50   12.10
   3  -6 -12    2.10    8.70
   2  -7 -12   31.20    9.60
   2  -7 -12   21.30    7.00
   1  -8 -12   -9.20    6.40
   1  -8 -12   -1.20    5.10
   0  -9 -12   14.70    4.90
   0  -9 -12   15.80    5.10
  -1 -10 -12   66.09    8.70
  -2 -11 -12    6.60    6.80
   3  -5 -12   14.40   12.30
   3  -5 -12   17.50    9.00
   2  -6 -12    0.80    5.70
   2  -6 -12   -3.40    8.10
   1  -7 -12   45.30    5.70
   1  -7 -12   43.30    7.50
   0  -8 -12   42.00    5.30
   0  -8 -12   34.00    5.30
  -1  -9 -12    0.30    4.30
  -2 -10 -12   27.70    6.30
   3  -4 -12   43.80    9.90
   3  -4 -12   25.00   12.80
   2  -5 -12    1.20    7.50
   2  -5 -12    7.20    5.70
   1  -6 -12   11.30    4.60
   1  -6 -12   16.10    6.10
   0  -7 -12   21.20    4.90
   0  -7 -12   12.50    4.20
  -1  -8 -12   35.70    4.80
  -1  -8 -12   28.30    7.40
  -2  -9 -12   -8.70    4.80
   3  -3 -12   20.90    8.40
   3  -3 -12    9.80   11.40
   2  -4 -12    5.50    7.50
   2  -4 -12   -0.20    5.30
   1  -5 -12   12.50    5.70
   1  -5 -12    8.80    4.20
   0  -6 -12  137.79   10.70
   0  -6 -12  118.69    8.40
  -1  -7 -12   -6.00    3.20
  -1  -7 -12    4.10    4.00
  -2  -8 -12   59.39    7.50
  -3  -9 -12   13.40    7.50
   3  -2 -12   12.20    7.50
   3  -2 -12   -4.30   10.50
   2  -3 -12   99.49   12.20
   2  -3 -12   80.29    9.20
   1  -4 -12   83.19    7.80
   1  -4 -12   67.29    8.90
   0  -5 -12   30.20    4.30
   0  -5 -12   26.20    4.20
  -1  -6 -12   16.80    3.20
  -1  -6 -12   10.10    3.60
  -2  -7 -12    0.70    3.80
  -3  -8 -12   -1.30    5.90
   3  -1 -12   -3.10    6.80
   3  -1 -12   -1.90   10.80
   2  -2 -12   26.00    7.60
   2  -2 -12   28.90    5.60
   1  -3 -12   17.30    4.40
   1  -3 -12   14.50    5.30
   0  -4 -12   -0.90    3.20
   0  -4 -12    4.10    3.20
  -1  -5 -12   39.20    5.10
  -1  -5 -12   24.40    3.60
  -2  -6 -12   39.80    5.80
  -3  -7 -12   12.90    5.60
  -3   0  12   19.70    6.10
  -3   0  12   12.40    6.20
   3   0 -12   16.00   10.70
   2  -1 -12   41.80    5.60
   2  -1 -12   26.90    7.50
   1  -2 -12  169.88   11.30
   1  -2 -12  172.78   10.30
   0  -3 -12    0.70    2.90
   0  -3 -12   -1.80    3.00
  -1  -4 -12    7.20    2.60
  -2  -5 -12  110.99    7.50
  -3  -6 -12    4.00    4.90
  -3  -1  12    3.90    5.70
  -3  -1  12    0.90    6.40
   2   0 -12   12.60    7.30
   1  -1 -12  376.56   15.50
   1  -1 -12  338.67   17.70
   0  -2 -12   83.59    7.20
   0  -2 -12   89.29    5.90
  -1  -3 -12  146.39    8.20
  -2  -4 -12   72.49    6.00
  -3  -5 -12    6.90    4.90
  -3  -2  12   -7.40    5.50
  -3  -2  12   -2.70    5.80
  -2  -1  12   16.40    4.50
   2   1 -12   29.70    7.70
  -1   0  12  524.65   20.10
  -1   0  12  522.15   18.40
   1   0 -12  487.45   22.70
   0   1  12  567.64   19.40
   0   1  12  547.45   18.20
   0  -1 -12  563.64   22.20
   0  -1 -12  537.35   18.90
  -1  -2 -12  301.97   13.00
  -2  -3 -12    2.40    2.80
  -3  -4 -12   25.90    5.20
  -3  -3  12   22.20    6.70
  -2  -2  12   14.30    4.60
  -2  -2  12   27.90    4.30
   2   2 -12   22.80    7.30
  -1  -1  12  382.46   14.50
  -1  -1  12  380.56   16.30
   1   1 -12  399.66   19.30
   0   0  12  909.31   29.20
   0   0  12  960.80   30.50
   0   0 -12  953.90   29.90
   0   0 -12  904.91   33.90
  -1  -1 -12   27.80    4.80
  -2  -2 -12    3.40    2.90
  -3  -3 -12    5.10    4.40
  -4  -4 -12    9.80    6.30
  -3  -4  12   48.90    7.30
  -2  -3  12   77.09    7.20
   2   3 -12   83.09   13.40
  -1  -2  12  159.98    7.80
   1   2 -12  149.88   12.20
   0  -1  12  575.24   18.70
   0   1 -12  570.04   19.30
   0   1 -12  580.14   23.80
  -1   0 -12    2.80    3.40
  -1   0 -12    5.30    2.90
  -2  -1 -12    5.20    3.30
  -3  -2 -12    3.00    4.10
  -4  -3 -12    0.20    6.10
  -3  -5  12    3.90    6.10
  -2  -4  12   -1.90    3.80
   2   4 -12    9.10    8.20
  -1  -3  12   17.90    3.00
   1   3 -12   12.10    6.50
   0  -2  12   85.69    4.50
   0   2 -12   75.39    9.20
   0   2 -12   80.09    5.40
  -1   1 -12   42.00    6.80
  -1   1 -12   27.60    3.60
  -2   0 -12   -2.30    3.60
  -2   0 -12   -1.20    3.20
  -3  -1 -12    5.40    3.80
  -4  -2 -12    6.00    6.20
  -3  -6  12   12.20    6.20
  -2  -5  12   -4.60    3.60
   2   5 -12   12.40   10.00
  -1  -4  12   61.19    5.30
   1   4 -12   85.39   11.60
   0  -3  12    0.20    1.90
   0   3 -12   -0.50    2.40
   0   3 -12   -4.30    5.70
   1  -2  12  266.17    8.90
  -1   2 -12  258.67   14.80
  -1   2 -12  300.37   11.50
  -2   1 -12    2.80    3.70
  -2   1 -12    4.30    3.60
  -3   0 -12   49.10    6.50
  -3   0 -12   53.29    7.40
  -4  -1 -12    3.10    6.00
  -4  -1 -12    3.40    5.70
  -2  -6  12    5.50    4.00
  -1  -5  12    9.10    2.70
   1   5 -12    6.20    7.70
   0  -4  12    2.60    2.20
   0   4 -12    2.60    2.50
   0   4 -12   -9.10    6.50
   1  -3  12  146.19    5.50
  -1   3 -12  133.59    7.70
  -1   3 -12  147.69   12.70
  -2   2 -12   -2.00    3.50
  -2   2 -12    7.80    4.50
  -3   1 -12    5.80    4.60
  -3   1 -12    9.00    3.90
  -4   0 -12   19.00    6.00
  -4   0 -12    4.10    6.30
  -2  -7  12   25.10    4.80
  -1  -6  12   24.30    3.30
   1   6 -12    2.70    8.50
   0  -5  12   36.20    4.80
   0   5 -12   31.80    7.90
   0   5 -12   24.10    3.40
   1  -4  12    9.60    1.70
  -1   4 -12   10.20    7.00
  -1   4 -12    9.90    3.40
  -2   3 -12    1.80    6.00
  -2   3 -12    5.00    3.40
  -3   2 -12   13.40    4.50
  -3   2 -12   -6.00    4.00
  -4   1 -12    2.90    5.50
  -4   1 -12    6.80    6.20
  -2  -8  12   19.40    5.20
  -1  -7  12   53.09    5.20
   1   7 -12   34.80   10.40
   0  -6  12  131.19    6.40
   0   6 -12  132.89    7.40
   0   6 -12  132.89   15.30
   1  -5  12   23.40    3.10
  -1   5 -12   28.50    9.30
  -1   5 -12   21.60    4.50
  -2   4 -12   58.59    6.00
  -2   4 -12   86.69   12.80
  -3   3 -12    4.30    4.20
  -3   3 -12   -2.30    4.50
  -4   2 -12   -1.50    5.70
  -4   2 -12    6.00    6.10
  -2  -9  12   31.80    5.70
  -1  -8  12    2.70    3.00
   0  -7  12    8.30    2.50
   0   7 -12    8.20    8.90
   0   7 -12   11.20    5.00
   1  -6  12    9.60    2.50
  -1   6 -12   11.90    3.60
  -1   6 -12   17.90   10.50
   2  -5  12  100.39    5.90
  -2   5 -12   92.79   12.70
  -2   5 -12   76.89    7.00
  -3   4 -12   18.60    4.80
  -4   3 -12   -2.30    6.20
  -4   3 -12   11.80    8.50
  -2 -10  12    6.80    5.30
  -1  -9  12   11.80    3.70
   0  -8  12   32.10    4.60
   0   8 -12   35.40    4.80
   0   8 -12   37.90    9.90
   1  -7  12   -0.40    2.20
  -1   7 -12    8.80    3.40
  -1   7 -12    1.90   10.70
   2  -6  12   44.00    5.40
  -2   6 -12   26.50    8.40
  -2   6 -12   25.70    4.10
  -3   5 -12    8.50    8.20
  -3   5 -12    7.70    4.70
  -4   4 -12    2.10    6.70
  -1 -10  12   24.60    4.20
   0  -9  12   15.00    3.40
   0   9 -12    2.70   10.00
   0   9 -12   14.30    4.40
   1  -8  12   42.10    4.90
  -1   8 -12   42.30   13.60
  -1   8 -12   30.10    4.40
   2  -7  12    3.20    3.90
  -2   7 -12    1.30    3.60
  -2   7 -12   10.80    8.40
  -3   6 -12    6.90    4.70
  -1 -11  12   22.80    5.10
   0 -10  12    0.60    3.50
   0  10 -12    8.00    4.70
   1  -9  12    1.60    3.10
  -1   9 -12    0.20    3.60
  -1   9 -12    2.80   12.30
   2  -8  12   50.79    6.80
  -2   8 -12   51.99    7.00
  -3   7 -12   18.50    5.60
   0 -11  12   -0.70    4.30
   1 -10  12   71.39    7.50
  -1  10 -12   62.29    7.50
   2  -9  12    1.40    4.60
  -2   9 -12    3.00    4.30
  -3   8 -12    1.00    5.10
   0 -12  12   61.59    7.30
   1 -11  12    7.10    4.70
  -1  11 -12   -2.50    5.30
   2 -10  12   26.50    5.80
  -2  10 -12   29.50    5.50
  -3   9 -12    4.10    6.40
   1 -12  12    1.30    6.00
  -1  12 -12   -8.10    6.20
   2 -11  12   -5.50    5.80
  -2  11 -12    3.90    5.40
   2  -9 -13    2.80    8.70
   2  -9 -13    9.50   11.40
   1 -10 -13    0.30    9.60
   1 -10 -13  -13.30    7.40
   0 -11 -13   15.00    7.50
   0 -11 -13   13.00    8.50
   2  -8 -13   26.90    8.40
   2  -8 -13   -2.80   11.10
   1  -9 -13   29.20    7.00
   1  -9 -13    9.60    8.50
   0 -10 -13    5.50    6.50
   0 -10 -13    8.60    7.00
  -1 -11 -13    8.50    6.70
   2  -7 -13   23.70    7.70
   2  -7 -13   20.60   10.80
   1  -8 -13   11.70    6.00
   1  -8 -13    0.90    7.60
   0  -9 -13    5.70    6.00
   0  -9 -13   -0.60    5.90
  -1 -10 -13   31.70    6.10
   3  -5 -13    9.60    9.30
   3  -5 -13   15.80   14.60
   2  -6 -13    9.70    7.00
   2  -6 -13    9.60    9.60
   1  -7 -13   11.00    6.80
   1  -7 -13    1.30    5.20
   0  -8 -13   22.00    5.60
   0  -8 -13    9.20    5.20
  -1  -9 -13    6.00    4.70
  -2 -10 -13   -4.70    6.00
   3  -4 -13    0.60    8.70
   3  -4 -13  -18.50   13.10
   2  -5 -13   19.50    6.60
   2  -5 -13   22.80    9.00
   1  -6 -13    1.70    5.00
   1  -6 -13    2.80    6.30
   0  -7 -13   14.30    5.00
   0  -7 -13   13.60    4.80
  -1  -8 -13    6.20    4.40
  -2  -9 -13    1.00    5.40
   3  -3 -13    7.10   13.30
   3  -3 -13   17.70    9.10
   2  -4 -13    2.90    5.90
   2  -4 -13    7.30    8.20
   1  -5 -13    0.90    4.60
   1  -5 -13    3.30    5.60
   0  -6 -13    9.40    5.50
   0  -6 -13   16.00    4.50
  -1  -7 -13    3.30    3.50
  -2  -8 -13    5.60    4.60
   3  -2 -13   11.90    8.20
   3  -2 -13   19.00   12.60
   2  -3 -13   80.49   10.70
   2  -3 -13   97.89   10.30
   1  -4 -13    9.40    4.50
   1  -4 -13    0.70    5.80
   0  -5 -13   17.30    4.30
   0  -5 -13   12.50    4.60
  -1  -6 -13    1.20    3.40
  -2  -7 -13    4.40    4.20
  -3  -8 -13    6.20    7.20
   3  -1 -13  -10.30    8.10
   3  -1 -13    0.20   12.20
   2  -2 -13    5.80    8.00
   2  -2 -13   -5.30    5.40
   1  -3 -13   32.30    6.40
   1  -3 -13   27.60    4.80
   0  -4 -13    0.40    3.60
   0  -4 -13   -5.00    3.70
  -1  -5 -13   32.10    5.50
  -2  -6 -13    6.10    3.80
  -3  -7 -13   29.30    6.60
  -3   0  13    0.70    7.60
  -3   0  13   -3.90    7.50
   3   0 -13   -0.90   12.30
   2  -1 -13   -1.70    8.10
   2  -1 -13    3.10    5.10
   1  -2 -13    7.10    5.20
   1  -2 -13    5.70    4.20
   0  -3 -13    3.40    3.60
   0  -3 -13    3.80    3.10
  -1  -4 -13    6.30    3.20
  -2  -5 -13   99.09    7.50
  -3  -6 -13   18.50    5.80
  -3  -1  13   -6.80    7.50
  -3  -1  13    2.30    7.10
   3   1 -13  -19.90   11.50
  -2   0  13   -7.50    4.30
  -2   0  13   -0.60    4.10
   2   0 -13   -3.10    7.30
   1  -1 -13  214.58   13.90
   1  -1 -13  248.38   11.90
   0  -2 -13   22.20    4.20
  -1  -3 -13  472.95   18.70
  -2  -4 -13   32.30    4.60
  -3  -5 -13   93.89    9.30
  -3  -2  13   12.90    6.80
  -3  -2  13   17.20    7.90
  -2  -1  13    9.30    4.50
  -2  -1  13    5.80    4.20
   2   1 -13    6.60    8.00
  -1   0  13   -4.60    3.50
  -1   0  13   -3.20    2.90
   1   0 -13    5.60    5.40
   0   1  13  122.19    7.30
   0   1  13  117.49    5.90
   0  -1 -13  109.79    9.10
   0  -1 -13  121.39    7.10
  -1  -2 -13   29.00    4.30
  -2  -3 -13  230.98   11.30
  -3  -4 -13   24.20    5.40
  -3  -3  13   20.90    7.00
  -2  -2  13   -4.40    4.00
  -2  -2  13    3.80    4.60
   2   2 -13    4.90    8.20
  -1  -1  13  243.08   12.30
  -1  -1  13  226.28   10.00
   1   1 -13  211.18   14.70
   0   0  13    0.90    2.00
   0   0 -13   -1.90    4.30
   0   0 -13    0.10    2.70
  -1  -1 -13   75.59    6.70
  -2  -2 -13    7.30    3.40
  -3  -3 -13    6.70    4.70
  -3  -4  13   -4.40    6.70
  -2  -3  13   90.89    8.00
   2   3 -13   88.69   12.80
  -1  -2  13   10.80    3.00
   1   2 -13   14.40    5.90
   0  -1  13  123.69    5.80
   0   1 -13  122.49    6.80
   0   1 -13  119.59   10.10
  -1   0 -13   -2.60    3.30
  -1   0 -13   -5.20    3.50
  -2  -1 -13   37.10    6.20
  -3  -2 -13   10.00    4.50
  -3  -5  13   13.30    6.80
  -2  -4  13   -2.10    4.00
   2   4 -13   -2.60   10.20
  -1  -3  13   23.00    3.50
   1   3 -13   32.70    7.30
   0  -2  13   22.90    3.30
   0   2 -13   27.00    3.30
   0   2 -13   24.90    6.30
  -1   1 -13   79.89    8.40
  -1   1 -13   70.89    6.40
  -2   0 -13   -0.10    3.70
  -2   0 -13   -1.50    3.90
  -3  -1 -13    3.30    4.30
  -4  -2 -13    9.10    6.50
   2   5 -13    4.50   11.30
   1   4 -13   15.40    8.20
   0  -3  13    2.40    2.10
   0   3 -13   -0.80    5.80
   0   3 -13    0.70    2.50
   1  -2  13   22.50    2.20
  -1   2 -13   27.70    6.10
  -1   2 -13   25.30    4.20
  -2   1 -13   31.40    4.50
  -2   1 -13   33.90    5.10
  -3   0 -13    4.50    4.10
  -3   0 -13    1.70    4.60
  -4  -1 -13    8.70    7.30
  -4  -1 -13    5.20    6.20
  -2  -6  13   13.20    4.80
  -1  -5  13    0.30    2.90
   1   5 -13   -4.60    8.60
   0  -4  13    3.50    2.60
   0   4 -13    1.90    2.70
   1  -3  13  447.66   14.30
  -1   3 -13  444.76   20.60
  -1   3 -13  455.25   17.50
  -2   2 -13    3.60    3.60
  -2   2 -13   11.70    4.60
  -3   1 -13    3.20    4.90
  -3   1 -13    3.40    4.30
  -4   0 -13    1.60    6.90
  -4   0 -13    2.90    6.10
  -2  -7  13    7.40    4.90
  -1  -6  13    2.70    3.10
   1   6 -13    3.80   10.20
   0  -5  13   17.30    2.90
   0   5 -13   18.50    7.60
   0   5 -13   12.70    3.00
   1  -4  13   10.80    1.80
  -1   4 -13    4.30    6.90
  -1   4 -13   12.40    4.40
  -2   3 -13  222.18   11.40
  -2   3 -13  237.18   13.30
  -3   2 -13    4.10    4.70
  -3   2 -13    8.40    4.70
  -4   1 -13   -2.90    6.20
  -4   1 -13    3.20    6.90
  -2  -8  13   21.60    5.90
  -1  -7  13    7.80    3.50
   1   7 -13   -9.70   11.30
   0  -6  13    9.20    2.60
   0   6 -13    8.90    3.50
   0   6 -13    0.20    8.70
   1  -5  13   30.10    3.50
  -1   5 -13   41.90    8.00
  -1   5 -13   17.60    3.60
  -2   4 -13   40.10    7.20
  -2   4 -13   36.30    4.90
  -3   3 -13   10.70    4.90
  -3   3 -13   11.80    5.30
  -4   2 -13   -1.30    6.60
  -4   2 -13   -2.10    7.00
  -2  -9  13    0.70    5.30
  -1  -8  13   11.80    3.80
   0  -7  13   18.10    3.00
   0   7 -13   21.10   10.00
   0   7 -13   16.00    4.20
   1  -6  13    3.70    2.70
  -1   6 -13    8.90    3.50
  -1   6 -13    9.40    8.10
  -2   5 -13   92.59    7.40
  -2   5 -13   99.49   12.10
  -3   4 -13   12.50    4.90
  -3   4 -13   20.50    6.60
  -1  -9  13    5.70    4.00
   0  -8  13   13.20    3.20
   0   8 -13   -3.30   10.10
   0   8 -13   13.10    4.20
   1  -7  13    0.50    2.50
  -1   7 -13    3.90    3.40
  -1   7 -13   -4.30    8.90
  -2   6 -13   10.50    4.00
  -2   6 -13    8.50    8.70
  -3   5 -13   87.09   13.90
  -3   5 -13   76.29    8.40
  -1 -10  13    4.20    4.90
   0  -9  13    3.80    3.30
   0   9 -13  -14.50   11.20
   0   9 -13    1.40    4.30
   1  -8  13    9.50    2.90
  -1   8 -13   12.60   10.30
  -1   8 -13    3.40    3.70
  -2   7 -13    5.50    3.90
  -2   7 -13   15.20   11.00
  -3   6 -13    9.00    5.20
   0 -10  13    6.50    4.20
   1  -9  13    9.70    3.40
  -1   9 -13    6.30    4.10
  -1   9 -13   17.80   12.00
  -2   8 -13    7.70    4.50
  -3   7 -13    8.70    5.40
   0 -11  13   12.50    5.20
   1 -10  13   24.70    4.90
  -1  10 -13   28.40    6.20
  -2   9 -13   -1.70    4.70
  -3   8 -13   10.60    6.20
   1 -11  13    7.70    5.10
  -1  11 -13   -3.50    6.30
  -2  10 -13    3.20    5.20
   1 -10 -14   10.70   11.60
   2  -8 -14  -12.30    9.30
   2  -8 -14   -8.00   12.70
   1  -9 -14   16.90    8.10
   1  -9 -14    1.80   10.00
   0 -10 -14    1.80    8.20
   2  -7 -14   23.70   12.20
   2  -7 -14    2.60    8.60
   1  -8 -14    2.80    6.90
   1  -8 -14    6.20    8.70
   0  -9 -14    5.50    6.90
  -1 -10 -14   -4.20    6.30
   2  -6 -14   -4.20    7.50
   2  -6 -14   -1.30   10.90
   1  -7 -14   15.40    6.30
   1  -7 -14    2.40    8.00
   0  -8 -14   -2.30    6.00
   0  -8 -14    4.40    6.50
  -1  -9 -14   16.70    5.70
   2  -5 -14   15.60    7.30
   2  -5 -14    9.00   10.10
   1  -6 -14   12.40    7.90
   1  -6 -14   25.30    6.10
   0  -7 -14   10.50    5.60
   0  -7 -14   12.30    5.60
  -1  -8 -14    6.80    5.10
  -2  -9 -14   16.40    6.00
   3  -3 -14    3.80   14.80
   3  -3 -14    3.20    8.80
   2  -4 -14   18.10   10.10
   2  -4 -14   11.80    6.50
   1  -5 -14   -6.90    5.10
   1  -5 -14    8.80    6.60
   0  -6 -14   19.90    5.40
   0  -6 -14   20.00    5.90
  -1  -7 -14    5.40    4.60
  -2  -8 -14   -4.70    5.10
   3  -2 -14    1.20    8.80
   3  -2 -14   -9.00   14.00
   2  -3 -14    9.50    6.30
   2  -3 -14   22.70   10.00
   1  -4 -14    2.50    6.20
   1  -4 -14    3.70    4.80
   0  -5 -14   24.30    5.60
   0  -5 -14   32.00    6.10
  -1  -6 -14    7.50    4.10
  -2  -7 -14   -0.20    4.70
  -3   1  14    9.70    8.30
  -3   1  14  -11.20    7.90
   3  -1 -14   14.80   14.80
   2  -2 -14   -5.70    5.80
   2  -2 -14    7.40    8.70
   1  -3 -14   17.20    6.60
   1  -3 -14   10.30    4.80
   0  -4 -14   -9.10    3.90
   0  -4 -14   -0.10    4.20
  -1  -5 -14   40.00    6.60
  -2  -6 -14    2.80    4.30
  -3  -7 -14    6.40    7.20
  -3   0  14    1.70    7.90
  -3   0  14    5.60    7.60
   3   0 -14   10.90   14.30
   2  -1 -14   -2.10    9.00
   1  -2 -14    0.40    4.30
   1  -2 -14    6.30    5.90
   0  -3 -14   19.40    4.50
   0  -3 -14   14.30    3.90
  -1  -4 -14    9.50    3.90
  -2  -5 -14   -4.20    4.10
  -3  -6 -14   -0.10    5.80
  -3  -1  14    0.80    7.90
  -3  -1  14   -3.80    7.00
   3   1 -14  -15.60   12.90
  -2   0  14   -2.60    5.20
  -2   0  14   11.30    4.90
   2   0 -14   11.90    8.70
  -1   1  14   11.80    3.90
   1  -1 -14    8.80    6.20
   0   2  14   71.19    5.30
   0  -2 -14   68.19    7.90
  -1  -3 -14    1.80    3.60
  -2  -4 -14    9.70    4.00
  -3  -5 -14   60.99    9.10
  -3  -2  14    4.50    8.00
  -3  -2  14    4.90    7.10
  -2  -1  14   12.00    4.80
   2   1 -14    3.70    9.50
  -1   0  14   94.99    9.30
  -1   0  14   96.59    7.30
   1   0 -14   99.59   11.10
   0   1  14  169.38    9.10
   0   1  14  163.28    7.30
   0  -1 -14  148.99   10.90
   0  -1 -14  168.48    8.60
  -1  -2 -14    5.90    3.80
  -2  -3 -14   31.00    4.90
  -3  -3  14   -8.30    6.70
  -2  -2  14    4.40    4.50
   2   2 -14   14.00   10.00
  -1  -1  14    5.80    4.20
  -1  -1  14   13.10    3.60
   1   1 -14    0.90    6.70
   0   0  14   14.80    2.60
   0   0 -14   15.60    5.20
   0   0 -14   13.50    3.50
  -1  -1 -14   71.69    7.90
  -1  -1 -14   76.49    8.50
  -2  -2 -14   -0.70    4.00
  -3  -3 -14    2.70    5.10
  -2  -3  14   16.70    4.90
   2   3 -14   11.00    9.80
  -1  -2  14   -1.60    3.20
   1   2 -14   -4.20    6.80
   0  -1  14  167.48    7.20
   0   1 -14  174.38    8.20
   0   1 -14  138.99   12.00
  -1   0 -14   67.19    8.40
  -1   0 -14   64.99    7.60
  -2  -1 -14    9.10    4.20
  -3  -2 -14   -1.40    5.10
  -2  -4  14   12.30    5.00
   2   4 -14    2.20   11.40
  -1  -3  14   10.50    3.50
   1   3 -14    7.80    8.10
   0  -2  14   69.19    4.80
   0   2 -14   77.29   10.30
   0   2 -14   56.39    5.50
  -1   1 -14   71.99    8.00
  -1   1 -14   66.49    9.10
  -2   0 -14    2.90    4.20
  -2   0 -14    1.20    4.30
  -3  -1 -14    4.80    5.10
  -2  -5  14   -7.00    4.50
   2   5 -14  -11.70   13.00
  -1  -4  14   10.60    3.50
   1   4 -14   10.20    8.30
   0  -3  14   21.60    3.40
   0   3 -14   22.30    3.50
   0   3 -14   14.70    6.30
  -1   2 -14   15.60    5.40
  -1   2 -14    1.80    5.70
  -2   1 -14   13.20    5.10
  -2   1 -14    4.20    4.10
  -3   0 -14    1.30    4.80
  -3   0 -14    2.00    5.30
  -2  -6  14    2.50    5.20
  -1  -5  14   -3.20    3.30
   1   5 -14  -17.40   10.30
   0  -4  14   -3.10    2.80
   0   4 -14  -12.30    7.40
   0   4 -14    1.20    3.10
  -1   3 -14    1.20    4.40
  -1   3 -14   -4.10    6.10
  -2   2 -14    2.90    5.10
  -2   2 -14    1.80    4.00
  -3   1 -14   26.40    6.00
  -3   1 -14   20.50    5.40
  -2  -7  14    4.20    5.60
  -1  -6  14   28.80    4.20
   1   6 -14   15.80   11.40
   0  -5  14   33.70    4.60
   0   5 -14   33.50    4.30
   0   5 -14   36.10    9.10
   1  -4  14    5.90    1.70
  -1   4 -14    1.70    3.50
  -1   4 -14    6.40    6.70
  -2   3 -14   29.00    4.90
  -3   2 -14   -1.70    4.90
  -3   2 -14   -1.00    5.50
  -2  -8  14    2.20    5.70
  -1  -7  14   12.80    4.10
   1   7 -14    5.30   12.00
   0  -6  14   24.60    3.30
   0   6 -14   17.30    4.50
   1  -5  14   28.50    3.50
  -1   5 -14   25.00    4.30
  -1   5 -14   18.50    8.20
  -2   4 -14   10.30    4.20
  -2   4 -14    3.80    6.50
  -3   3 -14   -5.60    5.90
  -3   3 -14   -5.70    4.80
  -1  -8  14    2.50    4.20
   1   8 -14    5.90   12.70
   0  -7  14    6.60    3.10
   0   7 -14   14.20   10.20
   0   7 -14    6.30    4.10
   1  -6  14    4.20    2.60
  -1   6 -14    5.60    3.90
  -1   6 -14  -11.60    8.00
  -2   5 -14   -5.80    7.50
  -2   5 -14    2.40    4.10
  -3   4 -14    1.60    5.20
  -3   4 -14   -6.80    7.20
  -1  -9  14   11.60    4.80
   0  -8  14    1.70    3.40
   0   8 -14    4.20    4.50
   0   8 -14  -10.40   11.30
   1  -7  14    7.70    2.60
  -1   7 -14   -9.20    9.40
  -1   7 -14   11.90    4.00
  -2   6 -14  -14.50    8.40
  -2   6 -14    0.70    4.10
  -3   5 -14   57.89   10.90
  -3   5 -14   32.90    6.00
  -1 -10  14    7.70    5.40
   0  -9  14    1.60    3.60
   0   9 -14    1.90   12.20
   0   9 -14   -2.70    4.90
   1  -8  14    5.80    3.00
  -1   8 -14    4.90    4.20
  -1   8 -14   -0.40   10.70
  -2   7 -14    8.00    4.60
  -2   7 -14   -0.50   10.30
  -3   6 -14   -3.40    5.10
   0 -10  14    9.60    4.70
   1  -9  14    9.90    3.80
  -1   9 -14   26.80   12.60
  -1   9 -14   21.40    5.10
  -2   8 -14    4.30    4.80
  -3   7 -14   -0.10    5.90
   1 -10  14   -1.60    4.40
  -1  10 -14   10.00    6.50
  -2   9 -14   22.50    5.80
   1  -8 -15    9.70    8.10
   1  -8 -15    8.40   10.80
   0  -9 -15   -9.70    8.20
   2  -6 -15   -4.00   12.90
   2  -6 -15    3.80    9.20
   1  -7 -15    0.60    9.20
   1  -7 -15    5.80    7.30
   0  -8 -15   17.30    7.40
  -1  -9 -15    0.00    6.60
   2  -5 -15   -7.40    8.00
   2  -5 -15   15.70   12.00
   1  -6 -15    1.50    6.60
   1  -6 -15  -14.00    8.50
   0  -7 -15   16.10    6.80
  -1  -8 -15    1.00    5.90
   2  -4 -15   12.30    7.70
   2  -4 -15    3.20   10.90
   1  -5 -15   -3.30    6.20
   1  -5 -15    3.80    8.10
   0  -6 -15    0.10    5.70
  -1  -7 -15   -3.90    5.10
  -2  -8 -15   -0.80    6.00
   2  -3 -15   11.90    7.10
   2  -3 -15   -6.30   10.50
   1  -4 -15    7.80    5.40
   1  -4 -15    3.10    7.60
   0  -5 -15    3.20    5.50
  -1  -6 -15  -10.30    4.80
  -2  -7 -15   -6.50    5.30
   2  -2 -15    4.00    6.60
   2  -2 -15    3.80   10.50
   1  -3 -15   -9.50    6.70
   1  -3 -15   -0.10    5.10
   0  -4 -15    6.50    5.70
  -1  -5 -15    0.20    4.40
  -2  -6 -15   -2.10    5.10
  -2   1  15   29.90    6.90
  -2   1  15   40.90    7.40
   2  -1 -15   33.00   10.50
   1  -2 -15    3.40    4.80
   1  -2 -15   -5.20    6.50
   0  -3 -15    3.90    5.10
  -1  -4 -15    5.90    4.10
  -2   0  15   -5.30    5.80
  -2   0  15    9.80    6.30
   2   0 -15   12.50    9.70
  -1   1  15   16.40    4.80
  -1   1  15    9.50    4.10
   1  -1 -15    8.60    7.40
   0   2  15   -3.10    3.70
   0   2  15    3.30    2.80
   0  -2 -15   -6.70    3.80
  -1  -3 -15   -6.80    4.20
  -2  -4 -15   42.30    6.10
  -3  -5 -15   13.10    6.80
  -2  -1  15   32.80    6.50
  -2  -1  15   28.00    7.00
   2   1 -15   29.40   11.50
  -1   0  15    2.00    4.40
  -1   0  15    3.60    3.70
   1   0 -15    2.20    7.60
   0   1  15   21.60    2.90
   0  -1 -15   22.30    6.20
   0  -1 -15   20.20    3.90
  -1  -2 -15   18.50    4.80
  -2  -3 -15   49.90    8.10
  -3  -4 -15    7.90    5.90
  -2  -2  15    8.60    5.60
   2   2 -15   21.20   11.10
  -1  -1  15    9.60    3.70
   1   1 -15    3.70    7.50
   0   0  15    0.30    2.50
   0   0 -15    4.40    5.50
   0   0 -15   -6.20    3.20
  -1  -1 -15   33.00    5.80
  -1  -1 -15   32.00    5.50
  -2  -2 -15   29.50    5.40
  -3  -3 -15    9.90    6.00
  -2  -3  15    9.60    5.60
   2   3 -15    0.10   11.70
  -1  -2  15   10.10    3.80
   1   2 -15  -13.60    7.90
   0  -1  15   27.60    3.20
   0   1 -15   19.20    3.70
   0   1 -15   13.70    6.10
  -1   0 -15   -7.30    5.00
  -1   0 -15   -2.20    4.80
  -2  -1 -15   -7.90    4.70
  -2  -1 -15    5.00    4.30
  -3  -2 -15   14.30    5.80
  -2  -4  15    0.10    5.70
   2   4 -15    2.90   12.40
  -1  -3  15    3.30    3.70
   1   3 -15  -13.70    9.10
   0  -2  15   -5.60    2.80
   0   2 -15    5.20    6.60
   0   2 -15   -0.70    3.10
  -1   1 -15   36.10    5.30
  -1   1 -15   27.30    6.40
  -2   0 -15    3.40    4.50
  -2   0 -15    9.70    5.20
  -3  -1 -15   -5.30    5.60
  -3  -1 -15    2.70    5.60
  -2  -5  15    7.30    6.30
   2   5 -15  -15.70   14.20
  -1  -4  15    0.10    3.70
   1   4 -15   -1.30   10.50
   0  -3  15    1.20    2.90
   0   3 -15    1.70    3.30
   0   3 -15    7.30    7.80
  -1   2 -15   44.00    7.30
  -1   2 -15   25.40    5.20
  -2   1 -15    2.50    4.20
  -2   1 -15   -8.20    5.20
  -3   0 -15   12.30    5.80
  -3   0 -15   -5.20    5.70
  -2  -6  15    8.60    6.80
  -1  -5  15    0.50    3.70
   1   5 -15  -21.30   10.50
   0  -4  15    8.70    2.70
   0   4 -15    4.90    3.70
   0   4 -15   -7.90    8.10
  -1   3 -15   -6.30    6.70
  -1   3 -15    6.00    4.20
  -2   2 -15   25.80    6.50
  -2   2 -15   33.10    4.80
  -3   1 -15    2.50    5.60
  -3   1 -15   -5.20    6.00
  -1  -6  15    0.00    4.10
   1   6 -15   -4.40   12.90
   0  -5  15   11.00    2.90
   0   5 -15   14.10    4.70
   0   5 -15   22.80    9.70
  -1   4 -15   12.00    4.10
  -1   4 -15   10.80    7.90
  -2   3 -15   35.20    7.40
  -2   3 -15   35.00    5.00
  -3   2 -15    9.80    6.60
  -3   2 -15   13.40    5.50
  -1  -7  15    4.40    4.50
   1   7 -15    4.70   13.70
   0  -6  15    1.10    2.80
   0   6 -15   -6.70   10.40
   0   6 -15    4.30    4.30
  -1   5 -15   -4.10    4.00
  -1   5 -15   -5.00    8.40
  -2   4 -15   53.79    8.90
  -2   4 -15   40.20    5.60
  -3   3 -15    4.20    5.40
  -3   3 -15    7.30    7.50
  -1  -8  15   17.40    5.20
   1   8 -15   16.40   14.70
   0  -7  15   11.70    3.20
   0   7 -15    5.80   11.70
   0   7 -15    9.50    4.40
  -1   6 -15   -3.30    9.40
  -1   6 -15    0.80    4.20
  -2   5 -15  -10.00    8.50
  -2   5 -15    7.20    4.40
  -3   4 -15   -3.40    8.70
  -3   4 -15    3.50    5.60
  -1  -9  15   10.10    5.70
   0  -8  15    9.90    3.80
   0   8 -15   -4.50   12.80
   0   8 -15    7.20    4.80
  -1   7 -15  -19.40   10.60
  -1   7 -15    3.70    4.50
  -2   6 -15    0.40    9.90
  -2   6 -15   -0.70    4.50
  -3   5 -15   10.40    5.60
   0  -9  15   -0.90    4.20
   0   9 -15   -3.70   14.20
   0   9 -15  -10.60    5.30
  -1   8 -15   15.40   12.30
  -1   8 -15   -0.20    4.80
  -2   7 -15    1.40   12.80
  -2   7 -15    0.90    4.90
  -1   9 -15   16.10   13.90
  -1   9 -15   -5.10    5.20
  -2   8 -15  -11.80    5.00
   1  -7 -16   12.00    9.90
   1  -7 -16    7.10   11.50
   0  -8 -16   -1.70    8.50
   1  -6 -16    9.00    7.90
   1  -6 -16   -7.50   10.10
   0  -7 -16   -7.00    7.60
  -1  -8 -16    0.30    6.70
   2  -4 -16    4.50    9.10
   2  -4 -16   17.40   13.00
   1  -5 -16   18.30    7.20
   1  -5 -16   18.30    9.90
   0  -6 -16    6.40    7.20
   2  -3 -16   -1.00   12.60
   2  -3 -16    9.70    8.00
   1  -4 -16    3.70    8.70
   1  -4 -16    8.90    6.50
   0  -5 -16    3.10    6.70
  -1  -6 -16    8.30    5.80
  -2  -7 -16   11.70    6.80
  -2   2  16    2.80    7.50
   2  -2 -16    6.30   12.50
   1  -3 -16   48.00    9.70
   1  -3 -16   79.09   10.00
   0  -4 -16   -3.80    6.40
  -1  -5 -16    2.60    5.50
  -2  -6 -16    1.10    6.10
  -2   1  16   20.70    7.70
  -2   1  16   28.20    7.70
   2  -1 -16    9.70   11.80
  -1   2  16   -1.30    4.80
  -1   2  16    4.50    5.20
   1  -2 -16   -3.60    7.70
   0  -3 -16    3.20    4.60
   0  -3 -16    2.90    6.10
  -1  -4 -16   13.20    6.10
  -2  -5 -16   20.30    6.10
  -2   0  16   -1.10    7.00
  -2   0  16   -1.80    6.50
   2   0 -16   15.60   11.70
  -1   1  16    2.70    4.50
  -1   1  16    3.40    5.30
   1  -1 -16  -10.90    8.40
   0  -2 -16   23.20    7.10
   0  -2 -16   26.50    4.70
  -1  -3 -16   11.20    5.30
  -2  -4 -16    4.50    5.90
  -2  -1  16   26.80    6.90
  -2  -1  16   12.50    7.20
   2   1 -16   10.20   11.80
  -1   0  16   12.70    5.30
  -1   0  16   12.40    4.40
   1   0 -16   -0.20    8.00
   0  -1 -16    9.80    3.80
   0  -1 -16   12.50    6.50
  -1  -2 -16   -2.90    5.00
  -1  -2 -16   -1.30    5.70
  -2  -3 -16   12.00    5.60
   2   2 -16   28.40   13.00
  -1  -1  16   -0.70    4.00
   1   1 -16   -3.30    9.20
   0   0 -16   -1.90    3.50
   0   0 -16    3.30    6.20
  -1  -1 -16   26.30    6.50
  -1  -1 -16   34.40    5.80
  -2  -2 -16    0.40    5.60
  -3  -3 -16    7.30    7.10
  -2  -3  16    9.40    7.00
   2   3 -16   -1.40   13.90
  -1  -2  16    2.00    4.00
   0  -1  16    4.50    3.40
   0   1 -16   -1.80    6.80
   0   1 -16   -0.30    3.30
  -1   0 -16   17.60    6.40
  -1   0 -16   14.50    4.90
  -2  -1 -16   -1.80    5.30
  -2  -1 -16   -5.70    5.80
  -3  -2 -16    4.20    6.50
  -3  -2 -16    3.60    6.20
  -2  -4  16   -6.10    7.40
   2   4 -16  -13.80   15.60
  -1  -3  16   67.29    7.80
   1   3 -16   72.19   13.10
   0  -2  16   19.00    3.90
   0   2 -16   19.20    7.70
   0   2 -16   22.40    3.60
  -1   1 -16   28.20    5.40
  -1   1 -16   31.30    7.50
  -2   0 -16   -0.50    5.80
  -2   0 -16   -4.50    5.20
  -3  -1 -16    0.20    6.70
  -3  -1 -16   14.60    6.50
  -2  -5  16    4.30    7.60
  -1  -4  16    5.80    4.50
   1   4 -16   10.90   11.50
   0  -3  16   13.00    3.10
   0   3 -16   25.10    9.60
   0   3 -16   12.10    3.70
  -1   2 -16    2.20    4.40
  -1   2 -16   -1.50    7.30
  -2   1 -16    3.90    6.70
  -2   1 -16    1.10    4.90
  -3   0 -16   12.20    7.40
  -3   0 -16   21.90    6.70
  -1  -5  16   14.50    4.90
   1   5 -16    9.00   13.70
   0  -4  16    1.60    2.90
   0   4 -16    7.30    4.10
   0   4 -16   -9.30    9.80
  -1   3 -16   10.10    4.60
  -1   3 -16    9.80    7.60
  -2   2 -16    4.00    5.00
  -2   2 -16    9.60    7.20
  -3   1 -16    6.00    6.30
  -3   1 -16   -0.10    7.10
  -1  -6  16    5.00    4.70
   1   6 -16    2.70   14.00
   0  -5  16    7.50    2.90
   0   5 -16    0.80    4.30
   0   5 -16   20.00   10.90
  -1   4 -16   12.20    8.50
  -1   4 -16   12.10    4.40
  -2   3 -16  -11.10    7.40
  -2   3 -16   19.00    5.10
  -3   2 -16   10.60    7.70
  -3   2 -16    7.60    6.00
  -1  -7  16   11.30    5.20
   1   7 -16    4.80   14.50
   0  -6  16   -0.20    3.00
   0   6 -16    5.70    4.10
   0   6 -16   -7.50   11.90
  -1   5 -16    6.80    4.50
  -1   5 -16   16.80    9.80
  -2   4 -16   -7.80    8.50
  -2   4 -16   -9.90    4.60
  -3   3 -16  -16.40    8.90
  -3   3 -16    9.00    6.10
   0  -7  16    1.80    3.40
   0   7 -16    1.70   12.60
   0   7 -16   -2.00    4.40
  -1   6 -16    5.70    4.80
  -1   6 -16   -9.50   10.80
  -2   5 -16    7.30    5.00
  -2   5 -16    5.10    9.90
   0  -8  16    4.00    4.00
   0   8 -16    5.10    4.90
   0   8 -16   -7.90   13.70
  -1   7 -16   -6.50   11.90
  -1   7 -16    2.50    5.00
  -2   6 -16   -5.40    5.10
  -2   6 -16    6.20   11.30
  -1   8 -16   17.60   14.10
  -1   8 -16    0.80    5.40
  -2   7 -16    4.40    5.80
   0  -7 -17   33.20   10.00
   1  -5 -17   10.60   11.70
   0  -6 -17  -11.70    8.40
  -1  -7 -17   47.10    9.40
   1  -4 -17  -16.80    9.40
   0  -5 -17   21.00    8.40
  -1  -6 -17    6.10    7.40
  -1   3  17   10.70    5.70
   1  -3 -17   -8.50    9.30
  -1  -5 -17   17.70    7.20
  -2   1  17    2.50    8.60
  -2   1  17   -1.50    8.40
  -1   2  17    6.20    5.30
  -1   2  17    6.60    5.90
   1  -2 -17   -0.40    9.90
   0  -3 -17    5.20    7.40
  -1  -4 -17   -8.50    6.50
  -2  -5 -17    9.40    7.80
  -2   0  17   -2.30    8.20
  -2   0  17   -1.50    8.10
  -1   1  17    4.60    5.70
  -1   1  17    3.60    4.90
   1  -1 -17    8.40    9.50
   0  -2 -17   -0.60    7.50
  -1  -3 -17   -0.10    6.60
  -2  -4 -17    1.50    6.60
  -2  -1  17   -8.20    7.70
  -1   0  17   -6.60    4.50
   1   0 -17   18.20    9.70
   0  -1 -17   50.29    9.70
  -1  -2 -17    8.50    5.80
  -1  -2 -17    1.40    6.70
  -2  -3 -17    1.50    6.80
  -1  -1  17    3.80    4.70
   1   1 -17    8.90   10.60
   0   0 -17  -14.40    8.00
  -1  -1 -17  -10.20    7.00
  -1  -1 -17   -2.00    5.20
  -2  -2 -17   12.50    7.00
  -2  -2 -17   -2.80    6.00
  -1  -2  17    7.30    4.80
   1   2 -17  -14.90   10.40
   0   1 -17   35.80    9.40
  -1   0 -17    2.40    5.10
  -1   0 -17    5.40    7.40
  -2  -1 -17    4.10    6.90
  -2  -1 -17    1.10    5.90
  -1  -3  17    2.90    4.50
   1   3 -17    1.10   12.30
   0   2 -17    5.90    9.70
  -1   1 -17  -12.40    7.80
  -1   1 -17   -3.50    4.90
  -2   0 -17  -10.20    7.40
  -2   0 -17   -3.80    5.70
   1   4 -17   19.60   13.50
   0   3 -17   25.30   11.30
  -1   2 -17   -5.90    8.60
  -1   2 -17    9.00    5.00
  -2   1 -17    8.70    7.90
  -2   1 -17    8.00    5.70
  -1  -5  17    3.30    4.90
   1   5 -17    7.20   14.50
   0   4 -17    0.60   11.30
  -1   3 -17    1.40    4.60
  -1   3 -17   10.70    9.40
  -2   2 -17   11.50    8.30
  -2   2 -17    9.30    5.70
  -1  -6  17    5.90    5.10
   0   5 -17    2.40   12.30
  -1   4 -17    7.40    4.70
  -1   4 -17    4.40    9.80
  -2   3 -17   22.10    9.60
  -2   3 -17    9.00    6.00
   0   6 -17   -1.60   13.60
  -1   5 -17    7.10   11.60
  -2   4 -17   -1.20    5.50
  -2   4 -17    6.60   10.30
   0   7 -17    0.00   14.70
  -1   6 -17    4.90   12.70
  -1   6 -17   12.90    5.40
  -2   5 -17    8.30    6.00
  -2   5 -17   18.70   11.90
  -1   7 -17   35.10    6.40
   0  -5 -18    1.10   10.40
   1  -3 -18   23.80   12.70
   0  -4 -18   44.30   10.80
  -1  -5 -18   -0.10    8.50
   1  -2 -18   42.20   13.60
   0  -3 -18   29.10   10.10
  -1  -4 -18   -0.90    8.30
   1  -1 -18   -4.30   11.50
   0  -2 -18   21.40    9.80
  -1  -3 -18    2.80    6.30
  -1  -3 -18    9.60    7.70
   1   0 -18    5.40   12.60
   0  -1 -18   18.00    9.40
  -1  -2 -18    7.00    6.30
  -1  -2 -18   19.40    8.40
  -1  -1  18    0.10    8.10
   1   1 -18   -0.30   12.20
   0   0 -18   22.70   10.60
  -1  -1 -18   34.80    9.70
  -1  -1 -18   33.70    6.40
  -2  -2 -18    1.10    8.50
  -2  -2 -18    4.20    7.20
  -1  -2  18   37.00    6.20
   1   2 -18   22.30   14.20
  -1   0 -18   18.10    9.70
  -1   0 -18    7.10    5.70
  -2  -1 -18   23.90    9.10
  -2  -1 -18   14.60    7.30
  -1  -3  18   10.40    5.10
   1   3 -18   -8.90   14.70
   0   2 -18   15.50   11.60
  -1   1 -18   19.40    5.80
  -1   1 -18   40.40   10.10
  -2   0 -18    4.20    6.90
  -2   0 -18   14.90    9.10
   0   3 -18    9.10   11.90
  -1   2 -18   13.30   10.00
  -1   2 -18    4.10    5.60
  -2   1 -18   -0.90    9.60
  -2   1 -18    3.80    6.60
   0   4 -18   44.00   13.50
  -1   3 -18    1.60   10.90
  -1   3 -18    2.30    5.20
  -2   2 -18    2.80   10.50
  -2   2 -18    2.80    6.50
   0   5 -18  -24.30   13.50
  -1   4 -18    3.70    5.40
  -1   4 -18  -13.60   11.50
  -1   5 -18    6.80   12.90
  -1   5 -18    1.40    5.50
   0  -1 -19   12.00   12.40
  -1  -2 -19    4.10   10.40
   0   0 -19    7.80   12.60
  -1  -1 -19   -0.80   11.10
  -1  -1 -19    2.60    6.50
   0   1 -19   14.40   14.10
  -1   0 -19  -12.90   11.40
  -1   0 -19    6.60    6.40
  -1   1 -19   24.40   12.40
  -1   1 -19    7.30    6.40
  -1   2 -19    9.20    5.70
   0   0   0    0.00    0.00

_computing_structure_solution     'SHELXT 2014/5 (Sheldrick, 2014)'
;
_shelx_hkl_checksum              50027
_olex2_submission_special_instructions 'No special instructions were received'
loop_
_space_group_symop_operation_xyz
'x, y, z'
'-x, -y, -z'
loop_
_atom_site_label
_atom_site_type_symbol
_atom_site_fract_x
_atom_site_fract_y
_atom_site_fract_z
_atom_site_U_iso_or_equiv
_atom_site_adp_type
_atom_site_occupancy
_atom_site_site_symmetry_order
_atom_site_calc_flag
_atom_site_refinement_flags_posn
_atom_site_refinement_flags_adp
_atom_site_refinement_flags_occupancy
_atom_site_disorder_assembly
_atom_site_disorder_group
C00B C 0.8482(5) 0.03304(15) 0.37897(13) 0.0502(5) Uani 1 1 d . . . . .
C00C C 0.8484(5) 0.46728(15) -0.12093(13) 0.0508(5) Uani 1 1 d . . . . .
C00D C 0.3767(5) 0.34889(15) 0.35857(14) 0.0526(5) Uani 1 1 d . . . . .
H00D H 0.2728 0.4184 0.3538 0.063 Uiso 1 1 calc R . . . .
C00E C 0.3764(5) 0.15081(15) -0.14111(14) 0.0533(5) Uani 1 1 d . . . . .
H00E H 0.2734 0.0813 -0.1456 0.064 Uiso 1 1 calc R . . . .
C00F C 0.2896(5) 0.13869(15) 0.02695(14) 0.0533(5) Uani 1 1 d . . . . .
C00G C 0.2905(5) 0.36117(15) 0.52686(14) 0.0525(5) Uani 1 1 d . . . . .
C00H C 0.6465(5) 0.18767(16) 0.28667(13) 0.0545(5) Uani 1 1 d . . . . .
H00H H 0.7233 0.1493 0.2337 0.065 Uiso 1 1 calc R . . . .
C00I C 0.6472(5) 0.31218(16) -0.21338(13) 0.0545(5) Uani 1 1 d . . . . .
H00I H 0.7247 0.3504 -0.2664 0.065 Uiso 1 1 calc R . . . .
C00J C 0.4914(6) 0.20883(16) -0.21962(14) 0.0612(5) Uani 1 1 d . . . . .
H00J H 0.4638 0.1782 -0.2770 0.073 Uiso 1 1 calc R . . . .
C00K C 0.4913(5) 0.29105(16) 0.28032(14) 0.0599(5) Uani 1 1 d . . . . .
H00K H 0.4639 0.3219 0.2229 0.072 Uiso 1 1 calc R . . . .
C002 C 0.6875(4) 0.14119(13) 0.37264(12) 0.0428(4) Uani 1 1 d . . . . .
C004 C 0.6874(4) 0.35855(13) -0.12754(12) 0.0426(4) Uani 1 1 d . . . . .
C005 C 0.4175(4) 0.30245(13) 0.44471(12) 0.0430(4) Uani 1 1 d . . . . .
C006 C 0.5738(4) 0.19856(13) 0.45226(12) 0.0432(4) Uani 1 1 d . . . . .
H006 H 0.6020 0.1678 0.5097 0.052 Uiso 1 1 calc R . . . .
C007 C 0.4166(4) 0.19750(13) -0.05544(12) 0.0436(4) Uani 1 1 d . . . . .
C008 C 0.5742(4) 0.30169(13) -0.04784(12) 0.0432(4) Uani 1 1 d . . . . .
H008 H 0.6027 0.3323 0.0095 0.052 Uiso 1 1 calc R . . . .
N00A N 0.1837(5) 0.09288(14) 0.09218(13) 0.0740(5) Uani 1 1 d . . . . .
N001 N 0.9742(5) -0.05339(14) 0.38424(13) 0.0688(5) Uani 1 1 d . . . . .
N003 N 0.9752(5) 0.55346(14) -0.11600(13) 0.0685(5) Uani 1 1 d . . . . .
N009 N 0.1843(5) 0.40699(15) 0.59222(14) 0.0746(5) Uani 1 1 d . . . . .
loop_
_atom_site_aniso_label
_atom_site_aniso_U_11
_atom_site_aniso_U_22
_atom_site_aniso_U_33
_atom_site_aniso_U_23
_atom_site_aniso_U_13
_atom_site_aniso_U_12
C00B 0.0478(11) 0.0485(11) 0.0548(12) -0.0042(8) -0.0061(9) -0.0018(8)
C00C 0.0482(11) 0.0488(11) 0.0555(12) 0.0070(8) -0.0056(9) 0.0008(8)
C00D 0.0514(11) 0.0450(10) 0.0617(13) 0.0085(9) -0.0063(10) 0.0004(8)
C00E 0.0516(12) 0.0465(10) 0.0619(13) -0.0073(9) -0.0050(10) -0.0025(8)
C00F 0.0525(12) 0.0485(10) 0.0586(13) 0.0015(9) -0.0011(10) -0.0024(8)
C00G 0.0510(12) 0.0477(10) 0.0580(13) -0.0017(9) 0.0002(10) 0.0002(8)
C00H 0.0550(12) 0.0606(12) 0.0472(11) -0.0048(9) -0.0001(9) -0.0007(9)
C00I 0.0550(12) 0.0615(12) 0.0463(11) 0.0061(9) 0.0005(9) -0.0027(9)
C00J 0.0698(14) 0.0657(12) 0.0485(12) -0.0112(9) -0.0060(10) -0.0041(10)
C00K 0.0682(14) 0.0637(12) 0.0481(12) 0.0111(9) -0.0064(10) 0.0027(10)
C002 0.0372(9) 0.0422(9) 0.0491(11) -0.0010(7) -0.0042(8) -0.0048(7)
C004 0.0367(9) 0.0408(9) 0.0504(11) 0.0018(7) -0.0040(8) 0.0036(7)
C005 0.0369(9) 0.0418(9) 0.0501(11) -0.0002(7) -0.0017(8) -0.0041(7)
C006 0.0402(10) 0.0443(9) 0.0452(10) 0.0029(7) -0.0050(8) -0.0062(7)
C007 0.0379(9) 0.0432(9) 0.0491(11) 0.0002(8) -0.0001(8) 0.0034(7)
C008 0.0412(10) 0.0431(9) 0.0453(10) -0.0035(7) -0.0041(8) 0.0037(7)
N00A 0.0850(14) 0.0678(11) 0.0671(12) 0.0107(9) 0.0082(10) -0.0115(10)
N001 0.0741(13) 0.0573(10) 0.0755(13) -0.0066(8) -0.0093(10) 0.0079(9)
N003 0.0743(13) 0.0547(10) 0.0770(13) 0.0087(8) -0.0104(10) -0.0108(9)
N009 0.0855(14) 0.0686(12) 0.0680(13) -0.0090(9) 0.0067(10) 0.0096(10)
loop_
_atom_type_symbol
_atom_type_description
_atom_type_scat_dispersion_real
_atom_type_scat_dispersion_imag
_atom_type_scat_source
C C 0.0033 0.0016 'International Tables Vol C Tables 4.2.6.8 and 6.1.1.4'
H H 0.0000 0.0000 'International Tables Vol C Tables 4.2.6.8 and 6.1.1.4'
N N 0.0061 0.0033 'International Tables Vol C Tables 4.2.6.8 and 6.1.1.4'
loop_
_geom_angle_atom_site_label_1
_geom_angle_atom_site_label_2
_geom_angle_atom_site_label_3
_geom_angle
_geom_angle_site_symmetry_1
_geom_angle_site_symmetry_3
_geom_angle_publ_flag
N001 C00B C002 179.6(2) . . ?
N003 C00C C004 179.7(2) . . ?
C00K C00D H00D 120.2 . . ?
C00K C00D C005 119.68(18) . . ?
C005 C00D H00D 120.2 . . ?
C00J C00E H00E 120.3 . . ?
C00J C00E C007 119.41(18) . . ?
C007 C00E H00E 120.3 . . ?
N00A C00F C007 178.8(2) . . ?
N009 C00G C005 178.9(2) . . ?
C00K C00H H00H 120.1 . . ?
C00K C00H C002 119.79(18) . . ?
C002 C00H H00H 120.1 . . ?
C00J C00I H00I 120.1 . . ?
C00J C00I C004 119.86(17) . . ?
C004 C00I H00I 120.1 . . ?
C00E C00J C00I 120.57(19) . . ?
C00E C00J H00J 119.7 . . ?
C00I C00J H00J 119.7 . . ?
C00D C00K C00H 120.59(18) . . ?
C00D C00K H00K 119.7 . . ?
C00H C00K H00K 119.7 . . ?
C00H C002 C00B 119.62(17) . . ?
C00H C002 C006 120.33(17) . . ?
C006 C002 C00B 120.05(16) . . ?
C00I C004 C00C 119.90(16) . . ?
C008 C004 C00C 119.58(16) . . ?
C008 C004 C00I 120.52(17) . . ?
C00D C005 C00G 120.01(17) . . ?
C006 C005 C00D 120.41(17) . . ?
C006 C005 C00G 119.56(16) . . ?
C002 C006 H006 120.4 . . ?
C005 C006 C002 119.19(16) . . ?
C005 C006 H006 120.4 . . ?
C00E C007 C00F 119.78(17) . . ?
C00E C007 C008 120.79(17) . . ?
C008 C007 C00F 119.42(17) . . ?
C004 C008 C007 118.85(17) . . ?
C004 C008 H008 120.6 . . ?
C007 C008 H008 120.6 . . ?
loop_
_geom_bond_atom_site_label_1
_geom_bond_atom_site_label_2
_geom_bond_distance
_geom_bond_site_symmetry_2
_geom_bond_publ_flag
C00B C002 1.443(3) . ?
C00B N001 1.150(2) . ?
C00C C004 1.454(3) . ?
C00C N003 1.150(2) . ?
C00D H00D 0.9300 . ?
C00D C00K 1.382(3) . ?
C00D C005 1.395(3) . ?
C00E H00E 0.9300 . ?
C00E C00J 1.385(3) . ?
C00E C007 1.392(3) . ?
C00F C007 1.448(3) . ?
C00F N00A 1.148(3) . ?
C00G C005 1.446(3) . ?
C00G N009 1.151(3) . ?
C00H H00H 0.9300 . ?
C00H C00K 1.383(3) . ?
C00H C002 1.393(3) . ?
C00I H00I 0.9300 . ?
C00I C00J 1.387(3) . ?
C00I C004 1.393(3) . ?
C00J H00J 0.9300 . ?
C00K H00K 0.9300 . ?
C002 C006 1.395(3) . ?
C004 C008 1.391(3) . ?
C005 C006 1.392(3) . ?
C006 H006 0.9300 . ?
C007 C008 1.401(3) . ?
C008 H008 0.9300 . ?
