#------------------------------------------------------------------------------
#$Date: 2020-01-31 02:29:41 +0200 (Fri, 31 Jan 2020) $
#$Revision: 247396 $
#$URL: file:///home/coder/svn-repositories/cod/cif/1/55/71/1557196.cif $
#------------------------------------------------------------------------------
#
# This file is available in the Crystallography Open Database (COD),
# http://www.crystallography.net/
#
# All data on this site have been placed in the public domain by the
# contributors.
#
data_1557196
loop_
_publ_author_name
'Shibuya, Yusuke'
'Aonuma, Kazuhiro'
'Kimura, Tomohiro'
'Kaneko, Takuro'
'Fujiwara, Wataru'
'Yamaguchi, Yuji'
'Kumaki, Daisuke'
'Tokito, Shizuo'
'Katagiri, Hiroshi'
_publ_section_title
;
 Linear Biazulene Isomers: Effects of Molecular and Packing Structure on
 Optoelectronic and Charge-Transport Properties
;
_journal_name_full               'The Journal of Physical Chemistry C'
_journal_paper_doi               10.1021/acs.jpcc.9b11214
_journal_year                    2020
_chemical_formula_moiety         'C20 H14'
_chemical_formula_sum            'C20 H14'
_chemical_formula_weight         254.31
_space_group_crystal_system      triclinic
_space_group_IT_number           2
_space_group_name_Hall           '-P 1'
_space_group_name_H-M_alt        'P -1'
_atom_sites_solution_hydrogens   geom
_atom_sites_solution_primary     direct
_atom_sites_solution_secondary   difmap
_audit_creation_method           SHELXL-2014/7
_cell_angle_alpha                97.942(2)
_cell_angle_beta                 95.597(2)
_cell_angle_gamma                90.921(3)
_cell_formula_units_Z            2
_cell_length_a                   6.0870(2)
_cell_length_b                   7.5639(3)
_cell_length_c                   14.4293(5)
_cell_measurement_reflns_used    6858
_cell_measurement_temperature    296
_cell_measurement_theta_max      68.23
_cell_measurement_theta_min      3.11
_cell_volume                     654.54(4)
_computing_cell_refinement       'PROCESS-AUTO (Rigaku, 1998)'
_computing_data_collection       'PROCESS-AUTO (Rigaku, 1998)'
_computing_data_reduction        'CrystalStructure (Rigaku/MSC, 2003)'
_computing_molecular_graphics    'PLATON (Spek, 2009)'
_computing_publication_material
'Yadokari-XG 2009 (Wakita, 2001, Kabuto et al., 2009)'
_computing_structure_refinement  'SHELXL-2014/7 (Sheldrick, 2014)'
_computing_structure_solution    'SHELXT (Sheldrick, 2015)'
_diffrn_ambient_temperature      296
_diffrn_measured_fraction_theta_full 0.983
_diffrn_measured_fraction_theta_max 0.983
_diffrn_measurement_device_type  'Rigaku RAXIS-RAPID'
_diffrn_measurement_method       \w
_diffrn_radiation_type           CuK\a
_diffrn_radiation_wavelength     1.54187
_diffrn_reflns_av_R_equivalents  0.0362
_diffrn_reflns_av_unetI/netI     0.0268
_diffrn_reflns_Laue_measured_fraction_full 0.983
_diffrn_reflns_Laue_measured_fraction_max 0.983
_diffrn_reflns_limit_h_max       7
_diffrn_reflns_limit_h_min       -7
_diffrn_reflns_limit_k_max       9
_diffrn_reflns_limit_k_min       -9
_diffrn_reflns_limit_l_max       16
_diffrn_reflns_limit_l_min       -17
_diffrn_reflns_number            11019
_diffrn_reflns_point_group_measured_fraction_full 0.983
_diffrn_reflns_point_group_measured_fraction_max 0.983
_diffrn_reflns_theta_full        67.497
_diffrn_reflns_theta_max         67.497
_diffrn_reflns_theta_min         6.282
_diffrn_source                   'rotating anode'
_exptl_absorpt_coefficient_mu    0.552
_exptl_absorpt_correction_T_max  1.0000
_exptl_absorpt_correction_T_min  0.8872
_exptl_absorpt_correction_type   multi-scan
_exptl_absorpt_process_details   '(ABSCOR; Higashi, 1995)'
_exptl_crystal_colour            Blue
_exptl_crystal_density_diffrn    1.290
_exptl_crystal_description       Platelet
_exptl_crystal_F_000             268
_exptl_crystal_size_max          0.150
_exptl_crystal_size_mid          0.090
_exptl_crystal_size_min          0.030
_refine_diff_density_max         0.220
_refine_diff_density_min         -0.344
_refine_diff_density_rms         0.101
_refine_ls_extinction_method     none
_refine_ls_goodness_of_fit_ref   1.157
_refine_ls_hydrogen_treatment    constr
_refine_ls_matrix_type           full
_refine_ls_number_parameters     181
_refine_ls_number_reflns         2321
_refine_ls_number_restraints     0
_refine_ls_restrained_S_all      1.157
_refine_ls_R_factor_all          0.0602
_refine_ls_R_factor_gt           0.0492
_refine_ls_shift/su_max          0.000
_refine_ls_shift/su_mean         0.000
_refine_ls_structure_factor_coef Fsqd
_refine_ls_weighting_details
'w=1/[\s^2^(Fo^2^)+(0.0622P)^2^+0.1253P] where P=(Fo^2^+2Fc^2^)/3'
_refine_ls_weighting_scheme      calc
_refine_ls_wR_factor_gt          0.1129
_refine_ls_wR_factor_ref         0.1286
_reflns_Friedel_coverage         0.000
_reflns_number_gt                1910
_reflns_number_total             2321
_reflns_threshold_expression     'I > 2\s(I)'
_cod_data_source_file            jp9b11214_si_004.cif
_cod_data_source_block           BiAz3_rt_20180918
_cod_database_code               1557196
_shelx_shelxl_version_number     2014/7
_shelx_space_group_comment
;
The symmetry employed for this shelxl refinement is uniquely defined
by the following loop, which should always be used as a source of
symmetry information in preference to the above space-group names.
They are only intended as comments.
;
_shelx_estimated_absorpt_t_min   0.922
_shelx_estimated_absorpt_t_max   0.984
_exptl_absorpt_special_details
; 
 Higashi, T. (1995). Program for Absorption Correction.
 Rigaku Corporation, Tokyo, Japan. 
;
_shelx_res_file
;

    BiAz3_rt.res created by SHELXL-2014/7

TITL BiAz3_rt_a.res in P-1
REM  Yadorkari-X generated
CELL 1.54187 6.0870 7.5639 14.4293 97.9420 95.5970 90.9210
ZERR 2.0 0.0002 0.0003 0.0005 0.0020 0.0020 0.0030
LATT 1
REM  SPGR P-1 triclinic
SFAC C H
UNIT 40 28
SIZE 0.15 0.09 0.03
TEMP 23.0
L.S. 50
FMAP 2
PLAN -20
ACTA
CONF
LIST 4
BOND $H
OMIT -10.000000 135.000000
OMIT    0    0    1
OMIT    0    0    2
OMIT    0    1    0

WGHT    0.062200    0.125300
FVAR       7.95188
C1    1    0.861982    0.663977    0.372443    11.00000    0.03668    0.04230 =
         0.04632    0.00815    0.00728    0.00727
AFIX  43
H1    2    0.989825    0.622284    0.401795    11.00000   -1.20000
AFIX   0
C2    1    0.849079    0.642906    0.275123    11.00000    0.04104    0.04111 =
         0.04797    0.00489    0.01478    0.00678
AFIX  43
H2    2    0.968918    0.588345    0.248994    11.00000   -1.20000
AFIX   0
C3    1    0.684345    0.690963    0.210909    11.00000    0.04469    0.04064 =
         0.04211    0.00487    0.00965    0.00227
C4    1    0.682415    0.665833    0.113102    11.00000    0.06008    0.06019 =
         0.04380    0.00342    0.01322    0.00802
AFIX  43
H4    2    0.791617    0.611306    0.079398    11.00000   -1.20000
AFIX   0
C5    1    0.490260    0.735798    0.074432    11.00000    0.07035    0.07425 =
         0.04053    0.00633    0.00281    0.00633
AFIX  43
H5    2    0.451261    0.735772    0.010488    11.00000   -1.20000
AFIX   0
C6    1    0.364866    0.805979    0.145901    11.00000    0.05402    0.06159 =
         0.04783    0.00653   -0.00189    0.00931
AFIX  43
H6    2    0.229577    0.860030    0.137552    11.00000   -1.20000
AFIX   0
C7    1    0.476566    0.781434    0.232006    11.00000    0.04113    0.04075 =
         0.04388    0.00518    0.00279    0.00093
C8    1    0.405285    0.830464    0.319672    11.00000    0.03450    0.04031 =
         0.04874    0.00378    0.00392    0.00401
AFIX  43
H8    2    0.269334    0.884841    0.319634    11.00000   -1.20000
AFIX   0
C9    1    0.506842    0.810417    0.407627    11.00000    0.03473    0.04123 =
         0.04245    0.00249    0.00936    0.00258
AFIX  43
H9    2    0.426593    0.851001    0.457588    11.00000   -1.20000
AFIX   0
C10   1    0.711498    0.738668    0.433501    11.00000    0.03580    0.03373 =
         0.04170    0.00629    0.00793    0.00013
C11   1    0.774172    0.744255    0.536915    11.00000    0.03501    0.03397 =
         0.04156    0.00560    0.00602    0.00246
C12   1    0.985088    0.817024    0.572092    11.00000    0.03422    0.04347 =
         0.04564    0.01207    0.00794    0.00189
AFIX  43
H12   2    1.070764    0.849190    0.526787    11.00000   -1.20000
AFIX   0
C13   1    1.085158    0.848289    0.663375    11.00000    0.03325    0.04120 =
         0.05400    0.01080    0.00197    0.00138
AFIX  43
H13   2    1.224838    0.903035    0.670414    11.00000   -1.20000
AFIX   0
C14   1    1.008121    0.810140    0.745711    11.00000    0.03944    0.03875 =
         0.04595    0.00749    0.00017    0.00437
C15   1    1.118612    0.843826    0.836184    11.00000    0.05228    0.05723 =
         0.05297    0.00820   -0.00583    0.00066
AFIX  43
H15   2    1.257564    0.898730    0.852043    11.00000   -1.20000
AFIX   0
C16   1    0.985508    0.781300    0.898545    11.00000    0.06578    0.07029 =
         0.04368    0.01002    0.00018    0.00753
AFIX  43
H16   2    1.022207    0.788439    0.963073    11.00000   -1.20000
AFIX   0
C17   1    0.790361    0.706875    0.850443    11.00000    0.05633    0.06080 =
         0.04530    0.01165    0.01080    0.00480
AFIX  43
H17   2    0.676577    0.655394    0.877164    11.00000   -1.20000
AFIX   0
C18   1    0.792842    0.721960    0.755280    11.00000    0.04391    0.04072 =
         0.04106    0.00841    0.00838    0.00629
C19   1    0.625803    0.668622    0.684818    11.00000    0.03965    0.04187 =
         0.04653    0.00836    0.01246    0.00036
AFIX  43
H19   2    0.501533    0.616730    0.704062    11.00000   -1.20000
AFIX   0
C20   1    0.615791    0.680977    0.589315    11.00000    0.03596    0.04101 =
         0.04348    0.00464    0.00581   -0.00201
AFIX  43
H20   2    0.483002    0.640905    0.554821    11.00000   -1.20000

AFIX   0
HKLF 4 1 1 0 0 0 1 0 0 0 1

REM  BiAz3_rt_a.res in P-1
REM R1 =  0.0492 for    1910 Fo > 4sig(Fo)  and  0.0602 for all    2321 data
REM    181 parameters refined using      0 restraints

END

WGHT      0.0622      0.1253

REM Highest difference peak  0.220,  deepest hole -0.344,  1-sigma level  0.101
Q1    1   0.5591  1.0342  0.3454  11.00000  0.05    0.22
Q2    1   0.5119  1.0783  0.2653  11.00000  0.05    0.20
Q3    1   0.4139  1.0563  0.1871  11.00000  0.05    0.20
Q4    1   1.2038  0.5345  0.2594  11.00000  0.05    0.19
Q5    1   0.0000  0.5000  0.5000  10.50000  0.05    0.19
Q6    1   0.5328  0.4566  0.6954  11.00000  0.05    0.19
Q7    1   0.7198  0.4533  0.2964  11.00000  0.05    0.19
Q8    1   0.0534  0.9504  0.3108  11.00000  0.05    0.19
Q9    1   1.1231  0.5753  0.1880  11.00000  0.05    0.19
Q10   1   1.2072  0.5812  0.2755  11.00000  0.05    0.19
Q11   1   0.7866  0.4887  0.7974  11.00000  0.05    0.19
Q12   1   0.6867  0.4801  0.6674  11.00000  0.05    0.18
Q13   1   0.4991  0.9805  0.1676  11.00000  0.05    0.18
Q14   1   0.6584  0.4951  0.8546  11.00000  0.05    0.18
Q15   1   0.5912  0.5494  0.8140  11.00000  0.05    0.18
Q16   1   1.1848  0.5813  0.3224  11.00000  0.05    0.18
Q17   1   0.5519  0.9880  0.2360  11.00000  0.05    0.18
Q18   1   0.4235  1.0319  0.1026  11.00000  0.05    0.18
Q19   1   0.3231  0.9853  0.4818  11.00000  0.05    0.18
Q20   1   0.4825  0.9856  0.4676  11.00000  0.05    0.17
;
_shelx_res_checksum              83428
_shelx_hkl_file
;
   0   0   126847.38  707.64
   0   0   127335.62  713.70
   0   0   126978.65  711.29
   0   0   127136.60  673.60
   0   0   126718.32  688.21
   0   0   128977.52  740.45
   0   0   126888.86  692.44
   0   0   128007.96  726.65
   0   0  -128809.81  768.18
   0   0  -128685.94  758.79
   0   0  -127640.23  703.01
   0   0  -128828.62  759.23
   0   0  -127068.86  693.83
   0   0  -128876.59  776.45
   0   0  -127152.77  698.31
   0   0  -129434.82  761.86
   0   0   257171.52 1914.26
   0   0   253801.37 1858.92
   0   0   255383.87 1776.33
   0   0   255574.37 1893.55
   0   0   253293.66 1792.62
   0   0   252943.00 1774.63
   0   0   253540.59 1844.91
   0   0  -258392.29 1967.26
   0   0  -258475.26 2026.41
   0   0  -256985.06 1887.69
   0   0  -258402.31 2084.99
   0   0  -257762.13 2138.41
   0   0  -255954.94 1908.37
   0   0   312647.70  387.09
   0   0   312616.87  389.89
   0   0   313202.60  416.65
   0   0   312380.01  439.77
   0   0   312466.05  406.60
   0   0   312747.23  364.04
   0   0  -313819.64  422.08
   0   0  -313723.37  435.47
   0   0  -313493.01  471.06
   0   0  -313866.71  378.89
   0   0  -313362.90  407.09
   0   0  -313392.73  460.02
   0   0   431585.16 1020.99
   0   0   431273.87  997.39
   0   0   432508.64 1090.07
   0   0   431051.17  958.11
   0   0   432771.24 1044.34
   0   0   430316.45  874.56
   0   0  -435003.38 1134.12
   0   0  -434028.93 1100.28
   0   0  -434351.99 1294.55
   0   0  -434140.22 1109.15
   0   0  -434149.74 1164.98
   0   0  -432956.13 1051.66
   0   0   5 1609.43   89.79
   0   0   5 1618.85   84.81
   0   0   5 1616.44   67.99
   0   0   5 1571.73   45.64
   0   0   5 1760.47   89.93
   0   0   5 1521.81   59.63
   0   0  -5 1674.50  164.96
   0   0  -5 1705.29   80.68
   0   0  -5 1741.13   88.89
   0   0  -5 1766.34   90.26
   0   0  -5 1741.30  110.74
   0   0  -5 1734.09   80.69
   0   0  -5 1772.87   57.94
   0   0   631757.22 1031.88
   0   0   630709.50 1145.49
   0   0   630008.50  867.28
   0   0   630306.18  932.50
   0   0   630132.53 1078.10
   0   0   629810.28  931.45
   0   0   628448.08  940.25
   0   0  -630754.43  999.33
   0   0  -631396.63 1043.28
   0   0  -632370.56 1107.07
   0   0  -631239.14  946.51
   0   0  -632162.76 1125.81
   0   0  -632159.81 1061.98
   0   0  -631700.68 1028.52
   0   0   719857.04  636.88
   0   0   719294.84  528.15
   0   0   717922.13  524.65
   0   0   719197.30  606.96
   0   0   720140.94  582.13
   0   0   720307.34  652.39
   0   0  -720810.06  734.73
   0   0  -720910.66  658.62
   0   0  -721281.48  605.84
   0   0  -721733.65  756.08
   0   0  -721159.13  718.59
   0   0  -721168.45  684.13
   0   0  -721850.19  701.70
   0   0   8  101.16   33.77
   0   0   8   86.87   20.97
   0   0   8  105.63   21.01
   0   0   8   68.16   18.09
   0   0   8  101.63   39.47
   0   0  -8   86.24   65.57
   0   0  -8  132.82   17.88
   0   0  -8  128.69   42.97
   0   0  -8   89.11   45.43
   0   0  -8  117.83   54.44
   0   0  -8  112.93   60.15
   0   0  -8  108.65   40.83
   0   0  -8  115.22   35.34
   0   0   9 7334.15  203.19
   0   0   9 7994.10  253.40
   0   0   9 7290.13  203.17
   0   0   9 8151.98  276.98
   0   0  -9 8429.93  302.26
   0   0  -9 8648.10  297.74
   0   0  -9 8433.20  271.67
   0   0  -9 8264.13  264.87
   0   0  -9 8841.92  338.70
   0   0  -9 8625.21  288.14
   0   0  10 2511.51  132.27
   0   0 -10 2678.34  137.35
   0   0 -10 2537.76  120.76
   0   0 -10 2418.99  112.43
   0   0 -10 2563.56  110.19
   0   0  11 3703.70  179.46
   0   0 -11 3955.76  187.59
   0   0 -11 3819.39  163.25
   0   0 -11 3726.59  151.16
   0   0 -11 3913.73  218.39
   0   0  12 5456.35  309.77
   0   0 -12 5373.22  213.38
   0   0 -12 5527.36  210.08
   0   0 -12 5821.16  249.12
   0   0 -12 5474.23  200.70
   0   0  13  832.21   89.65
   0   0 -13  890.57   70.80
   0   0 -13  958.81  103.37
   0   0 -13  855.28  101.19
   0   0 -13  712.45  113.26
   0   0  14  118.04   45.89
   0   0 -14  103.99   31.82
   0   0 -14   70.58   32.03
   0   0 -14   75.41   85.76
   0   0 -14   81.71   34.54
   0   0  15   29.93   31.45
   0   0 -15   31.92   18.52
   0   0 -15   11.86   17.97
   0   0 -15   14.14   31.41
   0   0 -15  -30.29   17.36
   0   0  16   -1.36   19.02
   0   0 -16   28.39   16.99
   0   0 -16   37.72   36.68
   0   0 -17  131.23   40.59
   0   1 -17   16.19   23.83
   0   1 -16  297.45   46.89
   0   1 -16  343.79   54.14
   0   1 -16  361.70   45.48
   0  -1  16  311.37   44.94
   0   1 -15  619.81   71.62
   0   1 -15  546.16  108.34
   0   1 -15  599.92   67.43
   0  -1  15  536.57   63.37
   0   1 -14   78.26   43.19
   0   1 -14   60.68   71.38
   0   1 -14   65.36   70.88
   0  -1  14   54.36   64.51
   0   1 -13 6949.17  285.76
   0   1 -13 6887.88  277.75
   0   1 -13 6648.34  268.74
   0  -1  13 6926.63  277.68
   0   1 -12 3386.43  161.64
   0   1 -12 3274.49  159.82
   0   1 -12 3435.61  182.13
   0   1 -12 3079.93  115.56
   0  -1  12 3184.40  167.95
   0   1 -11 6311.57  244.81
   0   1 -11 6568.51  252.89
   0   1 -11 6061.01  196.12
   0   1 -11 6596.51  271.82
   0  -1  11 6276.91  255.34
   0   1 -10 1868.99  175.34
   0   1 -10 1920.70  105.70
   0   1 -10 1859.79  127.43
   0   1 -10 1997.50  111.23
   0   1 -10 1890.00  111.14
   0  -1  10 1932.53  115.64
   0   1  -9 7241.54  251.55
   0   1  -9 7719.82  281.03
   0   1  -9 7410.46  237.20
   0   1  -9 7624.70  253.38
   0   1  -9 7489.95  268.02
   0   1  -9 7604.80  262.26
   0  -1   9 7312.90  254.51
   0  -1   9 6857.29  230.05
   0  -1   9 7934.82  347.33
   0  -1   9 6615.64  188.33
   0   1  -8  219.78   84.04
   0   1  -8   -4.94   40.78
   0   1  -8  212.51   35.52
   0   1  -8  189.17   28.02
   0   1  -8  256.34   47.86
   0   1  -8  177.71   21.67
   0   1  -8  225.85   46.02
   0  -1   8  200.10   47.32
   0  -1   8   -9.92   51.92
   0  -1   8  207.42   23.39
   0  -1   8  196.24   47.44
   0  -1   8  192.09   27.99
   0   1  -710622.60  461.18
   0   1  -710078.25  251.77
   0   1  -7 9498.90  264.87
   0   1  -710177.66  344.50
   0   1  -7 9981.60  280.24
   0   1  -7 9885.10  415.32
   0   1  -7 9801.25  299.24
   0   1  -710159.57  299.71
   0  -1   710123.61  348.68
   0  -1   7 9377.24  315.46
   0  -1   710038.79  316.26
   0  -1   7 9580.04  323.75
   0  -1   7 9284.64  267.80
   0   1  -6 3071.55  100.50
   0   1  -6 3234.23  119.51
   0   1  -6 3076.96  136.29
   0   1  -6 3195.24   71.16
   0   1  -6 3194.67  144.58
   0   1  -6 3067.39  111.71
   0   1  -6 3149.88  141.38
   0   1  -6 3066.11   96.12
   0  -1   6 3246.15  135.92
   0  -1   6 2939.65  105.11
   0  -1   6 3064.86  146.39
   0  -1   6 3031.76  143.45
   0  -1   6 2979.99  133.31
   0  -1   6 2907.27  139.37
   0   1  -5   -2.28   23.38
   0   1  -5   -2.51   12.33
   0   1  -5   -4.00   21.73
   0   1  -5    0.32   26.74
   0   1  -5   25.84   39.41
   0   1  -5   -8.15   30.51
   0   1  -5    4.17   12.33
   0   1  -5    4.00   15.92
   0  -1   5   -1.80   21.89
   0  -1   5    0.36   21.43
   0  -1   5   -8.99   21.67
   0  -1   5   -0.57   15.32
   0  -1   5   -7.50   34.28
   0  -1   5    6.85   15.95
   0   1  -4 5824.78  178.95
   0   1  -4 5761.31  181.77
   0   1  -4 5788.04  143.60
   0   1  -4 5668.16  191.68
   0   1  -4 5791.11  201.79
   0   1  -4 5779.50  147.05
   0   1  -4 5700.42  196.38
   0   1  -4 5845.65  218.37
   0  -1   4 5718.16  189.38
   0  -1   4 5650.22  194.99
   0  -1   4 5388.98  188.35
   0  -1   4 5648.33  173.04
   0  -1   4 5708.92  172.93
   0  -1   4 5996.92  200.83
   0  -1   4 5341.28  195.43
   0   1  -3 3361.60   80.22
   0   1  -3 3338.46  153.88
   0   1  -3 3268.89  152.67
   0   1  -3 3340.14  215.01
   0   1  -3 3337.08  140.75
   0   1  -3 3371.29  143.06
   0   1  -3 3397.54   88.99
   0   1  -3 3269.03  145.28
   0  -1   3 3380.15  152.14
   0  -1   3 3400.86  144.25
   0  -1   3 3201.64  136.78
   0  -1   3 3335.52  152.53
   0  -1   3 3448.02  148.92
   0  -1   3 3136.16  155.47
   0  -1   3 3335.63  134.55
   0   1  -2  956.72   80.36
   0   1  -2  972.75  145.42
   0   1  -2 1000.52  142.47
   0   1  -2  989.14   59.74
   0   1  -2  901.34   73.75
   0   1  -2  927.20   55.69
   0   1  -2  953.58   77.49
   0   1  -2 1039.27   44.04
   0  -1   2  940.60   77.05
   0  -1   2  974.47   78.17
   0  -1   2  971.14  136.78
   0  -1   2  990.14   79.54
   0  -1   2  959.09   84.64
   0   1  -1  724.66   52.85
   0   1  -1  736.52   55.47
   0   1  -1  778.02   53.97
   0   1  -1  760.99   36.53
   0   1  -1  735.56   25.81
   0   1  -1  705.54   43.75
   0  -1   1  751.72   54.36
   0  -1   1  719.43   53.06
   0  -1   1  747.91   52.01
   0  -1   1  724.85   43.40
   0   1   0  189.23   18.30
   0   1   0  122.71   29.47
   0   1   0  226.25   32.23
   0   1   0  107.72   18.44
   0   1   0   69.12   55.48
   0   1   0  150.80   16.61
   0   1   0   99.00   25.98
   0  -1   0   -0.44   25.83
   0  -1   0  169.33   26.11
   0  -1   0   -0.04   24.83
   0  -1   0   75.31   21.83
   0   1   1   26.15   33.17
   0   1   1   45.13   31.32
   0   1   1   64.86   18.26
   0   1   1   51.56   36.31
   0   1   1   -4.11   31.17
   0   1   1   68.00   28.04
   0  -1  -1   -1.19   27.00
   0  -1  -1   64.51   30.95
   0  -1  -1   71.83   46.02
   0  -1  -1   72.88   61.36
   0   1   2 2645.02   73.55
   0   1   2 2439.63  158.22
   0   1   2 2705.40   68.99
   0   1   2 2720.51  119.32
   0   1   2 2728.31  139.20
   0   1   2 2599.14  150.73
   0   1   2 2634.94  144.71
   0  -1  -2 2693.69  154.28
   0  -1  -2 3013.96  121.22
   0  -1  -2 2755.27  148.18
   0  -1  -2 2570.24  266.62
   0   1   3   -9.15   14.18
   0   1   3   -1.42   15.22
   0   1   3    1.88   21.99
   0   1   3    3.85    9.24
   0   1   3    7.25   37.03
   0   1   3   -0.12    8.89
   0  -1  -3    8.44   59.05
   0  -1  -3   -5.05   47.94
   0  -1  -3   -2.31   23.26
   0  -1  -3    9.97   18.27
   0  -1  -3    4.84   27.70
   0   1   4  277.22    9.72
   0   1   4  290.20   49.22
   0   1   4  273.62   57.61
   0   1   4  264.43   47.50
   0   1   4  283.19    9.83
   0   1   4  248.12   38.11
   0  -1  -4  305.01  108.47
   0  -1  -4  300.91   74.57
   0  -1  -4  260.67   35.52
   0  -1  -4  300.68   44.61
   0  -1  -4  279.56   52.69
   0  -1  -4  285.45   27.30
   0   1   5  188.70   32.88
   0   1   5  207.04   29.06
   0   1   5  214.80   46.20
   0   1   5  228.15   32.24
   0   1   5  202.36   40.29
   0  -1  -5  182.62   33.45
   0  -1  -5  225.87   58.17
   0  -1  -5  191.13   26.06
   0  -1  -5  219.68   47.97
   0  -1  -5  256.55   36.96
   0  -1  -5  186.29   43.61
   0  -1  -5   -0.11   55.38
   0  -1  -5  217.16   42.53
   0   1   641324.76 1463.31
   0   1   641096.45 1389.45
   0   1   642386.75 1405.41
   0   1   641515.36 1462.57
   0   1   640238.14 1403.29
   0  -1  -645195.65 1699.42
   0  -1  -642275.44 1490.81
   0  -1  -645568.09 1576.73
   0  -1  -647106.25 1819.36
   0  -1  -642792.82 1497.83
   0  -1  -644708.78 1596.10
   0  -1  -644717.70 1592.08
   0  -1  -645095.29 1678.99
   0   1   7 4780.57  131.62
   0   1   7 4625.38  135.09
   0   1   7 4756.88  148.74
   0   1   7 4594.39  176.01
   0   1   7 4470.70  153.30
   0  -1  -7 5129.69  191.87
   0  -1  -7 5016.73  185.75
   0  -1  -7 5301.99  226.31
   0  -1  -7 5022.63  186.93
   0  -1  -7 4806.27  157.94
   0  -1  -7 5251.52  208.98
   0  -1  -7 4770.73  180.18
   0  -1  -7 5165.62  223.83
   0   1   8 2539.03   95.25
   0   1   8 2459.11   82.54
   0   1   8 2594.34  174.26
   0   1   8 2494.67   76.93
   0   1   8 2545.75  126.60
   0  -1  -8 2681.72   87.91
   0  -1  -8 2787.40  125.94
   0  -1  -8 2792.01  130.65
   0  -1  -8 2882.27  151.19
   0  -1  -8 2676.55  100.50
   0  -1  -8 2678.09   88.99
   0  -1  -8 2753.74  124.97
   0  -1  -8 2767.58  155.81
   0   1   9 1740.63  157.22
   0   1   9 1635.00   72.61
   0   1   9 1512.74   96.90
   0  -1  -9 1697.43   79.28
   0  -1  -9 1821.11  103.72
   0  -1  -9 1846.06  110.49
   0  -1  -9 1832.28  130.17
   0  -1  -9 1884.67  104.68
   0  -1  -9 1752.29   66.54
   0  -1  -9 1763.06   68.78
   0   1  10  996.81   85.54
   0  -1 -10  915.87   87.63
   0  -1 -10  808.05   48.45
   0  -1 -10  932.18   80.39
   0   1  11 1037.83   93.08
   0  -1 -11 1042.85   98.53
   0  -1 -11  986.79  137.37
   0  -1 -11  862.87   50.38
   0   1  12  885.44   89.62
   0  -1 -12  940.41   93.83
   0  -1 -12 1085.82  167.86
   0   1  13 4649.47  205.13
   0  -1 -13 5027.69  210.92
   0  -1 -13 5366.54  364.12
   0   1  14  110.98   43.09
   0  -1 -14   74.78   51.01
   0  -1 -14   72.35   39.84
   0   1  15  412.59   83.93
   0  -1 -15  429.45   54.35
   0  -1 -15  469.07   74.58
   0  -1 -16   16.68   34.18
   0  -1 -16   21.16   36.89
   0   2 -17   64.81   31.02
   0   2 -16    0.89   19.53
   0   2 -16    9.58   28.76
   0   2 -16   32.02   47.72
   0  -2  16   -0.37   18.50
   0   2 -15   38.56   44.35
   0   2 -15   49.87   43.95
   0   2 -15   64.84   31.37
   0  -2  15   50.51   57.45
   0   2 -14   64.09   48.95
   0   2 -14   30.62   82.84
   0   2 -14   55.01   53.54
   0  -2  14  117.79   47.96
   0   2 -13 3036.74  176.05
   0   2 -13 3113.02  182.92
   0   2 -13 2809.71  135.92
   0  -2  13 3020.98  162.19
   0   2 -12 3218.21  273.57
   0   2 -12 2620.79  127.81
   0   2 -12 2952.02  164.47
   0  -2  12 2770.97  155.06
   0   2 -11 1660.89  123.82
   0   2 -11 1555.83   89.31
   0   2 -11 1616.35  127.51
   0  -2  11 1476.29  168.34
   0   2 -10  848.05   87.13
   0   2 -10  839.81   61.30
   0   2 -10  857.50   91.96
   0  -2  10  626.94   77.19
   0  -2  10  671.56   43.34
   0  -2  10  668.07   41.29
   0   2  -9 1479.63  102.69
   0   2  -9 1596.64  109.40
   0   2  -9 1446.18   74.14
   0   2  -9 1400.53   64.65
   0   2  -9 1861.98   75.01
   0   2  -9 1487.39   87.76
   0  -2   9 1228.98   61.71
   0  -2   9 1471.05   63.53
   0  -2   9 1516.44  157.84
   0  -2   9 1437.42   96.33
   0   2  -8 2976.63  116.34
   0   2  -8 2564.61   94.43
   0   2  -8 2703.94   99.22
   0   2  -8 3026.35  143.46
   0   2  -8 2894.94  130.93
   0   2  -8 2747.67  105.54
   0   2  -8 2533.36   67.39
   0  -2   8 2903.93  144.40
   0  -2   8 2763.11  138.88
   0  -2   8 2897.01  105.30
   0  -2   8 2750.74  130.11
   0  -2   8 2642.06   96.36
   0   2  -718477.51  645.60
   0   2  -718400.16  574.07
   0   2  -717797.16  477.85
   0   2  -719031.87  671.51
   0   2  -718785.83  607.58
   0   2  -717008.79  508.98
   0   2  -719237.44  639.13
   0  -2   717121.16  547.86
   0  -2   717916.38  555.08
   0  -2   717810.60  673.00
   0  -2   718003.87  596.14
   0  -2   718608.57  621.60
   0  -2   717287.82  528.69
   0   2  -646855.96 1680.51
   0   2  -644150.10 1465.50
   0   2  -645424.17 1470.34
   0   2  -654166.29 2048.37
   0   2  -647344.72 1738.69
   0   2  -646817.12 1686.96
   0   2  -646045.82 1632.56
   0  -2   643311.93 1542.17
   0  -2   645545.80 1604.44
   0  -2   647399.85 1680.21
   0  -2   645248.71 1625.47
   0  -2   646680.60 1693.51
   0  -2   645084.18 1646.52
   0   2  -5  169.42   68.58
   0   2  -5  158.39   41.89
   0   2  -5  142.26   11.20
   0   2  -5  164.77   44.78
   0   2  -5  143.00   40.40
   0   2  -5  132.91   14.13
   0   2  -5  136.67   30.60
   0  -2   5  183.47   45.14
   0  -2   5  146.24   37.48
   0  -2   5  158.79   73.11
   0  -2   5  122.27   31.46
   0  -2   5  166.26   43.53
   0   2  -4 5246.44  185.05
   0   2  -4 5030.23  107.51
   0   2  -4 5009.18  173.21
   0   2  -4 5038.30  179.14
   0   2  -4 5072.29  140.54
   0   2  -4 5131.01  101.00
   0   2  -4 5017.70  224.43
   0  -2   4 4707.62  135.34
   0  -2   4 5254.90  250.62
   0  -2   4 5070.79  186.67
   0  -2   4 5134.23  170.25
   0  -2   4 5090.37  254.92
   0   2  -321731.67  685.51
   0   2  -321430.16  654.75
   0   2  -321781.44  686.13
   0   2  -321149.66  573.47
   0   2  -320952.50  696.80
   0   2  -321190.17  664.15
   0  -2   321927.92  678.14
   0  -2   321510.43  688.32
   0  -2   321211.66  781.12
   0   2  -219081.62  527.17
   0   2  -219468.38  616.63
   0   2  -219517.46  612.58
   0   2  -218783.11  507.56
   0   2  -219571.65  572.57
   0   2  -220361.72  756.02
   0  -2   219744.38  727.04
   0  -2   219811.88  625.18
   0  -2   220067.81  635.50
   0  -2   220080.51  542.44
   0   2  -135295.37 1178.44
   0   2  -134864.91 1100.71
   0   2  -133673.88  959.03
   0   2  -135964.96 1223.51
   0   2  -135804.36 1169.20
   0   2  -133389.01  999.18
   0   2  -135797.57 1205.47
   0  -2   137105.19 1244.34
   0  -2   136363.84 1222.11
   0  -2   135908.51 1233.96
   0   2   0512501.134800.89
   0   2   0432103.328821.11
   0   2   0434405.130364.27
   0   2   0449344.230389.74
   0   2   0523831.734921.54
   0   2   0470620.132255.76
   0   2   0510754.634974.18
   0  -2   0470354.533183.05
   0  -2   0508318.135135.21
   0   2   1 2092.30   94.64
   0   2   1 2073.82   71.04
   0   2   1 2202.98  122.02
   0   2   1 2025.49   79.34
   0   2   1 2135.95  105.73
   0   2   1 2098.28  200.01
   0  -2  -1 2042.64  199.54
   0  -2  -1 2188.53  120.71
   0   2   2  262.01   24.59
   0   2   2  227.81   53.02
   0   2   2  213.51   22.00
   0   2   2  240.45   25.48
   0   2   2  217.57   57.61
   0   2   2  208.08   42.14
   0  -2  -2  211.34   46.46
   0  -2  -2  208.54   82.65
   0  -2  -2  198.06   55.85
   0   2   314378.17  350.55
   0   2   314274.56  366.64
   0   2   313952.18  433.48
   0   2   314590.35  412.37
   0   2   313485.22  321.56
   0   2   314224.66  462.94
   0  -2  -314867.63  455.26
   0  -2  -314704.00  472.00
   0  -2  -314073.69  390.82
   0   2   4 1021.52   22.14
   0   2   4 1085.31   89.88
   0   2   4 1155.78   44.71
   0   2   4 1110.56   24.62
   0   2   4 1131.48   82.05
   0   2   4 1197.30   96.86
   0  -2  -4 1115.72   47.65
   0  -2  -4 1167.19   89.87
   0  -2  -4 1187.59   86.53
   0  -2  -4 1138.30   73.41
   0  -2  -4 1167.49   62.81
   0   2   5 2736.82   81.89
   0   2   5 2701.23  136.88
   0   2   5 2822.20  131.41
   0   2   5 2845.42  140.86
   0  -2  -5 2498.61   83.14
   0  -2  -5 2829.01  192.42
   0  -2  -5 2961.43  142.86
   0  -2  -5 2905.20  112.44
   0  -2  -5 2902.70  125.70
   0   2   611426.66  360.60
   0   2   611932.17  387.77
   0   2   611373.19  309.31
   0   2   611772.82  343.34
   0   2   611411.67  384.64
   0  -2  -612244.64  393.21
   0  -2  -612652.61  446.40
   0  -2  -612406.59  391.57
   0  -2  -612282.43  378.84
   0  -2  -610850.89  312.30
   0  -2  -612451.78  414.02
   0   2   7  -14.35   11.31
   0   2   7   22.33   14.19
   0   2   7   -1.87   36.68
   0   2   7    5.45   20.40
   0   2   7    6.77   23.85
   0  -2  -7   14.14   26.20
   0  -2  -7   15.54   12.59
   0  -2  -7   -0.02   21.58
   0  -2  -7  -21.15   32.40
   0  -2  -7  -25.55   24.36
   0  -2  -7  -12.88   20.79
   0   2   8 2190.86   94.83
   0   2   8 2231.66   79.75
   0   2   8 2222.63   96.70
   0   2   8 2231.18  153.53
   0   2   8 2474.56  120.80
   0  -2  -8 2159.30   78.44
   0  -2  -8 2704.33  110.61
   0  -2  -8 2655.74  187.93
   0  -2  -8 2595.51  119.76
   0  -2  -8 2614.23  129.15
   0  -2  -8 2813.72  164.09
   0   2   9 9160.62  307.71
   0   2   9 9531.19  338.17
   0  -2  -910201.72  369.04
   0  -2  -910451.33  364.63
   0   2  10 7669.23  264.04
   0   2  10 8774.62  321.99
   0  -2 -10 9609.01  441.27
   0  -2 -10 9177.03  353.51
   0   2  11 1173.28  100.81
   0  -2 -11 1187.39  173.86
   0  -2 -11 1223.98  172.01
   0   2  1216516.96  609.73
   0  -2 -1218455.05  703.72
   0  -2 -1218833.20  707.75
   0   2  13    6.43   52.25
   0  -2 -13   16.94   40.57
   0  -2 -13   22.75   39.41
   0   2  14   27.24   34.06
   0  -2 -14   24.91   42.20
   0  -2 -14   52.27   39.87
   0   2  15   -1.05   19.68
   0  -2 -15    4.79   33.93
   0  -2 -15   31.26   30.96
   0  -2 -16   71.78   31.16
   0  -2 -16   65.00   59.13
   0   3 -16   76.46   47.28
   0   3 -16  119.58   48.34
   0  -3  16    1.34   33.01
   0   3 -15  968.43  105.32
   0   3 -15 1034.16  101.86
   0  -3  15  850.12   75.17
   0   3 -14  365.24   38.75
   0   3 -14  595.35   84.53
   0   3 -14  599.55   86.26
   0  -3  14  505.39   68.20
   0   3 -13  665.70   53.10
   0   3 -13  955.41  111.11
   0   3 -13  964.18  161.52
   0  -3  13  991.21   96.07
   0   3 -1210126.54  397.58
   0   3 -12 8639.10  285.99
   0   3 -1210248.54  543.94
   0  -3  12 9222.18  455.93
   0   3 -11   16.17   21.43
   0   3 -11   17.82   36.61
   0   3 -11   51.88   44.08
   0   3 -11  119.18   48.41
   0  -3  11   46.68   44.88
   0   3 -10 8694.63  291.53
   0   3 -10 9900.31  377.65
   0   3 -10 8621.69  264.25
   0   3 -10 8436.85  284.50
   0   3 -10 9588.46  351.59
   0  -3  10 9086.27  342.79
   0   3  -9 8145.29  239.61
   0   3  -9 8604.71  285.08
   0   3  -9 8516.31  285.71
   0   3  -9 9346.19  346.04
   0   3  -9 8017.88  287.03
   0   3  -9 8953.03  317.92
   0  -3   9 8348.75  328.53
   0  -3   9 8599.42  282.74
   0  -3   9 8926.89  320.12
   0   3  -8 1025.41   73.51
   0   3  -8 1073.89   81.29
   0   3  -8 1032.91   93.91
   0   3  -8 1104.53   75.78
   0   3  -8 1009.62   73.83
   0  -3   8 1015.82   82.45
   0  -3   8 1119.52   67.72
   0  -3   8  975.34   74.43
   0  -3   8  998.80   86.22
   0   3  -7   33.54   17.85
   0   3  -7   47.35   32.18
   0   3  -7   59.38   32.69
   0   3  -7   79.43   63.55
   0   3  -7   64.22   34.72
   0  -3   7   54.27   36.31
   0  -3   7   62.99   38.14
   0  -3   7   70.67   31.16
   0   3  -6  623.42   34.21
   0   3  -6  704.03   59.84
   0   3  -6  683.52   73.35
   0   3  -6  712.19   67.33
   0   3  -6  694.90   71.20
   0  -3   6  597.30   36.02
   0  -3   6  725.42   73.46
   0  -3   6  650.25  101.93
   0  -3   6  634.21   69.40
   0   3  -5 1565.06   94.88
   0   3  -5 1490.66   48.44
   0   3  -5 1643.85  107.09
   0   3  -5 1594.67   79.03
   0   3  -5 1597.67  149.71
   0  -3   5 1705.58  155.26
   0  -3   5 1598.57  108.11
   0   3  -4   62.05   24.78
   0   3  -4   55.09   39.34
   0   3  -4   67.21   39.44
   0   3  -4   46.71   33.43
   0   3  -4   63.19   43.11
   0   3  -4   57.18   20.73
   0  -3   4   59.97   26.77
   0  -3   4  117.78   43.87
   0  -3   4   65.93   40.05
   0  -3   4   65.71   45.07
   0   3  -3 3125.53   93.82
   0   3  -3 3133.42   65.86
   0   3  -3 3187.96  171.56
   0   3  -3 3322.18  150.77
   0   3  -3 3308.12  145.72
   0   3  -3 3354.08  148.08
   0  -3   3 3179.40  150.36
   0  -3   3 3398.45  151.64
   0  -3   3 3258.62  145.85
   0  -3   3 3188.73   89.32
   0   3  -2   77.09   27.28
   0   3  -2   75.23   72.66
   0   3  -2   91.28    8.05
   0   3  -2   25.21   70.36
   0   3  -2   80.71   16.83
   0   3  -2   45.67   73.56
   0  -3   2   97.87   36.20
   0  -3   2   73.82   37.51
   0  -3   2    9.13   20.48
   0   3  -1   69.31   41.92
   0   3  -1  102.22   37.32
   0   3  -1  134.93   23.07
   0   3  -1   70.85    7.83
   0   3  -1   82.54   11.89
   0   3  -1   70.21   35.55
   0   3  -1   82.79   41.75
   0  -3   1   -1.37   26.73
   0  -3   1   -1.71   25.49
   0   3   0  110.82   34.34
   0   3   0   84.63   32.92
   0   3   0   89.55   42.34
   0   3   0  109.55   44.79
   0   3   0   97.52   42.47
   0  -3   0   82.62   39.93
   0  -3   0    0.20   63.51
   0   3   1  996.42   82.90
   0   3   1  982.62   87.94
   0   3   1 1031.20   78.55
   0   3   1 1020.76   42.92
   0   3   1  948.74   36.49
   0   3   1  926.79   54.79
   0  -3  -1 1013.70   40.08
   0  -3  -1 1052.79   85.63
   0   3   2   54.48   61.65
   0   3   2  131.30   17.37
   0   3   2   69.80   20.92
   0   3   2   71.26   14.78
   0   3   2   78.68   45.09
   0   3   2   55.55   49.10
   0  -3  -2   87.06   73.93
   0  -3  -2   74.71   47.93
   0  -3  -2   83.61   22.16
   0  -3  -2   62.35   16.53
   0   3   3  153.74   48.32
   0   3   3  179.00   24.32
   0   3   3  115.04   26.96
   0   3   3   94.56   26.48
   0   3   3   81.58   37.86
   0   3   3  122.41   54.63
   0  -3  -3   90.43   28.11
   0  -3  -3  100.49   21.07
   0  -3  -3  130.52   52.41
   0  -3  -3  117.19   46.29
   0   3   4  407.51   63.49
   0   3   4  472.54   45.16
   0   3   4  425.53   20.86
   0   3   4  372.02   26.47
   0   3   4  467.35   70.58
   0   3   4  388.55   22.25
   0   3   4  370.81   24.20
   0  -3  -4  422.31   45.24
   0  -3  -4  403.39   65.94
   0  -3  -4  446.39   35.59
   0  -3  -4  523.41   73.59
   0   3   5  670.16   44.23
   0   3   5  502.49   70.70
   0   3   5  466.76   21.76
   0   3   5  517.49   65.76
   0   3   5  437.85   34.42
   0  -3  -5  570.58  114.92
   0  -3  -5  553.75   42.74
   0  -3  -5  559.12   54.37
   0  -3  -5  612.26  115.06
   0   3   612638.54  446.22
   0   3   614011.68  563.45
   0   3   612787.54  382.87
   0  -3  -613768.81  441.07
   0  -3  -613659.41  416.08
   0  -3  -613963.91  475.30
   0  -3  -614102.80  475.20
   0   3   7 2607.99   97.17
   0   3   7 2428.06   87.74
   0   3   7 2913.98  207.88
   0   3   7 2607.61  135.64
   0  -3  -7 2994.08  139.51
   0  -3  -7 2833.85  132.63
   0  -3  -7 2836.51  114.20
   0   3   8 1195.55  153.53
   0   3   8 1062.40   89.16
   0  -3  -8 1194.25   75.80
   0  -3  -8 1149.15   93.99
   0   3   9 1444.31   99.76
   0   3   9 1538.66  179.47
   0  -3  -9 1586.64  116.84
   0  -3  -9 1543.39   95.13
   0   3  10  192.54   46.61
   0   3  10  251.89   61.72
   0  -3 -10  277.91  102.43
   0  -3 -10  178.58   50.17
   0   3  11 1514.01   89.35
   0   3  11 1968.72  125.00
   0  -3 -11 2059.70  139.66
   0  -3 -11 2074.91  118.79
   0   3  12 2124.65  132.99
   0  -3 -12 2346.00  151.90
   0  -3 -12 2251.41  127.43
   0   3  13  691.56   75.94
   0  -3 -13  693.59   86.65
   0  -3 -13  684.59   73.09
   0   3  14   -0.28   20.22
   0  -3 -14   67.44   42.33
   0  -3 -14   66.58   36.49
   0  -3 -15  403.23   47.33
   0  -3 -15  204.44   88.75
   0   4 -16  115.53   45.35
   0   4 -16  104.78   48.78
   0   4 -15    1.60   29.09
   0   4 -15    0.42   31.80
   0  -4  15   -1.54   22.46
   0   4 -14  140.05   64.26
   0   4 -14  141.89   58.80
   0  -4  14  150.46   47.47
   0   4 -13 4619.84  230.48
   0   4 -13 4708.61  358.36
   0  -4  13 4036.37  261.51
   0   4 -1210870.74  445.00
   0   4 -1211833.35  562.00
   0   4 -12 9083.46  375.95
   0  -4  12 9936.62  388.74
   0   4 -11  138.25   40.84
   0   4 -11  118.99   34.45
   0   4 -11  108.46   63.06
   0   4 -11   79.37   88.11
   0  -4  11  105.62   55.78
   0   4 -10  392.50   61.20
   0   4 -10  298.89   53.25
   0   4 -10  373.75   79.39
   0   4 -10  386.08   64.43
   0  -4  10  354.46   70.99
   0   4  -9 1335.44   98.89
   0   4  -9 1324.35  139.93
   0   4  -9 1254.63   90.92
   0   4  -9 1348.44  111.69
   0  -4   9 1377.66  168.31
   0   4  -8 5965.18  240.52
   0   4  -8 5820.03  206.47
   0   4  -8 5864.48  228.38
   0   4  -8 6083.08  333.03
   0  -4   8 5804.86  229.75
   0   4  -7   56.44   65.21
   0   4  -7   61.90   40.38
   0   4  -7   61.13   29.82
   0   4  -7   67.20   44.12
   0  -4   7   72.71   43.87
   0  -4   7   81.32   38.76
   0   4  -621297.44  838.17
   0   4  -620357.94  646.47
   0   4  -621191.03  708.44
   0   4  -621721.68  760.50
   0  -4   621255.49  750.22
   0  -4   622179.86  754.96
   0  -4   622032.13  745.39
   0   4  -5   46.86   38.87
   0   4  -5   60.44   31.16
   0   4  -5   47.44   43.90
   0   4  -5   53.37   20.86
   0  -4   5   83.56   43.19
   0  -4   5   47.41   42.09
   0  -4   5   51.72   39.19
   0   4  -4 4322.73  181.64
   0   4  -4 4119.30  141.43
   0   4  -4 3861.37  135.81
   0   4  -4 4492.41  189.98
   0   4  -4 4338.24  180.69
   0  -4   4 4016.23  132.90
   0  -4   4 4581.38  189.86
   0  -4   4 4634.95  184.79
   0  -4   4 4506.27  189.69
   0   4  -317864.58  602.93
   0   4  -318152.10  608.79
   0   4  -317112.16  473.31
   0   4  -316729.44  508.04
   0   4  -317169.82  583.00
   0  -4   318598.93  633.17
   0  -4   317331.52  500.98
   0  -4   318588.02  621.26
   0   4  -2 1753.75  104.25
   0   4  -2 1626.84   92.44
   0   4  -2 1753.37  179.95
   0   4  -2 1662.03  171.29
   0   4  -2 1565.76   40.94
   0  -4   2 1893.68  115.18
   0  -4   2 1833.45  119.16
   0  -4   2 1799.33   72.41
   0   4  -1 1355.36   51.87
   0   4  -1 1385.10   87.78
   0   4  -1 1460.75  101.75
   0   4  -1 1456.79  104.91
   0  -4   1 1520.07  106.19
   0  -4   1 1472.44  104.26
   0   4   0   27.57   13.75
   0   4   0   15.69   38.56
   0   4   0   23.30   26.36
   0   4   0   17.85   36.91
   0   4   0   16.81   34.93
   0   4   0   42.97   15.98
   0  -4   0   -8.81   32.31
   0   4   1  775.01   50.46
   0   4   1  932.90   77.05
   0   4   1  852.80   83.30
   0   4   1  796.72   30.35
   0   4   1  835.56   85.17
   0   4   1  808.27   50.74
   0  -4  -1  953.01   84.25
   0   4   214567.36  388.00
   0   4   215681.12  548.14
   0   4   216406.38  524.45
   0   4   214773.89  423.94
   0   4   216626.23  662.88
   0  -4  -216645.46  644.90
   0  -4  -214511.39  403.41
   0  -4  -216888.01  574.51
   0   4   3 8669.63  283.61
   0   4   3 8500.69  323.82
   0   4   3 8436.19  309.41
   0  -4  -3 7258.39  182.51
   0  -4  -3 8894.26  323.92
   0  -4  -3 7965.91  219.49
   0  -4  -3 9066.92  308.43
   0   4   4 6091.74  204.40
   0   4   4 5899.39  253.25
   0   4   4 6152.84  241.23
   0  -4  -4 5858.99  170.49
   0  -4  -4 4865.61  152.51
   0  -4  -4 6487.37  239.77
   0  -4  -4 6681.50  355.26
   0   4   5 4940.04  207.66
   0   4   5 4669.35  162.89
   0   4   5 4708.81  218.10
   0  -4  -5 4105.22  120.22
   0  -4  -5 4763.41  153.37
   0   4   6 4394.96  210.31
   0   4   6 4634.78  203.37
   0   4   6 4155.82  148.30
   0  -4  -6 3783.66  121.36
   0  -4  -6 4455.34  157.08
   0   4   7 1956.94   86.40
   0   4   7 2188.75  144.16
   0   4   7 2267.01  137.25
   0  -4  -7 2282.76  111.71
   0  -4  -7 2023.80   82.74
   0   4   8 2859.90  164.76
   0   4   8 2931.97  164.41
   0  -4  -8 2634.38  106.87
   0  -4  -8 3013.86  199.89
   0   4   9 1606.34  117.67
   0   4   9 1563.78  123.52
   0  -4  -9 1504.32   81.06
   0  -4  -9 1729.43  174.81
   0   4  10 4276.53  195.16
   0   4  10 4521.26  212.16
   0  -4 -10 4459.44  169.85
   0  -4 -10 5062.26  215.19
   0   4  11  166.26   57.50
   0  -4 -11  223.13   61.96
   0  -4 -11  264.10   42.31
   0   4  12 6848.72  267.39
   0  -4 -12 7696.14  278.70
   0  -4 -12 5033.38  171.49
   0   4  13    0.53   34.27
   0  -4 -13    6.44   26.37
   0  -4 -13   -4.88   17.08
   0  -4 -14   45.23   56.00
   0   5 -15  709.08   83.58
   0   5 -15  765.36   69.35
   0  -5  15  680.22   57.61
   0   5 -14  140.05   48.94
   0   5 -14  177.05   59.88
   0  -5  14  113.89   42.27
   0   5 -13  471.51   50.92
   0   5 -13  617.24   73.25
   0   5 -13  582.53   87.66
   0  -5  13  475.10   72.62
   0   5 -12 1407.96  190.86
   0   5 -12 1390.06  101.74
   0   5 -12 1203.49  137.35
   0  -5  12 1316.80  110.60
   0   5 -11 5917.22  263.09
   0   5 -11 6219.40  240.86
   0   5 -11 5161.81  207.36
   0   5 -11 5666.91  241.24
   0  -5  11 5602.31  255.76
   0   5 -10 2831.38  163.46
   0   5 -10 2797.99  160.40
   0   5 -10 2652.52  140.08
   0   5 -10 2811.46  138.37
   0  -5  10 2858.86  253.95
   0   5  -9 3291.18  185.09
   0   5  -9 3215.70  140.14
   0   5  -9 3283.37  168.34
   0   5  -9 3089.50  162.53
   0  -5   9 3080.63  170.90
   0   5  -8    7.78   42.38
   0   5  -8   32.58   47.62
   0   5  -8   39.61   26.59
   0   5  -8   52.02   38.44
   0  -5   8   43.91   45.95
   0   5  -7  156.60   60.33
   0   5  -7  179.93   79.32
   0   5  -7  175.22   32.09
   0   5  -7  405.23  109.08
   0  -5   7  216.49   63.41
   0   5  -6 4502.63  160.80
   0   5  -6 3287.71  129.35
   0   5  -6 3836.06  124.34
   0   5  -6 4518.19  214.57
   0   5  -6 4700.91  291.84
   0  -5   6 4804.39  213.79
   0   5  -5  349.98   42.86
   0   5  -5  317.18   67.82
   0   5  -4 1146.78  104.01
   0   5  -4 1175.94  101.74
   0   5  -4 1090.72   59.40
   0   5  -4 1203.32   99.10
   0  -5   4  865.43   56.68
   0   5  -3   61.68   22.49
   0   5  -3   96.49   44.35
   0   5  -3  114.92   48.63
   0   5  -3  106.52   47.02
   0  -5   3   78.28   21.30
   0   5  -2  173.74   55.96
   0   5  -2  199.51   48.18
   0   5  -2  178.22   22.86
   0   5  -2  196.52   57.85
   0  -5   2  210.82   31.52
   0   5  -1   17.40   60.05
   0   5  -1   21.26   26.44
   0   5  -1  -22.92   61.07
   0  -5   1    3.22   30.46
   0  -5   1   -8.86   20.12
   0   5   0  233.19   58.07
   0   5   0  200.50   54.83
   0   5   0  166.28   35.97
   0   5   1  138.72   29.03
   0   5   1  194.46   50.79
   0   5   1  215.48   57.88
   0   5   2  543.82   69.91
   0   5   2  517.17   81.14
   0   5   2  596.03   81.82
   0   5   3  719.49   95.30
   0   5   3  718.17   90.64
   0   5   3  732.56   71.98
   0   5   4   85.12   52.58
   0   5   4   64.37   37.36
   0   5   4  131.81   58.27
   0   5   5   51.12   81.25
   0   5   5   75.42   57.08
   0   5   5   46.65   32.06
   0  -5  -5   54.13   36.39
   0   5   6   10.96   75.63
   0   5   6   26.28   25.57
   0   5   6   44.74   51.49
   0  -5  -6   46.33   41.61
   0   5   7 3615.08  212.24
   0   5   7 3717.54  283.26
   0  -5  -7 3632.88  140.12
   0   5   8  763.12  151.64
   0  -5  -8  690.71   63.08
   0   5   9 2082.06  213.33
   0  -5  -9 2070.83  108.04
   0   5  10  484.61   73.96
   0  -5 -10  502.36   50.25
   0  -5 -10    0.24   44.36
   0   5  11 3303.90  158.42
   0  -5 -11 3493.42  147.44
   0  -5 -11 3000.13  121.99
   0   5  12    1.13   22.39
   0  -5 -12  141.10   31.66
   0  -5 -12    5.48   19.50
   0   6 -14   16.16   20.22
   0   6 -14   22.35   30.99
   0  -6  14  -11.60   24.44
   0   6 -13 1299.23   81.56
   0   6 -13 1447.71  100.94
   0   6 -13 1190.99  101.66
   0  -6  13 1262.17  139.88
   0   6 -12 4128.68  262.93
   0   6 -12 3556.52  136.24
   0  -6  12 3892.13  182.49
   0   6 -11  243.54   40.29
   0   6 -11  309.43   51.05
   0   6 -11  320.18   69.92
   0   6 -11  367.75   60.45
   0  -6  11  253.94   65.47
   0   6 -10  725.99   95.57
   0   6 -10  678.31   78.56
   0   6 -10  663.18   76.87
   0  -6  10  548.35  141.13
   0   6  -9 2780.67  158.39
   0   6  -9 2829.43  183.66
   0   6  -9 2666.73  138.78
   0  -6   9 2782.54  164.47
   0   6  -8 2147.59  160.92
   0   6  -8 2036.43  143.51
   0   6  -8 1923.00  110.83
   0  -6   8 2038.30  143.32
   0   6  -7 1464.38   89.40
   0   6  -7 1515.82  131.13
   0   6  -7 1668.95  147.70
   0  -6   7 1559.55  129.62
   0   6  -6 1772.28   89.99
   0   6  -6 2008.54  147.82
   0   6  -6 1967.92  244.71
   0  -6   6 1976.69  147.24
   0   6  -5 1565.26  107.42
   0   6  -5 1881.32  214.50
   0   6  -4 3559.27  205.41
   0   6  -4 3681.94  195.56
   0   6  -4 3820.26  206.23
   0   6  -3 5886.60  274.35
   0   6  -3 5869.80  273.69
   0   6  -3 5845.87  246.92
   0  -6   3 4549.95  145.81
   0   6  -2 3494.57  196.57
   0   6  -2 3424.38  159.67
   0   6  -2 3443.44  192.70
   0  -6   2 3127.47  118.06
   0   6  -1 6776.99  251.49
   0   6  -1 7246.98  311.95
   0   6  -1 7563.19  315.92
   0  -6   1 7287.19  246.53
   0   6   013574.06  644.35
   0   6   013869.17  518.72
   0   6   012168.67  410.71
   0  -6   013477.93  460.30
   0   6   1  686.60   96.83
   0   6   1  587.74   85.31
   0  -6  -1  527.54   67.38
   0   6   2 6000.16  284.61
   0   6   2 6241.21  346.45
   0  -6  -2  825.33   87.16
   0   6   3 1155.93  120.98
   0   6   3 1110.33  143.59
   0  -6  -3   -6.04   34.94
   0   6   4 5769.87  270.43
   0   6   4 5290.96  281.82
   0  -6  -4  -19.43   41.30
   0   6   5  273.86   76.68
   0   6   5  322.74   76.86
   0  -6  -5  -27.79   42.60
   0   6   6  274.84   71.93
   0   6   6  480.35   80.69
   0  -6  -6   -1.04   29.04
   0   6   7  253.72   69.18
   0  -6  -7  158.36   54.82
   0   6   8 1066.21  102.73
   0  -6  -8 1131.44   94.92
   0   6   9  254.72   59.98
   0  -6  -9  347.29   58.20
   0   6  10  718.27   72.40
   0  -6 -10  753.38   66.18
   0  -6 -11 1501.42   67.27
   0   7 -12  984.56   64.40
   0   7 -12 1216.91   89.23
   0  -7  12 1108.15   85.23
   0   7 -11 4046.98  155.54
   0   7 -11 4510.94  283.94
   0   7 -11 3955.69  148.77
   0  -7  11 4153.00  187.21
   0   7 -10   77.67   38.69
   0   7 -10   19.33   50.99
   0   7 -10   31.05   45.03
   0  -7  10   36.73   43.83
   0   7  -9  389.19   81.95
   0   7  -9  343.99  112.14
   0   7  -9  306.48   40.41
   0  -7   9  324.44  113.86
   0   7  -8  -30.70   37.21
   0   7  -8   23.15   41.61
   0  -7   8   29.13   43.00
   0   7  -7   93.97   63.43
   0   7  -7   92.21   59.52
   0  -7   7   78.72   54.42
   0   7  -6  924.65  115.40
   0   7  -6  889.00  112.64
   0  -7   6 1029.54  111.26
   0   7  -5 1699.97  137.14
   0   7  -5 1733.71  150.11
   0  -7   5 1786.72  144.01
   0   7  -4   -0.94   88.44
   0   7  -4   52.94   45.59
   0   7  -3  142.37   48.14
   0   7  -3   41.88   63.44
   0   7  -3   87.66   62.83
   0   7  -2  140.34   65.40
   0   7  -2  153.71   44.42
   0   7  -2   89.32   65.82
   0  -7   2   44.77   38.29
   0   7  -1   64.15   48.69
   0   7  -1   19.59   46.72
   0   7  -1   13.81   26.23
   0  -7   1   -2.13   19.49
   0   7   0   32.45   45.20
   0   7   0    9.90   44.10
   0  -7   0    6.91   24.83
   0   7   1    2.93   38.73
   0   7   1   27.10   43.28
   0  -7  -1    7.32   27.88
   0   7   2  542.09   92.39
   0   7   2  646.57   78.48
   0  -7  -2  480.37   66.66
   0   7   3  308.91   58.91
   0   7   3  281.66  122.64
   0  -7  -3  166.49   53.96
   0   7   4   -1.31   61.83
   0   7   4   -6.50   25.38
   0  -7  -4   48.69   42.51
   0   7   5  162.31   91.39
   0   7   5   97.48   33.24
   0  -7  -5  158.59   55.44
   0   7   6 1393.41  179.23
   0  -7  -6 1557.49  111.59
   0   7   7   31.12   64.16
   0  -7  -7   44.07   39.28
   0   7   8 2359.87  180.05
   0  -7  -8 2809.36  134.09
   0   7   9  655.63   57.17
   0  -7  -9  707.80   62.12
   0   8 -10 1090.89   96.90
   0  -8  10  946.06   79.69
   0   8  -9 2556.46  133.72
   0   8  -9 2844.19  228.38
   0  -8   9 2732.14  142.96
   0   8  -8  -14.19   57.74
   0   8  -8   21.77   38.34
   0  -8   8  -19.68   61.36
   0   8  -7 1184.14  111.50
   0   8  -7 1319.65  113.48
   0  -8   7 1240.52  104.45
   0   8  -6  626.10   91.14
   0   8  -6  531.50   81.93
   0  -8   6  535.79   81.62
   0   8  -5 1451.43  128.61
   0   8  -5 1291.06  106.01
   0  -8   5 1423.78  118.26
   0   8  -4   43.03   53.89
   0   8  -4   48.76   36.26
   0  -8   4   43.00   48.78
   0   8  -3  599.82   90.52
   0   8  -3  469.99   57.91
   0  -8   3   -1.80   33.41
   0   8  -2 1296.92  185.16
   0   8  -2 1024.50   66.16
   0   8  -1 1304.23  185.76
   0   8  -1 1545.60  128.18
   0  -8   1 1155.40   61.70
   0   8   0 1900.58  193.76
   0   8   0 1992.45  143.04
   0  -8   0 1605.64  117.86
   0   8   1  941.64  102.11
   0   8   1  823.58   86.36
   0  -8  -1  717.76   94.62
   0   8   2  158.02   48.17
   0   8   2  214.14   61.08
   0  -8  -2   69.16   34.66
   0   8   3  107.46   60.29
   0   8   3  114.08   51.10
   0  -8  -3   70.42   36.70
   0   8   4 1161.67   97.38
   0   8   4 1427.02  101.92
   0  -8  -4 1463.43   92.69
   0   8   5  527.77   65.73
   0  -8  -5  471.49   59.20
   0   8   6    5.01   23.50
   0  -8  -6   -1.19   21.55
   0   9  -5  469.89   69.41
   0  -9   5  472.02   62.14
   0   9  -4  205.31   57.02
   0  -9   4  134.81   47.27
   0   9  -3   46.51   41.20
   0  -9   3   15.49   31.75
   0   9  -2   19.74   34.09
   0  -9   2   -2.42   26.86
   0   9  -1    8.57   28.85
   0  -9   1   16.37   31.74
   0   9   0   31.56   29.72
   0  -9   0   29.22   34.21
   1  -9   1  312.59   48.53
  -1   9  -1  243.87   55.72
   1  -9   2 1181.40   82.30
  -1   9  -2 1258.10   97.91
   1  -9   3   32.14   31.84
  -1   9  -3   49.06   40.38
   1  -8  -6   89.93   39.48
   1  -8  -5 1864.85  109.72
  -1   8   5 1527.24   81.13
   1  -8  -4  110.21   75.82
  -1   8   4  126.06   36.83
  -1   8   4   -2.08   33.26
   1  -8  -3 1204.89  146.80
  -1   8   3 1297.70   89.83
  -1   8   3 1285.00   99.46
   1  -8  -2 1791.41  110.40
  -1   8   2 1851.54  115.61
  -1   8   2 1856.81  127.35
   1  -8  -1 1316.97   90.46
  -1   8   1 1468.24  105.75
  -1   8   1 1348.18  118.36
   1  -8   0   31.88   29.94
  -1   8   0   17.15   41.81
   1  -8   1  810.25   60.16
  -1   8  -1  906.86  100.42
  -1   8  -1  698.70   56.18
   1  -8   2 1380.41  115.37
   1  -8   2 1664.27   75.28
  -1   8  -2 1827.37  102.06
  -1   8  -2 2008.97  143.59
   1  -8   3   58.92   47.18
  -1   8  -3   37.13   74.57
  -1   8  -3   24.15   33.64
   1  -8   4 1011.39   99.66
  -1   8  -4  889.87   94.33
  -1   8  -4 1055.28  107.29
   1  -8   5   64.15   47.57
  -1   8  -5   95.99   53.52
  -1   8  -5   91.03   53.39
   1  -8   6  587.77   83.03
  -1   8  -6  471.75   86.05
  -1   8  -6  533.39   75.60
   1  -8   7 1346.11  109.58
  -1   8  -7 1447.52  100.69
  -1   8  -7 1421.40  121.02
   1  -8   8 1799.30  197.91
  -1   8  -8 1775.09  146.09
  -1   8  -8 1897.57  133.30
   1  -8   9  158.44   55.30
  -1   8  -9  215.03   59.12
   1  -7  -9  451.20   80.72
   1  -7  -8   83.49   40.26
  -1   7   8   27.50   14.88
   1  -7  -7 1372.72   98.37
  -1   7   7 1106.00   72.51
  -1   7   7 1063.68   67.66
   1  -7  -6  122.48   49.39
  -1   7   6  113.98   39.37
  -1   7   6  108.82   39.66
   1  -7  -5 1564.95  115.19
  -1   7   5 1482.94  102.97
  -1   7   5 1425.51   98.69
   1  -7  -4   13.83   36.19
  -1   7   4   38.33   36.35
  -1   7   4   -4.65   68.05
   1  -7  -3   11.66   34.47
  -1   7   3   26.33   35.27
  -1   7   3    1.95   40.32
   1  -7  -2  950.46   91.26
  -1   7   2  906.59   96.32
  -1   7   2 1023.25  109.14
   1  -7  -1  -26.17   36.23
  -1   7   1   -9.83   43.68
  -1   7   1  -16.03   37.50
   1  -7   0   -0.60   40.10
  -1   7   0   38.70   33.16
  -1   7   0  185.87   53.59
  -1   7   0   67.31   60.71
   1  -7   1  813.83  110.82
  -1   7  -1  712.94  105.50
  -1   7  -1  666.10   70.33
  -1   7  -1  698.92   94.81
   1  -7   2 1315.02   80.79
  -1   7  -2 1449.40  107.91
  -1   7  -2 1388.88  137.09
  -1   7  -2 1519.38  128.15
   1  -7   3   18.91   22.36
  -1   7  -3   35.06   50.53
  -1   7  -3   37.42   44.90
   1  -7   4 3436.95  190.22
  -1   7  -4 3149.63  186.38
  -1   7  -4 3216.00  186.80
   1  -7   5  458.90   85.44
  -1   7  -5  317.19   73.28
  -1   7  -5  284.71  114.85
  -1   7  -5  125.25   56.93
   1  -7   6  235.73   70.57
  -1   7  -6  215.88   67.14
  -1   7  -6  291.72  123.65
  -1   7  -6  238.51   66.82
   1  -7   7   -3.44   36.38
  -1   7  -7   54.91   42.07
  -1   7  -7   14.17   90.89
  -1   7  -7   37.67   30.44
   1  -7   8  243.13   70.06
  -1   7  -8  332.66   84.84
  -1   7  -8  405.79   53.10
  -1   7  -8  344.45   60.65
   1  -7   9  235.06  121.40
  -1   7  -9  320.37   78.83
  -1   7  -9  211.84   79.25
  -1   7  -9  405.30   53.21
   1  -7  10 3082.35  178.28
  -1   7 -10 3116.08  169.91
  -1   7 -10 2952.05  138.07
   1  -7  11 3911.92  190.89
  -1   7 -11 3951.10  173.25
  -1   7 -11 3934.74  218.89
   1  -7  12   61.41   42.40
  -1   7 -12   71.24   34.15
   1  -6 -10   -2.46   20.11
   1  -6  -9 3817.06  157.35
  -1   6   9 3224.58  130.83
  -1   6   9 2569.09  130.90
   1  -6  -8  719.65   76.23
  -1   6   8  585.63   55.37
  -1   6   8  639.17   65.58
   1  -6  -7 1228.57  100.31
  -1   6   7 1122.87   83.78
  -1   6   7 1147.93   89.02
   1  -6  -6  146.51   56.83
  -1   6   6  285.66   55.90
  -1   6   6  181.11   54.24
   1  -6  -5 1769.86  128.22
  -1   6   5 1767.26  122.10
  -1   6   5 1834.82  120.43
   1  -6  -4 2065.60  137.17
  -1   6   4 2104.49  137.91
  -1   6   4 2047.08  131.17
   1  -6  -3 1163.87  105.95
  -1   6   3 1154.91  160.79
  -1   6   3 1167.96  114.72
   1  -6  -2  196.19   60.86
  -1   6   2  233.28   98.95
   1  -6  -1 2271.36  132.14
  -1   6   1 2398.64  153.80
  -1   6   1 2193.46  138.62
  -1   6   1 2017.10   98.86
   1  -6   0 1208.48   91.53
  -1   6   0 1257.72  190.35
  -1   6   0 1225.92  106.02
  -1   6   0 1061.86   83.15
   1  -6   1 2618.59  127.89
  -1   6  -1 2968.76  270.33
  -1   6  -1 2709.86  158.59
  -1   6  -1 2531.24  139.32
   1  -6   2  819.78  102.72
  -1   6  -2  902.04  104.38
  -1   6  -2  665.72   82.46
  -1   6  -2  846.68   93.05
  -1   6  -2  866.74   97.78
   1  -6   3 1665.64   85.50
  -1   6  -3 1816.73  135.13
  -1   6  -3 1854.35  135.81
  -1   6  -3 1678.47  136.24
  -1   6  -3 1575.01   81.68
   1  -6   4  563.88   45.61
  -1   6  -4  628.08   91.08
  -1   6  -4  666.63   59.50
   1  -6   5  431.93   84.26
  -1   6  -5  432.23   87.43
  -1   6  -5  338.77   72.20
  -1   6  -5  352.27   53.65
   1  -6   6  105.28   61.38
  -1   6  -6  110.36   63.25
  -1   6  -6  117.95   84.40
  -1   6  -6   74.32   41.59
   1  -6   7 7722.86  331.71
  -1   6  -7 8285.29  360.99
  -1   6  -7 7372.99  298.27
  -1   6  -7 7599.28  293.31
   1  -6   8  488.28   90.53
  -1   6  -8  420.18   63.10
  -1   6  -8  400.29  138.93
  -1   6  -8  401.93  116.99
   1  -6   9  139.95  106.79
  -1   6  -9  145.28   56.88
  -1   6  -9  215.42   63.46
  -1   6  -9  117.42   40.68
   1  -6  10 1628.60  143.50
  -1   6 -10 1639.17  125.79
  -1   6 -10 1695.18  124.64
   1  -6  11 6519.17  292.60
  -1   6 -11 6761.20  276.57
  -1   6 -11 5333.91  183.13
  -1   6 -11 6580.43  255.29
   1  -6  12   96.92   56.37
  -1   6 -12  174.08   54.45
  -1   6 -12  166.75   38.42
  -1   6 -12   86.57   29.11
   1  -6  13  -12.61   59.35
  -1   6 -13   39.09   60.26
  -1   6 -13   13.41   18.46
   1  -6  14  186.68   47.65
  -1   6 -14  233.32   53.40
   1  -5 -13  248.28   38.56
   1  -5 -12 1544.83   88.09
   1  -5 -11  667.01   48.86
   1  -5 -11 1068.20  110.58
  -1   5  11  661.02   51.75
   1  -5 -10  -14.30   22.09
   1  -5 -10    8.70   19.33
   1  -5 -10    4.86   15.48
  -1   5  10    1.69   21.02
   1  -5  -9  565.70   62.12
   1  -5  -9  600.53   60.14
  -1   5   9  447.97   51.97
  -1   5   9  560.43   59.75
   1  -5  -8 4483.23  170.31
   1  -5  -8 4680.64  192.85
  -1   5   8 4183.26  174.01
  -1   5   8 4302.74  181.85
   1  -5  -7 2785.68  116.22
   1  -5  -7 2997.86  149.92
  -1   5   7 2934.91  147.14
  -1   5   7 3003.28  148.29
   1  -5  -6  136.04   52.76
   1  -5  -6  141.25   30.20
  -1   5   6  110.70   47.52
  -1   5   6  141.30   48.38
   1  -5  -5 5013.15  202.22
   1  -5  -5 3986.37  132.66
  -1   5   5 5005.67  212.35
  -1   5   5 5106.98  219.32
   1  -5  -4   79.58   46.23
  -1   5   4   70.17   45.08
  -1   5   4   42.16   40.27
   1  -5  -3 1675.09  112.94
  -1   5   3 1651.97  110.84
  -1   5   3 1640.61  119.15
   1  -5  -2 2912.79  146.12
  -1   5   2 2684.19   92.37
  -1   5   2 2877.16  141.87
  -1   5   2 2504.04   97.28
  -1   5   2 2439.88  107.10
  -1   5   2 2730.13  114.39
  -1   5   2 2905.52  151.81
   1  -5  -1 1272.52   91.54
  -1   5   1 1171.06   86.14
  -1   5   1 1260.29   96.00
  -1   5   1 1133.90   70.55
  -1   5   1 1342.90  107.62
  -1   5   1 1147.03   53.71
   1  -5   0 3604.83  150.16
  -1   5   0 3590.88  176.60
  -1   5   0 3270.16  111.11
  -1   5   0 3448.47  228.58
  -1   5   0 3414.87  143.86
  -1   5   0 3341.06  123.57
   1  -5   1  430.22   52.80
  -1   5  -1  455.04   42.18
  -1   5  -1  441.51   48.23
  -1   5  -1  396.30   73.37
  -1   5  -1  486.26   66.80
  -1   5  -1  472.23   63.35
   1  -5   2 1827.05   88.12
  -1   5  -2 1720.73   84.07
  -1   5  -2 1923.71   95.95
  -1   5  -2 2235.18  121.87
  -1   5  -2 1821.00  180.07
  -1   5  -2 1922.05  188.16
   1  -5   3 2797.44  149.79
  -1   5  -3 2972.09  151.13
  -1   5  -3 2708.53  114.53
  -1   5  -3 2889.93  242.94
  -1   5  -3 2981.75  153.47
   1  -5   4 4437.94  143.20
  -1   5  -4 4577.10  194.99
  -1   5  -4 4424.21  236.02
   1  -5   5 2433.87   86.51
   1  -5   5 3021.49  152.98
  -1   5  -5 2902.82  136.61
  -1   5  -5 2841.45  141.56
  -1   5  -5 2892.63  175.04
   1  -5   6 1016.51  101.89
  -1   5  -6  997.52  124.50
  -1   5  -6  953.55  107.90
  -1   5  -6  955.10   87.71
   1  -5   7  849.38   99.71
  -1   5  -7  638.31   46.00
  -1   5  -7  744.54   85.28
  -1   5  -7  730.60   95.07
  -1   5  -7  714.18   70.57
   1  -5   8  993.02  112.46
  -1   5  -8  887.48   59.97
  -1   5  -8  951.21  104.34
  -1   5  -8  986.69  100.15
  -1   5  -8  964.05   73.57
   1  -5   9 2478.70  255.90
  -1   5  -9 2755.59  248.35
  -1   5  -9 2609.71  210.76
  -1   5  -9 2228.40  105.08
  -1   5  -9 2083.39  103.35
   1  -5  10 6924.33  317.21
  -1   5 -10 6896.50  309.94
  -1   5 -10 6410.42  238.51
  -1   5 -10 6558.12  264.94
   1  -5  11  614.37  100.43
  -1   5 -11  512.10   58.97
  -1   5 -11  592.63   90.44
  -1   5 -11   -0.05   94.26
   1  -5  12  277.26   76.05
  -1   5 -12  305.50   99.66
  -1   5 -12  350.95   80.70
  -1   5 -12  321.45   42.38
   1  -5  13   22.94   68.11
  -1   5 -13   37.12   34.78
  -1   5 -13   -4.04   74.85
   1  -5  14   16.95   35.77
  -1   5 -14   27.07   32.85
  -1   5 -14   32.74   42.67
   1  -5  15   12.28   29.11
  -1   5 -15   30.17   29.01
  -1   5 -15   33.45   37.69
   1  -4 -14  834.19   74.39
   1  -4 -13 2448.15  114.20
   1  -4 -13 2725.33  207.33
   1  -4 -12  802.59   89.02
   1  -4 -12  828.44   70.66
  -1   4  12  540.46   44.64
   1  -4 -11 3371.83  163.47
   1  -4 -11 3458.79  143.53
   1  -4 -11 2398.34  100.00
  -1   4  11 2748.06  165.09
   1  -4 -10   97.04   46.36
   1  -4 -10  145.15   64.40
   1  -4 -10   62.92   30.05
  -1   4  10   76.93   44.50
  -1   4  10   78.94   35.54
   1  -4  -9 6128.26  293.66
   1  -4  -9 5788.59  209.87
   1  -4  -9 6271.47  246.85
  -1   4   9 5489.32  200.48
  -1   4   9 5447.30  213.81
   1  -4  -8 1595.21  101.00
   1  -4  -8 1575.42  136.41
  -1   4   8 1431.82   94.42
  -1   4   8 1547.05   89.68
   1  -4  -7   45.49   32.68
   1  -4  -7   65.91   49.15
  -1   4   7    1.27   29.44
  -1   4   7   32.58   29.80
   1  -4  -6  101.92   32.38
   1  -4  -6   95.84   49.69
  -1   4   6   99.39   38.05
  -1   4   6   76.75   39.59
   1  -4  -5  551.76   59.31
   1  -4  -5  494.64   42.32
   1  -4  -5  428.90   41.50
  -1   4   5  427.50   33.83
  -1   4   5  484.32   89.01
  -1   4   5  384.44   45.85
  -1   4   5  553.83   61.05
   1  -4  -4 4889.43  150.58
   1  -4  -4 4787.85  146.81
   1  -4  -4 5488.27  195.06
   1  -4  -4 5164.77  224.16
  -1   4   4 4172.47  120.92
  -1   4   4 5348.66  197.45
  -1   4   4 4716.17  173.01
  -1   4   4 4846.97  163.80
  -1   4   4 4672.78  164.76
  -1   4   4 5040.88  246.10
   1  -4  -3  202.85   62.92
   1  -4  -3  231.42   45.53
   1  -4  -3  194.26   24.32
   1  -4  -3  199.39   26.57
  -1   4   3  268.86   29.44
  -1   4   3  244.08   31.18
  -1   4   3  209.07   33.28
  -1   4   3  231.47   53.42
  -1   4   3  181.06   27.52
  -1   4   3  233.89   47.36
   1  -4  -221377.62  723.16
   1  -4  -218924.57  547.21
   1  -4  -221938.89  808.11
   1  -4  -221484.47  896.68
   1  -4  -219551.65  585.40
  -1   4   220333.22  620.72
  -1   4   220504.73  639.85
  -1   4   220745.50  812.76
  -1   4   220695.79  698.48
  -1   4   219528.61  613.99
  -1   4   220766.44  668.01
   1  -4  -163590.27 2460.30
   1  -4  -167959.93 2740.74
   1  -4  -167902.32 2706.65
   1  -4  -168750.64 2928.72
   1  -4  -168597.78 2836.93
  -1   4   165333.12 2582.34
  -1   4   163732.83 2482.82
  -1   4   168998.32 2938.69
  -1   4   165561.03 2585.74
  -1   4   165772.24 2471.10
  -1   4   166211.24 2680.59
   1  -4   033183.04 1091.50
   1  -4   036298.17 1259.61
   1  -4   036115.62 1294.84
   1  -4   037141.95 1318.90
  -1   4   035066.45 1195.06
  -1   4   036410.87 1315.64
  -1   4   035984.23 1265.24
  -1   4   035917.53 1258.20
  -1   4   034482.27 1114.80
  -1   4   037199.18 1345.06
   1  -4   181810.15 3553.08
   1  -4   171560.23 2876.56
   1  -4   178126.39 3232.35
   1  -4   178382.41 3176.78
  -1   4  -176720.64 3177.75
  -1   4  -175548.35 3051.41
  -1   4  -178271.51 3255.31
  -1   4  -173067.61 2858.61
  -1   4  -176466.27 3184.88
   1  -4   2  138.19   26.00
   1  -4   2  193.25   52.22
   1  -4   2  178.76   36.02
   1  -4   2  198.53   48.66
  -1   4  -2  181.02   54.46
  -1   4  -2  166.72   39.40
  -1   4  -2  225.67   51.47
  -1   4  -2  166.81   18.92
  -1   4  -2  187.75   50.80
   1  -4   3 4815.14  214.74
   1  -4   3 6254.71  214.47
   1  -4   3 5422.70  176.38
   1  -4   3 6222.30  231.03
   1  -4   3 6208.30  231.16
  -1   4  -3 5577.66  140.92
  -1   4  -3 5343.51  134.63
  -1   4  -3 6053.82  203.87
  -1   4  -3 6709.44  198.50
  -1   4  -3 5896.23  283.86
  -1   4  -3 6029.07  226.32
  -1   4  -3 6095.56  234.94
   1  -4   4 1334.69   81.14
   1  -4   4 1102.82   46.77
   1  -4   4 1306.94   59.37
   1  -4   4 1387.96   97.71
   1  -4   4 1383.48   97.69
  -1   4  -4 1211.55   83.77
  -1   4  -4 1124.98   45.07
  -1   4  -4 1323.48   82.04
  -1   4  -4 1128.11   55.85
  -1   4  -4 1223.30   59.59
  -1   4  -4 1257.58   99.90
   1  -4   5 1484.74  166.40
   1  -4   5 1513.21  122.77
   1  -4   5 1490.23   57.24
   1  -4   5 1543.18  102.36
   1  -4   5 1491.75  101.99
   1  -4   5 1221.51   51.55
  -1   4  -5 1291.79   72.07
  -1   4  -5 1544.60  150.05
  -1   4  -5 1620.96  175.94
  -1   4  -5 1420.66   59.24
  -1   4  -5 1419.63   49.35
  -1   4  -5 1519.08   84.43
   1  -4   6 6061.33  226.59
   1  -4   6 6523.54  262.16
   1  -4   6 4876.06  179.64
   1  -4   6 6295.87  338.32
   1  -4   6 6436.34  238.97
   1  -4   6 5463.06  147.67
  -1   4  -6 5765.09  252.83
  -1   4  -6 6069.45  185.90
  -1   4  -6 6182.33  237.33
  -1   4  -6 6462.51  245.18
  -1   4  -6 5746.66  208.28
  -1   4  -6 5525.94  152.94
   1  -4   710058.18  373.45
   1  -4   7 9838.92  362.99
  -1   4  -7 9288.32  304.76
  -1   4  -7 9967.28  359.56
  -1   4  -7 8194.91  239.38
  -1   4  -7 9717.35  303.44
  -1   4  -710192.19  354.81
   1  -4   8  181.01   61.58
  -1   4  -8  115.63   33.02
  -1   4  -8  199.45   48.01
  -1   4  -8  174.62   57.03
  -1   4  -8  115.54   40.02
   1  -4   9  278.13   77.08
  -1   4  -9  251.49   53.02
  -1   4  -9  258.51   84.46
  -1   4  -9  335.04  117.77
   1  -4  10  297.06   80.72
  -1   4 -10  359.42   51.26
  -1   4 -10  300.50   64.43
  -1   4 -10  384.53   84.24
   1  -4  11   10.57   44.62
  -1   4 -11   47.74   33.88
  -1   4 -11    0.93   17.95
  -1   4 -11   -5.06   44.32
   1  -4  12  -25.61   49.06
  -1   4 -12   12.05   44.53
  -1   4 -12   74.51   52.28
   1  -4  13 2076.05  231.05
  -1   4 -13 2089.44  134.10
  -1   4 -13 2109.59  153.35
   1  -4  14  741.61   91.15
  -1   4 -14  833.56   99.61
  -1   4 -14  807.39  150.78
   1  -4  15   11.06   32.81
  -1   4 -15   -4.84   33.41
  -1   4 -15  -14.27   33.87
   1  -4  16   12.11   44.12
  -1   4 -16   25.25   30.71
  -1   4 -16   26.77   31.79
   1  -3 -15  465.17   61.77
   1  -3 -15  452.37   58.84
   1  -3 -14  808.51  142.64
   1  -3 -14  890.24   81.26
   1  -3 -13 3614.55  182.61
   1  -3 -13 3544.17  242.80
   1  -3 -12 5146.94  237.10
   1  -3 -12 4918.33  219.93
  -1   3  12 3924.48  148.46
   1  -3 -11 5278.70  233.08
   1  -3 -11 5613.14  249.55
  -1   3  11 4414.35  172.84
   1  -3 -10 1630.49  115.64
   1  -3 -10 1774.95  126.40
  -1   3  10 1484.86   87.73
  -1   3  10 1440.97   77.64
   1  -3  -9 8134.68  302.47
   1  -3  -9 8513.43  319.95
  -1   3   9 7253.74  248.93
  -1   3   9 7469.48  262.11
   1  -3  -8 6282.30  240.66
   1  -3  -8 6349.50  230.50
  -1   3   8 5909.38  206.72
  -1   3   8 5705.08  200.10
  -1   3   8 5600.08  169.86
   1  -3  -7 2375.85  114.16
   1  -3  -7 2319.89  109.75
   1  -3  -7 2160.51  160.09
   1  -3  -7 2324.77  106.15
  -1   3   7 2106.45   77.42
  -1   3   7 2236.06  102.21
  -1   3   7 2213.08  102.77
  -1   3   7 2028.01  109.36
  -1   3   7 2298.91  114.70
  -1   3   7 2235.08  114.43
   1  -3  -6  805.67   63.03
   1  -3  -6  953.28   65.26
   1  -3  -6  769.32   76.21
   1  -3  -6  816.84   63.74
  -1   3   6  869.41   75.39
  -1   3   6  790.40   60.32
  -1   3   6  750.77   48.30
  -1   3   6  777.36   44.84
  -1   3   6  821.11   65.91
  -1   3   6  837.95   71.92
   1  -3  -5 6637.90  272.76
   1  -3  -5 6310.16  203.72
   1  -3  -5 6719.26  248.58
   1  -3  -5 6966.06  290.94
  -1   3   5 6370.12  179.72
  -1   3   5 5504.18  141.91
  -1   3   5 6541.74  221.77
  -1   3   5 6225.02  230.03
  -1   3   5 6517.72  190.16
  -1   3   5 6418.77  205.66
  -1   3   5 5925.44  155.28
   1  -3  -4 1277.45   99.23
   1  -3  -4 1210.32   65.73
   1  -3  -4 1392.28   77.88
   1  -3  -4 1187.64   66.38
  -1   3   4 1187.60   95.18
  -1   3   4 1245.52   87.22
  -1   3   4 1278.19  101.24
  -1   3   4 1291.78   80.09
  -1   3   4 1213.91   56.66
  -1   3   4 1118.99   47.62
  -1   3   4 1237.52   73.21
   1  -3  -316573.65  553.64
   1  -3  -316949.70  715.70
   1  -3  -316560.12  513.93
   1  -3  -315789.10  461.88
  -1   3   315551.16  451.39
  -1   3   316277.44  488.83
  -1   3   316406.84  495.99
  -1   3   316213.31  470.59
  -1   3   315842.48  496.70
  -1   3   315965.32  548.14
  -1   3   316611.38  542.02
   1  -3  -2  115.77   58.59
   1  -3  -2  167.14   25.79
   1  -3  -2  157.69   41.35
   1  -3  -2  162.91   51.95
   1  -3  -2  119.46   31.40
  -1   3   2  191.23   41.68
  -1   3   2  119.05   63.47
  -1   3   2  131.00   35.44
  -1   3   2  167.92   50.80
  -1   3   2  130.33   31.72
  -1   3   2  221.32   32.01
  -1   3   2  102.12   40.83
   1  -3  -137435.10 1351.64
   1  -3  -137025.72 1269.36
   1  -3  -137847.87 1461.70
   1  -3  -135801.67 1121.19
   1  -3  -136167.64 1181.56
  -1   3   137495.15 1250.88
  -1   3   136645.70 1248.49
  -1   3   137601.48 1321.81
  -1   3   137261.59 1282.99
  -1   3   136664.43 1278.56
  -1   3   137288.71 1205.13
   1  -3   074027.79 3040.83
   1  -3   073804.86 2933.16
   1  -3   074593.48 2897.56
   1  -3   076419.44 3062.55
   1  -3   076090.03 3194.68
  -1   3   073296.52 2875.11
  -1   3   077577.22 2728.48
  -1   3   075461.09 3014.35
  -1   3   066954.42 2406.07
  -1   3   073197.69 3044.21
  -1   3   072812.35 2925.48
  -1   3   073356.86 2865.44
  -1   3   074103.28 2964.99
   1  -3   1 2997.76  138.98
   1  -3   1 2973.46  121.27
   1  -3   1 2939.95  103.41
   1  -3   1 3120.47  137.65
   1  -3   1 3013.90  139.43
  -1   3  -1 2655.28   62.76
  -1   3  -1 2982.43  216.85
  -1   3  -1 3083.86  124.59
  -1   3  -1 2792.20   72.10
  -1   3  -1 3073.25  132.66
  -1   3  -1 3031.77   95.82
  -1   3  -1 3057.19  137.09
   1  -3   2 6534.47  186.58
   1  -3   2 6459.57  232.54
   1  -3   2 6651.67  242.78
   1  -3   2 6627.84  204.71
   1  -3   2 6971.95  233.33
  -1   3  -2 6657.88  232.13
  -1   3  -2 6690.25  245.02
  -1   3  -2 6363.75  214.79
  -1   3  -2 6738.61  228.18
  -1   3  -2 6750.03  225.00
  -1   3  -2 6661.50  223.35
  -1   3  -2 6245.92  156.90
   1  -3   3 5970.01  178.11
   1  -3   3 6499.08  285.01
   1  -3   3 6204.17  230.95
   1  -3   3 6414.87  191.21
   1  -3   3 6310.44  233.90
  -1   3  -3 6309.03  237.31
  -1   3  -3 6066.40  204.94
  -1   3  -3 5944.72  163.33
  -1   3  -3 5844.09  183.40
  -1   3  -3 6208.44  224.20
  -1   3  -3 5989.68  163.87
  -1   3  -3 6189.07  216.33
   1  -3   4  102.91   34.47
   1  -3   4   66.57   68.04
   1  -3   4   81.71   46.67
   1  -3   4   91.54   27.07
   1  -3   4   -0.09   44.88
   1  -3   4  155.89   29.55
   1  -3   4   64.82   44.48
  -1   3  -4   94.07   23.83
  -1   3  -4   85.65   45.14
  -1   3  -4   65.95   27.16
  -1   3  -4   93.05   41.70
  -1   3  -4   81.37   34.17
  -1   3  -4   79.66   32.58
   1  -3   5 8502.40  368.93
   1  -3   5 7965.51  267.47
   1  -3   5 8058.84  294.26
   1  -3   5 8260.26  285.22
   1  -3   5 7723.69  238.63
   1  -3   5 8648.11  252.86
   1  -3   5 7830.78  254.88
  -1   3  -5 7945.33  240.17
  -1   3  -5 7999.68  278.22
  -1   3  -5 8138.00  374.48
  -1   3  -5 7953.09  241.44
  -1   3  -5 7686.73  266.46
  -1   3  -5 8060.69  231.92
   1  -3   6 2820.30  142.77
   1  -3   6 2803.92  132.22
   1  -3   6 2473.03   77.15
   1  -3   6 2592.47  146.86
   1  -3   6 2711.46  134.81
   1  -3   6 2778.57   96.02
   1  -3   6 2598.02  117.70
  -1   3  -6 2661.67  133.71
  -1   3  -6 2658.96  133.08
  -1   3  -6 2631.28  136.37
  -1   3  -6 2741.68  123.22
  -1   3  -6 2711.04  112.46
  -1   3  -6 2684.29   96.85
   1  -3   7  150.55   25.36
   1  -3   7  120.82   52.00
   1  -3   7  146.93   48.90
   1  -3   7   89.45   24.18
   1  -3   7  151.09   46.57
   1  -3   7  157.29   34.49
   1  -3   7  101.21   36.21
  -1   3  -7  133.96   31.06
  -1   3  -7  140.68   40.68
  -1   3  -7  151.54   38.02
  -1   3  -7  117.12   27.36
  -1   3  -7  131.10   50.52
  -1   3  -7  132.92   49.32
   1  -3   8 3008.46  124.71
   1  -3   8 2960.63   96.33
   1  -3   8 3005.23  115.46
   1  -3   8 3419.35  245.92
  -1   3  -8 3256.31  124.50
  -1   3  -8 3060.79  116.84
  -1   3  -8 3366.33  163.20
  -1   3  -8 2929.19  100.28
  -1   3  -8 3278.43  202.85
   1  -3   9 7190.02  286.06
   1  -3   9 6708.10  243.52
  -1   3  -9 6758.55  269.23
  -1   3  -9 7363.76  367.29
  -1   3  -9 7830.54  407.57
   1  -3  10  556.94   92.42
  -1   3 -10  762.94   95.32
  -1   3 -10  707.48   86.13
   1  -3  11 4195.30  225.86
  -1   3 -11 4407.26  215.75
  -1   3 -11 4610.98  231.56
   1  -3  12   49.28   89.38
  -1   3 -12   59.13   52.07
  -1   3 -12   69.00   31.55
  -1   3 -12    7.70   52.58
   1  -3  13  776.15  102.45
  -1   3 -13  821.85  149.41
  -1   3 -13  623.72   60.24
  -1   3 -13  789.29   92.78
   1  -3  14   -6.47   36.78
  -1   3 -14  -14.14   18.32
  -1   3 -14   25.05   31.84
  -1   3 -14   25.62   31.55
   1  -3  15    8.22   33.88
  -1   3 -15    0.65   33.69
  -1   3 -15  -29.18   29.59
  -1   3 -15   14.61   28.43
   1  -3  16   20.26   54.71
  -1   3 -16  -47.41   32.63
  -1   3 -16  -12.00   12.18
  -1   3 -16   -0.90   26.37
   1  -2 -16  111.54   43.43
   1  -2 -16  112.66   36.46
   1  -2 -15  170.95   57.90
   1  -2 -15  932.43  112.70
   1  -2 -14  308.10   67.81
   1  -2 -14  281.09   62.38
   1  -2 -13 1906.80  130.51
   1  -2 -13 1920.61  138.02
  -1   2  13 1378.36   74.41
   1  -2 -12 6096.97  272.36
   1  -2 -12 6170.89  278.16
  -1   2  12 5120.67  189.76
   1  -2 -11  372.76   75.03
   1  -2 -11  428.99   74.48
   1  -2 -11  328.93   47.71
  -1   2  11  266.65   65.90
  -1   2  11  226.66   59.33
   1  -2 -10  352.58   49.41
   1  -2 -10  458.64   71.60
   1  -2 -10  462.43   72.68
  -1   2  10  337.85   41.69
  -1   2  10  299.81   46.46
   1  -2  -9 1790.10   73.78
   1  -2  -9 1730.54   91.12
   1  -2  -9 1983.97  117.31
   1  -2  -9 2024.37  117.12
  -1   2   9 1676.51   84.71
  -1   2   9 1787.25   84.90
   1  -2  -813841.85  421.52
   1  -2  -813314.60  437.67
   1  -2  -815193.96  505.74
   1  -2  -814129.60  436.40
   1  -2  -814857.64  495.08
   1  -2  -815103.96  556.26
  -1   2   813165.34  414.57
  -1   2   812357.73  390.32
  -1   2   813753.22  430.60
  -1   2   813487.84  509.48
  -1   2   814049.10  431.55
   1  -2  -7 6955.04  233.55
   1  -2  -7 7653.74  342.51
   1  -2  -7 7696.25  234.53
   1  -2  -7 7551.48  258.08
   1  -2  -7 6983.03  265.47
   1  -2  -7 7354.47  403.10
  -1   2   7 6517.93  212.19
  -1   2   7 6968.53  216.57
  -1   2   7 7332.99  275.04
  -1   2   7 7115.15  229.28
  -1   2   7 7342.21  245.46
   1  -2  -6 2423.22  103.56
   1  -2  -6 2417.08  114.49
   1  -2  -6 2209.25  100.22
   1  -2  -6 2490.83  101.15
   1  -2  -6 2389.89  146.70
   1  -2  -6 2376.58  169.78
  -1   2   6 2326.05   96.26
  -1   2   6 2286.60  104.96
  -1   2   6 2187.77  101.14
  -1   2   6 2366.31  115.80
  -1   2   6 2187.67   60.26
  -1   2   6 2229.73   89.60
  -1   2   6 2120.26   75.13
   1  -2  -5 7641.40  249.85
   1  -2  -5 8240.31  267.12
   1  -2  -5 8314.32  270.57
   1  -2  -5 7976.67  336.07
   1  -2  -5 8565.39  258.90
  -1   2   5 8048.73  264.00
  -1   2   5 8355.62  254.32
  -1   2   5 7962.35  181.30
  -1   2   5 8036.83  207.77
  -1   2   5 7922.17  289.19
  -1   2   5 8167.10  266.37
  -1   2   5 8477.32  290.14
  -1   2   5 8077.64  212.27
   1  -2  -4 7503.60  240.20
   1  -2  -4 6486.66  286.54
   1  -2  -4 8312.23  239.68
   1  -2  -4 7614.05  239.88
   1  -2  -4 7541.28  339.45
  -1   2   4 7499.07  207.70
  -1   2   4 7566.54  255.46
  -1   2   4 7762.75  253.74
  -1   2   4 7752.77  205.94
  -1   2   4 7215.06  155.65
  -1   2   4 8020.01  317.29
  -1   2   4 7683.48  225.74
   1  -2  -3   97.32   41.25
   1  -2  -3   81.78   50.71
   1  -2  -3   79.79   31.30
   1  -2  -3   72.55   26.91
   1  -2  -3   -4.62   39.48
  -1   2   3   93.54   42.73
  -1   2   3   81.92   31.76
  -1   2   3   85.99   26.39
  -1   2   3  109.42   30.37
  -1   2   3   85.67   36.08
  -1   2   3  110.87   34.15
  -1   2   3   94.00   39.93
  -1   2   3  106.75   13.53
   1  -2  -2103754.7 4571.71
   1  -2  -2104676.3 4437.12
   1  -2  -2111355.3 4877.35
   1  -2  -2112387.1 4775.53
   1  -2  -2110318.2 4764.76
  -1   2   2109979.6 4641.77
  -1   2   2102356.7 4362.94
  -1   2   2102652.9 4477.06
  -1   2   2107071.0 4542.25
  -1   2   2108613.5 4796.61
  -1   2   2104915.3 4519.26
  -1   2   2110190.9 4714.12
  -1   2   2102821.7 4068.06
   1  -2  -1139792.1 6514.57
   1  -2  -1148922.1 7182.18
   1  -2  -1141750.6 6622.37
   1  -2  -1145924.5 6668.49
   1  -2  -1149021.4 7309.33
  -1   2   1141238.3 6605.99
  -1   2   1147584.3 6967.84
  -1   2   1140260.4 6189.92
  -1   2   1150517.4 6857.14
  -1   2   1139690.8 6534.59
  -1   2   1144975.9 6780.74
  -1   2   1143252.1 6760.18
  -1   2   1150367.8 7099.15
   1  -2   0146184.6 6773.39
   1  -2   0138830.9 6451.77
   1  -2   0141220.9 6652.88
   1  -2   0137814.7 6557.12
   1  -2   0145390.3 6740.48
   1  -2   0137742.6 6391.70
  -1   2   0147207.2 6634.79
  -1   2   0137748.9 6436.77
  -1   2   0143492.0 6421.60
  -1   2   0138674.9 6476.65
  -1   2   0136573.6 6343.56
  -1   2   0139935.8 6675.74
  -1   2   0141708.6 6500.89
  -1   2   0140137.0 6204.78
   1  -2   1167910.9 8159.15
   1  -2   1165605.7 8031.64
   1  -2   1160694.2 7751.36
   1  -2   1167325.1 8188.49
   1  -2   1157165.1 7661.45
   1  -2   1164052.1 8175.75
   1  -2   1167549.4 8100.82
  -1   2  -1156616.7 7354.47
  -1   2  -1165943.0 7892.45
  -1   2  -1154632.5 7454.24
  -1   2  -1159325.4 7717.73
  -1   2  -1156961.3 7561.27
  -1   2  -1165682.7 7624.33
  -1   2  -1161592.4 7805.92
  -1   2  -1161790.5 7796.13
   1  -2   2  257.76   44.43
   1  -2   2  314.42   72.87
   1  -2   2  304.55   50.34
   1  -2   2  300.16   53.58
   1  -2   2  296.11   70.37
   1  -2   2  324.41   51.71
  -1   2  -2  254.95   37.04
  -1   2  -2  282.75   87.21
  -1   2  -2  269.32   43.04
  -1   2  -2  287.83   40.46
  -1   2  -2  276.15   14.31
  -1   2  -2  325.45   50.87
  -1   2  -2  305.58   53.60
  -1   2  -2  289.35   42.29
   1  -2   3 5744.20  164.43
   1  -2   3 5401.17  160.28
   1  -2   3 5322.42  175.37
   1  -2   3 5419.25  196.67
   1  -2   3 5563.96  266.10
   1  -2   3 5553.85  190.59
  -1   2  -3 5345.21  188.60
  -1   2  -3 5135.24  183.14
  -1   2  -3 5551.49  189.83
  -1   2  -3 5326.15  206.76
  -1   2  -3 5276.87  105.48
  -1   2  -3 5286.84  167.34
  -1   2  -3 5559.96  171.95
   1  -2   4 8883.61  239.25
   1  -2   4 8696.13  276.55
   1  -2   4 8522.14  289.28
   1  -2   4 8620.90  384.23
   1  -2   4 8925.18  284.38
   1  -2   4 8874.83  283.09
   1  -2   4 8970.12  277.32
  -1   2  -4 8741.81  271.70
  -1   2  -4 8744.49  263.26
  -1   2  -4 8832.22  238.07
  -1   2  -4 8165.44  284.90
  -1   2  -4 8512.03  279.88
  -1   2  -4 8481.21  205.41
  -1   2  -4 8589.48  338.09
  -1   2  -4 8572.73  235.38
   1  -2   5 8394.10  278.60
   1  -2   5 8010.02  270.57
   1  -2   5 7922.08  221.16
   1  -2   5 8136.70  278.01
   1  -2   5 8415.19  255.36
   1  -2   5 7907.24  282.39
   1  -2   5 8062.01  214.65
  -1   2  -5 7566.01  176.16
  -1   2  -5 8140.02  218.11
  -1   2  -5 7945.62  258.27
  -1   2  -5 7924.44  290.52
  -1   2  -5 7897.99  247.54
  -1   2  -5 8083.94  375.18
  -1   2  -5 7751.40  251.10
  -1   2  -5 8014.40  252.97
   1  -2   637571.45 1351.85
   1  -2   637347.98 1259.90
   1  -2   636952.55 1432.49
   1  -2   637248.00 1317.30
   1  -2   636255.51 1233.02
   1  -2   639113.94 1369.75
   1  -2   636565.20 1183.51
  -1   2  -638731.94 1423.40
  -1   2  -638416.90 1225.33
  -1   2  -637021.15 1385.69
  -1   2  -633188.42 1046.27
  -1   2  -637440.21 1330.05
  -1   2  -637735.97 1316.03
  -1   2  -635996.24 1188.83
  -1   2  -638293.73 1296.31
   1  -2   7 1736.56   60.65
   1  -2   7 1888.25  105.90
   1  -2   7 1730.93   54.54
   1  -2   7 1936.64  103.71
   1  -2   7 1811.66  115.80
   1  -2   7 1770.31   71.30
   1  -2   7 1799.30  112.48
  -1   2  -7 1834.37   73.05
  -1   2  -7 1750.02   48.92
  -1   2  -7 1866.09  104.06
  -1   2  -7 1616.15   65.70
  -1   2  -7 1757.20  145.28
  -1   2  -7 1820.64  106.68
  -1   2  -7 1865.78  126.29
  -1   2  -7 1786.05   55.55
  -1   2  -7 1692.77   81.22
   1  -2   8  -18.91   28.54
   1  -2   8   12.43   30.10
   1  -2   8   15.11   14.86
   1  -2   8   12.81   32.88
   1  -2   8    6.35   32.73
  -1   2  -8   -3.53   14.11
  -1   2  -8   18.38   45.61
  -1   2  -8   -2.75   41.09
  -1   2  -8   -3.79    9.02
  -1   2  -8  -10.28   27.50
  -1   2  -8  -16.52   34.97
   1  -2   9 1703.53  122.46
   1  -2   9 1773.23  116.47
  -1   2  -9 1777.76  116.50
  -1   2  -9 1792.15  113.86
   1  -2  10 4967.17  227.88
  -1   2 -10 5267.14  225.68
  -1   2 -10 5287.16  317.94
   1  -2  1111175.22  589.38
  -1   2 -1111645.48  439.05
  -1   2 -1111202.67  426.24
   1  -2  12 5256.56  264.68
  -1   2 -12 5182.94  216.95
  -1   2 -12 5402.97  245.67
  -1   2 -12 5198.52  230.85
   1  -2  13 9289.19  390.99
  -1   2 -13 9062.71  356.18
  -1   2 -13 9273.84  372.79
  -1   2 -13 9044.08  341.08
   1  -2  14 1043.00  110.05
  -1   2 -14 1134.39   91.58
  -1   2 -14 1105.90  101.74
  -1   2 -14 1081.21   86.71
   1  -2  15  155.33   90.51
  -1   2 -15  182.71   84.76
  -1   2 -15  104.68   42.75
  -1   2 -15  196.38   43.37
   1  -2  16  128.52   45.53
  -1   2 -16   47.43   31.99
  -1   2 -16  136.39   41.00
   1  -1 -16   54.88   74.39
   1  -1 -16  111.56   31.93
   1  -1 -15  636.32   64.10
   1  -1 -15  617.20   81.41
   1  -1 -14  201.16   53.07
   1  -1 -14  251.54   66.60
   1  -1 -14  255.48   44.62
   1  -1 -13 5527.08  223.93
   1  -1 -13 6367.56  276.82
   1  -1 -13 6216.73  250.24
  -1   1  13 4849.44  173.52
   1  -1 -12  456.66   78.54
   1  -1 -12  385.64   62.23
   1  -1 -12  374.34   71.05
  -1   1  12  299.54   43.80
   1  -1 -1112326.15  449.26
   1  -1 -1113727.72  508.46
   1  -1 -1113258.96  475.97
  -1   1  1111370.99  377.90
  -1   1  1111479.63  369.40
   1  -1 -10 4042.91  183.77
   1  -1 -10 3715.09  164.25
   1  -1 -10 3985.88  172.31
  -1   1  10 3458.41  131.70
  -1   1  10 3525.42  130.17
   1  -1  -9 6083.41  220.98
   1  -1  -9 6001.48  314.92
   1  -1  -9 5794.96  284.97
   1  -1  -9 5605.09  169.42
   1  -1  -9 5676.22  181.44
  -1   1   9 5551.99  194.29
  -1   1   9 5506.80  182.38
  -1   1   9 5421.13  177.29
  -1   1   9 5531.22  197.75
   1  -1  -8 1260.79   61.71
   1  -1  -8 1272.22  139.18
   1  -1  -8 1330.59  179.19
   1  -1  -8 1158.72   45.07
   1  -1  -8 1319.92  181.37
   1  -1  -8 1274.30  127.77
   1  -1  -8 1322.68   84.90
   1  -1  -8 1258.60   80.65
  -1   1   8 1233.02   62.22
  -1   1   8 1244.91  109.29
  -1   1   8 1228.96   76.12
  -1   1   8 1180.74   76.72
  -1   1   8 1239.52   55.32
  -1   1   8  985.23   44.00
   1  -1  -7 1535.89  118.84
   1  -1  -7 1420.69  137.90
   1  -1  -7 1521.27   89.47
   1  -1  -7 1485.55  122.92
   1  -1  -7 1496.27  147.22
   1  -1  -7 1504.23  147.49
   1  -1  -7 1494.93   68.44
   1  -1  -7 1440.49   53.54
  -1   1   7 1458.80   86.64
  -1   1   7 1343.82   55.73
  -1   1   7 1492.84   62.81
  -1   1   7 1429.48  136.45
  -1   1   7 1476.48   68.04
  -1   1   7 1426.61  125.38
  -1   1   7 1402.23   44.92
   1  -1  -618085.22  682.16
   1  -1  -616965.74  655.67
   1  -1  -618306.81  574.16
   1  -1  -618344.34  641.37
   1  -1  -618419.39  606.19
   1  -1  -616743.86  647.88
   1  -1  -618606.25  655.23
   1  -1  -618312.13  528.02
  -1   1   617510.78  506.24
  -1   1   617313.42  550.57
  -1   1   617616.63  518.47
  -1   1   618174.80  668.12
  -1   1   616910.91  498.61
  -1   1   617478.23  571.52
  -1   1   617572.36  524.74
   1  -1  -5 2159.99  168.70
   1  -1  -5 2063.89   70.35
   1  -1  -5 2062.92  132.37
   1  -1  -5 2043.62  166.61
   1  -1  -5 2086.45   80.63
   1  -1  -5 2308.75   85.87
   1  -1  -5 2117.91   79.86
   1  -1  -5 1973.44  157.66
   1  -1  -5 2148.34  130.86
  -1   1   5 2117.97  111.33
  -1   1   5 2065.28   77.14
  -1   1   5 2044.87   81.08
  -1   1   5 2171.86  108.81
  -1   1   5 2052.97  103.76
  -1   1   5 2035.82   71.04
  -1   1   5 2129.96  104.37
   1  -1  -411852.87  306.02
   1  -1  -411325.00  325.37
   1  -1  -411574.41  370.18
   1  -1  -411933.38  444.95
   1  -1  -412096.30  366.81
   1  -1  -412015.31  412.11
   1  -1  -412402.39  331.34
  -1   1   412252.36  396.99
  -1   1   411781.92  362.69
  -1   1   411681.91  378.39
  -1   1   411982.63  341.27
  -1   1   412611.21  322.03
  -1   1   411706.81  313.77
  -1   1   411927.29  366.21
   1  -1  -345210.04 1597.30
   1  -1  -346351.04 1596.95
   1  -1  -344741.31 1533.91
   1  -1  -346878.26 1610.58
   1  -1  -346206.87 1586.74
  -1   1   346479.28 1603.51
  -1   1   346041.44 1570.00
  -1   1   347281.01 1657.43
  -1   1   345719.70 1591.27
  -1   1   345708.04 1572.79
  -1   1   344577.32 1499.40
  -1   1   347000.18 1605.46
   1  -1  -219023.26  610.69
   1  -1  -219282.54  584.60
   1  -1  -218680.93  507.17
   1  -1  -218834.89  584.46
   1  -1  -219113.45  568.74
   1  -1  -219638.23  620.96
  -1   1   217964.55  477.66
  -1   1   219369.45  733.67
  -1   1   219639.11  594.25
  -1   1   219487.14  614.80
  -1   1   219139.31  575.93
  -1   1   219057.66  733.17
   1  -1  -1180725.5 8966.54
   1  -1  -1161518.5 7876.78
   1  -1  -1181084.2 8986.91
   1  -1  -1176746.1 8589.20
   1  -1  -1176437.5 8651.08
   1  -1  -1177015.7 8728.32
  -1   1   1162792.0 7957.41
  -1   1   1180488.5 8967.38
  -1   1   1177243.1 8896.70
  -1   1   1184316.7 9030.73
  -1   1   1170882.3 8484.58
  -1   1   1184344.4 9155.40
  -1   1   1171114.1 8477.90
   1  -1   0171670.6 8401.52
   1  -1   0173281.1 8313.19
   1  -1   0176963.8 8639.56
   1  -1   0164410.8 8342.12
   1  -1   0178429.4 8680.00
  -1   1   0175539.2 8747.00
  -1   1   0183230.9 9175.11
  -1   1   0184414.6 8942.52
  -1   1   0188788.1 9347.40
  -1   1   0172163.3 8535.07
  -1   1   0174215.2 8751.65
  -1   1   0179104.5 8894.16
   1  -1   142177.42 1462.87
   1  -1   143197.85 1470.54
   1  -1   143534.25 1503.90
   1  -1   140804.30 1418.18
   1  -1   143102.23 1403.84
   1  -1   141684.44 1511.03
   1  -1   142382.73 1445.35
  -1   1  -142742.31 1444.08
  -1   1  -141515.09 1435.94
  -1   1  -142708.81 1458.33
  -1   1  -141463.79 1318.73
  -1   1  -142155.39 1615.03
  -1   1  -141430.49 1630.20
   1  -1   234156.24 1095.82
   1  -1   235310.44 1182.65
   1  -1   234619.33 1124.46
   1  -1   234274.12 1113.05
   1  -1   235707.00 1299.12
   1  -1   235675.04 1161.57
   1  -1   236039.01 1168.78
  -1   1  -234360.12 1257.41
  -1   1  -234441.16 1110.59
  -1   1  -235204.00 1137.19
  -1   1  -234521.59 1180.87
  -1   1  -235076.51 1161.78
  -1   1  -235069.20 1067.89
   1  -1   3   10.43   25.05
   1  -1   3   12.11   13.64
   1  -1   3   46.85   26.51
   1  -1   3   26.15   22.52
   1  -1   3   11.35   29.85
   1  -1   3   30.61   31.46
   1  -1   3   47.43   28.81
   1  -1   3   49.25   62.41
  -1   1  -3   17.11   39.19
  -1   1  -3   23.18   50.88
  -1   1  -3   15.96   25.52
  -1   1  -3   -1.98   34.19
  -1   1  -3   15.26   29.68
  -1   1  -3   -1.95   28.79
  -1   1  -3    0.83   37.74
   1  -1   4 3112.25  119.14
   1  -1   4 2969.28   70.09
   1  -1   4 3065.16  141.34
   1  -1   4 2938.35  102.96
   1  -1   4 2911.80  191.77
   1  -1   4 3007.76  131.80
   1  -1   4 3200.61   99.19
   1  -1   4 2975.34  150.78
  -1   1  -4 2797.16  148.27
  -1   1  -4 3029.52  138.86
  -1   1  -4 2922.90  178.14
  -1   1  -4 2996.77  131.50
  -1   1  -4 3045.63   99.52
  -1   1  -4 3021.91   96.60
  -1   1  -4 3205.43  104.71
   1  -1   5 6230.98  234.11
   1  -1   5 5709.99  150.72
   1  -1   5 6060.96  187.82
   1  -1   5 6308.27  183.47
   1  -1   5 6244.85  164.12
   1  -1   5 6255.01  199.49
  -1   1  -5 6134.35  227.07
  -1   1  -5 5919.51  174.49
  -1   1  -5 6550.82  180.13
  -1   1  -5 5788.06  237.45
  -1   1  -5 6041.03  199.50
  -1   1  -5 5916.16  196.97
  -1   1  -5 6171.68  220.67
   1  -1   634979.72 1140.80
   1  -1   635323.79 1190.19
   1  -1   635101.86 1264.88
   1  -1   635292.58 1104.98
   1  -1   633634.29 1190.80
   1  -1   635106.12 1184.61
   1  -1   633197.16 1030.36
  -1   1  -635850.59 1276.08
  -1   1  -638034.29 1213.76
  -1   1  -633902.27 1079.46
  -1   1  -635441.57 1300.20
  -1   1  -634654.28 1190.86
  -1   1  -634391.31 1145.44
  -1   1  -635324.12 1221.32
   1  -1   7 1866.08  101.11
   1  -1   7 1721.66   57.78
   1  -1   7 2067.29  126.10
   1  -1   7 1873.35   54.62
   1  -1   7 1981.05  115.42
   1  -1   7 2045.66   93.67
   1  -1   7 1941.62  118.39
  -1   1  -7 2038.00   83.79
  -1   1  -7 2102.75   70.83
  -1   1  -7 2048.43  134.85
  -1   1  -7 2092.02  124.57
  -1   1  -7 2043.43  111.64
  -1   1  -7 2006.65  150.25
   1  -1   8 2913.76  116.84
   1  -1   8 2872.30  146.54
   1  -1   8 2644.79   87.58
   1  -1   8 2901.45  155.68
   1  -1   8 2945.67  141.71
  -1   1  -8 3012.10   87.33
  -1   1  -8 3045.74  137.00
  -1   1  -8 3226.02  154.95
  -1   1  -8 2926.72   97.63
  -1   1  -8 3004.18  126.39
  -1   1  -8 3021.17  109.48
   1  -1   9 4683.97  219.94
   1  -1   9 4466.58  164.60
   1  -1   9 4933.33  305.41
  -1   1  -9 4643.23  144.81
  -1   1  -9 5051.60  215.58
  -1   1  -9 4792.02  189.53
  -1   1  -9 4997.50  179.22
  -1   1  -9 4660.19  156.65
  -1   1  -9 4285.05  138.41
   1  -1  10 5335.34  250.15
  -1   1 -10 4942.70  188.91
  -1   1 -10 5063.20  276.78
  -1   1 -10 4575.47  151.34
   1  -1  11 7285.45  336.79
  -1   1 -11 7128.01  275.92
  -1   1 -11 6420.42  209.45
  -1   1 -11 7355.71  286.95
  -1   1 -11 7100.71  325.69
   1  -1  12 1730.35  149.01
  -1   1 -12 1865.08  122.74
  -1   1 -12 1851.54  109.15
  -1   1 -12 1876.16  129.67
   1  -1  13 1286.63  131.23
  -1   1 -13 1440.56  107.46
  -1   1 -13 1368.77   91.21
  -1   1 -13 1409.78  115.69
   1  -1  14   36.41   75.31
  -1   1 -14   37.43   40.90
  -1   1 -14   89.92   46.24
  -1   1 -14   77.46   32.41
   1  -1  15  -10.56   35.04
  -1   1 -15  -29.90   49.89
  -1   1 -15    6.23   54.34
   1  -1  16   -9.15   29.88
  -1   1 -16    8.61   25.75
  -1   1 -16   -0.02   20.40
   1   0 -17    6.20   23.69
   1   0 -16  360.94   46.90
   1   0 -16  458.06   58.58
   1   0 -16  320.54   33.62
   1   0 -15 1189.18   95.90
   1   0 -15 1030.85   65.84
   1   0 -15 1100.03   85.82
   1   0 -14    6.34   42.69
   1   0 -14   11.47   40.57
   1   0 -14   72.68   25.96
   1   0 -14   26.97   47.90
   1   0 -13   32.10   31.61
   1   0 -13   82.27   47.26
   1   0 -13   34.42   47.73
   1   0 -13   87.76   34.91
  -1   0  13   46.90   27.20
   1   0 -12 8805.68  453.61
   1   0 -12 8883.34  317.62
   1   0 -12 9727.49  367.75
   1   0 -12 9057.41  320.89
  -1   0  12 8154.32  275.34
  -1   0  12 7788.50  254.07
   1   0 -11 6052.86  213.28
   1   0 -11 5679.10  249.19
   1   0 -11 5864.21  213.87
   1   0 -11 5887.20  330.13
  -1   0  11 4996.46  227.34
  -1   0  11 5458.77  229.93
   1   0 -10 2708.83  198.76
   1   0 -10 2730.29  119.83
   1   0 -10 2801.85  169.10
   1   0 -10 2733.71  144.34
  -1   0  10 2523.56  105.66
  -1   0  10 2464.99  106.65
  -1   0  10 2467.80  103.13
   1   0  -9  178.38   51.78
   1   0  -9  218.30   40.02
   1   0  -9  171.87   46.79
   1   0  -9  166.33   59.49
   1   0  -9  197.29   59.09
   1   0  -9  146.45   88.95
  -1   0   9  155.03   40.67
  -1   0   9  204.12   62.56
  -1   0   9  175.94   49.09
  -1   0   9  162.58   32.35
  -1   0   9  203.60   37.68
   1   0  -815177.96  513.01
   1   0  -814891.73  517.44
   1   0  -815386.70  532.67
   1   0  -815179.89  486.94
   1   0  -815291.58  473.72
   1   0  -814681.76  453.89
   1   0  -814370.03  458.54
  -1   0   814253.69  426.52
  -1   0   814397.59  450.48
  -1   0   814352.07  447.33
  -1   0   814449.04  477.95
  -1   0   814771.14  472.29
  -1   0   813793.13  414.98
   1   0  -7 4998.75  181.43
   1   0  -7 5165.36  173.91
   1   0  -7 5310.19  312.27
   1   0  -7 5055.98  198.48
   1   0  -7 4397.67  107.40
   1   0  -7 5300.51  153.45
   1   0  -7 4991.68  190.52
   1   0  -7 4940.42  209.11
   1   0  -7 4998.11  165.76
  -1   0   7 4900.59  175.27
  -1   0   7 5043.21  194.35
  -1   0   7 4857.12  139.59
  -1   0   7 4849.63  149.61
  -1   0   7 4885.84  175.94
  -1   0   7 5051.13  188.45
   1   0  -6 8316.81  256.52
   1   0  -6 8209.95  239.84
   1   0  -6 8331.81  266.16
   1   0  -6 8405.66  290.97
   1   0  -6 8028.48  181.08
   1   0  -6 8993.08  242.70
   1   0  -6 8359.16  303.13
   1   0  -6 8009.18  244.63
   1   0  -6 8431.84  301.18
  -1   0   6 8091.77  279.51
  -1   0   6 7994.04  223.45
  -1   0   6 7995.16  274.57
  -1   0   6 7990.18  226.18
  -1   0   6 8526.82  341.73
   1   0  -5 1022.95   67.91
   1   0  -5 1028.62   62.61
   1   0  -5 1038.66   45.09
   1   0  -5 1031.44   88.65
   1   0  -5 1052.35   70.13
   1   0  -5 1028.14   85.38
   1   0  -5 1117.67   51.11
   1   0  -5 1014.85   63.43
  -1   0   5 1118.52   68.39
  -1   0   5 1029.61   92.19
  -1   0   5 1074.91  128.15
  -1   0   5  980.98   48.85
  -1   0   5  972.54   80.65
   1   0  -4  531.48   25.86
   1   0  -4  505.51   68.55
   1   0  -4  521.91   20.62
   1   0  -4  564.83   70.17
   1   0  -4  493.81   54.89
   1   0  -4  558.07   35.49
   1   0  -4  496.46   52.71
   1   0  -4  538.55   54.53
   1   0  -4  490.05   83.78
  -1   0   4  556.55   65.54
  -1   0   4  555.80   68.62
  -1   0   4  538.39   54.42
  -1   0   4  539.08   53.05
   1   0  -3 1736.68  116.74
   1   0  -3 1738.09   47.67
   1   0  -3 1772.87   92.42
   1   0  -3 1629.80  102.17
   1   0  -3 1646.52  109.73
   1   0  -3 1684.32   56.20
   1   0  -3 1776.44   55.58
   1   0  -3 1662.18   92.06
   1   0  -3 1757.62   91.31
  -1   0   3 1656.71  107.10
  -1   0   3 1698.77   93.38
  -1   0   3 1668.84   98.79
  -1   0   3 1756.01   89.34
  -1   0   3 1579.26  190.50
   1   0  -2 1835.82  128.68
   1   0  -2 1832.32  181.23
   1   0  -2 1891.22  128.12
   1   0  -2 1850.26  119.41
   1   0  -2 1966.75  103.50
   1   0  -2 1961.90  106.26
   1   0  -2 2010.00  110.22
  -1   0   2 1940.38  214.11
  -1   0   2 1960.84  106.40
  -1   0   2 1866.02  104.34
  -1   0   2 1992.19  109.97
  -1   0   2 2004.12  212.29
  -1   0   2 1683.27  128.47
   1   0  -1   -0.21   35.68
   1   0  -1  135.99   88.81
   1   0  -1   -1.56   38.79
   1   0  -1  165.40   40.50
   1   0  -1  164.20   41.05
   1   0  -1  144.56   28.66
   1   0  -1  145.26   41.94
  -1   0   1    2.06   34.26
  -1   0   1  182.99   38.46
  -1   0   1  164.48   47.81
  -1   0   1  179.55   66.16
  -1   0   1    2.94   39.15
  -1   0   1  151.36   38.96
   1   0   0 1627.79   83.53
   1   0   0 1729.20  101.09
   1   0   0 1661.11   85.12
   1   0   0 1604.97   97.81
   1   0   0 1627.97   68.16
   1   0   0 1669.59   89.07
  -1   0   0 1628.78   91.76
  -1   0   0 1658.76   78.74
  -1   0   0 1612.76   79.74
  -1   0   0 1647.68   83.10
  -1   0   0 1536.30   90.37
   1   0   1   60.32  112.35
   1   0   1  180.19   54.31
   1   0   1  301.95   55.17
   1   0   1  154.96   40.07
   1   0   1  169.47   55.62
   1   0   1  199.90   33.63
  -1   0  -1   -0.68   52.16
  -1   0  -1  168.28   60.89
  -1   0  -1  425.60   52.97
  -1   0  -1  160.76   92.85
   1   0   2 3768.97  188.16
   1   0   2 4040.52  285.73
   1   0   2 3840.85  292.73
   1   0   2 3941.89  285.63
   1   0   2 3915.86  121.04
   1   0   2 3579.46  154.74
  -1   0  -2 3698.16  183.44
  -1   0  -2 4028.87  174.86
  -1   0  -2 3767.26  163.06
  -1   0  -2 3934.99  181.37
   1   0   3   67.48   40.62
   1   0   3   37.10   21.59
   1   0   3   34.82   34.28
   1   0   3   18.62   34.61
   1   0   3   39.09   38.71
  -1   0  -3    0.14   36.99
  -1   0  -3   67.81   39.11
  -1   0  -3    0.52   30.43
  -1   0  -3    1.43   32.64
  -1   0  -3   52.24   33.93
  -1   0  -3   29.91   29.62
  -1   0  -3   48.34   38.17
   1   0   4 1374.29   27.17
   1   0   4 1332.40   91.07
   1   0   4 1282.23   21.04
   1   0   4 1263.83   86.00
   1   0   4 1286.79   78.29
   1   0   4 1322.36   99.39
   1   0   4 1307.64  150.23
  -1   0  -4 1325.04   94.03
  -1   0  -4 1274.14   59.48
  -1   0  -4 1376.17   74.99
  -1   0  -4 1353.45   81.51
  -1   0  -4 1298.80   81.11
  -1   0  -4 1300.99   86.66
   1   0   5 1076.99   29.95
   1   0   5 1127.43  111.69
   1   0   5 1168.57   90.22
   1   0   5 1174.96   31.33
   1   0   5 1221.99   91.36
   1   0   5 1185.24  100.10
  -1   0  -5 1114.01   95.00
  -1   0  -5 1285.44   70.43
  -1   0  -5 1312.72   86.68
  -1   0  -5 1182.69   59.72
  -1   0  -5 1243.12   80.03
  -1   0  -5 1140.47   83.45
   1   0   613625.21  450.79
   1   0   613495.62  440.62
   1   0   613369.21  408.26
   1   0   613054.80  308.66
   1   0   613548.62  487.92
   1   0   612024.08  287.15
   1   0   613634.49  459.92
  -1   0  -614712.24  435.00
  -1   0  -614263.02  500.22
  -1   0  -613754.78  407.92
  -1   0  -613836.01  542.25
  -1   0  -613635.35  450.45
  -1   0  -614529.38  478.06
   1   0   7 1330.92   71.27
   1   0   7 1365.02   96.56
   1   0   7 1419.78  102.39
   1   0   7 1467.50  115.95
   1   0   7 1372.26   97.90
  -1   0  -7 1493.24  109.24
  -1   0  -7 1382.24   68.66
  -1   0  -7 1455.19   84.59
  -1   0  -7 1374.26   90.47
  -1   0  -7 1550.78  102.02
  -1   0  -7 1561.82  106.05
   1   0   8 3749.41  169.28
   1   0   8 4127.34  167.66
   1   0   8 3297.38  117.89
   1   0   8 3648.05  186.80
  -1   0  -8 3781.82  118.62
  -1   0  -8 3536.50  122.36
  -1   0  -8 3928.49  184.90
  -1   0  -8 3931.77  169.23
  -1   0  -8 3666.82  140.99
  -1   0  -8 3703.05  151.40
   1   0   9 4617.53  188.68
   1   0   9 5245.41  164.38
   1   0   9 5785.01  234.84
  -1   0  -9 5675.94  192.33
  -1   0  -9 5409.12  176.05
  -1   0  -9 5590.86  162.56
  -1   0  -9 5627.70  211.71
  -1   0  -9 5479.12  194.08
   1   0  10 9651.37  387.47
  -1   0 -10 8543.65  331.89
  -1   0 -10 9626.05  310.63
  -1   0 -10 9418.76  313.91
  -1   0 -10 9538.15  385.46
   1   0  1116091.21  640.23
  -1   0 -1116946.52  619.73
  -1   0 -1115175.09  514.19
  -1   0 -1116725.42  566.09
  -1   0 -1116053.01  555.03
   1   0  12 8326.41  470.36
  -1   0 -12 8820.12  356.16
  -1   0 -12 8014.57  292.62
  -1   0 -12 8355.27  297.63
   1   0  13 7243.09  315.42
  -1   0 -13 7308.13  304.65
  -1   0 -13 6790.94  302.42
  -1   0 -13 6745.44  244.79
   1   0  14 1136.85  107.55
  -1   0 -14 1197.53  103.36
  -1   0 -14  935.91   65.33
  -1   0 -14  965.55   66.37
   1   0  15  231.20   60.53
  -1   0 -15  238.71   32.11
  -1   0 -15  253.23  101.74
   1   0  16  153.24   46.33
  -1   0 -16  120.47   46.69
   1   1 -17    3.40   17.85
   1   1 -16   -3.75   34.32
   1   1 -16   17.07   28.99
   1   1 -16    3.11   23.14
   1   1 -15   94.42   38.09
   1   1 -15   43.28   38.39
   1   1 -15  143.43   50.22
   1   1 -14    6.00   76.71
   1   1 -14   22.85   35.57
   1   1 -14   65.35   36.93
   1   1 -13   16.80   47.80
   1   1 -13   37.66   36.07
   1   1 -13   45.38   39.04
   1   1 -13   20.55   36.93
  -1  -1  13   53.07   44.16
   1   1 -12 3822.14  179.77
   1   1 -12 3758.20  204.57
   1   1 -12 3345.98  165.00
   1   1 -12 3663.58  233.36
  -1  -1  12 3261.66  132.93
  -1  -1  12 3187.90  126.67
   1   1 -11 3268.48  199.40
   1   1 -11 3120.54  117.44
   1   1 -11 3698.94  242.38
   1   1 -11 3498.80  187.24
  -1  -1  11 3051.24  126.51
  -1  -1  11 3046.31  124.56
   1   1 -10 2242.42  105.13
   1   1 -10 2246.84  141.57
   1   1 -10 2109.32  104.60
   1   1 -10 2098.68   84.78
   1   1 -10 2240.71  169.82
  -1  -1  10 2101.00   93.28
  -1  -1  10 2045.78   97.54
  -1  -1  10 2034.65   98.89
   1   1  -9   49.98   23.13
   1   1  -9   50.80   23.26
   1   1  -9   59.03   37.61
   1   1  -9   50.61   29.78
   1   1  -9   62.86   43.37
   1   1  -9   61.99   50.55
   1   1  -9   47.15   35.49
  -1  -1   9   50.64   21.39
  -1  -1   9   68.64   30.31
  -1  -1   9   35.79   42.03
  -1  -1   9   45.80   39.10
  -1  -1   9   21.65   29.96
  -1  -1   9   44.35   39.88
   1   1  -822670.85  779.57
   1   1  -821575.76  680.89
   1   1  -821252.89  716.58
   1   1  -821279.81  677.49
   1   1  -821265.39  652.36
   1   1  -821303.37  702.05
   1   1  -821466.70  706.65
  -1  -1   821382.70  835.15
  -1  -1   821008.88  646.61
  -1  -1   820108.66  623.00
  -1  -1   820962.49  700.40
  -1  -1   820080.39  664.99
   1   1  -714248.00  468.25
   1   1  -713948.34  427.50
   1   1  -713830.91  571.37
   1   1  -713699.61  409.44
   1   1  -713542.32  389.80
   1   1  -713958.44  448.92
   1   1  -713628.62  429.32
   1   1  -713601.95  439.11
  -1  -1   713173.07  459.29
  -1  -1   713582.54  449.90
  -1  -1   712526.88  410.70
  -1  -1   712803.19  375.24
  -1  -1   713726.35  452.20
   1   1  -624100.45  801.82
   1   1  -623148.25  703.33
   1   1  -622737.59  736.78
   1   1  -623716.98  855.74
   1   1  -622846.58  683.35
   1   1  -622958.79  811.32
   1   1  -623204.47  773.89
   1   1  -622963.63  734.65
  -1  -1   623389.65  752.13
  -1  -1   622747.17  747.46
  -1  -1   621780.08  654.33
  -1  -1   621318.17  704.70
  -1  -1   623420.89  728.43
   1   1  -5 4423.54  174.78
   1   1  -5 4165.80  124.59
   1   1  -5 4321.76  165.50
   1   1  -5 4138.22  154.12
   1   1  -5 4164.98  122.49
   1   1  -5 4473.79  150.50
   1   1  -5 4235.99  153.89
  -1  -1   5 4325.76  167.60
  -1  -1   5 4327.10  158.25
  -1  -1   5 4081.89  159.81
  -1  -1   5 4320.39  153.09
  -1  -1   5 3810.64  156.29
   1   1  -4 9320.16  296.11
   1   1  -4 9303.57  243.36
   1   1  -4 9421.13  417.00
   1   1  -4 9763.96  300.17
   1   1  -4 9244.56  371.35
   1   1  -4 9524.70  299.38
   1   1  -4 9528.62  270.97
  -1  -1   4 9241.61  287.33
  -1  -1   4 9543.29  299.66
  -1  -1   4 9619.30  243.55
  -1  -1   4 9649.95  295.53
  -1  -1   4 9158.17  300.09
   1   1  -332349.93 1040.28
   1   1  -330043.00  960.18
   1   1  -330053.81  947.30
   1   1  -330962.95 1027.64
   1   1  -330816.39  929.12
   1   1  -331188.62 1024.24
   1   1  -330438.74  928.92
  -1  -1   329647.95  977.61
  -1  -1   329842.58  986.20
  -1  -1   331171.88  988.65
   1   1  -239117.70 1390.84
   1   1  -240520.96 1389.44
   1   1  -240161.14 1218.72
   1   1  -241307.10 1387.34
   1   1  -239581.17 1376.47
   1   1  -239887.24 1249.77
   1   1  -239185.56 1171.64
   1   1  -241084.38 1410.76
  -1  -1   240351.26 1405.36
  -1  -1   241410.11 1417.79
  -1  -1   241074.36 1381.25
   1   1  -1235046.812210.15
   1   1  -1230059.812173.11
   1   1  -1232571.512593.16
   1   1  -1240165.313188.13
   1   1  -1227800.112198.81
   1   1  -1234780.612493.43
   1   1  -1220485.711948.75
   1   1  -1231527.112490.43
  -1  -1   1223442.912187.69
  -1  -1   1248065.113306.43
   1   1   085825.77 3379.65
   1   1   085409.65 3592.00
   1   1   091141.82 3883.74
   1   1   086920.95 3326.02
   1   1   091515.14 3686.97
   1   1   089441.80 3673.92
   1   1   085011.91 3432.69
   1   1   083649.59 3108.95
   1   1   153200.07 1790.92
   1   1   153648.64 2134.52
   1   1   152713.89 1749.46
   1   1   154566.19 2186.52
   1   1   153841.90 1911.41
   1   1   154446.25 1914.39
   1   1   154383.83 1872.66
  -1  -1  -159890.05 2210.48
  -1  -1  -159400.62 2208.56
   1   1   227434.21  731.39
   1   1   230546.84  957.12
   1   1   227410.84  783.97
   1   1   229972.73  933.48
   1   1   230366.65  993.90
   1   1   231676.63 1112.87
   1   1   230930.37 1020.89
   1   1   228032.49  762.28
  -1  -1  -231454.47 1059.02
  -1  -1  -232846.78 1085.65
   1   1   3 1840.05  110.37
   1   1   3 1845.36  116.11
   1   1   3 1881.22   98.30
   1   1   3 2006.40  101.21
   1   1   3 1932.86   58.39
   1   1   3 1911.39   40.21
  -1  -1  -3 1908.42  114.43
  -1  -1  -3 2124.71  177.66
  -1  -1  -3 1954.77  104.47
   1   1   4  794.04   22.63
   1   1   4  827.06   74.24
   1   1   4  849.68   45.67
   1   1   4  926.14   76.80
   1   1   4  869.45   72.82
   1   1   4  830.40   29.68
   1   1   4  861.95   87.77
  -1  -1  -4  822.69   77.09
  -1  -1  -4  911.98   54.66
  -1  -1  -4  775.76   82.63
  -1  -1  -4  856.13  113.02
   1   1   525111.90  680.79
   1   1   525611.44  858.84
   1   1   526369.71  753.00
   1   1   527448.10  909.03
   1   1   525787.32  688.67
   1   1   526442.05  897.67
   1   1   527380.83  950.18
  -1  -1  -528648.28  930.51
  -1  -1  -528972.28  972.23
  -1  -1  -526566.61  836.18
  -1  -1  -527250.17  944.24
   1   1   633401.31 1012.70
   1   1   633796.80  995.68
   1   1   635849.43 1256.85
   1   1   637744.52 1356.64
   1   1   636307.02 1140.43
   1   1   638000.34 1333.08
   1   1   638680.65 1406.92
  -1  -1  -640393.12 1577.21
  -1  -1  -638999.31 1392.80
  -1  -1  -639766.09 1463.40
  -1  -1  -638475.75 1310.02
  -1  -1  -640579.97 1409.75
   1   1   7 2171.23  154.77
   1   1   7 2211.45   88.38
   1   1   7 2302.30  127.33
  -1  -1  -7 2502.39  135.15
  -1  -1  -7 2614.85  106.35
  -1  -1  -7 2273.95   72.33
  -1  -1  -7 2454.77  130.45
  -1  -1  -7 2328.41   87.80
   1   1   8  508.21   55.32
   1   1   8  544.11   72.55
   1   1   8  483.13   44.68
  -1  -1  -8  456.90   31.13
  -1  -1  -8  557.72   50.11
  -1  -1  -8  516.74   42.54
  -1  -1  -8  521.41   74.00
  -1  -1  -8  550.62   70.44
   1   1   9  204.30   95.78
   1   1   9  197.26   41.99
  -1  -1  -9  206.82   51.34
  -1  -1  -9  205.80   33.25
  -1  -1  -9  232.45   53.88
  -1  -1  -9  229.17   38.09
   1   1  10 2616.78  117.23
   1   1  10 3049.42  164.72
  -1  -1 -10 2962.95  149.10
  -1  -1 -10 3172.15  157.83
  -1  -1 -10 2868.16  146.83
   1   1  11  758.88   99.34
  -1  -1 -11  683.54   80.94
  -1  -1 -11  680.14   90.44
  -1  -1 -11  650.30   50.00
   1   1  12 1971.09  147.27
  -1  -1 -12 2095.59  140.30
  -1  -1 -12 1919.76  126.34
   1   1  13  279.71   72.58
  -1  -1 -13  206.81   92.47
  -1  -1 -13  275.83   66.86
   1   1  14  122.48   56.15
  -1  -1 -14  106.47   87.93
  -1  -1 -14  105.43   40.22
   1   1  15   43.08   65.49
  -1  -1 -15   18.29   25.04
  -1  -1 -15   19.96   35.94
   1   1  16   26.16   31.11
  -1  -1 -16    6.05   31.14
  -1  -1 -16   30.22   28.66
   1   2 -17    1.05   21.07
   1   2 -17   -5.89   24.75
   1   2 -16  836.18   86.25
   1   2 -16  735.94   71.27
   1   2 -16  467.48   63.11
   1   2 -15  946.30   89.10
   1   2 -15  733.66   55.75
   1   2 -15  956.18  161.80
   1   2 -14   48.81   42.61
   1   2 -14  -10.29   50.44
   1   2 -14   36.27   25.72
  -1  -2  14    8.12   20.29
   1   2 -13 2752.22  162.92
   1   2 -13 2855.35  184.94
   1   2 -13 2442.52  113.84
  -1  -2  13 2300.87  104.45
  -1  -2  13 2137.37   98.31
   1   2 -12 4366.33  244.99
   1   2 -12 4745.14  226.22
   1   2 -12 4060.91  157.73
  -1  -2  12 3799.61  155.70
  -1  -2  12 3881.70  152.22
   1   2 -1113857.34  534.52
   1   2 -1112330.77  456.49
   1   2 -1114207.80  652.32
  -1  -2  1112299.60  475.07
   1   2 -10 4582.81  272.35
   1   2 -10 4358.42  160.11
   1   2 -10 4792.42  221.24
   1   2 -10 4265.31  143.19
  -1  -2  10 4103.58  147.83
  -1  -2  10 4295.02  191.39
   1   2  -9 4562.38  175.29
   1   2  -9 4363.63  250.18
   1   2  -9 4593.89  214.62
   1   2  -9 4355.90  195.46
   1   2  -9 3968.60  110.53
   1   2  -9 4492.51  270.63
   1   2  -9 4256.26  132.56
   1   2  -9 4072.43  125.97
  -1  -2   9 4122.33  146.57
  -1  -2   9 4185.22  220.95
  -1  -2   9 4376.99  195.14
  -1  -2   9 4398.74  191.29
  -1  -2   9 4789.07  165.38
   1   2  -8   -0.65   10.29
   1   2  -8   19.46   27.50
   1   2  -8    4.63   14.26
   1   2  -8   17.03   29.40
   1   2  -8  -12.80   27.23
   1   2  -8   16.24   22.39
   1   2  -8   24.76   30.68
   1   2  -8   -0.34   22.20
  -1  -2   8  -13.15   44.56
  -1  -2   8    4.80   24.73
  -1  -2   8   -7.21   30.07
  -1  -2   8   11.83   20.34
  -1  -2   8   26.86   32.41
   1   2  -7   19.95   23.74
   1   2  -7   11.22   23.16
   1   2  -7   -6.66   22.05
   1   2  -7   -2.86   14.27
   1   2  -7    7.30   10.86
   1   2  -7   -0.12   20.55
   1   2  -7   -6.16    8.49
   1   2  -7   -0.87   11.26
  -1  -2   7    6.99   25.44
  -1  -2   7  -27.41   23.53
  -1  -2   7   -2.41   20.62
  -1  -2   7   19.73   21.10
   1   2  -6 3420.27  147.84
   1   2  -6 3653.32  248.33
   1   2  -6 3377.07   93.38
   1   2  -6 3601.43  110.97
   1   2  -6 3357.60   86.56
   1   2  -6 3619.87  152.78
   1   2  -6 3756.35  153.55
   1   2  -6 3384.35  102.24
  -1  -2   6 3458.36  152.02
  -1  -2   6 3461.99  152.39
  -1  -2   6 3600.51  157.22
  -1  -2   6 3524.03  119.62
   1   2  -5  -15.33   26.59
   1   2  -5    3.23    9.46
   1   2  -5   12.15   21.91
   1   2  -5   -2.71   12.05
   1   2  -5   -3.72    8.89
   1   2  -5   -9.89   25.52
   1   2  -5   14.02   37.74
  -1  -2   5   -3.67   32.25
  -1  -2   5   23.36   36.15
  -1  -2   5   61.77   23.96
  -1  -2   5    7.22   35.89
   1   2  -417520.01  626.80
   1   2  -416483.98  542.01
   1   2  -416357.04  432.72
   1   2  -417015.38  507.22
   1   2  -416982.60  543.52
   1   2  -416975.31  469.92
   1   2  -416293.84  422.12
  -1  -2   415810.75  509.00
  -1  -2   417226.26  654.12
   1   2  -3 8320.04  190.87
   1   2  -3 8805.44  290.32
   1   2  -3 8726.37  241.93
   1   2  -3 8360.40  199.07
   1   2  -3 8461.92  169.99
   1   2  -3 8969.47  265.70
   1   2  -3 8591.55  290.91
   1   2  -3 8369.02  182.46
   1   2  -3 8490.72  244.57
  -1  -2   3 9042.69  385.17
  -1  -2   3 8666.49  286.43
   1   2  -2146229.3 6748.32
   1   2  -2145961.9 6724.03
   1   2  -2151433.8 7098.79
   1   2  -2145314.0 6859.22
   1   2  -2150591.7 6906.46
   1   2  -2155085.6 7363.99
   1   2  -2150146.0 7142.49
  -1  -2   2150879.3 7453.93
  -1  -2   2162905.7 7818.57
   1   2  -164993.45 2309.04
   1   2  -170469.09 2681.55
   1   2  -167432.72 2532.98
   1   2  -169014.47 2625.60
   1   2  -170779.21 2633.97
   1   2  -168533.38 2639.04
   1   2  -165019.30 2400.91
   1   2   0221378.211988.05
   1   2   0234814.412662.62
   1   2   0231901.211905.90
   1   2   0227227.312559.18
   1   2   0229644.412495.00
   1   2   0229709.312355.90
   1   2   0237233.912761.91
   1   2   167993.88 2562.29
   1   2   162680.99 2267.26
   1   2   162437.39 2355.44
   1   2   164642.72 2426.36
   1   2   163398.87 2560.64
   1   2   162072.09 2220.55
   1   2   2 6654.56  311.08
   1   2   2 6263.29  325.43
   1   2   2 6369.99  160.19
   1   2   2 6576.89  173.14
   1   2   2 6748.70  223.27
   1   2   2 6509.41  167.63
  -1  -2  -2 7219.54  248.59
   1   2   3 3224.78  152.58
   1   2   3 2999.41  230.31
   1   2   3 3305.44  141.83
   1   2   3 3212.11   85.51
  -1  -2  -3 3645.70  152.63
  -1  -2  -3 3499.14  155.59
   1   2   4 9694.19  319.75
   1   2   4 9203.29  223.30
   1   2   4 8296.59  429.69
   1   2   4 8435.65  172.51
   1   2   4 9318.77  338.84
  -1  -2  -410319.97  348.14
  -1  -2  -4 9667.01  335.44
  -1  -2  -4 9160.44  236.23
   1   2   5   11.83   10.93
   1   2   5   22.59   39.81
   1   2   5    3.57    8.89
   1   2   5   29.06    9.65
   1   2   5    5.51   32.44
   1   2   5  -21.45   35.55
  -1  -2  -5   -1.73   18.02
  -1  -2  -5    0.56   29.88
  -1  -2  -5    5.72   29.74
  -1  -2  -5    5.54   19.24
  -1  -2  -5    8.78   30.17
   1   2   6    2.66   28.28
   1   2   6   11.44   28.07
   1   2   6  -11.32   33.29
  -1  -2  -6    0.73   18.84
  -1  -2  -6  -17.24   30.63
  -1  -2  -6   -5.90   30.52
  -1  -2  -6    8.96   10.80
  -1  -2  -6  -14.57   47.34
   1   2   7 1371.44  100.57
   1   2   7 1280.92   96.92
  -1  -2  -7 1642.94   77.29
  -1  -2  -7 1314.81   85.97
  -1  -2  -7 1495.98  170.28
  -1  -2  -7 1147.54   44.21
  -1  -2  -7 1369.03  108.56
   1   2   8 4278.69  194.65
   1   2   8 4189.76  184.03
  -1  -2  -8 4578.90  171.06
  -1  -2  -8 4594.91  192.96
   1   2   9 5734.19  231.76
   1   2   9 5684.18  251.08
  -1  -2  -9 6077.13  247.93
  -1  -2  -9 6091.64  226.54
   1   2  10   83.19   41.18
   1   2  10   88.54   55.29
  -1  -2 -10  119.46   52.74
  -1  -2 -10   81.71   45.03
   1   2  11 3109.14  194.78
   1   2  11 3696.20  200.83
  -1  -2 -11 3719.12  199.01
  -1  -2 -11 3862.93  181.72
   1   2  12  800.05  105.07
  -1  -2 -12  767.14  136.15
  -1  -2 -12  761.46   99.76
   1   2  13  908.41  158.03
  -1  -2 -13  878.97   89.34
  -1  -2 -13  868.65  143.50
   1   2  14  851.73   93.48
  -1  -2 -14  939.48   83.34
  -1  -2 -14  944.73   84.87
   1   2  15  150.96   49.32
  -1  -2 -15  109.66   40.88
  -1  -2 -15  110.53   39.05
   1   3 -17    6.05   27.28
   1   3 -16   69.29   43.83
   1   3 -15   -1.93   38.85
   1   3 -15   12.72   35.01
   1   3 -14   74.26   55.62
   1   3 -14  109.69   60.90
  -1  -3  14   72.55   28.23
   1   3 -13 8888.67  377.75
  -1  -3  13 7330.10  255.63
  -1  -3  13 7474.47  256.37
   1   3 -12 3053.81  135.13
   1   3 -12 3908.80  203.95
  -1  -3  12 3181.01  189.72
   1   3 -11 2329.54  128.29
   1   3 -11 2503.48  161.87
  -1  -3  11 2165.39  108.18
   1   3 -10 2072.64  137.23
   1   3 -10 1993.20  118.53
  -1  -3  10 1855.60   96.41
   1   3  -9    8.87   28.74
   1   3  -9  -10.01   57.28
   1   3  -9   22.47   33.38
   1   3  -9   -0.22   31.87
  -1  -3   9    6.95   23.47
   1   3  -8 6906.59  256.68
   1   3  -8 6721.49  349.22
   1   3  -8 6743.91  252.35
   1   3  -8 7367.68  354.91
  -1  -3   8 6511.73  238.56
  -1  -3   8 6445.91  207.95
   1   3  -719965.65  670.57
   1   3  -719903.89  701.71
   1   3  -719732.58  684.70
   1   3  -721250.53  806.01
  -1  -3   719089.98  601.83
  -1  -3   720072.99  686.59
  -1  -3   719139.53  650.24
   1   3  -6  244.42   60.64
   1   3  -6  274.17   49.27
   1   3  -6  243.53   45.95
   1   3  -6  283.35   58.54
  -1  -3   6  280.46   60.42
  -1  -3   6  260.20   40.81
  -1  -3   6  246.31   56.37
   1   3  -5 4689.52  155.92
   1   3  -5 4758.28  152.83
   1   3  -5 4772.79  190.72
   1   3  -5 4594.91  190.93
   1   3  -5 3879.30   73.10
   1   3  -5 3877.69   74.96
   1   3  -5 3919.83   79.74
   1   3  -5 3756.04   74.99
  -1  -3   5 4577.54  196.62
  -1  -3   5 4682.29  191.77
   1   3  -4  365.26   38.10
   1   3  -4  356.03   47.09
   1   3  -4  270.26   18.56
   1   3  -4  354.62  109.85
   1   3  -4  328.50   43.41
  -1  -3   4  396.91   68.16
  -1  -3   4  389.79   66.28
   1   3  -3 7530.97  171.24
   1   3  -3 8175.87  288.40
   1   3  -3 8343.14  223.75
   1   3  -3 8494.52  241.45
   1   3  -3 8187.65  207.30
   1   3  -3 8953.21  403.76
   1   3  -3 8360.09  265.50
  -1  -3   3 8837.47  304.43
   1   3  -2 7292.62  204.67
   1   3  -2 7368.48  242.53
   1   3  -2 7358.11  213.20
   1   3  -2 7505.67  328.95
   1   3  -2 7572.91  252.03
   1   3  -2 6867.04  165.15
   1   3  -2 7571.09  264.37
   1   3  -177611.42 2994.17
   1   3  -176481.40 3009.90
   1   3  -184083.78 3529.86
   1   3  -183178.48 3274.79
   1   3  -185167.85 3507.58
   1   3  -184837.97 3539.89
   1   3  -185970.95 3526.50
   1   3   0 4714.06   85.14
   1   3   0 4061.88   74.58
   1   3   0 4307.37  112.71
   1   3   0 4632.14  174.42
   1   3   0 4448.05  255.81
   1   3   0 4676.67  169.83
   1   3   0 4991.31  203.76
   1   3   0 4276.01  176.84
   1   3   1 8306.63  283.77
   1   3   1 6914.31  195.54
   1   3   1 7997.69  281.09
   1   3   1 7889.33  208.75
   1   3   1 7850.80  295.84
   1   3   1 7646.53  233.61
   1   3   2 6066.58  237.29
   1   3   2 5979.72  175.87
   1   3   2 6344.79  234.42
   1   3   2 5774.87  139.89
   1   3   2 5720.78  199.36
  -1  -3  -2 6377.00  236.07
   1   3   3  218.12   17.45
   1   3   3  348.03   63.82
   1   3   3  317.13   58.86
   1   3   3  312.89   29.80
   1   3   3  300.34   53.05
  -1  -3  -3  280.82   20.50
  -1  -3  -3  339.97   61.51
  -1  -3  -3  320.92   62.39
   1   3   4 1128.37   46.10
   1   3   4 1166.69  105.41
   1   3   4 1297.02   97.15
   1   3   4 1161.50   92.38
  -1  -3  -4 1157.64   44.67
  -1  -3  -4 1247.68   99.41
  -1  -3  -4 1377.14  162.35
   1   3   521218.10  758.55
   1   3   521390.64  828.55
   1   3   519301.06  563.45
  -1  -3  -524514.37  838.04
  -1  -3  -520668.78  635.63
  -1  -3  -522364.86  774.52
   1   3   6  -14.69   31.33
   1   3   6   37.75   46.92
  -1  -3  -6   28.00   30.96
  -1  -3  -6   44.34   32.19
  -1  -3  -6  -11.52   14.77
   1   3   7 6855.48  366.57
   1   3   7 6889.71  287.99
  -1  -3  -7 6879.52  217.89
  -1  -3  -7 7280.61  264.69
   1   3   8  795.75   95.70
   1   3   8  832.57  153.75
  -1  -3  -8  954.32   89.66
  -1  -3  -8  880.64   61.04
   1   3   9  -52.07   70.42
   1   3   9   -6.07   77.74
  -1  -3  -9  -17.17   40.03
  -1  -3  -9  -23.65   42.52
   1   3  10  717.68  167.78
   1   3  10  557.27   77.49
  -1  -3 -10  743.57  106.16
  -1  -3 -10  796.61  105.68
   1   3  11  120.39   62.69
   1   3  11   92.16   42.61
  -1  -3 -11  131.81   40.75
  -1  -3 -11   67.98   58.19
   1   3  12   70.98   50.00
   1   3  12   29.50   28.55
  -1  -3 -12   47.54   32.97
  -1  -3 -12   12.54   75.93
   1   3  13    2.71   32.63
  -1  -3 -13   24.94   27.00
  -1  -3 -13   11.48   37.53
   1   3  14   68.84   43.01
  -1  -3 -14   73.09   40.68
  -1  -3 -14   66.95   30.03
   1   4 -16  434.05  129.17
   1   4 -16  649.57  123.80
   1   4 -15   44.51   40.79
   1   4 -15   13.49   43.89
   1   4 -14  949.52  102.32
   1   4 -14  998.64  110.76
  -1  -4  14  678.58   49.55
  -1  -4  14  700.82   52.53
   1   4 -13 2559.93  124.53
   1   4 -13 3084.87  176.22
   1   4 -13 3038.53  186.80
  -1  -4  13 2707.92  162.56
   1   4 -12  156.33   67.56
   1   4 -12  131.92   47.89
   1   4 -12  144.91   63.59
  -1  -4  12   71.35   35.44
   1   4 -11 4872.81  218.61
   1   4 -11 5006.59  306.08
   1   4 -11 5358.96  241.42
   1   4 -11 5281.70  352.90
  -1  -4  11 4490.72  181.56
   1   4 -10 3223.87  170.60
   1   4 -10 3208.10  242.53
   1   4 -10 3071.35  166.59
   1   4 -10 3104.36  169.70
  -1  -4  10 3000.55  138.73
   1   4  -911078.51  408.82
   1   4  -911305.10  438.02
   1   4  -911675.80  418.98
   1   4  -911378.54  433.44
  -1  -4   910673.94  431.48
   1   4  -8 5271.32  203.58
   1   4  -8 5001.01  197.05
   1   4  -8 5260.79  232.77
   1   4  -8 5179.14  236.44
  -1  -4   8 4797.92  177.40
   1   4  -7  123.99   44.90
   1   4  -7   16.93   30.32
   1   4  -7   21.64   30.95
   1   4  -7   44.26   44.33
  -1  -4   7   32.79   29.27
   1   4  -6   -2.24   19.30
   1   4  -6  -14.64   18.95
   1   4  -6   56.41   32.51
   1   4  -6   15.44   32.06
  -1  -4   6    3.34   52.11
  -1  -4   6   -1.43   23.12
  -1  -4   6   13.69   31.35
   1   4  -5 2913.98  153.16
   1   4  -5 2868.97  104.04
   1   4  -5 2856.72  101.63
   1   4  -5 2970.83  129.14
   1   4  -5 3141.62  156.75
  -1  -4   5 2919.78  149.89
  -1  -4   5 3178.93  218.33
   1   4  -4 4391.43  265.97
   1   4  -4 4427.44  130.08
   1   4  -4 4298.64  132.45
   1   4  -4 4600.50  171.97
   1   4  -4 4977.44  280.38
  -1  -4   4 4721.00  194.56
   1   4  -3 2505.83   74.88
   1   4  -3 2710.98  125.31
   1   4  -3 2851.57  202.27
   1   4  -3 2773.11  114.77
   1   4  -3 2760.94  137.91
  -1  -4   3 2856.59  143.20
   1   4  -273590.20 2860.01
   1   4  -277960.27 3229.20
   1   4  -276787.36 3258.45
   1   4  -269187.07 2654.18
   1   4  -277951.62 3232.22
   1   4  -274229.79 2982.66
   1   4  -1 9143.69  335.73
   1   4  -1 7986.31  226.28
   1   4  -1 8497.38  276.87
   1   4  -1 9205.46  351.07
   1   4  -1 9064.08  319.09
   1   4   091997.67 3946.60
   1   4   093157.44 4058.41
   1   4   090275.73 3891.61
   1   4   090800.53 3888.61
   1   4   080780.01 3351.81
   1   4   111061.27  481.11
   1   4   110637.56  362.86
   1   4   1 9951.81  279.50
   1   4   110986.21  405.27
   1   4   1 9548.58  280.90
   1   4   2 1700.98  184.10
   1   4   2 1971.10  119.23
   1   4   2 1932.15  118.75
  -1  -4  -2 1958.79  118.85
   1   4   3 7175.04  380.30
   1   4   3 7195.53  275.08
   1   4   3 6649.42  243.40
  -1  -4  -3 7602.28  287.68
   1   4   4  358.80  114.35
   1   4   4  293.55   65.76
   1   4   4  272.32   30.26
  -1  -4  -4    8.16   19.45
   1   4   5 1197.03  108.08
   1   4   5 1090.43  185.66
  -1  -4  -5 1208.03   72.93
   1   4   6   43.23   83.64
   1   4   6   34.18   48.54
  -1  -4  -6  114.24   38.97
   1   4   7  135.46   62.79
   1   4   7  121.25   64.39
  -1  -4  -7  108.35   43.81
   1   4   8 1529.25  137.64
   1   4   8 1383.48  132.70
  -1  -4  -8 1512.09  107.69
   1   4   9 3760.20  208.85
   1   4   9 3989.08  222.96
  -1  -4  -9 4015.78  187.42
   1   4  10 9278.12  378.14
   1   4  10 9590.57  404.04
  -1  -4 -10 9840.28  382.04
   1   4  11  122.78   46.26
   1   4  11  108.79   61.74
  -1  -4 -11   91.17   84.05
   1   4  12  557.53   82.76
  -1  -4 -12  543.05   74.36
   1   4  13   46.41   40.85
  -1  -4 -13    0.98   11.00
  -1  -4 -13   49.23   29.01
   1   5 -15    9.19   30.28
   1   5 -15    7.84   31.07
   1   5 -14  817.98  126.93
   1   5 -14  805.96   87.87
  -1  -5  14  578.12   43.51
   1   5 -13 8517.48  322.66
   1   5 -13 8834.38  336.69
   1   5 -13 9259.15  364.75
  -1  -5  13 7471.21  296.95
   1   5 -12   -0.20   33.66
   1   5 -12   42.00   39.04
   1   5 -12   38.42   39.69
   1   5 -12   11.92   36.20
  -1  -5  12    2.00   22.35
   1   5 -11 5188.37  234.37
   1   5 -11 5490.33  350.72
   1   5 -11 5142.78  219.57
   1   5 -11 5360.81  234.68
  -1  -5  11 4804.85  193.23
   1   5 -10 3049.06  146.93
   1   5 -10 3051.52  180.73
   1   5 -10 2917.77  213.87
   1   5 -10 3020.34  183.08
  -1  -5  10 2933.88  205.50
   1   5  -9 1039.45   81.18
   1   5  -9  936.84  184.75
   1   5  -9  972.99   79.43
   1   5  -9 1139.26  118.54
  -1  -5   9 1017.03   82.69
   1   5  -8  542.47   57.84
   1   5  -8  694.88  100.81
   1   5  -8  657.05   96.88
   1   5  -8  606.48   60.64
  -1  -5   8  605.95   69.96
   1   5  -7 1501.88   78.66
   1   5  -7 1550.64   82.55
   1   5  -7 1671.51  138.37
   1   5  -7 1725.51  138.25
  -1  -5   7 1706.55  107.33
   1   5  -6 1721.06   75.84
   1   5  -6 1849.35   79.46
   1   5  -6 2040.03  140.05
   1   5  -6 1952.01  141.70
  -1  -5   6   -2.92   26.75
   1   5  -5  160.24   51.01
   1   5  -5   86.72   54.28
   1   5  -5   51.25   21.36
   1   5  -5   99.55   42.74
   1   5  -4   43.59   71.43
   1   5  -4   33.79   40.02
   1   5  -4   28.21   36.97
   1   5  -3 4748.21  195.80
   1   5  -3 4792.69  193.93
   1   5  -3 4437.95  204.26
   1   5  -2   33.59   39.95
   1   5  -2   20.25   63.10
   1   5  -2   38.47   31.68
   1   5  -1 2057.11   98.22
   1   5  -1 2037.38  126.81
   1   5  -1 2041.35   95.66
   1   5  -1 2054.25  119.31
   1   5   0   43.22   45.77
   1   5   0   40.39   37.82
   1   5   0   89.01   36.14
   1   5   0   56.90   23.49
   1   5   1 1023.59   77.47
   1   5   1 1043.07   91.01
   1   5   1 1121.52  100.01
   1   5   2 1110.91   73.55
   1   5   2 1141.59  101.18
   1   5   2 1112.49  104.85
   1   5   3  941.32   99.34
   1   5   3  868.96  100.82
   1   5   3  804.94   58.44
   1   5   4  305.21  113.29
   1   5   4  180.03   32.92
   1   5   4  278.88   72.04
  -1  -5  -4  189.33   28.42
   1   5   5 2612.81  182.45
   1   5   5 2862.20  264.28
  -1  -5  -5 2400.46   96.21
   1   5   6 6139.38  290.77
   1   5   6 5829.60  298.72
  -1  -5  -6 5801.62  198.32
   1   5   7  496.21  102.89
   1   5   7  533.44   96.68
  -1  -5  -7  452.25   54.46
   1   5   8 1631.20  140.00
   1   5   8 1573.13  143.24
  -1  -5  -8 1683.40   94.98
   1   5   9   36.23   50.13
   1   5   9   43.40   83.17
  -1  -5  -9  -23.50   49.56
   1   5  10 2995.23  171.92
   1   5  10 3047.89  265.38
  -1  -5 -10 3077.99  140.85
   1   5  11   24.48   41.62
  -1  -5 -11   25.97   29.86
   1   5  12  135.82   48.50
  -1  -5 -12   -2.74   20.84
  -1  -5 -12  100.73   29.37
   1   6 -14 1216.35  112.39
   1   6 -14 1095.53   65.78
   1   6 -13 1114.32   84.71
   1   6 -13 1013.35   76.74
   1   6 -13  987.40   70.01
  -1  -6  13    3.02   20.07
   1   6 -12    2.92   34.50
   1   6 -12   26.33   22.77
   1   6 -12  -19.66   25.24
   1   6 -12    8.85   28.65
  -1  -6  12   60.76   30.96
   1   6 -11  421.87   70.41
   1   6 -11  311.38   82.54
   1   6 -11  381.70   51.86
   1   6 -11  310.26   48.48
  -1  -6  11  347.68   54.09
   1   6 -10   69.13   50.29
   1   6 -10   87.17   31.22
   1   6 -10    0.24   28.10
   1   6 -10  102.92   88.76
  -1  -6  10   73.03   66.41
   1   6  -9 3297.26  287.85
   1   6  -9 2901.29  173.39
   1   6  -9 3322.66  199.13
  -1  -6   9 3142.50  148.31
   1   6  -8 4639.18  252.15
   1   6  -8 4830.40  260.13
  -1  -6   8 4424.44  192.39
   1   6  -7 1395.25  144.02
   1   6  -7 1429.77  139.62
  -1  -6   7 1474.04  108.02
   1   6  -6 1883.67  158.16
   1   6  -6 1854.26  149.25
  -1  -6   6 1820.27  123.46
   1   6  -5 4646.73  250.66
   1   6  -5 4564.32  228.82
   1   6  -4  -10.80   37.91
   1   6  -4    4.63   44.86
   1   6  -4  -23.03   36.45
   1   6  -3  138.22   60.52
   1   6  -3  205.60   51.44
   1   6  -3  190.05  109.25
   1   6  -2 2819.83  165.38
   1   6  -2 2834.17  164.54
   1   6  -2 2710.49  130.96
   1   6  -1   53.74   28.36
   1   6  -1   49.40   48.67
   1   6  -1   16.32   44.54
  -1  -6   1   35.24   24.06
   1   6   0 2858.04  149.81
   1   6   0 3056.07  264.23
   1   6   1  116.04   59.28
   1   6   1   89.19   43.37
   1   6   2  260.48   76.20
   1   6   2  286.39   70.86
   1   6   2  261.92   49.36
   1   6   3 4758.96  236.88
   1   6   3 4911.08  249.04
   1   6   3 4367.02  173.22
   1   6   4 1459.36  135.99
   1   6   4 1327.94  135.99
   1   6   5  387.96   90.76
   1   6   5  381.99   88.37
   1   6   6  102.22   65.94
   1   6   6   80.03   61.01
   1   6   7  130.31   64.61
   1   6   8  483.36   85.92
  -1  -6  -8  304.62   34.32
   1   6   9 1511.12  120.90
  -1  -6  -9   -4.25   27.86
   1   6  10 8259.72  313.79
  -1  -6 -10 8410.92  290.35
   1   7 -12  809.97   87.04
   1   7 -11  755.37   82.52
   1   7 -11  872.84   97.64
  -1  -7  11  711.22   58.71
   1   7 -10 2612.79  159.49
   1   7 -10 3009.34  182.67
  -1  -7  10 2525.15  120.69
   1   7  -9 2416.83  164.33
   1   7  -9 2424.64  256.99
  -1  -7   9 2212.47  173.84
   1   7  -8  197.53  131.30
   1   7  -8  217.70   72.38
  -1  -7   8  195.38   50.77
   1   7  -7  167.44   67.51
   1   7  -7  170.30   72.78
  -1  -7   7  138.70   51.20
   1   7  -6   44.86   46.94
   1   7  -6    7.91   53.13
  -1  -7   6    5.18   32.07
   1   7  -5  238.06   76.27
   1   7  -5  163.21   62.31
  -1  -7   5    0.87   29.77
   1   7  -4   83.60   46.38
   1   7  -4  112.05   63.22
   1   7  -3 2186.75  145.87
   1   7  -3 1933.09  112.44
   1   7  -3 1998.52  156.82
   1   7  -2   45.85   71.14
   1   7  -2   16.37   43.28
   1   7  -2   12.41   24.53
   1   7  -1  235.82  109.21
   1   7  -1  328.08   75.32
  -1  -7   1  287.48   34.05
   1   7   0  108.28   59.33
   1   7   0  106.37   76.38
  -1  -7   0  105.55   31.99
   1   7   1 3135.12  181.13
   1   7   1 2751.06  142.98
  -1  -7  -1 2947.57  128.20
   1   7   2    5.63   72.39
   1   7   2   19.47   27.67
  -1  -7  -2    6.23   26.40
   1   7   3   45.21   42.91
   1   7   3   50.20   85.07
  -1  -7  -3   53.83   38.41
   1   7   4  276.20   75.89
  -1  -7  -4  184.79   53.01
   1   7   5   98.54   58.37
  -1  -7  -5   55.67   41.61
   1   7   6 1702.44  131.19
  -1  -7  -6 1768.37  111.96
   1   7   7 1217.03  108.53
  -1  -7  -7 1192.91   91.64
   1   7   8  458.15  113.39
  -1  -7  -8  655.83   66.23
   1   8 -10  572.07   68.98
   1   8 -10  593.47   77.20
   1   8  -9   -1.51   31.48
   1   8  -9   -3.28   30.17
  -1  -8   9    0.98   19.58
   1   8  -8 1478.14  128.83
   1   8  -8 1929.69  130.90
  -1  -8   8 1419.12  131.76
   1   8  -7  811.89  165.45
  -1  -8   7  814.47   74.10
   1   8  -6 2497.50  163.35
  -1  -8   6 2292.94  127.08
   1   8  -5  525.33   89.39
   1   8  -5  463.14  104.24
  -1  -8   5  504.32   70.94
   1   8  -4  885.99  112.68
   1   8  -4 1002.39  105.94
  -1  -8   4 1086.15   96.52
   1   8  -3  778.37   60.78
   1   8  -3 1174.12  102.91
   1   8  -2 1048.29   99.43
   1   8  -1   17.13   30.30
   1   8  -1  -11.47   34.89
   1   8   0  697.89   73.97
   1   8   0  809.51   91.77
   1   8   1  448.39   56.16
   1   8   1  643.35   82.20
  -1  -8  -1  480.18   42.38
   1   8   2    8.13   20.13
   1   8   2   23.42   36.89
  -1  -8  -2    0.87   17.21
   1   8   3 1007.30   97.10
  -1  -8  -3  988.01   65.56
   1   8   4 1589.66  110.79
  -1  -8  -4 1533.18   83.04
   1   8   5    6.19   28.66
  -1  -8  -5   -9.26   23.52
   1   9  -3  375.01   91.63
  -1  -9   3  589.01   61.24
   2  -8  -5  997.08   79.34
  -2   8   5  885.01   74.03
   2  -8  -4   17.49   32.74
  -2   8   4   25.21   35.75
   2  -8  -3  566.17   63.40
   2  -8  -3  327.11   31.58
  -2   8   3  569.62   77.98
   2  -8  -2    0.28   22.53
   2  -8  -2  116.56   37.27
  -2   8   2  199.99   62.84
   2  -8  -1 3894.91  166.20
   2  -8  -1 3353.61  128.22
  -2   8   1 4152.53  209.03
   2  -8   0 1775.90   90.85
   2  -8   0 1952.98  106.02
  -2   8   0 2082.99  135.24
  -2   8   0 1564.77  107.11
   2  -8   1  842.30   68.20
   2  -8   1  937.95   69.70
  -2   8  -1  714.74  100.93
  -2   8  -1 1041.20  101.32
   2  -8   2    1.57   25.87
   2  -8   2   18.28   34.84
  -2   8  -2   54.77   60.30
  -2   8  -2   56.23   47.50
   2  -8   3  494.86   59.75
  -2   8  -3  351.94  102.73
  -2   8  -3  370.31  109.11
   2  -8   4  103.13   41.58
  -2   8  -4  197.41   94.44
  -2   8  -4  195.57   53.90
   2  -8   5  132.12   44.63
  -2   8  -5   81.50   24.51
  -2   8  -5  187.36   95.83
  -2   8  -5  331.96   44.58
   2  -8   6 2510.89  193.55
  -2   8  -6 2354.47  105.55
  -2   8  -6 2081.86   83.61
  -2   8  -6 2706.29  151.33
   2  -8   7  357.61   59.26
  -2   8  -7  262.23   31.11
  -2   8  -7  183.19   65.31
   2  -8   8   69.05   39.17
  -2   8  -8  112.35   47.95
   2  -7  -8  732.88   63.82
  -2   7   8  705.04   57.90
   2  -7  -7  103.46   43.03
  -2   7   7   49.95   61.11
   2  -7  -6 1940.20  120.27
  -2   7   6 1764.23  174.08
   2  -7  -5  815.67  146.67
  -2   7   5  924.39  153.60
   2  -7  -4 1033.85  165.28
  -2   7   4  932.27   61.56
  -2   7   4 1062.46  105.70
   2  -7  -3  670.30   91.12
  -2   7   3  596.59  149.21
  -2   7   3  599.33   55.82
   2  -7  -2   29.15   43.36
  -2   7   2   18.69   26.78
  -2   7   2   22.74   76.13
   2  -7  -1   60.68   47.69
  -2   7   1   30.57   28.05
  -2   7   1   21.82   86.10
   2  -7   0 3829.14  184.32
  -2   7   0 3694.83  166.14
  -2   7   0 4030.51  218.44
   2  -7   1   54.63   39.07
   2  -7   1   37.70   36.19
  -2   7  -1    8.23   41.09
  -2   7  -1   10.22   33.04
   2  -7   2 1476.31   95.73
   2  -7   2 1474.64  101.79
  -2   7  -2 1574.79  120.82
  -2   7  -2 1332.20   76.66
  -2   7  -2 1591.02  125.31
   2  -7   3 2022.54  104.98
   2  -7   3 2225.56  125.02
  -2   7  -3 1963.83   99.97
  -2   7  -3 2137.24  139.56
  -2   7  -3 2193.08  147.09
   2  -7   4  790.21   94.09
   2  -7   4 1005.44   87.31
  -2   7  -4  893.52   71.15
  -2   7  -4 1027.00  112.47
  -2   7  -4  959.36   91.57
   2  -7   5  130.45   51.98
  -2   7  -5  196.64   81.24
  -2   7  -5  178.35   45.69
  -2   7  -5  214.94   71.33
   2  -7   6 2027.87  129.17
  -2   7  -6 2168.34  156.37
  -2   7  -6 1957.27  111.20
  -2   7  -6 1853.48  106.37
   2  -7   7  114.55   86.22
  -2   7  -7  102.33   33.38
  -2   7  -7  157.35   63.10
  -2   7  -7  116.02   73.61
   2  -7   8 2273.65  144.01
  -2   7  -8 2295.74  130.88
  -2   7  -8 2465.39  237.00
   2  -7   9  219.39   62.72
  -2   7  -9  264.32   63.65
  -2   7  -9  168.56   55.41
   2  -7  10   25.36   38.52
  -2   7 -10   34.59   33.41
  -2   7 -10   12.95   35.86
   2  -7  11   41.20   38.57
  -2   7 -11   39.20   34.19
   2  -6 -10    2.34   14.86
  -2   6  10   18.82   19.51
   2  -6  -9   -8.27   38.11
  -2   6   9   54.41   32.89
   2  -6  -8 2662.26  182.37
  -2   6   8 2430.82  131.07
   2  -6  -7  671.12   75.96
  -2   6   7  663.49   81.10
   2  -6  -6 1358.34  105.24
  -2   6   6 1381.45  115.91
   2  -6  -5 1552.07  117.08
  -2   6   5 1148.54   72.28
  -2   6   5 1551.70  120.12
   2  -6  -4  920.51   98.99
  -2   6   4 1047.49  106.64
  -2   6   4  772.52   63.29
   2  -6  -3   86.50   52.59
  -2   6   3   80.35   36.54
  -2   6   3  154.01   62.01
   2  -6  -2 1587.90  123.01
  -2   6   2 1417.44  125.24
  -2   6   2 1373.66   74.25
  -2   6   2 1492.95   92.41
  -2   6   2 1738.77  141.13
   2  -6  -131829.86 1356.67
  -2   6   129694.69 1075.82
  -2   6   130197.85 1129.03
  -2   6   130091.97 1142.25
  -2   6   133344.25 1301.22
   2  -6   010448.20  507.00
  -2   6   0 9941.45  374.79
  -2   6   0 9861.62  362.49
  -2   6   0 9535.47  332.05
   2  -6   1   98.69   48.05
  -2   6  -1   29.81   68.35
  -2   6  -1   23.58   29.12
  -2   6  -1    7.22   73.35
   2  -6   2 1336.62   98.69
  -2   6  -2 1316.00  188.42
  -2   6  -2 1235.82   88.13
  -2   6  -2 1513.04  183.81
   2  -6   3  237.88   60.96
   2  -6   3  330.21   51.89
  -2   6  -3  319.38   89.77
  -2   6  -3  308.25  134.96
  -2   6  -3  279.30   66.00
   2  -6   4 1825.08   95.18
   2  -6   4 1873.38  123.17
  -2   6  -4 2028.80  154.66
  -2   6  -4 1801.64  119.64
  -2   6  -4 1848.42  118.98
   2  -6   5  -16.42   33.96
   2  -6   5   28.24   33.61
  -2   6  -5   10.94   40.28
  -2   6  -5   90.67   53.20
  -2   6  -5   21.81   33.92
   2  -6   6 4232.98  201.31
  -2   6  -6 4111.34  205.28
  -2   6  -6 4465.57  236.00
  -2   6  -6 3914.40  224.94
   2  -6   7 4577.86  219.39
  -2   6  -7 4705.64  222.64
  -2   6  -7 4817.49  245.29
   2  -6   8   47.55   84.26
  -2   6  -8   14.39   47.11
  -2   6  -8   49.20   45.69
   2  -6   9 1773.81  138.64
  -2   6  -9 1907.36  219.26
  -2   6  -9 1833.80  195.00
   2  -6  10 1930.45  142.09
  -2   6 -10 2105.50  142.04
  -2   6 -10 1897.47  124.93
   2  -6  11 2420.61  150.46
  -2   6 -11 2681.21  156.92
  -2   6 -11 2380.97  111.50
   2  -6  12  217.60   98.04
  -2   6 -12  237.95   25.04
  -2   6 -12  241.27   63.72
   2  -6  13   47.17   37.66
  -2   6 -13   63.31   67.58
   2  -5 -12 1021.74   66.71
   2  -5 -11 1750.64  127.90
   2  -5 -11 1818.60   92.42
  -2   5  11 1543.43   77.01
   2  -5 -10  564.40   72.87
   2  -5 -10  706.59   60.27
  -2   5  10  662.10   64.68
   2  -5  -9 3452.04  135.88
   2  -5  -9 3519.56  141.70
   2  -5  -9 3219.90  134.92
  -2   5   9 3440.26  164.06
   2  -5  -8   23.00   28.62
   2  -5  -8   31.92   32.13
   2  -5  -8   57.79   27.56
  -2   5   8   18.39   63.06
   2  -5  -7   33.13   23.34
   2  -5  -7   23.37   33.76
   2  -5  -7   -1.60   41.28
  -2   5   7    0.70   48.41
   2  -5  -6  935.72   93.48
   2  -5  -6  932.01   86.88
   2  -5  -6  846.70   53.38
  -2   5   6 1012.22  167.85
   2  -5  -5 4408.84  193.22
   2  -5  -5 3889.37  197.03
  -2   5   5 3824.56  134.36
  -2   5   5 3667.04  143.05
   2  -5  -4  117.94   31.29
   2  -5  -4  118.30   51.67
  -2   5   4  140.38   29.70
  -2   5   4  103.57   52.84
  -2   5   4   71.29   28.06
  -2   5   4  137.56   94.20
   2  -5  -3 1352.18   65.35
   2  -5  -3 1474.58  108.37
  -2   5   3 1492.77   80.03
  -2   5   3 1826.10  206.40
  -2   5   3 1486.63   76.34
  -2   5   3 1404.67  120.12
   2  -5  -210173.04  373.96
  -2   5   2 9586.55  325.94
  -2   5   2 9697.29  318.63
  -2   5   2 9206.52  319.22
  -2   5   210284.31  399.99
   2  -5  -1  498.44   34.61
   2  -5  -1  718.50   77.36
  -2   5   1  506.12   56.10
  -2   5   1  583.42   66.74
  -2   5   1  460.84   58.07
  -2   5   1  565.23   86.18
   2  -5   038789.28 1586.85
  -2   5   037837.56 1429.96
  -2   5   034043.96 1177.54
  -2   5   036647.63 1369.10
  -2   5   038921.80 1504.43
  -2   5   039640.08 1510.85
   2  -5   1  234.44   57.04
  -2   5  -1  260.58   64.18
  -2   5  -1  217.18   51.19
  -2   5  -1  261.16   50.06
  -2   5  -1  255.66   62.05
   2  -5   2   36.34   35.25
  -2   5  -2    7.45   44.95
  -2   5  -2   27.55   34.67
  -2   5  -2   49.31   36.71
   2  -5   3 8213.22  283.29
  -2   5  -3 7782.85  326.20
  -2   5  -3 7934.84  296.09
  -2   5  -3 8363.03  377.35
   2  -5   4  428.73   62.61
   2  -5   4  380.25   51.86
  -2   5  -4  320.79   77.45
  -2   5  -4  401.21   65.92
  -2   5  -4  358.41   54.04
   2  -5   5  242.53   70.77
   2  -5   5  323.79   60.45
  -2   5  -5  130.70  120.61
  -2   5  -5  333.20  131.77
  -2   5  -5  449.60   50.63
   2  -5   6 2713.89  109.84
   2  -5   6 2938.51  156.81
  -2   5  -6 3201.55  178.94
  -2   5  -6 2653.65  113.02
  -2   5  -6 3034.67  171.12
   2  -5   7  794.54   95.49
  -2   5  -7  802.47  105.17
  -2   5  -7  866.01  102.05
   2  -5   8 1221.58  190.71
  -2   5  -8 1248.46  118.73
  -2   5  -8 1133.06  102.67
  -2   5  -8 1023.74   64.35
   2  -5   9 2743.21  178.95
  -2   5  -9 2861.00  143.93
  -2   5  -9 3024.74  179.06
  -2   5  -9 2513.75  114.61
   2  -5  10   58.52   57.18
  -2   5 -10  108.65   52.77
  -2   5 -10   77.29   53.06
  -2   5 -10    0.16   29.62
   2  -5  11 2080.49  153.29
  -2   5 -11 2344.59  157.33
  -2   5 -11 1813.33   90.77
  -2   5 -11 2165.03  106.70
   2  -5  12 2875.34  249.67
  -2   5 -12 3253.13  181.94
  -2   5 -12 2917.40  129.77
   2  -5  13   93.25   50.03
  -2   5 -13   73.71   62.70
  -2   5 -13  103.15   51.12
   2  -5  14  596.56   74.34
  -2   5 -14  624.61   72.99
  -2   5 -14  574.58   56.57
   2  -4 -14  512.33   54.95
   2  -4 -14  197.93   76.93
   2  -4 -13   95.95   40.96
   2  -4 -13   49.85   36.92
   2  -4 -12  222.57   60.60
   2  -4 -12  348.93   56.38
  -2   4  12  120.01   50.43
   2  -4 -11   58.54   43.63
   2  -4 -11   70.30   42.10
  -2   4  11   29.63   29.02
   2  -4 -10 1341.69  160.58
   2  -4 -10 1296.14   99.17
  -2   4  10 1241.28   91.26
   2  -4  -9  572.15   51.79
   2  -4  -9  737.11   75.53
   2  -4  -9  718.14  122.25
  -2   4   9  660.80   79.23
   2  -4  -8 5896.38  236.05
   2  -4  -8 5974.43  299.05
   2  -4  -8 5917.83  211.19
  -2   4   8 5565.71  189.66
  -2   4   8 6013.93  250.23
   2  -4  -7  932.00   70.21
   2  -4  -7  846.17   78.27
   2  -4  -7  919.45  110.66
  -2   4   7  806.62   58.14
  -2   4   7  924.55   93.35
   2  -4  -6 6132.69  224.07
   2  -4  -6 6046.12  260.72
   2  -4  -6 6333.74  225.83
  -2   4   6 5945.18  201.28
  -2   4   6 6452.61  264.48
   2  -4  -5   49.58   41.24
   2  -4  -5   41.29   29.90
   2  -4  -5   21.93   36.17
  -2   4   5   33.08   22.53
  -2   4   5   42.21   25.73
  -2   4   5   17.23   31.53
  -2   4   5   59.95   42.51
  -2   4   5   41.00   22.11
   2  -4  -4  591.15   63.47
   2  -4  -4  552.69   53.00
   2  -4  -4  483.26   42.90
   2  -4  -4  527.33   40.87
  -2   4   4  507.66   51.03
  -2   4   4  522.15   81.48
  -2   4   4  590.09   60.37
  -2   4   4  515.25   43.41
  -2   4   4  568.27   45.89
  -2   4   4  563.95   77.96
   2  -4  -3 1146.66   51.56
   2  -4  -3 1274.68   88.65
   2  -4  -3 1302.47  105.34
   2  -4  -3 1231.30   62.19
  -2   4   3 1191.86   65.70
  -2   4   3 1560.09   87.75
  -2   4   3 1275.47   85.96
  -2   4   3 1254.27   70.84
  -2   4   3 1273.66   72.53
  -2   4   3 1305.95   76.92
  -2   4   3 1294.24  105.03
   2  -4  -2 2702.37  130.86
   2  -4  -2 2649.28  109.16
   2  -4  -2 2733.21  161.04
   2  -4  -2 2288.18   68.85
   2  -4  -2 2815.57  147.00
   2  -4  -2 2716.08  139.05
  -2   4   2 2672.08  117.40
  -2   4   2 2660.73  134.65
  -2   4   2 2702.38  141.57
  -2   4   2 2504.27  139.79
  -2   4   2 2638.59  102.65
  -2   4   2 2604.84  116.97
  -2   4   2 2567.59  123.79
   2  -4  -152205.09 2009.99
   2  -4  -152122.97 1964.15
   2  -4  -151889.55 1968.25
   2  -4  -152736.11 2127.73
   2  -4  -154193.83 2112.03
  -2   4   152976.52 2098.80
  -2   4   153108.50 1963.32
  -2   4   153320.73 2027.38
  -2   4   151366.13 1983.11
  -2   4   149890.12 1912.13
  -2   4   152232.99 2040.00
  -2   4   153170.02 2075.21
   2  -4   0 7781.04  274.21
   2  -4   0 7557.64  240.35
   2  -4   0 7773.67  248.01
   2  -4   0 7853.96  315.60
   2  -4   0 8184.82  286.53
  -2   4   0 7941.81  274.15
  -2   4   0 7823.39  278.90
  -2   4   0 8022.26  298.54
  -2   4   0 7993.01  314.08
  -2   4   0 8338.62  375.26
  -2   4   0 7932.39  373.92
  -2   4   0 7597.49  247.96
   2  -4   1  188.82   80.74
   2  -4   1  210.17   58.70
   2  -4   1  250.50   67.74
   2  -4   1  176.78   48.54
  -2   4  -1  208.00   49.51
  -2   4  -1  290.01   98.89
  -2   4  -1  189.23   56.55
  -2   4  -1  241.01   31.66
  -2   4  -1  219.69   40.49
  -2   4  -1  181.77   48.81
   2  -4   2  118.14   39.83
   2  -4   2  125.97   30.74
   2  -4   2  102.78   37.48
   2  -4   2   91.46   61.16
  -2   4  -2  118.72   52.30
  -2   4  -2  121.71   45.08
  -2   4  -2  139.81   27.36
  -2   4  -2   97.62   38.54
   2  -4   3 1470.34   84.40
   2  -4   3 1452.02   87.63
   2  -4   3 1267.57   80.47
   2  -4   3 1400.88   70.83
   2  -4   3 1435.22  117.08
  -2   4  -3 1548.77   98.31
  -2   4  -3 1270.50   55.06
  -2   4  -3 1575.33  109.62
  -2   4  -3 1408.57   62.01
  -2   4  -3 1260.92   46.24
  -2   4  -3 1467.32   77.52
   2  -4   4 2048.38  115.21
   2  -4   4 2033.64   84.50
   2  -4   4 2015.17   97.00
   2  -4   4 2054.71  109.67
   2  -4   4 1910.18  130.05
   2  -4   4 2061.28  105.29
   2  -4   4 2087.78  122.45
  -2   4  -4 2009.62  119.70
  -2   4  -4 1811.10   78.30
  -2   4  -4 2091.72  126.90
  -2   4  -4 2001.03  111.01
  -2   4  -4 1887.59   67.17
  -2   4  -4 1976.48   86.04
   2  -4   5  273.07   64.88
   2  -4   5  195.68   49.37
   2  -4   5  215.10   38.96
   2  -4   5  217.68   30.58
  -2   4  -5  229.88   58.66
  -2   4  -5  250.46   33.19
  -2   4  -5  222.40   31.33
  -2   4  -5  233.69   32.77
  -2   4  -5  247.49   58.63
  -2   4  -5  177.59   38.07
   2  -4   6 2971.37  111.13
   2  -4   6 3105.32  146.88
   2  -4   6 2843.81  118.92
   2  -4   6 2610.74   93.29
  -2   4  -6 3052.32  219.45
  -2   4  -6 2934.88  112.20
  -2   4  -6 3163.20  247.10
   2  -4   7 8946.32  278.11
   2  -4   7 9417.18  382.38
   2  -4   710541.47  472.59
  -2   4  -710507.26  410.95
  -2   4  -710291.92  340.79
  -2   4  -710850.65  386.02
   2  -4   8 2393.06  119.72
   2  -4   8 2802.41  163.33
  -2   4  -8 2783.48  169.49
  -2   4  -8 2690.35  174.75
  -2   4  -8 2682.65  131.56
   2  -4   911555.44  455.57
   2  -4   910313.21  376.94
  -2   4  -911230.65  393.24
  -2   4  -912266.43  482.47
  -2   4  -911895.08  512.20
   2  -4  10  422.09   59.49
   2  -4  10  546.44   88.90
  -2   4 -10  490.82  151.10
  -2   4 -10  531.38   70.95
   2  -4  1116379.74  641.09
  -2   4 -1117754.31  690.58
  -2   4 -1116836.34  623.99
   2  -4  12  129.22  107.68
  -2   4 -12  173.34   57.49
  -2   4 -12   73.89   30.03
  -2   4 -12  132.96   49.82
   2  -4  13  443.21   81.84
  -2   4 -13  416.25   70.73
  -2   4 -13  294.11   36.16
  -2   4 -13  452.60   66.30
   2  -4  14   45.31   44.62
  -2   4 -14   66.98   36.81
  -2   4 -14   19.09   16.25
  -2   4 -14   56.34   58.88
   2  -4  15   14.90   33.51
  -2   4 -15   15.04   26.84
  -2   4 -15   19.05   31.04
   2  -3 -15   -2.75   26.04
   2  -3 -15   14.00   25.68
   2  -3 -14  374.21   66.25
   2  -3 -14  435.09   65.38
   2  -3 -13   74.60   47.75
   2  -3 -13   70.79   49.00
  -2   3  13   43.75   22.32
   2  -3 -12   33.11   44.61
   2  -3 -12   44.28   44.69
  -2   3  12   31.52   21.20
  -2   3  12   24.80   26.67
   2  -3 -11  208.32   64.17
   2  -3 -11  188.95  104.08
  -2   3  11   70.51   31.59
  -2   3  11  150.11   40.44
   2  -3 -10 9841.68  385.57
   2  -3 -10 9714.91  379.50
  -2   3  10 8596.90  296.66
  -2   3  10 9049.58  332.93
   2  -3  -9 2567.18  223.74
   2  -3  -9 2429.24  142.80
  -2   3   9 2205.33  105.83
  -2   3   9 2148.01  197.26
   2  -3  -8 5328.95  173.33
   2  -3  -8 5798.01  321.19
   2  -3  -8 5677.86  228.19
  -2   3   8 5414.80  193.69
  -2   3   8 5540.03  313.92
   2  -3  -7  744.99   50.90
   2  -3  -7  707.15   77.57
   2  -3  -7  663.66   71.73
  -2   3   7  741.97   60.97
  -2   3   7  798.26  126.96
   2  -3  -6  107.30   29.38
   2  -3  -6  114.36   38.18
   2  -3  -6   91.05   41.17
   2  -3  -6   65.99   21.19
   2  -3  -6  114.98   36.60
  -2   3   6   87.73   38.95
  -2   3   6  121.42   33.00
  -2   3   6   96.62   36.95
  -2   3   6   63.36   32.34
  -2   3   6   70.09   22.46
  -2   3   6  118.09   74.50
   2  -3  -5 8812.35  273.57
   2  -3  -5 8525.49  374.38
   2  -3  -5 8712.19  295.03
   2  -3  -5 8634.24  241.40
   2  -3  -5 8456.44  270.30
  -2   3   5 9016.92  336.76
  -2   3   5 8577.34  264.75
  -2   3   5 8899.59  279.61
  -2   3   5 8746.01  362.18
  -2   3   5 8498.93  252.61
  -2   3   5 8567.11  387.64
  -2   3   5 7500.63  218.55
   2  -3  -4  926.42   66.68
   2  -3  -4  966.51   74.24
   2  -3  -4  950.31   87.35
   2  -3  -4 1017.63   47.33
   2  -3  -4  981.00   91.30
  -2   3   4  921.02   66.58
  -2   3   4 1021.05   68.49
  -2   3   4  969.51   70.48
  -2   3   4  964.28   59.92
  -2   3   4  950.42  142.72
  -2   3   4  867.35   44.40
  -2   3   4 1078.79   78.28
   2  -3  -3 2938.75  125.66
   2  -3  -3 2926.45   92.90
   2  -3  -3 3316.41  159.00
   2  -3  -3 2991.03  104.76
   2  -3  -3 3145.98  159.21
   2  -3  -3 3013.11  124.34
  -2   3   3 3108.86  125.41
  -2   3   3 3168.21  200.41
  -2   3   3 3029.90  124.46
  -2   3   3 3089.81  141.44
  -2   3   3 3024.38  124.02
  -2   3   3 2895.79   94.57
  -2   3   3 3039.74  148.94
   2  -3  -244925.60 1629.46
   2  -3  -247008.95 1742.93
   2  -3  -244325.63 1606.34
   2  -3  -245508.61 1733.58
   2  -3  -245641.31 1576.70
   2  -3  -243995.67 1536.47
  -2   3   245194.90 1637.89
  -2   3   246213.87 1652.16
  -2   3   245657.30 1718.15
  -2   3   244474.71 1789.08
  -2   3   245234.01 1651.37
  -2   3   246380.51 1715.30
  -2   3   243678.95 1597.34
   2  -3  -1  967.95   74.15
   2  -3  -1  792.27   41.69
   2  -3  -1  686.52   48.21
   2  -3  -1  848.23   79.68
   2  -3  -1  459.34  147.69
  -2   3   1  841.73  121.58
  -2   3   1 1093.73   89.11
  -2   3   1  981.85   93.01
  -2   3   1  780.26   77.85
  -2   3   1  744.92   41.33
  -2   3   1  623.08   50.05
  -2   3   1  743.72   76.29
  -2   3   1  747.16   24.71
   2  -3   088236.84 3889.08
   2  -3   090203.64 3830.54
   2  -3   089891.66 3929.21
   2  -3   091955.35 3902.11
   2  -3   091940.07 3919.18
   2  -3   089232.15 3691.07
  -2   3   086417.21 3494.89
  -2   3   088038.85 3535.56
  -2   3   090202.49 3834.35
  -2   3   092103.20 4027.30
  -2   3   090996.42 3811.32
  -2   3   090820.05 3870.95
  -2   3   090313.65 3877.75
  -2   3   086639.95 3473.04
  -2   3   093243.03 4044.32
  -2   3   092711.26 3875.23
   2  -3   1  196.81   48.84
   2  -3   1  204.81   59.11
   2  -3   1  187.91   37.47
   2  -3   1  190.74   43.30
  -2   3  -1  201.22   52.42
  -2   3  -1  217.69   23.89
  -2   3  -1  172.73   67.73
  -2   3  -1  194.43   55.77
  -2   3  -1  165.83   17.81
  -2   3  -1  181.25   23.85
  -2   3  -1  188.52   37.13
   2  -3   2 1947.40  130.69
   2  -3   2 1961.50   90.94
   2  -3   2 2065.35  105.25
   2  -3   2 1980.38  101.04
  -2   3  -2 2019.29  112.08
  -2   3  -2 2055.58   88.38
  -2   3  -2 2446.98  148.97
  -2   3  -2 1993.02  120.79
  -2   3  -2 1854.11   47.61
  -2   3  -2 1934.71   72.61
  -2   3  -2 2026.59   78.17
   2  -3   3 4531.32  168.44
   2  -3   3 4572.47  165.74
   2  -3   3 4668.45  180.93
   2  -3   3 4533.75  156.35
   2  -3   3 4552.92  165.31
   2  -3   3 4565.90  184.56
  -2   3  -3 4489.75  138.95
  -2   3  -3 4813.05  276.73
  -2   3  -3 4642.84  184.61
  -2   3  -3 4365.81  148.82
  -2   3  -3 4336.71  140.53
  -2   3  -3 4522.06  154.08
   2  -3   4 4166.46  167.40
   2  -3   4 3858.13  215.21
   2  -3   4 4014.11  148.20
   2  -3   4 3935.36  115.31
   2  -3   4 4025.71  156.35
   2  -3   4 4098.45  159.47
   2  -3   4 3959.18  198.48
  -2   3  -4 4125.11  168.29
  -2   3  -4 3949.88  168.69
  -2   3  -4 3914.17  147.66
  -2   3  -4 3952.65  140.65
  -2   3  -4 4009.39  183.78
  -2   3  -4 3869.52  150.61
   2  -3   510333.37  343.73
   2  -3   510179.38  312.40
   2  -3   5 9997.12  335.29
   2  -3   5 9736.55  319.42
   2  -3   5 9800.47  337.73
   2  -3   510021.20  322.38
   2  -3   5 9485.64  258.01
  -2   3  -5 9972.14  325.76
  -2   3  -5 9617.20  332.71
  -2   3  -5 8552.24  240.43
  -2   3  -5 9500.94  324.01
  -2   3  -5 9751.28  302.80
  -2   3  -5 9968.83  304.31
   2  -3   6 6586.21  240.64
   2  -3   6 6451.36  242.04
   2  -3   6 6317.33  200.66
   2  -3   6 6225.78  234.15
   2  -3   6 6433.57  305.19
   2  -3   6 6196.75  210.34
  -2   3  -6 5924.44  232.82
  -2   3  -6 6055.43  262.16
  -2   3  -6 6401.29  215.64
  -2   3  -6 6205.33  213.79
  -2   3  -6 6498.89  332.75
   2  -3   7 4826.12  195.57
   2  -3   7 5241.67  214.29
   2  -3   7 5024.72  203.10
  -2   3  -7 5190.31  198.42
  -2   3  -7 5312.42  219.65
  -2   3  -7 5293.08  237.16
   2  -3   8  687.02   87.00
   2  -3   8  695.97   79.56
  -2   3  -8  736.18   54.47
  -2   3  -8  771.84   87.56
  -2   3  -8  735.83   78.74
   2  -3   9 2132.31  135.88
   2  -3   9 2111.25  147.05
  -2   3  -9 2078.70  131.40
  -2   3  -9 2035.97  137.67
   2  -3  10  576.34   95.54
   2  -3  10  567.52   83.99
  -2   3 -10  605.65  140.10
  -2   3 -10  606.49  136.63
   2  -3  11 2580.03  262.33
  -2   3 -11 2737.68  162.88
  -2   3 -11 2770.32  164.56
   2  -3  12 5795.88  274.08
  -2   3 -12 5614.96  245.43
  -2   3 -12 5643.67  254.27
   2  -3  13   51.79   52.47
  -2   3 -13   29.15   36.18
  -2   3 -13  140.97   42.83
  -2   3 -13   54.93   48.51
   2  -3  14  477.42   84.01
  -2   3 -14  471.42   53.28
  -2   3 -14  509.39   61.87
  -2   3 -14  479.16   76.67
   2  -3  15   34.94   66.85
  -2   3 -15   54.45   26.09
  -2   3 -15   65.26   66.45
   2  -2 -16   95.96   39.82
   2  -2 -15   72.52   45.69
   2  -2 -15   82.38   40.87
  -2   2  15   29.63   15.75
   2  -2 -14  305.32   69.71
   2  -2 -14  290.43   63.82
  -2   2  14  302.56   37.85
   2  -2 -13  334.03  125.03
   2  -2 -13  327.77   70.07
  -2   2  13  314.31   45.36
  -2   2  13  300.42   42.14
   2  -2 -12 7462.78  425.89
   2  -2 -12 7358.32  424.33
  -2   2  12 6493.80  302.92
   2  -2 -11  283.15   70.22
   2  -2 -11  286.99   70.85
  -2   2  11  220.89   56.61
   2  -2 -10  232.04   65.39
   2  -2 -10  221.89   67.05
   2  -2 -10  223.71   59.06
  -2   2  10  160.60   50.42
   2  -2  -9 1758.40  116.99
   2  -2  -9 1898.15  120.59
   2  -2  -9 1765.48  123.54
  -2   2   9 1750.05  111.66
   2  -2  -8   75.64   18.77
   2  -2  -8  127.06   46.26
   2  -2  -8  128.97   38.86
   2  -2  -8  120.37   46.71
   2  -2  -8  149.04   46.29
  -2   2   8  108.62   47.24
   2  -2  -7 7145.43  200.49
   2  -2  -7 6997.45  266.38
   2  -2  -7 6978.53  214.35
   2  -2  -7 7601.05  306.18
   2  -2  -7 7464.45  262.76
   2  -2  -7 7451.57  266.53
   2  -2  -7 7699.16  314.62
  -2   2   7 7481.93  262.66
  -2   2   7 6567.97  191.17
  -2   2   7 7322.67  264.91
  -2   2   7 7021.97  202.76
  -2   2   7 7375.70  282.89
   2  -2  -6 8867.69  249.39
   2  -2  -6 9001.77  342.14
   2  -2  -6 8835.78  270.85
   2  -2  -6 8781.72  252.93
   2  -2  -6 9012.69  300.48
   2  -2  -6 8825.01  301.05
  -2   2   6 8851.43  321.59
  -2   2   6 9346.45  306.94
  -2   2   6 7181.88  194.85
  -2   2   6 8777.92  256.43
  -2   2   6 9024.27  305.54
  -2   2   6 8466.57  244.69
   2  -2  -510164.68  289.91
   2  -2  -510552.63  439.02
   2  -2  -510396.42  325.06
   2  -2  -510170.74  265.22
   2  -2  -510197.47  327.97
  -2   2   510513.64  320.03
  -2   2   510029.11  249.07
  -2   2   510574.96  437.47
  -2   2   510627.86  375.10
  -2   2   5 8937.45  236.87
  -2   2   510065.75  298.07
  -2   2   510514.00  350.67
   2  -2  -4 4503.49  143.99
   2  -2  -4 4664.47  178.52
   2  -2  -4 4498.22  139.79
   2  -2  -4 4453.91  221.53
   2  -2  -4 4494.90  171.31
  -2   2   4 4503.04  203.21
  -2   2   4 4445.23  155.24
  -2   2   4 4772.30  181.07
  -2   2   4 4565.77  170.53
  -2   2   4 4475.14  131.75
  -2   2   4 4864.56  194.20
  -2   2   4 4597.66  186.29
   2  -2  -315351.48  463.85
   2  -2  -316265.78  520.21
   2  -2  -315706.88  413.39
   2  -2  -315835.91  622.37
   2  -2  -315891.61  568.08
  -2   2   315975.35  522.45
  -2   2   316174.58  515.01
  -2   2   315766.41  519.77
  -2   2   315985.62  507.39
  -2   2   315961.30  534.84
  -2   2   315747.25  496.27
  -2   2   316177.37  496.12
  -2   2   315440.84  405.40
   2  -2  -2 3521.26  133.87
   2  -2  -2 3590.71  151.31
   2  -2  -2 3610.60  124.83
   2  -2  -2 3455.18  157.80
   2  -2  -2 3516.33  116.65
  -2   2   2 3594.20  172.28
  -2   2   2 3700.96  244.17
  -2   2   2 3678.12  222.37
  -2   2   2 3619.74  152.48
  -2   2   2 3570.36  127.67
  -2   2   2 3711.14  149.03
  -2   2   2 3562.64  149.74
  -2   2   2 3638.71   95.01
   2  -2  -1  122.50   65.06
   2  -2  -1   85.98   69.12
   2  -2  -1   95.37   47.20
   2  -2  -1  114.33   19.02
   2  -2  -1  107.63   41.57
   2  -2  -1   85.32   28.81
   2  -2  -1   84.50   26.37
  -2   2   1  108.59   41.12
  -2   2   1  107.72   50.75
  -2   2   1  116.41   53.08
  -2   2   1   98.32   40.20
  -2   2   1  103.06   30.67
  -2   2   1  125.09   44.80
  -2   2   1   97.61   38.08
  -2   2   1  122.58   35.67
   2  -2   0 1300.56  101.83
   2  -2   0 1287.02   85.93
   2  -2   0 1330.84   94.22
   2  -2   0 1348.97   69.31
   2  -2   0 1310.29   52.99
   2  -2   0 1338.53   62.88
   2  -2   0 1356.14   79.36
  -2   2   0 1323.37  143.58
  -2   2   0 1355.70  153.01
  -2   2   0 1331.92  103.18
  -2   2   0 1355.55   83.25
  -2   2   0 1202.69  109.53
  -2   2   0 1342.93   61.18
  -2   2   0 1326.26   61.36
  -2   2   0 1334.30   54.41
  -2   2   0 1424.13   74.77
   2  -2   112397.09  383.58
   2  -2   111945.02  384.10
   2  -2   110379.39  288.93
   2  -2   112199.66  389.66
   2  -2   112136.39  326.58
   2  -2   112939.53  361.67
  -2   2  -112351.07  394.84
  -2   2  -112398.02  350.97
  -2   2  -112754.60  393.30
  -2   2  -111909.36  416.81
  -2   2  -112399.90  404.26
  -2   2  -113070.69  345.36
  -2   2  -112132.44  429.10
   2  -2   214385.64  451.06
   2  -2   214041.87  459.52
   2  -2   213993.03  397.57
   2  -2   213920.11  438.47
   2  -2   213807.17  406.64
   2  -2   214302.61  394.16
   2  -2   213469.20  373.04
  -2   2  -213925.09  432.73
  -2   2  -213860.37  436.44
  -2   2  -214015.47  443.74
  -2   2  -213741.97  444.38
  -2   2  -214016.84  441.27
  -2   2  -214376.92  448.50
  -2   2  -214076.67  412.83
   2  -2   318724.18  592.45
   2  -2   317770.71  536.86
   2  -2   318343.98  681.01
   2  -2   317894.97  592.70
   2  -2   318360.03  542.87
   2  -2   317901.83  555.27
   2  -2   316648.63  520.71
  -2   2  -317606.69  554.70
  -2   2  -318133.36  582.51
  -2   2  -317677.35  491.29
  -2   2  -317668.94  581.88
  -2   2  -317622.46  564.92
  -2   2  -317889.80  570.11
  -2   2  -318199.98  570.33
  -2   2  -318178.62  495.17
   2  -2   4 2311.63  112.49
   2  -2   4 2307.19  107.98
   2  -2   4 2259.48  158.29
   2  -2   4 2196.43  102.19
   2  -2   4 2131.83  194.66
   2  -2   4 2262.65   82.26
   2  -2   4 2116.89   74.81
  -2   2  -4 2165.24   98.30
  -2   2  -4 2193.26  112.49
  -2   2  -4 2372.39  181.08
  -2   2  -4 2180.06  152.02
  -2   2  -4 2243.65  115.00
  -2   2  -4 2142.80   63.68
  -2   2  -4 2219.78  123.08
   2  -2   5 6983.17  229.73
   2  -2   5 6716.07  216.71
   2  -2   5 6970.25  261.41
   2  -2   5 6916.48  308.48
   2  -2   5 6756.69  231.76
   2  -2   5 6284.07  162.46
   2  -2   5 6364.22  215.50
  -2   2  -5 6934.95  210.69
  -2   2  -5 6708.33  206.75
  -2   2  -5 6689.49  228.57
  -2   2  -5 6418.82  253.55
  -2   2  -5 6548.33  238.84
  -2   2  -5 6075.56  157.60
  -2   2  -5 6977.30  242.04
   2  -2   6 1154.20   76.69
   2  -2   6 1157.86  102.41
   2  -2   6 1191.82   85.88
   2  -2   6 1210.00   85.34
   2  -2   6 1266.16   98.71
   2  -2   6 1032.48   49.67
  -2   2  -6 1131.98   58.35
  -2   2  -6 1177.56   62.31
  -2   2  -6 1255.97   88.43
  -2   2  -6 1231.09  143.67
  -2   2  -6 1145.78   99.42
  -2   2  -6 1097.38   60.65
  -2   2  -6 1259.85   83.43
   2  -2   7 2031.98   89.40
   2  -2   7 2013.96  130.58
   2  -2   7 2134.97  102.47
   2  -2   7 1918.69  115.26
   2  -2   7 2001.02  115.69
  -2   2  -7 2037.47   81.12
  -2   2  -7 2028.89  114.55
  -2   2  -7 2012.31  104.96
  -2   2  -7 1858.10   97.72
  -2   2  -7 1770.92   58.85
  -2   2  -7 2109.91  115.48
  -2   2  -7 2038.52  207.37
   2  -2   8 5410.31  177.12
   2  -2   8 5739.80  248.61
   2  -2   8 5540.80  226.80
  -2   2  -8 5411.59  166.29
  -2   2  -8 5636.87  210.32
  -2   2  -8 5879.95  229.83
   2  -2   9 9823.16  341.98
   2  -2   911865.05  455.03
   2  -2   911811.85  434.46
  -2   2  -911828.55  493.60
  -2   2  -912107.48  444.49
   2  -2  10  114.15  103.10
   2  -2  10  103.46   64.49
  -2   2 -10  159.45   47.92
  -2   2 -10  100.39   61.49
   2  -2  11 8395.92  380.36
   2  -2  11 8685.01  370.46
  -2   2 -11 8467.75  315.37
  -2   2 -11 8482.09  459.84
   2  -2  12  332.21   83.63
  -2   2 -12  367.56   51.49
  -2   2 -12  301.42   71.27
  -2   2 -12   30.57   62.53
   2  -2  13  111.37   62.40
  -2   2 -13   77.25   50.55
  -2   2 -13   73.16   47.79
  -2   2 -13  117.82   59.87
   2  -2  14    4.43   37.24
  -2   2 -14   -3.31   19.97
  -2   2 -14   22.05   28.22
  -2   2 -14   -0.60   31.38
   2  -2  15   42.99   42.60
  -2   2 -15    6.96   32.89
  -2   2 -15   28.89   30.12
   2  -2  16   86.48   42.04
  -2   2 -16   62.97   49.55
  -2   2 -16   61.39   34.13
   2  -1 -16  406.60   60.49
   2  -1 -16  397.83   44.94
  -2   1  16  283.39   32.54
   2  -1 -15   80.87   46.15
   2  -1 -15   82.87   37.84
  -2   1  15    3.90   20.98
   2  -1 -14  272.26  118.99
   2  -1 -14  401.06   62.71
  -2   1  14  139.48   49.09
   2  -1 -13 1617.64  124.10
   2  -1 -13 1626.67  119.86
   2  -1 -13 1704.40  116.37
  -2   1  13 1358.45   81.97
   2  -1 -1210833.84  436.35
   2  -1 -1211302.01  439.12
   2  -1 -1211524.22  539.93
  -2   1  1210426.35  379.24
   2  -1 -11  978.04  100.84
   2  -1 -11  932.09  148.12
   2  -1 -11  947.10  103.74
  -2   1  11  885.98   82.04
   2  -1 -1015649.80  587.79
   2  -1 -1015775.83  562.59
   2  -1 -1016045.10  580.45
  -2   1  1015229.72  536.73
   2  -1  -9    4.75   20.52
   2  -1  -9   -5.90   27.88
   2  -1  -9   15.50   24.33
   2  -1  -9  -19.77   24.90
  -2   1   9    3.73   14.35
  -2   1   9  -44.62   43.34
   2  -1  -814014.97  476.29
   2  -1  -816089.91  566.37
   2  -1  -816173.90  591.17
   2  -1  -816244.00  539.17
   2  -1  -816079.32  540.98
   2  -1  -816137.20  602.76
  -2   1   814492.62  434.25
  -2   1   814693.06  440.06
  -2   1   815818.94  550.37
  -2   1   815803.20  628.63
  -2   1   815111.44  604.78
   2  -1  -7  146.70   43.36
   2  -1  -7  121.86   40.50
   2  -1  -7  125.32   14.82
   2  -1  -7  157.00   57.87
   2  -1  -7  101.82   18.06
   2  -1  -7  137.20   51.28
   2  -1  -7  274.33   43.30
   2  -1  -7  108.05   58.03
  -2   1   7  142.50   49.16
  -2   1   7  159.27   30.60
  -2   1   7  130.12   26.04
  -2   1   7  143.66   49.71
  -2   1   7  145.44   52.78
   2  -1  -6  374.02   23.20
   2  -1  -6  390.15   59.27
   2  -1  -6  394.36   65.77
   2  -1  -6  344.95   29.91
   2  -1  -6  442.13   56.41
   2  -1  -6  340.57   19.20
   2  -1  -6  345.54   56.06
  -2   1   6  399.88  115.28
  -2   1   6  447.47   63.47
  -2   1   6  371.65   45.16
  -2   1   6  369.65   36.65
  -2   1   6  396.92   65.45
   2  -1  -5  816.63   39.21
   2  -1  -5  828.08   88.65
   2  -1  -5  841.09   72.47
   2  -1  -5  823.85   49.08
   2  -1  -5  784.89   25.69
   2  -1  -5  838.89   74.53
   2  -1  -5  786.66   73.81
   2  -1  -5  823.81   51.22
  -2   1   5  848.54   91.37
  -2   1   5  870.66   77.02
  -2   1   5  773.42   78.10
  -2   1   5  857.38   68.37
  -2   1   5  866.27   52.18
  -2   1   5  821.84   83.72
  -2   1   5  867.67   84.65
   2  -1  -4 3966.77  128.58
   2  -1  -4 3879.41  111.26
   2  -1  -4 3867.21  125.52
   2  -1  -4 3829.51  174.95
   2  -1  -4 4102.91  235.14
   2  -1  -4 3932.46   92.32
   2  -1  -4 3991.35  229.73
   2  -1  -4 3727.64  164.32
  -2   1   4 3722.02  176.13
  -2   1   4 4049.75  122.46
  -2   1   4 4007.89  164.95
  -2   1   4 4013.00  159.02
  -2   1   4 4235.80  266.28
  -2   1   4 4075.21  159.30
  -2   1   4 3946.87  166.48
   2  -1  -3 1556.49   73.06
   2  -1  -3 1673.00   32.45
   2  -1  -3 1649.99  100.29
   2  -1  -3 1683.86  108.70
   2  -1  -3 1642.95   96.37
   2  -1  -3 1684.34   90.94
   2  -1  -3 1653.94   80.52
  -2   1   3 1678.17  103.32
  -2   1   3 1657.47  105.53
  -2   1   3 1785.76  110.29
  -2   1   3 1631.00   67.54
  -2   1   3 1658.53   91.63
  -2   1   3 1752.35   94.32
  -2   1   3 1631.37   97.41
   2  -1  -219414.78  569.18
   2  -1  -220172.82  684.96
   2  -1  -220328.89  632.60
   2  -1  -218301.34  443.81
   2  -1  -220053.73  609.79
   2  -1  -220028.74  613.42
  -2   1   219528.47  648.71
  -2   1   220829.70  639.88
  -2   1   220663.92  626.39
  -2   1   220295.58  657.55
  -2   1   219354.64  688.21
  -2   1   220454.36  597.80
   2  -1  -1 1292.48   72.82
   2  -1  -1 1223.04   36.98
   2  -1  -1 1307.75   78.17
   2  -1  -1 1270.18   27.33
   2  -1  -1 1341.55   75.12
  -2   1   1 1320.42   79.97
  -2   1   1 1210.26  167.76
  -2   1   1 1395.44   96.12
  -2   1   1 1276.68   87.68
  -2   1   1 1360.45   76.02
  -2   1   1 1610.15   87.24
  -2   1   1 1356.12   69.59
  -2   1   1 1447.94  113.06
   2  -1   023729.95  732.60
   2  -1   023996.63  767.51
   2  -1   022456.64  598.13
   2  -1   023791.46  863.32
   2  -1   023671.01  639.22
   2  -1   024210.43  740.70
  -2   1   024325.01  747.03
  -2   1   024392.17  752.71
  -2   1   025064.97  787.85
  -2   1   024094.84  762.62
  -2   1   024431.44  817.41
  -2   1   024503.87  767.40
  -2   1   023680.58  794.02
  -2   1   023399.64  683.27
   2  -1   1 3121.47  138.76
   2  -1   1 3300.49  122.68
   2  -1   1 3112.13  112.19
   2  -1   1 3134.78  115.40
   2  -1   1 3159.79  197.08
   2  -1   1 3312.23  147.56
  -2   1  -1 3307.31  127.30
  -2   1  -1 3353.00  124.83
  -2   1  -1 3314.76  129.36
  -2   1  -1 3214.87  136.57
  -2   1  -1 3415.45  115.48
  -2   1  -1 3188.45  204.65
   2  -1   2  137.35   36.20
   2  -1   2  182.62   45.49
   2  -1   2  161.41   27.95
   2  -1   2  182.78   50.33
   2  -1   2  165.77   29.24
   2  -1   2  165.65   37.37
   2  -1   2  163.13   53.15
  -2   1  -2  170.64   40.83
  -2   1  -2  156.74   36.64
  -2   1  -2  190.27   50.72
  -2   1  -2  159.48   62.83
  -2   1  -2    1.15   75.49
  -2   1  -2  168.98   31.35
   2  -1   3 1026.58   63.28
   2  -1   3 1021.17   79.42
   2  -1   3 1000.52   89.53
   2  -1   3  895.36   60.74
   2  -1   3 1033.95   60.63
   2  -1   3  957.31  104.11
  -2   1  -3  937.58  118.25
  -2   1  -3  980.55   63.75
  -2   1  -3  986.18   91.19
  -2   1  -3  989.40   83.63
  -2   1  -3 1004.54   59.88
  -2   1  -3 1048.06   97.60
   2  -1   4  812.17   58.82
   2  -1   4  790.45   72.75
   2  -1   4  795.22   65.39
   2  -1   4  842.17   93.67
   2  -1   4  778.95   64.98
   2  -1   4  790.76   64.50
  -2   1  -4  807.40   89.62
  -2   1  -4  821.11   49.98
  -2   1  -4  770.12  114.79
  -2   1  -4  779.96   83.27
  -2   1  -4  763.62   55.31
  -2   1  -4  818.78   81.83
  -2   1  -4  845.59   63.34
   2  -1   511254.13  351.01
   2  -1   511634.75  372.59
   2  -1   511115.31  402.79
   2  -1   510313.39  338.86
   2  -1   510995.84  351.98
   2  -1   510936.35  322.33
  -2   1  -511222.57  345.15
  -2   1  -510812.35  293.43
  -2   1  -510434.17  377.76
  -2   1  -510456.99  386.65
  -2   1  -510779.12  372.18
  -2   1  -510974.51  376.22
  -2   1  -510721.02  312.39
   2  -1   612121.85  414.16
   2  -1   612771.22  403.92
   2  -1   612080.81  399.96
   2  -1   612817.30  460.12
   2  -1   611751.73  392.57
   2  -1   612420.53  398.53
  -2   1  -612239.97  413.96
  -2   1  -611060.84  295.35
  -2   1  -612029.89  362.55
  -2   1  -612686.43  377.34
  -2   1  -611320.51  418.16
  -2   1  -612120.92  415.65
  -2   1  -611768.43  348.44
   2  -1   7 1288.12   95.54
   2  -1   7 1278.82   75.00
   2  -1   7 1260.04  179.92
   2  -1   7 1040.16  143.64
   2  -1   7 1171.43   91.03
   2  -1   7 1231.76   74.01
  -2   1  -7 1266.04  101.65
  -2   1  -7 1232.63  107.30
  -2   1  -7 1191.42   96.77
  -2   1  -7 1190.41   65.98
  -2   1  -7 1347.89  153.12
  -2   1  -7 1169.17   61.11
   2  -1   8 3063.68  149.11
   2  -1   8 3069.43  161.94
   2  -1   8 3261.49  183.93
   2  -1   8 3298.63  237.62
   2  -1   8 3018.99  120.38
  -2   1  -8 3184.78  150.68
  -2   1  -8 3180.21  158.19
  -2   1  -8 3134.71  113.10
  -2   1  -8 3340.33  156.31
   2  -1   9 1451.61   78.94
   2  -1   9 1616.20  139.15
   2  -1   9 1642.91  120.84
  -2   1  -9 1657.14  112.47
  -2   1  -9 1582.75   82.56
   2  -1  10   31.44   24.25
   2  -1  10   54.46   50.13
   2  -1  10   85.82   59.13
  -2   1 -10   56.04   28.74
  -2   1 -10   43.49   25.42
  -2   1 -10   72.44   46.54
   2  -1  11  188.60   73.90
  -2   1 -11  127.60   32.49
  -2   1 -11   82.38   27.69
  -2   1 -11  179.76   55.41
   2  -1  12 5048.57  258.05
  -2   1 -12 5195.24  243.26
  -2   1 -12 5281.56  327.67
   2  -1  13  306.82  125.46
  -2   1 -13  405.45   65.54
  -2   1 -13  419.14   74.68
   2  -1  14   58.64   50.88
  -2   1 -14   56.67   42.89
  -2   1 -14   36.17   37.26
   2  -1  15   45.41   43.92
  -2   1 -15   61.52   41.35
   2  -1  16    7.40   29.35
  -2   1 -16    9.40   44.69
   2   0 -16  131.73   41.03
   2   0 -16  144.09   41.94
   2   0 -15   46.29   42.85
   2   0 -15   52.43   61.73
   2   0 -15   38.88   26.93
   2   0 -14  113.74   51.23
   2   0 -14   62.20   28.23
   2   0 -14   48.01   33.89
   2   0 -14   44.23   67.92
  -2   0  14   74.78   30.21
   2   0 -13 1691.85  115.87
   2   0 -13 1809.51  141.41
   2   0 -13 1583.60  132.54
   2   0 -13 1682.57  104.26
  -2   0  13 3286.32  156.71
   2   0 -1213006.61  459.79
   2   0 -1214429.50  580.23
   2   0 -1214347.91  523.79
   2   0 -1214418.77  503.18
  -2   0  1213722.91  588.97
   2   0 -11   19.90   27.12
   2   0 -11    3.77   45.26
   2   0 -11   25.08   34.70
   2   0 -11   -4.35   53.53
  -2   0  11   10.84   33.03
   2   0 -10 4759.51  178.21
   2   0 -10 5069.29  339.01
   2   0 -10 4685.64  247.81
   2   0 -10 5040.74  196.59
  -2   0  10 4747.96  199.38
   2   0  -9  -14.90   57.97
   2   0  -9    6.25   40.43
   2   0  -9   37.63   22.32
   2   0  -9   29.41   25.46
   2   0  -9  -30.32   19.08
  -2   0   9   19.72   23.05
  -2   0   9  -18.50   28.89
  -2   0   9  -11.73   16.79
   2   0  -8 9665.38  349.17
   2   0  -8 9417.27  302.77
   2   0  -8 9615.59  451.65
   2   0  -8 9593.86  312.27
   2   0  -8 9374.36  375.93
   2   0  -8 9306.34  302.63
   2   0  -8 9672.30  357.62
  -2   0   8 9364.51  287.35
  -2   0   8 9534.65  365.12
  -2   0   8 9367.35  333.07
  -2   0   8 9398.39  332.56
  -2   0   8 9520.19  348.84
   2   0  -713431.27  426.19
   2   0  -713824.84  590.25
   2   0  -714080.23  442.08
   2   0  -713705.40  513.60
   2   0  -714167.52  457.97
   2   0  -713975.65  480.91
  -2   0   713768.56  468.56
  -2   0   713889.62  430.05
  -2   0   714506.94  444.74
  -2   0   713629.55  462.86
  -2   0   713858.56  490.82
   2   0  -614881.72  462.85
   2   0  -614647.66  346.53
   2   0  -614913.21  624.18
   2   0  -613908.19  343.09
   2   0  -616123.88  521.50
   2   0  -615630.19  481.03
   2   0  -615883.01  583.32
   2   0  -615919.59  527.67
  -2   0   616227.01  536.16
  -2   0   615232.58  540.64
  -2   0   615059.01  514.35
  -2   0   616419.62  607.70
  -2   0   616989.29  523.85
   2   0  -529721.27  987.10
   2   0  -530682.82 1210.73
   2   0  -531395.97 1087.68
   2   0  -529386.67  864.06
   2   0  -531730.56 1049.18
   2   0  -531251.05 1019.73
   2   0  -529691.92  847.67
  -2   0   531728.97 1076.64
  -2   0   529171.50 1012.12
  -2   0   533703.24 1202.80
  -2   0   531904.88 1089.63
  -2   0   529658.69 1058.57
   2   0  -421869.95  725.31
   2   0  -421821.87  733.71
   2   0  -421107.78  584.94
   2   0  -422252.76  696.21
   2   0  -422528.49  813.84
   2   0  -420699.86  556.00
   2   0  -421545.79  743.15
  -2   0   422430.42  698.80
  -2   0   421624.28  708.79
  -2   0   422572.47  691.33
  -2   0   420393.19  692.95
   2   0  -329063.65  964.01
   2   0  -329340.60  958.37
   2   0  -328239.06  971.39
   2   0  -327212.76  836.69
   2   0  -329274.25  944.39
   2   0  -330129.44  949.69
  -2   0   330020.11  953.06
  -2   0   328286.93  953.47
  -2   0   328359.99  994.06
   2   0  -246761.72 1645.97
   2   0  -250159.03 1781.86
   2   0  -248386.80 1779.88
   2   0  -250258.36 1749.50
   2   0  -249025.40 1734.33
   2   0  -248347.84 1735.60
  -2   0   245778.65 1598.31
  -2   0   249486.63 1946.22
  -2   0   249021.95 1715.36
  -2   0   250441.72 1773.22
   2   0  -170143.68 2679.30
   2   0  -172801.51 2904.58
   2   0  -177323.78 2993.13
   2   0  -174887.57 3134.75
   2   0  -175534.81 2949.40
  -2   0   176983.11 2964.85
  -2   0   173836.52 2913.61
  -2   0   170923.59 2678.98
  -2   0   172719.27 2836.32
   2   0   0 9610.23  288.56
   2   0   0 9651.85  316.01
   2   0   0 9513.80  225.94
   2   0   0 9885.37  310.87
   2   0   010932.01  329.07
   2   0   0 9556.44  329.60
  -2   0   0 9993.09  267.93
  -2   0   010109.20  329.05
  -2   0   0 9948.03  304.93
   2   0   153874.62 1939.01
   2   0   151366.76 1846.10
   2   0   151337.55 1719.62
   2   0   151616.92 2077.74
   2   0   154209.53 1971.99
  -2   0  -152560.95 1790.67
  -2   0  -152260.97 1860.63
  -2   0  -152246.33 1981.29
  -2   0  -152133.33 1917.21
   2   0   224212.84  887.38
   2   0   225415.96  819.03
   2   0   225139.63  852.95
   2   0   225073.24  735.51
   2   0   224655.32  808.29
  -2   0  -224586.88  784.15
  -2   0  -227485.38 1034.83
  -2   0  -224794.90  727.49
  -2   0  -224649.97  713.64
  -2   0  -226079.66  827.79
   2   0   321868.53  616.77
   2   0   322199.02  853.61
   2   0   321584.50  652.30
   2   0   321288.60  731.89
   2   0   322572.28  734.70
   2   0   322028.73  731.76
  -2   0  -320693.31  586.86
  -2   0  -321051.01  669.06
  -2   0  -321799.69  731.80
  -2   0  -321552.65  640.64
  -2   0  -321790.92  687.41
   2   0   414386.77  388.23
   2   0   414863.14  488.44
   2   0   414214.62  440.84
   2   0   414784.53  505.43
   2   0   414761.67  496.93
  -2   0  -414766.05  463.73
  -2   0  -414105.13  488.84
  -2   0  -414186.23  451.57
  -2   0  -414297.46  439.25
   2   0   516138.95  449.97
   2   0   516816.30  584.80
   2   0   516481.13  525.74
   2   0   516446.41  544.73
   2   0   516570.22  560.81
  -2   0  -516808.46  531.07
  -2   0  -516579.25  539.84
  -2   0  -515754.06  506.73
  -2   0  -515557.36  440.69
   2   0   618206.41  558.09
   2   0   618835.27  618.05
   2   0   618966.07  797.46
   2   0   618168.56  604.11
   2   0   618940.18  654.86
  -2   0  -619639.88  613.10
  -2   0  -618511.38  611.05
  -2   0  -617558.56  657.83
  -2   0  -617573.99  514.50
   2   0   7  654.81   53.93
   2   0   7  695.53   68.00
   2   0   7  762.26   90.14
   2   0   7  725.49   73.08
   2   0   7  694.98   76.85
  -2   0  -7  791.63   60.42
  -2   0  -7  694.30   38.51
  -2   0  -7  719.90   72.87
  -2   0  -7  818.01  130.85
  -2   0  -7  699.99  102.92
   2   0   8 2017.76   91.92
   2   0   8 2176.02  107.69
   2   0   8 2194.91  152.19
   2   0   8 2301.58  134.30
   2   0   8 2270.80  126.79
  -2   0  -8 2341.82   99.70
  -2   0  -8 2000.09   71.87
  -2   0  -8 2215.89  160.29
  -2   0  -8 2344.25  175.63
   2   0   9  -18.74   23.93
   2   0   9   23.33   40.72
   2   0   9    5.12   34.83
  -2   0  -9   40.52   36.13
   2   0  10  463.46   54.96
   2   0  10  550.11   86.40
  -2   0 -10  617.83   69.42
  -2   0 -10  563.09   71.33
   2   0  11 2218.34  242.60
  -2   0 -11 1997.89  113.17
  -2   0 -11 2088.40  120.97
   2   0  12  711.59  107.20
  -2   0 -12  885.15   97.91
  -2   0 -12  641.78   64.46
  -2   0 -12  711.43  115.53
   2   0  13  214.83   71.06
  -2   0 -13  188.71   59.82
  -2   0 -13  116.67   36.21
  -2   0 -13  213.50   41.98
   2   0  14   37.97   46.18
  -2   0 -14    4.24   35.12
  -2   0 -14    9.13   18.33
  -2   0 -14   14.14   22.00
   2   0  15   18.47   37.97
  -2   0 -15   -1.29   51.17
  -2   0 -15    7.72   11.65
   2   0  16  120.65   70.92
  -2   0 -16   91.91   37.78
   2   1 -16 1088.80   93.85
   2   1 -16  831.46   57.70
   2   1 -15  170.96   61.62
   2   1 -15   55.24   59.60
   2   1 -15  156.55   41.61
  -2  -1  15   47.52   23.67
   2   1 -14 1166.16  127.53
   2   1 -14 1251.06  121.92
   2   1 -14  905.42   56.18
   2   1 -14 1134.06  112.68
  -2  -1  14 1033.76   73.18
   2   1 -13 7015.16  271.86
   2   1 -13 7703.04  346.99
   2   1 -13 6947.19  255.32
   2   1 -13 6421.54  221.36
  -2  -1  13 6756.43  258.95
   2   1 -1223300.05  854.17
   2   1 -1224576.92 1140.12
   2   1 -1222713.42  810.03
   2   1 -1221763.75  762.15
  -2  -1  1222535.79  836.42
   2   1 -11   42.96   59.30
   2   1 -11  100.74   35.36
   2   1 -11   80.57   44.83
   2   1 -11   57.45   30.64
  -2  -1  11   88.19   46.62
   2   1 -10 5498.16  204.47
   2   1 -10 5901.03  266.47
   2   1 -10 5623.49  189.76
   2   1 -10 5710.71  198.57
   2   1 -10 5911.46  230.17
  -2  -1  10 5665.33  230.37
   2   1  -9   53.59   53.99
   2   1  -9   71.31   27.27
   2   1  -9   82.10   34.48
   2   1  -9   29.73   46.04
   2   1  -9   32.56   26.74
   2   1  -9   47.70   37.35
   2   1  -9   39.24   34.71
  -2  -1   9   38.04   41.18
  -2  -1   9   74.62   48.79
   2   1  -8 1099.76   94.35
   2   1  -8 1090.59   80.23
   2   1  -8 1087.43   82.05
   2   1  -8 1020.85  112.77
   2   1  -8  955.71   58.43
   2   1  -8  962.78   60.12
   2   1  -8  989.16   77.36
  -2  -1   8 1103.80   91.43
  -2  -1   8  995.86   73.57
  -2  -1   8  967.83   83.26
  -2  -1   8 1077.23   90.84
   2   1  -7 6459.42  233.46
   2   1  -7 6139.56  222.90
   2   1  -7 6242.38  237.22
   2   1  -7 6060.89  181.99
   2   1  -7 6131.74  208.02
   2   1  -7 6028.25  189.46
  -2  -1   7 6246.47  221.26
  -2  -1   7 6320.83  226.56
  -2  -1   7 5881.05  235.61
   2   1  -6 6289.00  206.09
   2   1  -6 6462.57  242.33
   2   1  -6 6280.91  233.84
   2   1  -6 6344.43  228.12
   2   1  -6 6342.78  196.99
   2   1  -6 6424.68  255.31
   2   1  -6 6192.71  180.86
  -2  -1   6 6530.07  231.02
  -2  -1   6 6374.61  232.64
  -2  -1   6 5693.42  328.00
   2   1  -511085.61  387.76
   2   1  -510536.42  293.54
   2   1  -510841.43  378.16
   2   1  -510542.21  352.45
   2   1  -510502.70  345.40
   2   1  -510860.88  325.45
   2   1  -510648.74  319.88
  -2  -1   5 9913.75  461.51
  -2  -1   510813.10  367.71
  -2  -1   511591.53  470.28
   2   1  -4  259.12   57.32
   2   1  -4  225.82   60.05
   2   1  -4  241.17   44.98
   2   1  -4  228.55   30.38
   2   1  -4  237.31   11.07
   2   1  -4  278.26   40.82
   2   1  -4  261.50   85.94
   2   1  -4  236.27   16.13
  -2  -1   4  313.34   52.52
  -2  -1   4  231.92   94.14
  -2  -1   4  259.61   98.31
   2   1  -3  654.30   88.98
   2   1  -3  582.48   68.30
   2   1  -3  632.84   76.15
   2   1  -3  648.04   25.84
   2   1  -3  607.21   39.45
   2   1  -3  679.76   98.50
   2   1  -3  691.50   73.03
  -2  -1   3  616.72   74.92
  -2  -1   3  721.50   63.53
   2   1  -211806.02  392.40
   2   1  -212630.76  324.50
   2   1  -212458.76  346.76
   2   1  -212709.97  383.09
   2   1  -212612.95  378.93
   2   1  -211897.96  264.50
   2   1  -211937.61  365.50
   2   1  -212811.44  410.27
  -2  -1   212050.57  391.05
  -2  -1   213193.31  405.44
   2   1  -1 4191.24  133.01
   2   1  -1 4116.82  162.60
   2   1  -1 4355.02  118.90
   2   1  -1 4357.64  124.35
   2   1  -1 4306.96  131.52
   2   1  -1 4255.42  114.06
   2   1  -1 4266.46  156.70
   2   1  -1 5032.69  180.17
  -2  -1   1 4475.81  166.80
   2   1   018845.77  526.95
   2   1   019831.21  693.50
   2   1   020258.50  584.39
   2   1   020082.80  574.29
   2   1   020312.27  657.61
   2   1   021100.26  668.49
   2   1   019797.29  599.32
  -2  -1   020327.03  715.83
   2   1   1  583.01   45.87
   2   1   1  525.44   24.05
   2   1   1  571.90   67.72
   2   1   1  654.41   62.32
   2   1   1  522.55   45.20
   2   1   1  544.03   36.96
   2   1   1  552.74   69.85
  -2  -1  -1  598.09   66.08
   2   1   213343.35  434.49
   2   1   214056.32  421.77
   2   1   214182.38  399.51
   2   1   213815.63  454.08
   2   1   214233.42  593.52
  -2  -1  -214217.01  444.14
  -2  -1  -214285.00  456.45
   2   1   3 5720.86  199.01
   2   1   3 5861.80  249.82
   2   1   3 5698.73  215.54
   2   1   3 5463.65  215.34
   2   1   3 5575.24  234.98
  -2  -1  -3 5848.25  213.52
  -2  -1  -3 5619.66  209.89
   2   1   4 5408.72  113.52
   2   1   4 5793.74  330.76
   2   1   4 5675.55  284.17
   2   1   4 5485.38  252.49
   2   1   4 5654.37  239.85
  -2  -1  -4 5906.48  221.07
  -2  -1  -4 5566.83  306.61
   2   1   5  182.42   12.01
   2   1   5  249.94   56.64
   2   1   5  203.69   73.51
   2   1   5   73.24  104.51
   2   1   5  212.31   50.83
  -2  -1  -5  266.12   54.91
  -2  -1  -5  229.66   44.64
  -2  -1  -5  240.19   99.45
   2   1   6   -0.41   29.43
   2   1   6   21.46   31.18
   2   1   6   26.89   46.09
   2   1   6  -13.54   35.95
  -2  -1  -6   25.40   24.86
  -2  -1  -6   30.15   58.71
  -2  -1  -6   -7.56   30.95
   2   1   7 4298.07  183.06
   2   1   7 4336.42  195.15
   2   1   7 4378.05  252.61
   2   1   7 4543.74  214.41
  -2  -1  -7 4346.34  158.19
  -2  -1  -7 4829.26  288.85
  -2  -1  -7 4699.66  252.83
   2   1   8 6607.39  256.43
   2   1   8 6803.45  283.44
   2   1   8 7051.41  367.45
   2   1   8 7031.20  301.18
  -2  -1  -8 6933.78  226.61
   2   1   9 9229.22  426.49
   2   1   9 9840.88  379.99
  -2  -1  -9 9738.25  319.08
   2   1  10  962.64   87.34
   2   1  10 1085.09  113.08
  -2  -1 -10 1068.01   98.17
  -2  -1 -10 1129.60   96.85
  -2  -1 -10  996.08   69.41
   2   1  11 2765.27  139.44
   2   1  11 3068.95  185.52
  -2  -1 -11 3359.29  169.47
  -2  -1 -11 3024.27  161.22
  -2  -1 -11 2782.16  161.68
   2   1  12 4061.53  226.67
  -2  -1 -12 4244.86  194.08
  -2  -1 -12 4227.17  182.58
  -2  -1 -12 3321.10  130.00
   2   1  13  303.16   76.39
  -2  -1 -13  259.40   64.33
  -2  -1 -13  336.53   54.48
   2   1  14   45.94   46.81
  -2  -1 -14   54.93   36.08
  -2  -1 -14   10.79   27.49
   2   1  15   20.62   62.88
  -2  -1 -15   32.54   30.93
  -2  -1 -15   16.11   20.13
   2   2 -16    0.81   24.29
   2   2 -15  -17.85   45.19
   2   2 -15  -19.41   61.84
  -2  -2  15   -0.03   14.20
   2   2 -14  657.12  108.12
   2   2 -14  733.34  136.41
  -2  -2  14  617.78   61.94
   2   2 -13 1010.46  104.68
  -2  -2  13  941.42   85.71
   2   2 -12 4286.59  171.42
   2   2 -12 5269.67  238.57
   2   2 -12 4298.03  151.40
  -2  -2  12 4867.34  220.33
   2   2 -11 1228.78  108.82
   2   2 -11  962.41   56.22
  -2  -2  11 1072.47  100.13
   2   2 -1016222.01  578.35
   2   2 -1014096.98  438.63
   2   2  -9 1988.16  127.63
   2   2  -9 1943.93  122.36
   2   2  -9 1834.62  112.86
   2   2  -9 1844.30  119.82
   2   2  -9 1740.00   76.99
   2   2  -9 1652.41   64.22
   2   2  -9 1584.08   63.88
   2   2  -9 1566.79   78.44
   2   2  -812770.28  456.06
   2   2  -813181.68  447.92
   2   2  -813299.25  450.83
   2   2  -812813.68  440.11
   2   2  -811830.92  353.10
   2   2  -811157.63  319.48
   2   2  -811247.37  328.99
   2   2  -811435.38  357.58
  -2  -2   812854.14  443.12
  -2  -2   812158.53  438.69
   2   2  -7 2621.95  145.49
   2   2  -7 2742.71  139.83
   2   2  -7 2579.39  129.49
   2   2  -7 2639.55  123.54
   2   2  -7 2307.48   70.44
   2   2  -7 2445.67   82.10
   2   2  -7 2278.31   76.98
  -2  -2   7 2152.33   63.48
  -2  -2   7 2628.35  125.69
  -2  -2   7 2489.81  134.17
   2   2  -6 9573.50  349.11
   2   2  -6 9652.47  343.41
   2   2  -6 9247.56  315.47
   2   2  -6 9338.90  300.61
   2   2  -6 8781.18  271.20
   2   2  -6 9230.05  296.97
   2   2  -6 8541.97  242.10
  -2  -2   6 9313.49  329.07
  -2  -2   6 9452.48  330.11
  -2  -2   6 8305.61  235.38
  -2  -2   6 9542.26  317.28
   2   2  -5 2079.19  128.74
   2   2  -5 2187.67  132.31
   2   2  -5 2017.89  111.53
   2   2  -5 2053.84   94.05
   2   2  -5 1960.71   53.96
   2   2  -5 2009.70   74.95
   2   2  -5 1963.12   61.48
  -2  -2   5 2037.86  126.11
  -2  -2   5 2177.99  172.97
  -2  -2   5 2086.59  121.24
   2   2  -418265.79  690.71
   2   2  -417587.36  471.21
   2   2  -417520.28  456.02
   2   2  -418969.48  748.00
   2   2  -418449.58  536.66
   2   2  -417836.29  537.70
  -2  -2   418116.97  613.96
   2   2  -3 6581.62  229.57
   2   2  -3 6009.28  166.77
   2   2  -3 6368.38  242.41
   2   2  -3 6195.98  172.27
   2   2  -3 6705.88  234.27
   2   2  -3 6181.59  135.62
   2   2  -3 6138.77  181.60
   2   2  -3 6148.98  154.38
   2   2  -2 6622.37  223.34
   2   2  -2 6268.38  227.74
   2   2  -2 6268.77  162.08
   2   2  -2 6241.98  188.20
   2   2  -2 6098.94  163.27
   2   2  -2 6339.60  211.10
   2   2  -2 6124.86  133.25
   2   2  -2 6611.50  201.29
   2   2  -1   52.06   28.43
   2   2  -1   65.84   34.03
   2   2  -1   58.32   10.41
   2   2  -1   46.88   34.41
   2   2  -1   63.69   26.92
   2   2  -1   49.70   17.89
   2   2  -1   69.14   21.32
   2   2  -1   75.08   32.78
   2   2   0 3696.08  115.13
   2   2   0 3371.46   82.63
   2   2   0 3655.38  140.81
   2   2   0 3472.23  121.42
   2   2   0 3653.87  137.41
   2   2   0 3445.33  107.95
   2   2   0 3464.13  139.73
   2   2   115804.40  445.27
   2   2   116172.77  524.84
   2   2   116390.29  508.29
   2   2   115582.90  425.05
   2   2   115472.82  458.24
   2   2   117235.38  506.87
   2   2   117129.30  558.78
   2   2   2  237.36   21.02
   2   2   2  296.98   59.07
   2   2   2  252.06   17.50
   2   2   2  200.69   68.01
   2   2   2  195.09   44.37
   2   2   2  238.93   48.52
   2   2   2  252.53   60.18
   2   2   3 5239.05  110.66
   2   2   3 6303.18  198.81
   2   2   3 6122.66  238.84
   2   2   3 6297.93  204.38
   2   2   3 6299.96  244.51
   2   2   3 5986.95  175.93
  -2  -2  -3 6599.67  238.57
   2   2   4  340.23   67.87
   2   2   4  340.80   51.52
   2   2   4  244.55  117.97
   2   2   4  345.08   41.07
  -2  -2  -4  343.22   58.93
  -2  -2  -4  309.74   97.71
   2   2   5 9345.83  355.84
   2   2   510229.28  338.78
   2   2   5 9468.12  303.42
   2   2   5 9864.00  376.23
  -2  -2  -510755.76  366.94
  -2  -2  -5 9624.71  283.53
  -2  -2  -510308.72  473.70
   2   2   610776.63  405.02
   2   2   611625.29  400.28
   2   2   611466.47  444.68
  -2  -2  -612273.60  413.63
  -2  -2  -610283.77  307.29
  -2  -2  -611683.88  534.18
   2   2   7   99.10   65.65
   2   2   7  117.18   93.67
   2   2   7  135.34   50.45
  -2  -2  -7  171.31   44.02
   2   2   8  -27.23   43.19
   2   2   8   82.47   43.66
  -2  -2  -8    4.59   24.24
  -2  -2  -8   11.97   15.70
   2   2   9 5503.00  255.17
   2   2   9 5510.71  258.83
  -2  -2  -9 5742.54  217.69
   2   2  10 4525.38  216.30
   2   2  10 4366.17  234.58
  -2  -2 -10 4776.68  195.61
  -2  -2 -10 5063.92  244.63
   2   2  1113131.14  498.46
   2   2  1113440.00  537.92
  -2  -2 -1113810.02  495.70
  -2  -2 -1114140.78  542.99
   2   2  12  269.06   78.86
   2   2  12  323.92   77.23
  -2  -2 -12  469.35   74.59
  -2  -2 -12  491.62   65.15
   2   2  13  273.56  123.56
  -2  -2 -13  179.12   53.13
  -2  -2 -13  149.66   74.93
   2   2  14  -13.92   37.97
  -2  -2 -14    8.47   24.33
  -2  -2 -14    6.71   26.09
   2   2  15    0.92   24.84
  -2  -2 -15   -5.90   19.58
   2   3 -16  511.03   75.92
   2   3 -16  630.80   81.75
   2   3 -15  240.37   69.95
   2   3 -15  213.06   67.04
  -2  -3  15   87.06   30.36
   2   3 -14   18.36   70.04
   2   3 -14   26.60   79.87
  -2  -3  14    7.10   25.92
   2   3 -13 4643.61  225.86
   2   3 -13 3777.94  220.76
   2   3 -13 4437.95  236.04
  -2  -3  13 4237.92  190.48
   2   3 -12 9573.94  397.44
   2   3 -12 8787.85  340.71
   2   3 -12 9500.30  396.42
  -2  -3  12    8.57   36.13
   2   3 -11  728.21   96.75
   2   3 -11  639.10   83.85
   2   3 -11  678.19   95.31
   2   3 -10  186.74   70.57
   2   3 -10  243.36   67.82
   2   3 -10  200.09   63.48
   2   3 -10  259.55   64.32
   2   3  -9 1814.81  141.99
   2   3  -9 1861.17  126.40
   2   3  -9 1907.43  117.59
   2   3  -9 2005.18  134.32
   2   3  -8 5964.21  261.93
   2   3  -8 5722.99  232.77
   2   3  -8 5863.79  222.66
   2   3  -8 6226.82  260.83
   2   3  -7 1942.05  115.70
   2   3  -7 2169.12  210.23
   2   3  -7 2070.81  137.43
   2   3  -7 1965.72   98.24
  -2  -3   7 1972.41  122.60
  -2  -3   7 1622.05   59.49
  -2  -3   7 1920.33  119.26
   2   3  -610813.01  368.51
   2   3  -611053.84  342.46
   2   3  -611334.82  523.22
   2   3  -611314.76  512.01
  -2  -3   610824.19  388.16
  -2  -3   610436.19  287.40
  -2  -3   611238.66  393.03
   2   3  -5 8352.72  304.31
   2   3  -5 7899.60  332.41
   2   3  -5 7861.14  230.98
   2   3  -5 7090.77  212.98
   2   3  -5 8131.36  296.67
  -2  -3   5 7706.42  288.60
  -2  -3   5 8316.71  292.53
   2   3  -4 1743.13   93.52
   2   3  -4 1543.07   58.94
   2   3  -4 1609.40  109.91
   2   3  -4 1617.34   61.94
   2   3  -4 1556.14   54.09
   2   3  -4 1654.95  109.17
   2   3  -3 4451.71  179.39
   2   3  -3 4182.80  107.87
   2   3  -3 4124.27  128.18
   2   3  -3 4516.60  160.69
   2   3  -3 4364.23  131.24
   2   3  -3 4135.93  119.55
   2   3  -3 4481.65  178.50
   2   3  -248837.18 1759.94
   2   3  -243887.24 1456.48
   2   3  -247588.44 1665.10
   2   3  -249457.45 1815.76
   2   3  -248114.40 1713.67
   2   3  -246289.40 1693.04
   2   3  -247093.05 1736.81
   2   3  -134714.60 1183.44
   2   3  -134136.18 1154.91
   2   3  -134374.10 1163.94
   2   3  -135162.22 1268.88
   2   3  -134409.10 1161.43
   2   3  -133015.65 1211.03
   2   3   050413.29 1833.14
   2   3   051019.70 1866.52
   2   3   051701.42 1955.27
   2   3   050809.40 1963.08
   2   3   051126.96 1898.69
   2   3   052032.56 1949.24
   2   3   1  805.35   67.44
   2   3   1  784.32   39.97
   2   3   1  815.88   74.93
   2   3   1  853.06   64.12
   2   3   1  875.76   77.24
   2   3   1  805.60   67.52
   2   3   2 8992.62  260.17
   2   3   2 9794.52  312.59
   2   3   2 9490.50  335.38
   2   3   2 9398.56  396.14
   2   3   2 8300.88  246.28
   2   3   3 2673.24  140.71
   2   3   3 2646.56  151.10
   2   3   3 2921.13  129.69
   2   3   4   52.69   41.10
   2   3   4   37.70   44.88
   2   3   4   24.53   35.31
  -2  -3  -4   63.97   41.81
   2   3   5   77.44   48.23
   2   3   5   29.79   51.12
   2   3   5   42.41   68.92
  -2  -3  -5   42.45   15.59
   2   3   610830.50  438.03
   2   3   610636.53  433.15
   2   3   611149.86  521.06
  -2  -3  -6 9506.89  274.24
   2   3   7 7537.95  339.01
   2   3   7 7451.29  401.82
  -2  -3  -7 6923.14  211.51
   2   3   8 3089.43  196.13
   2   3   8 3075.75  287.47
  -2  -3  -8 2719.40   90.26
  -2  -3  -8  -17.56  107.15
   2   3   9 7603.67  342.18
   2   3   9 7501.79  462.05
  -2  -3  -9 8117.40  327.10
  -2  -3  -9 6835.86  235.70
   2   3  10  517.20  144.14
   2   3  10  602.98   99.32
  -2  -3 -10  644.32   54.01
  -2  -3 -10  599.16   92.47
   2   3  11 1722.60  121.22
   2   3  11 1845.10  149.86
  -2  -3 -11 1966.55  134.87
  -2  -3 -11 1766.45  128.53
   2   3  12 1838.17  106.84
   2   3  12 2085.86  148.81
  -2  -3 -12 1861.24   88.60
  -2  -3 -12 2128.01  131.65
   2   3  13  270.31   68.89
  -2  -3 -13  193.86   90.60
   2   3  14  109.82   46.67
  -2  -3 -14   70.40   35.77
   2   4 -16  -16.44   33.61
   2   4 -16  -15.59   32.79
   2   4 -15  -16.53   33.60
   2   4 -15    8.77   31.20
  -2  -4  15   22.23   22.62
   2   4 -14   15.85   46.12
   2   4 -14   64.65   72.05
   2   4 -14   22.28   25.90
  -2  -4  14   32.98   31.83
   2   4 -13    9.21   32.83
   2   4 -13  -19.44   74.21
   2   4 -13   40.46   40.74
  -2  -4  13   23.03   36.65
   2   4 -12  130.93  100.12
   2   4 -12  122.44   55.65
   2   4 -12  133.24   56.30
   2   4 -11  745.98  101.43
   2   4 -11  749.12   93.37
   2   4 -11  654.69   84.99
   2   4 -11  678.17   99.71
   2   4 -1012216.64  503.65
   2   4 -1012120.25  455.15
   2   4 -1012608.95  523.01
   2   4 -1011911.24  462.21
   2   4  -9   49.29   48.76
   2   4  -9   23.29   38.14
   2   4  -9    3.11   31.81
   2   4  -9   36.59   49.10
   2   4  -8  880.59  107.89
   2   4  -8  879.77  175.20
   2   4  -8  740.62   80.11
   2   4  -8  760.43   64.93
  -2  -4   8  583.08   40.01
   2   4  -7   84.56   63.81
   2   4  -7  166.41   95.08
   2   4  -7  196.19   88.90
   2   4  -7   56.68   28.99
  -2  -4   7   71.10   23.07
   2   4  -6  546.87   79.29
   2   4  -6  399.05   94.66
   2   4  -6  404.79   38.60
   2   4  -6  510.24   78.86
  -2  -4   6  496.95   39.55
   2   4  -5 4291.66  160.59
   2   4  -5 4389.04  204.10
   2   4  -5 4291.05  196.87
   2   4  -4 3119.38  156.29
   2   4  -4 2957.01  116.79
   2   4  -4 2891.95  108.58
   2   4  -4 3151.62  149.07
   2   4  -3   93.53   26.99
   2   4  -3  110.95   43.60
   2   4  -3   87.53   29.22
   2   4  -3   91.27   40.37
   2   4  -217280.88  555.61
   2   4  -217511.52  585.67
   2   4  -215905.80  486.95
   2   4  -217027.74  568.97
   2   4  -216815.62  549.86
   2   4  -134896.61 1283.73
   2   4  -132997.57 1198.21
   2   4  -133654.51 1177.63
   2   4  -131632.72 1054.84
   2   4  -129860.77 1038.14
   2   4  -132523.76 1181.52
   2   4   0  974.32   81.87
   2   4   0 1104.00   97.45
   2   4   0 1004.60   79.42
   2   4   0 1079.14   72.77
   2   4   0 1088.51   77.15
   2   4   1   49.12   26.87
   2   4   1   43.77   36.93
   2   4   1  111.37   57.88
   2   4   1   43.27   34.59
   2   4   2 3784.12  148.60
   2   4   2 4003.79  179.90
   2   4   2 4166.25  167.74
   2   4   2 3348.16  133.35
   2   4   3  445.12   61.48
   2   4   3  569.01   81.59
   2   4   3  571.27   70.43
   2   4   4  468.18   70.90
   2   4   4  532.14   85.87
   2   4   4  538.08   75.47
   2   4   5  375.40   88.15
   2   4   5  425.90   75.07
   2   4   6 2636.13  193.79
   2   4   6 2800.94  171.64
   2   4   7 1105.56  138.60
   2   4   7 1380.23  126.10
  -2  -4  -7 1311.08  103.50
   2   4   8  104.92  125.79
   2   4   8  216.71   71.66
  -2  -4  -8  143.09   56.14
   2   4   9 2647.45  181.64
   2   4   9 2971.55  183.63
  -2  -4  -9 3050.88  182.96
   2   4  10 2327.20  157.55
   2   4  10 2224.58  162.93
  -2  -4 -10 2506.90  143.95
   2   4  11 4004.29  193.11
   2   4  11 4158.96  215.55
  -2  -4 -11 4418.38  196.53
   2   4  12  119.54   41.20
   2   4  12  175.41   57.10
  -2  -4 -12  126.28   78.09
   2   4  13   -4.00   45.62
  -2  -4 -13    2.77   23.19
   2   5 -15  546.69   69.61
   2   5 -15  597.41   58.14
   2   5 -14  137.46   52.53
   2   5 -14  146.53   45.62
   2   5 -14  146.60   41.10
  -2  -5  14  111.86   38.42
   2   5 -13   -4.21   32.76
   2   5 -13   -7.42   43.90
  -2  -5  13    5.81   30.48
   2   5 -12  372.58   81.08
   2   5 -12  517.13   74.64
   2   5 -12  388.14   60.50
   2   5 -11  485.06   88.48
   2   5 -11  388.92   90.07
   2   5 -11  443.54   72.71
   2   5 -11  429.09   57.78
   2   5 -10  126.97   62.18
   2   5 -10   80.56   64.05
   2   5 -10    0.43   45.68
   2   5 -10   92.61   34.12
   2   5  -9 4400.89  246.37
   2   5  -9 4741.81  253.04
   2   5  -9 4241.88  189.86
   2   5  -9 3900.80  159.63
   2   5  -8 5786.75  295.53
   2   5  -8 6051.48  424.33
   2   5  -8 5593.50  223.79
  -2  -5   8 4657.68  158.92
   2   5  -7 1002.70   75.31
   2   5  -7 1114.36  202.21
   2   5  -7 1110.63  190.91
  -2  -5   7 1008.39   61.95
   2   5  -6 5153.19  254.84
   2   5  -6 4711.20  177.50
   2   5  -6 5318.61  246.82
  -2  -5   6 4953.84  173.11
   2   5  -5   72.22   28.35
   2   5  -5  117.21   58.93
   2   5  -5  172.70   53.99
   2   5  -4 1935.43  135.06
   2   5  -4 1904.48   98.73
   2   5  -4 1916.49  121.26
   2   5  -3 3549.19  172.55
   2   5  -3 3427.61  143.69
   2   5  -3 3370.80  154.23
   2   5  -213389.38  472.36
   2   5  -212825.74  515.17
   2   5  -212231.74  418.56
   2   5  -122028.27  771.22
   2   5  -120491.83  700.20
   2   5  -121956.58  778.22
   2   5  -120889.21  750.05
   2   5   011868.45  468.84
   2   5   011849.30  410.93
   2   5   012387.00  444.16
   2   5   1 2267.04  137.21
   2   5   1 2504.12  130.65
   2   5   1 2432.89  138.18
   2   5   2 1213.31  105.74
   2   5   2 1264.54  106.44
   2   5   3 3058.20  179.90
   2   5   3 3159.12  173.32
  -2  -5  -3    9.48   16.57
   2   5   4  231.75   73.92
   2   5   4  237.74  112.42
  -2  -5  -4  231.20   35.06
   2   5   5 2640.55  186.04
   2   5   5 2667.77  249.65
  -2  -5  -5 2573.98  109.44
   2   5   6 6279.80  311.39
   2   5   6 6597.70  402.18
  -2  -5  -6 6423.03  227.71
   2   5   7  595.59  106.03
   2   5   7  546.74  153.87
  -2  -5  -7  647.15   62.75
   2   5   8   38.13   58.46
   2   5   8   88.23   86.95
  -2  -5  -8  124.24   39.66
   2   5   9 3110.69  188.20
   2   5   9 2990.28  266.94
  -2  -5  -9 3015.43  135.52
   2   5  10   49.12   49.54
   2   5  10   98.22   83.63
  -2  -5 -10   53.34   57.18
   2   5  11  121.18   51.50
  -2  -5 -11   72.57   32.79
  -2  -6  14  444.98   41.42
   2   6 -13   35.81   61.49
   2   6 -13   45.36   25.80
   2   6 -13   15.16   16.89
  -2  -6  13   44.33   36.23
   2   6 -12 2842.38  158.85
   2   6 -12 2405.31  110.26
   2   6 -12 2151.85  123.16
   2   6 -11   -9.31   40.11
   2   6 -11  -25.90   41.49
   2   6 -11    0.27   22.86
   2   6 -10 4093.08  219.22
   2   6 -10 4186.49  227.84
   2   6 -10 3373.86  142.20
   2   6  -9 1881.79  151.82
   2   6  -9 2012.44  157.06
   2   6  -9 1421.28   82.07
   2   6  -8  487.34  103.35
   2   6  -8  545.11  101.32
  -2  -6   8  400.30   43.47
   2   6  -7  110.86  115.41
   2   6  -7  140.94  113.17
  -2  -6   7   72.85   30.18
   2   6  -6 1086.16  127.94
   2   6  -6 1358.53  184.08
  -2  -6   6 1047.36   73.72
   2   6  -5 2743.90  179.61
   2   6  -5 2709.59  237.80
   2   6  -4  507.24   87.90
   2   6  -4  486.14   65.64
   2   6  -4  626.16  115.89
   2   6  -3  138.50   58.14
   2   6  -3  149.34   47.59
   2   6  -3   57.04   68.28
   2   6  -217353.73  689.99
   2   6  -219306.80  718.57
   2   6  -218870.66  692.76
   2   6  -116782.26  611.50
   2   6  -116258.63  609.78
   2   6   0   15.02   25.43
   2   6   0   -0.25   24.98
   2   6   0   -7.81   54.33
   2   6   1   31.67   25.05
   2   6   1    7.79   34.06
   2   6   1   10.25   39.91
   2   6   2 2422.21  145.89
   2   6   2 2448.46  153.40
   2   6   3  131.49   59.84
   2   6   3  158.99   60.11
   2   6   4  165.33   65.30
   2   6   4  140.34   62.92
   2   6   5  426.19   91.85
   2   6   5  546.11   85.64
   2   6   6    3.83   46.08
   2   6   6   24.80   40.74
   2   6   7 2998.48  188.52
   2   6   7 2977.27  173.34
   2   6   8   -5.63   39.16
   2   6   8   17.66   35.38
   2   6   9   91.09   47.20
   2   7 -12   38.90   40.31
  -2  -7  12    6.26   27.59
   2   7 -11   17.78   29.23
   2   7 -11  -23.80   31.77
   2   7 -10  178.02   65.68
   2   7 -10  200.97   68.46
   2   7  -9  847.86  110.06
   2   7  -9  967.78  108.73
   2   7  -8 1502.96  142.95
   2   7  -8 1636.10  134.51
  -2  -7   8 1176.17   64.88
   2   7  -7 1370.72  197.89
   2   7  -7 1180.89  117.14
  -2  -7   7  975.97   65.47
   2   7  -6  436.99  148.95
   2   7  -6  515.13   81.17
  -2  -7   6  470.91   52.01
   2   7  -5  984.85  110.54
   2   7  -5 1001.67   93.21
  -2  -7   5 1049.12   76.24
   2   7  -4  678.44   72.23
   2   7  -4  828.81   95.98
   2   7  -3  134.09   51.87
   2   7  -3   76.31   34.71
   2   7  -3  125.45   44.41
   2   7  -2  225.80   54.61
   2   7  -2  143.55   53.62
   2   7  -1 2223.34  124.34
   2   7  -1 2496.09  139.72
   2   7   0  436.16   67.47
   2   7   0  340.64   50.45
   2   7   1 1459.90  112.56
  -2  -7  -1 1306.42   70.88
   2   7   2  -37.50   42.93
  -2  -7  -2   -7.06   22.29
   2   7   3 2174.24  204.93
  -2  -7  -3  -17.82   27.65
   2   7   4  -28.41   67.67
  -2  -7  -4    3.88   24.93
   2   7   5 3336.91  243.00
  -2  -7  -5    6.56   26.79
   2   7   6  257.25   98.91
  -2  -7  -6  417.38   58.26
   2   7   7   96.06   72.91
  -2  -7  -7   59.39   35.37
   2   8  -9 1180.92   97.35
   2   8  -9 1068.18   90.66
   2   8  -8  682.55   84.32
   2   8  -8  636.03   70.70
   2   8  -7  620.27   80.03
   2   8  -7  448.88   63.79
   2   8  -6 1692.28  119.58
   2   8  -6 1496.79   90.52
   2   8  -5    0.71   21.46
   2   8  -5   27.62   33.87
  -2  -8   5    2.63   19.10
   2   8  -4  999.19  126.02
   2   8  -4  652.80   48.62
  -2  -8   4 1067.52   71.38
   2   8  -3  153.00   77.37
  -2  -8   3   -3.43   23.45
   2   8  -2 2980.72  185.59
   2   8  -1 1359.57  117.62
   2   8  -1 1768.17  103.46
   2   8   0  529.14   63.43
   2   8   0  784.50   72.52
   2   8   1 1448.94   96.83
   2   8   2  181.87   48.47
   2   8   3  175.24   45.96
   3  -8  -3  666.50  108.57
  -3   8   3  667.53   73.54
   3  -8  -2  714.08  114.67
  -3   8   2  723.05   79.18
   3  -8  -1 1022.82  133.73
  -3   8   1 1064.61   91.44
   3  -8   0 6380.38  237.88
  -3   8   0 5311.07  182.29
  -3   8   0 6565.65  241.40
   3  -8   1   76.44   36.70
  -3   8  -1   70.06   35.20
  -3   8  -1   96.81   40.26
   3  -8   2 1412.76   78.81
  -3   8  -2 1412.09   93.13
  -3   8  -2 1355.40  126.61
  -3   8  -3   22.28   15.94
  -3   8  -3   54.23   35.57
  -3   8  -4   48.88   34.68
  -3   8  -4    1.41   28.12
  -3   8  -5   63.85   21.90
  -3   8  -5   21.47   69.81
  -3   8  -6  267.55   58.29
   3  -7  -7   57.31   30.42
  -3   7   7   66.69   64.55
   3  -7  -6  771.77   71.35
  -3   7   6  714.37  131.59
   3  -7  -5  443.60   66.42
  -3   7   5  500.45   76.64
   3  -7  -4 1801.48  120.22
  -3   7   4 1807.58  129.34
   3  -7  -3   33.46   42.22
  -3   7   3    8.69   63.02
   3  -7  -2 5233.08  235.03
  -3   7   2 3927.87  141.04
  -3   7   2 4444.86  163.71
  -3   7   2 5176.11  315.61
   3  -7  -1 9561.34  378.39
  -3   7   110138.77  494.59
  -3   7   1 8173.13  277.68
  -3   7   1 9034.30  323.91
   3  -7   0  146.06   55.01
  -3   7   0  133.22   57.08
  -3   7   0  180.73   57.35
  -3   7   0  118.63   50.39
   3  -7   1  658.41   79.78
  -3   7  -1  664.07   83.13
  -3   7  -1  588.74   97.35
  -3   7  -1  651.78   80.06
   3  -7   2  851.71  127.21
   3  -7   2  621.53   49.23
  -3   7  -2  832.80   73.26
  -3   7  -2  949.82  100.46
  -3   7  -2  905.33   81.89
   3  -7   3  743.69   72.99
   3  -7   3  684.08   52.74
  -3   7  -3  824.07  101.01
  -3   7  -3  791.10   69.60
  -3   7  -3  724.39   72.46
   3  -7   4   24.13   26.58
   3  -7   4   -1.89   36.51
  -3   7  -4   36.71   42.33
  -3   7  -4   -6.59   32.06
  -3   7  -4   26.62   38.21
   3  -7   5 3171.95  121.83
   3  -7   5 3178.89  132.07
  -3   7  -5 3871.83  206.49
  -3   7  -5 3474.58  166.44
   3  -7   6 2233.59  107.27
  -3   7  -6 2598.47  140.93
  -3   7  -6 2791.71  167.26
   3  -7   7   -0.13   19.06
  -3   7  -7   63.29   44.36
  -3   7  -7   24.84   39.48
   3  -7   8   -2.15   21.06
  -3   7  -8   27.18   56.28
  -3   7  -8    6.37   32.84
   3  -7   9   57.40   29.74
  -3   7  -9  120.55   46.19
  -3   7  -9  128.24   41.21
  -3   6  10   29.28   25.37
   3  -6  -9  260.90   30.46
  -3   6   9  393.78   59.73
   3  -6  -8    7.14   23.07
  -3   6   8  203.68   58.80
   3  -6  -7 1404.38   93.31
  -3   6   7 1414.42  118.13
   3  -6  -6 1095.25   90.66
  -3   6   6 1078.79  114.02
   3  -6  -5 2593.37  148.30
  -3   6   5 2193.54  132.12
  -3   6   5 2541.23  163.27
   3  -6  -4 2467.78  150.79
  -3   6   4 2156.78  143.49
  -3   6   4 2462.39  160.40
   3  -6  -3   15.80   40.01
  -3   6   3   -6.21   25.70
  -3   6   3   41.39   26.29
  -3   6   3  -13.53   44.27
   3  -6  -2  380.82   79.38
  -3   6   2  371.12   60.70
  -3   6   2  365.35   56.30
  -3   6   2  390.78   82.60
   3  -6  -1 2139.41  151.48
  -3   6   1 2087.65  134.22
  -3   6   1 2115.33  121.66
  -3   6   1 2346.00  150.64
   3  -6   0 4243.90  216.84
  -3   6   0 4105.76  209.18
  -3   6   0 4301.97  191.32
  -3   6   0 4253.71  207.94
   3  -6   1 4916.69  228.00
  -3   6  -1 4852.04  241.37
  -3   6  -1 4822.27  290.10
  -3   6  -1 4881.51  213.56
   3  -6   2  174.47   54.01
   3  -6   2  107.40   31.90
  -3   6  -2  209.50   72.56
  -3   6  -2  183.86   58.86
  -3   6  -2  169.74   51.20
   3  -6   3 1767.91  176.62
   3  -6   3 1537.37   85.35
  -3   6  -3 1943.65  154.29
  -3   6  -3 1772.47  125.00
  -3   6  -3 1679.90   99.16
   3  -6   4   -5.61   31.31
   3  -6   4   23.82   24.83
  -3   6  -4  -32.00   57.09
  -3   6  -4   42.62   67.41
  -3   6  -4   -3.30   18.55
   3  -6   5   35.71   31.23
   3  -6   5   11.58   48.16
  -3   6  -5    0.88   44.99
  -3   6  -5   29.03   41.47
   3  -6   6  115.12   34.05
   3  -6   6  112.26   42.38
  -3   6  -6  186.25   65.27
  -3   6  -6  160.16   67.03
   3  -6   7 2247.98  123.93
  -3   6  -7 2503.66  162.17
  -3   6  -7 2683.27  161.33
   3  -6   8   20.18   33.35
  -3   6  -8   57.57   52.36
  -3   6  -8   72.01   44.22
   3  -6   9 2522.10  129.77
  -3   6  -9 3004.76  261.68
  -3   6  -9 2710.31  189.11
   3  -6  10  225.91   80.90
  -3   6 -10  225.91   64.66
   3  -6  11 1683.34   96.73
  -3   6 -11 1985.41  123.29
   3  -5 -11   15.46   25.11
   3  -5 -11   17.08   38.78
  -3   5  11    7.31   25.33
   3  -5 -10 2152.22  109.23
   3  -5 -10 2031.85  134.51
  -3   5  10 2147.76  124.25
   3  -5  -9  476.64   47.74
   3  -5  -9  779.60   66.69
   3  -5  -9  603.72   53.64
  -3   5   9  502.13   42.04
  -3   5   9  725.66  133.99
   3  -5  -8 1654.49   91.60
   3  -5  -8 1819.18  103.97
   3  -5  -8 1607.43   83.27
  -3   5   8 1598.91   80.31
  -3   5   8 1739.81  196.81
   3  -5  -7   -5.80   31.26
   3  -5  -7   47.14   32.50
   3  -5  -7   28.20   22.18
  -3   5   7   -8.45   21.41
  -3   5   7   25.69   62.13
   3  -5  -6  687.95   75.12
   3  -5  -6  736.40   71.94
  -3   5   6  651.21   62.97
  -3   5   6  841.04  101.97
   3  -5  -5 1157.60   98.91
   3  -5  -5 1059.59   82.88
  -3   5   5  899.57   64.43
  -3   5   5 1142.60   79.94
  -3   5   5 1282.56  187.26
   3  -5  -4 2153.51  133.44
   3  -5  -4 2026.45  109.28
  -3   5   4 2087.15  108.41
  -3   5   4 2149.22  118.07
  -3   5   4 2094.21  244.73
   3  -5  -3  126.07   52.74
   3  -5  -3   71.05   36.85
  -3   5   3   72.49   45.77
  -3   5   3   91.71   43.41
   3  -5  -2 9004.02  365.46
   3  -5  -2 8171.52  293.01
  -3   5   2 8839.37  334.15
  -3   5   2 9171.78  369.76
  -3   5   2 8817.90  343.43
   3  -5  -111910.09  465.30
   3  -5  -111319.93  468.81
  -3   5   111835.75  442.13
  -3   5   112117.59  468.23
  -3   5   112136.57  465.85
   3  -5   0  188.51   62.62
   3  -5   0  188.76   44.01
  -3   5   0  126.09   97.39
  -3   5   0  195.26   54.78
  -3   5   0  177.43   66.53
   3  -5   1  271.11   61.78
   3  -5   1  148.73   42.45
  -3   5  -1  241.13   65.03
  -3   5  -1  275.62   54.43
  -3   5  -1  251.22   74.16
   3  -5   2 1995.27  126.82
   3  -5   2 1716.88   95.41
   3  -5   2 1706.95   81.11
  -3   5  -2 1960.63  134.68
  -3   5  -2 1822.29  102.50
  -3   5  -2 1984.18  153.88
   3  -5   3  422.40  109.30
   3  -5   3  336.44   78.04
   3  -5   3  356.26   44.67
  -3   5  -3  429.82   79.74
  -3   5  -3  333.43   79.31
  -3   5  -3  438.00   88.43
   3  -5   4  501.33   69.90
   3  -5   4  427.10   54.62
   3  -5   4  398.98   51.07
  -3   5  -4  562.08   87.09
  -3   5  -4  469.19   94.88
   3  -5   5 5417.14  212.79
   3  -5   5 4708.67  185.41
   3  -5   5 5012.53  250.48
  -3   5  -5 5337.67  361.07
  -3   5  -5 5653.89  265.85
   3  -5   6 5891.77  214.16
   3  -5   6 4978.01  198.11
   3  -5   6 6071.04  234.05
  -3   5  -6 6187.11  293.01
  -3   5  -6 6428.62  382.52
   3  -5   7   21.59   40.77
   3  -5   7   48.86   35.38
   3  -5   7   -8.51   44.26
  -3   5  -7   62.23   52.49
  -3   5  -7   22.97   42.88
   3  -5   8  -12.94   25.90
   3  -5   8  -43.80   35.78
  -3   5  -8    2.65   40.50
  -3   5  -8   29.48   30.15
  -3   5  -8    0.03   18.28
   3  -5   9 2057.35  123.43
  -3   5  -9 2277.12  153.57
  -3   5  -9 2049.50  105.96
  -3   5  -9 1911.47   89.28
   3  -5  10 1406.49  156.15
  -3   5 -10 1503.51  188.96
  -3   5 -10 1071.00   97.70
  -3   5 -10 1275.31   71.70
   3  -5  11  874.82   83.09
  -3   5 -11  912.19   94.52
  -3   5 -11  789.17   58.73
   3  -5  12 1106.13   88.11
  -3   5 -12 1255.82   95.95
  -3   5 -12 1093.52   66.08
   3  -5  13   33.70   31.45
  -3   5 -13   37.72   50.23
  -3   5 -13   27.06   20.88
   3  -4 -13  389.19   57.08
   3  -4 -13  227.78   86.62
  -3   4  13  279.59   34.26
   3  -4 -12 1597.74  168.61
   3  -4 -12 1456.91   98.56
  -3   4  12 1012.73   50.01
  -3   4  12 1280.90  119.46
   3  -4 -11   75.90   72.12
   3  -4 -11   63.66   41.18
  -3   4  11   50.81   40.59
  -3   4  11   58.77   40.41
   3  -4 -10 3337.38  170.65
   3  -4 -10 3290.85  160.23
  -3   4  10 2764.35  164.54
  -3   4  10 3012.85  162.72
   3  -4  -9 1497.23  103.08
   3  -4  -9 1521.12  114.72
  -3   4   9 1448.62  131.14
  -3   4   9 1528.47  125.19
   3  -4  -8  956.37   69.65
   3  -4  -8 1260.95  101.55
   3  -4  -8 1197.29   87.29
  -3   4   8 1154.57   84.03
  -3   4   8 1244.68  118.27
   3  -4  -7 1429.48   86.26
   3  -4  -7 1383.87  108.82
   3  -4  -7 1373.33   89.85
  -3   4   7 1385.37   93.54
  -3   4   7 1470.27  128.30
   3  -4  -6 5658.06  281.03
   3  -4  -6 5451.63  309.64
   3  -4  -6 5318.42  197.05
  -3   4   6 4704.89  173.01
  -3   4   6 5527.32  285.77
  -3   4   6 5763.63  258.04
   3  -4  -5 2028.56  170.58
   3  -4  -5 1967.58   93.97
   3  -4  -5 2158.13  194.02
  -3   4   5 2084.35  177.19
  -3   4   5 2123.91  144.49
  -3   4   5 1861.86   99.22
   3  -4  -411198.12  397.31
   3  -4  -411406.96  405.36
   3  -4  -4 9980.00  324.49
  -3   4   411271.28  495.14
  -3   4   410748.80  379.70
  -3   4   411459.30  439.48
   3  -4  -3 6062.07  236.90
   3  -4  -3 6034.46  231.39
   3  -4  -3 5220.97  197.82
  -3   4   3 6181.51  245.15
  -3   4   3 5965.59  234.25
  -3   4   3 6193.65  259.29
   3  -4  -2  149.45   50.76
   3  -4  -2  120.01   46.43
  -3   4   2  139.05   52.52
  -3   4   2  129.98   52.84
  -3   4   2  200.92   51.96
   3  -4  -1  171.36   51.35
   3  -4  -1  132.36   45.54
  -3   4   1  197.58   51.17
  -3   4   1  139.44   54.64
  -3   4   1  104.15   46.46
   3  -4   0 2549.28  140.00
   3  -4   0 2413.73  186.74
  -3   4   0 2584.92  140.59
  -3   4   0 2476.09  149.29
  -3   4   0 2516.66  179.42
   3  -4   114243.59  487.61
   3  -4   112267.69  362.89
   3  -4   111949.99  361.47
   3  -4   113759.84  470.13
  -3   4  -113799.03  490.35
  -3   4  -113879.15  515.23
  -3   4  -113834.54  456.31
   3  -4   2 3492.91  165.85
   3  -4   2 3092.54  108.05
   3  -4   2 3489.46  159.00
   3  -4   2 3283.31  116.46
  -3   4  -2 3661.16  176.49
  -3   4  -2 3298.75  125.96
  -3   4  -2 3688.11  275.16
   3  -4   3 4210.24  257.77
   3  -4   3 3755.11  133.40
   3  -4   3 4065.83  173.04
  -3   4  -3 4220.73  193.07
  -3   4  -3 3559.03  119.56
  -3   4  -3 4207.48  199.12
   3  -4   4   45.93   36.58
   3  -4   4   27.15   58.11
   3  -4   4   12.82   24.48
  -3   4  -4   20.39   43.39
  -3   4  -4   25.29   19.90
  -3   4  -4   75.02   43.11
   3  -4   5 5041.01  203.02
   3  -4   5 4902.60  209.75
   3  -4   5 4857.70  242.57
  -3   4  -5 4537.16  159.65
  -3   4  -5 4828.91  226.99
  -3   4  -5 5090.15  218.79
   3  -4   6 1039.62   81.22
   3  -4   6 1037.58   94.51
   3  -4   6 1073.66   82.22
  -3   4  -6  962.24   67.36
  -3   4  -6 1167.77  179.39
  -3   4  -6 1095.21   93.40
   3  -4   7 8844.13  340.88
   3  -4   7 8431.04  358.85
   3  -4   7 8412.09  314.17
  -3   4  -7 9111.71  374.27
  -3   4  -7 8857.66  405.88
  -3   4  -7 8746.59  306.44
   3  -4   8   10.03   23.98
   3  -4   8    8.55   33.37
   3  -4   8   10.03   34.28
  -3   4  -8    8.14   43.16
  -3   4  -8  -27.64   27.19
  -3   4  -8  -15.68   30.32
   3  -4   9   45.83   41.05
   3  -4   9   28.39   40.32
  -3   4  -9   78.26   53.01
  -3   4  -9   59.57   64.27
   3  -4  10 1130.48  153.46
   3  -4  10 1101.29   95.41
  -3   4 -10 1295.65  178.43
  -3   4 -10 1243.03  151.04
   3  -4  11 1259.64  101.94
  -3   4 -11 1331.41  107.20
  -3   4 -11 1242.39   96.76
   3  -4  12 1151.60   97.70
  -3   4 -12 1208.19   94.20
  -3   4 -12 1275.46   92.34
   3  -4  13  470.79   67.11
  -3   4 -13  469.97   55.46
  -3   4 -13  544.43   60.17
  -3   4 -13  356.65   39.92
   3  -4  14   26.98   50.42
  -3   4 -14   26.15   47.80
   3  -3 -14 1235.32  144.72
   3  -3 -14 1111.97   87.79
  -3   3  14  859.33   73.44
   3  -3 -13 3114.04  163.74
   3  -3 -13 3172.32  160.35
  -3   3  13 2561.16  103.07
  -3   3  13 2802.30  121.66
   3  -3 -12  105.69   53.10
   3  -3 -12  111.46   55.29
  -3   3  12  110.84   35.74
  -3   3  12  102.69   45.00
   3  -3 -11 2546.77  158.22
   3  -3 -11 2517.70  154.41
  -3   3  11 2146.30  113.67
  -3   3  11 2344.01  138.53
   3  -3 -10 2345.32  146.76
   3  -3 -10 2283.71  154.39
  -3   3  10 2044.83  118.34
  -3   3  10 2247.50  145.03
   3  -3  -9  182.57   66.59
   3  -3  -9  209.33   60.23
  -3   3   9  109.36   47.48
  -3   3   9  147.33  101.79
   3  -3  -8 2129.26  131.51
   3  -3  -8 2082.12  144.05
  -3   3   8 2000.78  122.08
  -3   3   8 2058.69  232.15
   3  -3  -7  935.44   59.19
   3  -3  -7  947.81  101.86
   3  -3  -7 1019.70   86.65
  -3   3   7 1040.60   87.71
  -3   3   7  854.02   62.22
  -3   3   7  925.12  164.28
   3  -3  -6 1955.01   90.97
   3  -3  -6 1970.14  110.46
   3  -3  -6 1995.68  129.02
  -3   3   6 2017.80  120.09
  -3   3   6 1910.97  141.20
  -3   3   6 2066.94  203.69
   3  -3  -5 2577.05  110.81
   3  -3  -5 2609.65  141.47
   3  -3  -5 2612.83  119.25
  -3   3   5 2565.36  174.14
  -3   3   5 2586.21  133.90
  -3   3   5 2520.59  218.58
   3  -3  -4 2275.31  105.34
   3  -3  -4 2291.96  102.26
   3  -3  -4 2360.97  189.42
  -3   3   4 2349.23  125.52
  -3   3   4 2401.70  179.70
  -3   3   4 2434.28  203.52
   3  -3  -3  370.99   50.73
   3  -3  -3  330.16   61.76
   3  -3  -3  315.03   63.69
   3  -3  -3  272.34   40.78
  -3   3   3  340.42   66.62
  -3   3   3  376.97   60.08
  -3   3   3  323.08   56.95
  -3   3   3  324.11   98.69
  -3   3   3  315.55   60.75
   3  -3  -2   20.15   30.57
   3  -3  -2   21.44   35.24
   3  -3  -2  -34.85   64.00
   3  -3  -2   40.83   36.06
  -3   3   2    3.80   61.12
  -3   3   2   42.40   41.49
  -3   3   2   97.88   34.51
  -3   3   2   26.90   39.31
  -3   3   2   20.20   21.70
  -3   3   2   23.85   33.47
  -3   3   2   22.03   42.94
   3  -3  -1   31.38   38.25
   3  -3  -1   49.52   34.76
   3  -3  -1   42.16   43.45
   3  -3  -1   38.33   21.38
  -3   3   1   38.15   75.91
  -3   3   1   24.75   28.51
  -3   3   1   64.81   72.17
  -3   3   1   18.72   19.04
  -3   3   1   38.86   33.58
  -3   3   1   55.86   35.74
  -3   3   1   28.17   39.00
   3  -3   0 4642.67  182.39
   3  -3   0 4509.82  181.03
   3  -3   0 4451.17  204.25
   3  -3   0 4203.58  128.25
  -3   3   0 4621.03  187.79
  -3   3   0 4656.06  219.65
  -3   3   0 4678.66  208.24
  -3   3   0 4774.93  180.27
  -3   3   0 4229.12  124.60
  -3   3   0 4604.38  154.17
  -3   3   0 4661.18  196.38
  -3   3   0 4070.84  117.85
   3  -3   1  799.03   76.64
   3  -3   1  741.66   90.78
   3  -3   1  708.03   34.09
   3  -3   1  720.87   37.01
   3  -3   1  691.37   59.59
   3  -3   1  875.07  128.37
  -3   3  -1  927.13   75.40
  -3   3  -1  865.35   78.36
  -3   3  -1  700.13   95.22
  -3   3  -1  867.81   89.31
  -3   3  -1  651.51   36.86
  -3   3  -1  794.01   44.85
  -3   3  -1  687.86   74.32
  -3   3  -1  824.75   84.02
  -3   3  -1  760.05   45.18
   3  -3   2  204.03   85.99
   3  -3   2  191.00   54.70
   3  -3   2  203.86   60.15
   3  -3   2  173.40   23.56
   3  -3   2  191.73   25.88
   3  -3   2  188.43   26.73
  -3   3  -2  201.54   51.80
  -3   3  -2  208.36   33.43
  -3   3  -2  207.98   61.10
  -3   3  -2  181.05   46.02
  -3   3  -2  252.38   55.95
  -3   3  -2  143.40   31.21
  -3   3  -2  197.88   32.22
  -3   3  -2  217.00   27.59
   3  -3   314071.53  468.93
   3  -3   312288.86  402.67
   3  -3   312561.40  421.66
   3  -3   311734.21  331.14
   3  -3   313626.13  468.89
  -3   3  -313644.88  466.44
  -3   3  -314083.54  546.06
  -3   3  -312925.33  412.29
  -3   3  -312813.61  419.04
  -3   3  -313581.70  464.63
   3  -3   4  722.87   75.41
   3  -3   4  667.78  128.47
   3  -3   4  696.92   77.24
   3  -3   4  617.73   51.74
  -3   3  -4  709.11   96.97
  -3   3  -4  665.95   76.01
  -3   3  -4  637.60   60.07
  -3   3  -4  700.42  117.09
   3  -3   5 1358.84   94.93
   3  -3   5 1352.30  113.16
   3  -3   5 1280.90   73.86
  -3   3  -5 1295.08   97.55
  -3   3  -5 1297.63   86.68
  -3   3  -5 1336.24   87.41
   3  -3   6 1322.05   89.09
   3  -3   6 1327.25  116.32
   3  -3   6 1241.76   81.08
  -3   3  -6 1380.68  157.94
  -3   3  -6 1514.54  146.01
  -3   3  -6 1262.27   80.54
   3  -3   7  352.46   59.40
   3  -3   7  358.97   79.08
   3  -3   7  361.57   57.96
  -3   3  -7  347.38   63.36
  -3   3  -7  329.32   62.04
  -3   3  -7  275.22   42.05
   3  -3   8  245.34  119.82
   3  -3   8  215.21   57.85
   3  -3   8  261.86   48.62
  -3   3  -8  194.18   60.31
  -3   3  -8  255.39   61.39
   3  -3   9 9957.47  344.96
   3  -3   910924.55  501.29
   3  -3   911477.05  463.77
  -3   3  -911306.96  426.16
  -3   3  -911565.39  439.23
   3  -3  10   77.79   61.26
   3  -3  10   93.46   50.95
  -3   3 -10  129.83   81.25
  -3   3 -10  134.63   58.43
   3  -3  11 1219.25  118.50
   3  -3  11 1114.65  105.64
  -3   3 -11 1150.80  165.54
  -3   3 -11 1137.08   86.90
   3  -3  12  189.72   59.70
  -3   3 -12  221.98   45.14
  -3   3 -12  192.23   60.55
   3  -3  13  647.14   79.50
  -3   3 -13  581.14   81.39
  -3   3 -13  613.12   75.82
  -3   3 -13  508.91   63.32
   3  -3  14   53.29   67.54
  -3   3 -14   26.09   29.00
  -3   3 -14   77.90   37.78
   3  -2 -15  -14.28   28.81
   3  -2 -15    8.14   44.36
  -3   2  15   17.24   18.49
   3  -2 -14  534.94   74.61
   3  -2 -14  515.12   71.70
  -3   2  14  419.06   51.16
  -3   2  14  420.71   49.56
   3  -2 -13 1219.07  110.48
   3  -2 -13 1268.57  108.04
  -3   2  13 1043.65   82.63
  -3   2  13 1094.24   86.72
   3  -2 -12  776.47   97.07
   3  -2 -12  748.86   92.21
  -3   2  12  807.53   87.09
  -3   2  12 1958.97  160.33
   3  -2 -11  252.33   77.67
   3  -2 -11  444.81   74.93
  -3   2  11  233.51   61.32
  -3   2  11  298.52   67.98
   3  -2 -1018795.16  711.93
   3  -2 -1018999.95  727.52
  -3   2  1018042.35  686.82
   3  -2  -9  648.80   91.39
   3  -2  -9  607.88   88.60
  -3   2   9    1.64   57.83
  -3   2   9  538.95   71.71
   3  -2  -8 6656.65  279.36
   3  -2  -8 6687.95  272.62
  -3   2   8 5694.21  192.03
  -3   2   8 6165.05  261.56
   3  -2  -7  447.04   71.49
   3  -2  -7  393.06   67.21
  -3   2   7  430.35   47.39
  -3   2   7  415.24   74.84
   3  -2  -6 3675.18  133.92
   3  -2  -6 3729.68  117.29
   3  -2  -6 3873.09  177.68
   3  -2  -6 3873.94  166.59
  -3   2   6 4024.83  172.22
  -3   2   6 3729.50  147.76
  -3   2   6 3842.76  160.30
  -3   2   6 3832.99  179.40
   3  -2  -5 1794.60   73.77
   3  -2  -5 1931.54  115.63
   3  -2  -5 1906.94  104.28
   3  -2  -5 1792.63   86.93
  -3   2   5 1908.70  111.64
  -3   2   5 1851.84  114.87
  -3   2   5 1895.95   99.70
  -3   2   5 1913.59  189.09
  -3   2   5 1987.64  105.68
  -3   2   5 1812.03   83.00
  -3   2   5 1876.94  113.87
  -3   2   5 1897.58  173.76
   3  -2  -417745.68  546.93
   3  -2  -415823.91  490.01
   3  -2  -418348.15  617.38
   3  -2  -417916.65  581.62
   3  -2  -417969.34  583.99
  -3   2   418340.38  617.53
  -3   2   419387.39  675.43
  -3   2   418759.56  628.62
  -3   2   418605.50  603.10
  -3   2   418151.16  611.10
  -3   2   417520.09  513.90
  -3   2   417971.45  602.69
  -3   2   418842.61  652.77
   3  -2  -310822.89  333.71
   3  -2  -310513.08  316.66
   3  -2  -311414.76  475.45
   3  -2  -311178.30  367.79
   3  -2  -311386.66  358.23
  -3   2   311597.76  390.44
  -3   2   311344.38  380.44
  -3   2   311688.23  386.49
  -3   2   311486.87  360.51
  -3   2   311652.43  414.73
  -3   2   311363.65  370.80
  -3   2   310917.42  302.86
  -3   2   311380.21  412.25
   3  -2  -2  436.60   69.59
   3  -2  -2  474.79   52.60
   3  -2  -2  408.96   71.48
   3  -2  -2  541.25   62.21
   3  -2  -2  507.51   86.85
  -3   2   2  460.12   62.22
  -3   2   2  447.10   71.69
  -3   2   2  517.08   68.72
  -3   2   2  445.16   49.03
  -3   2   2  437.41   65.09
  -3   2   2  479.25   52.61
  -3   2   2  475.28   35.81
  -3   2   2  443.87   75.64
   3  -2  -1  993.13   77.65
   3  -2  -1  956.13   65.77
   3  -2  -1 1102.52   92.49
   3  -2  -1 1363.96   70.68
  -3   2   1 1076.78   81.81
  -3   2   1 1152.45  158.12
  -3   2   1 1031.35   89.86
  -3   2   1 1405.00   94.88
  -3   2   1  978.56   99.57
  -3   2   1 1029.66   96.00
  -3   2   1 1024.49   54.52
  -3   2   1  926.57  100.07
   3  -2   015019.00  512.18
   3  -2   015549.51  502.77
   3  -2   015414.61  495.93
   3  -2   015149.38  463.44
  -3   2   015700.18  513.90
  -3   2   015424.75  520.29
  -3   2   015240.89  674.09
  -3   2   015624.92  466.89
  -3   2   016031.00  550.80
  -3   2   015947.68  529.00
  -3   2   015411.78  455.71
   3  -2   1 9266.19  400.53
   3  -2   1 9050.30  296.47
   3  -2   1 8324.38  229.86
   3  -2   1 7988.72  205.04
   3  -2   1 9260.36  325.53
   3  -2   1 9453.29  434.72
  -3   2  -1 9530.20  312.57
  -3   2  -1 9377.83  296.08
  -3   2  -1 9135.83  395.74
  -3   2  -1 9445.96  417.01
  -3   2  -1 9510.96  273.82
  -3   2  -1 8795.53  243.45
   3  -2   2 3479.15  157.41
   3  -2   2 3046.04   88.04
   3  -2   2 3273.19   95.48
   3  -2   2 3238.63  112.34
   3  -2   2 3472.14  165.51
  -3   2  -2 3428.53  147.99
  -3   2  -2 3375.59  140.11
  -3   2  -2 3603.20  153.80
  -3   2  -2 3402.12  146.91
  -3   2  -2 3454.30  110.06
  -3   2  -2 3492.75  140.21
  -3   2  -2 3196.67  104.52
   3  -2   3  180.18   54.69
   3  -2   3  154.14   23.93
   3  -2   3  122.62   25.10
   3  -2   3  130.75   28.81
  -3   2  -3  162.31   44.48
  -3   2  -3  141.10   69.43
  -3   2  -3  148.06   48.64
  -3   2  -3  138.56   40.62
  -3   2  -3  171.93   41.14
  -3   2  -3  119.54   42.66
   3  -2   4   24.96   33.03
   3  -2   4   29.47   19.73
   3  -2   4   15.45   20.61
   3  -2   4   18.02   20.98
   3  -2   4    2.31   65.23
  -3   2  -4    3.02   26.59
  -3   2  -4   44.55   56.25
  -3   2  -4    9.29   23.87
  -3   2  -4   22.93   32.30
  -3   2  -4   36.04   30.51
  -3   2  -4   10.84   16.62
   3  -2   515396.16  486.45
   3  -2   516076.59  583.57
   3  -2   515432.98  515.36
   3  -2   513883.28  440.42
   3  -2   515062.82  479.97
   3  -2   514265.17  449.73
  -3   2  -515847.65  522.16
  -3   2  -515035.61  493.25
  -3   2  -515564.41  566.34
  -3   2  -515339.89  528.25
  -3   2  -514539.38  431.87
  -3   2  -515291.83  539.26
   3  -2   6 2021.68  120.71
   3  -2   6 2765.45  133.89
   3  -2   6 2742.49  162.49
   3  -2   6 2305.38  107.35
  -3   2  -6 2573.30  165.68
  -3   2  -6 2630.03  140.47
  -3   2  -6 2283.79   79.36
  -3   2  -6 2379.57   89.44
   3  -2   713132.72  453.50
   3  -2   713182.56  518.96
   3  -2   711698.31  480.24
  -3   2  -712352.82  416.44
  -3   2  -713120.34  586.26
   3  -2   8  480.83  152.47
   3  -2   8  393.14  103.83
   3  -2   8  356.54   59.26
  -3   2  -8  405.19   54.86
  -3   2  -8  478.35   79.08
   3  -2   910722.94  447.31
   3  -2   911576.00  498.80
   3  -2   911485.13  438.61
  -3   2  -911120.93  449.39
  -3   2  -911930.23  464.02
   3  -2  10 4075.25  161.61
   3  -2  10 4909.01  263.58
   3  -2  10 4777.04  216.35
  -3   2 -10 4580.21  178.21
  -3   2 -10 5017.11  235.92
   3  -2  11  286.64   86.23
   3  -2  11  227.89   67.84
  -3   2 -11  248.85   74.57
  -3   2 -11  275.23   38.88
   3  -2  12  -29.35   41.47
  -3   2 -12  -25.56   70.59
   3  -2  13 1557.79  181.38
  -3   2 -13 1640.97  111.20
  -3   2 -13 1623.04  116.47
   3  -2  14   -6.98   30.61
  -3   2 -14   12.60   26.88
  -3   2 -14  -16.16   25.89
   3  -2  15   30.90   31.15
  -3   2 -15    2.24   25.31
  -3   2 -15   26.82   26.53
   3  -1 -15  153.02   46.19
   3  -1 -15  130.21   67.70
  -3   1  15  119.00   40.06
  -3   1  15  117.10   30.55
   3  -1 -14 1518.13  107.60
   3  -1 -14 1481.01  100.85
  -3   1  14 1362.06   98.68
  -3   1  14 1462.43  131.84
   3  -1 -13 5178.41  227.78
   3  -1 -13 5028.58  218.77
  -3   1  13 4847.52  210.39
   3  -1 -12  320.02   73.49
   3  -1 -12  417.86   72.51
  -3   1  12  475.10   75.88
   3  -1 -11 2295.61  173.18
   3  -1 -11 2258.78  146.11
   3  -1 -11 2334.07  146.46
  -3   1  11 2251.83  149.48
   3  -1 -10 3039.50  196.85
   3  -1 -10 3054.35  167.31
   3  -1 -10 3124.79  171.96
  -3   1  10 2960.43  175.62
   3  -1  -9  -28.90   22.12
   3  -1  -9   -6.93   50.10
   3  -1  -9  -58.93   40.64
   3  -1  -9  -25.54   40.13
  -3   1   9   10.62   18.60
  -3   1   9  -20.92   34.05
   3  -1  -8   31.18   23.73
   3  -1  -8   38.35   39.18
   3  -1  -8   50.26   39.46
   3  -1  -8   37.22   47.24
  -3   1   8   44.76   28.22
  -3   1   8   49.19   76.81
   3  -1  -7 8669.04  341.65
   3  -1  -7 8003.75  258.20
   3  -1  -7 9199.22  325.49
   3  -1  -7 8996.38  319.03
  -3   1   7 9108.08  310.62
  -3   1   7 8922.21  268.01
  -3   1   7 8527.51  425.12
   3  -1  -613497.17  490.72
   3  -1  -614413.33  479.24
   3  -1  -612508.92  399.61
   3  -1  -613844.99  469.95
  -3   1   614436.30  504.05
  -3   1   614521.52  489.79
  -3   1   614036.12  473.44
  -3   1   614532.38  439.45
  -3   1   613313.73  568.18
  -3   1   613747.18  504.93
   3  -1  -5 5656.15  153.48
   3  -1  -5 5657.97  235.96
   3  -1  -5 5881.67  172.29
   3  -1  -5 6291.62  228.65
   3  -1  -5 6314.83  228.57
  -3   1   5 6442.98  233.48
  -3   1   5 6245.63  237.10
  -3   1   5 6296.51  244.06
  -3   1   5 6043.30  309.76
  -3   1   5 6580.28  199.17
   3  -1  -411945.19  339.03
   3  -1  -412427.53  396.59
   3  -1  -412969.00  422.19
   3  -1  -412031.97  359.73
   3  -1  -412688.36  414.89
  -3   1   412989.09  423.07
  -3   1   412551.52  543.70
  -3   1   412463.00  491.27
  -3   1   412830.85  379.90
   3  -1  -3 2688.75   95.16
   3  -1  -3 3014.38  125.93
   3  -1  -3 3021.84  199.06
   3  -1  -3 2850.32  112.85
   3  -1  -3 3008.50  193.38
  -3   1   3 3017.77  130.91
  -3   1   3 2988.35  193.79
  -3   1   3 3031.24  184.59
  -3   1   3 3205.20  168.42
  -3   1   3 3097.46  162.63
   3  -1  -225792.26  915.87
   3  -1  -227504.06  938.81
   3  -1  -228735.98  996.52
   3  -1  -228441.22  960.45
  -3   1   227224.97  906.94
  -3   1   227217.45  938.57
  -3   1   228354.70  938.28
  -3   1   227333.75  884.58
  -3   1   228172.15  919.48
  -3   1   228060.67 1010.26
   3  -1  -1 7909.32  336.54
   3  -1  -1 8195.38  288.54
   3  -1  -1 8450.66  284.03
  -3   1   1 8487.08  273.12
  -3   1   1 8322.43  296.34
  -3   1   1 8758.98  280.64
  -3   1   1 8130.43  234.91
  -3   1   1 8375.55  270.02
  -3   1   1 8058.04  313.10
   3  -1   026978.29  917.94
   3  -1   024108.71  623.78
   3  -1   023414.49  613.10
   3  -1   026674.15  864.80
  -3   1   027402.10  979.70
  -3   1   027643.13  933.26
  -3   1   028148.07  920.96
  -3   1   029229.95  982.48
  -3   1   026534.80  810.93
   3  -1   1 2194.63  126.94
   3  -1   1 2174.51  113.93
   3  -1   1 2176.33  126.92
   3  -1   1 1953.76   63.71
   3  -1   1 1931.67   50.63
   3  -1   1 2224.27  108.97
  -3   1  -1 2232.51   98.19
  -3   1  -1 2201.63  121.77
  -3   1  -1 2123.34  111.05
  -3   1  -1 2344.76  120.60
  -3   1  -1 2676.01  162.71
   3  -1   210110.53  340.38
   3  -1   210222.39  368.38
   3  -1   210442.21  363.90
   3  -1   2 9455.41  273.02
   3  -1   2 9479.69  275.89
   3  -1   210275.83  327.14
  -3   1  -210066.41  330.72
  -3   1  -210401.36  359.68
  -3   1  -210158.61  313.52
  -3   1  -210540.23  350.82
  -3   1  -210207.06  305.24
  -3   1  -210594.01  322.22
   3  -1   328075.73  963.34
   3  -1   326793.57  878.96
   3  -1   326404.45  830.99
   3  -1   327280.13  919.94
   3  -1   328260.88  996.96
  -3   1  -327762.45  951.37
  -3   1  -327654.68  990.41
  -3   1  -328275.92  917.91
  -3   1  -328893.81  936.73
  -3   1  -328800.01  992.33
  -3   1  -328995.06  947.23
   3  -1   4 5872.04  336.21
   3  -1   4 5019.39  193.99
   3  -1   4 5286.09  161.64
   3  -1   4 5676.59  203.30
  -3   1  -4 5241.98  164.81
  -3   1  -4 5791.14  328.11
  -3   1  -4 5372.59  159.24
  -3   1  -4 5538.00  209.07
  -3   1  -4 5361.24  175.22
   3  -1   5 5748.04  225.26
   3  -1   5 5038.52  167.80
   3  -1   5 5154.80  172.43
   3  -1   5 5736.88  244.54
   3  -1   5 5434.89  197.75
  -3   1  -5 5527.17  196.57
  -3   1  -5 5219.65  201.08
  -3   1  -5 5349.13  231.56
  -3   1  -5 5633.17  307.68
  -3   1  -5 4790.88  162.59
  -3   1  -5 5724.94  224.58
  -3   1  -5 5222.38  171.09
   3  -1   6  294.50   32.88
   3  -1   6  290.85   62.34
   3  -1   6  339.68   76.75
   3  -1   6  336.55   44.32
   3  -1   6  307.41   44.96
   3  -1   6  333.15   83.43
  -3   1  -6  270.40   35.12
  -3   1  -6  313.17   65.10
  -3   1  -6  349.03   62.87
   3  -1   7 4649.26  190.80
   3  -1   7 4889.35  203.46
   3  -1   7 5183.54  354.81
   3  -1   7 4860.05  185.14
  -3   1  -7 4510.73  145.43
  -3   1  -7 4748.34  215.28
   3  -1   8  950.00   76.98
   3  -1   8 1113.50  140.79
   3  -1   8 1105.20   88.77
   3  -1   8 1156.86  128.77
  -3   1  -8  924.17   73.05
  -3   1  -8 1148.67  170.99
   3  -1   911662.70  428.95
   3  -1   913544.30  487.41
   3  -1   913448.17  511.13
   3  -1   914183.45  582.30
  -3   1  -914539.38  554.74
   3  -1  10  918.22   77.92
   3  -1  10  913.38  101.36
   3  -1  10 1000.26  134.70
  -3   1 -10    7.61   30.04
  -3   1 -10  956.41   68.96
   3  -1  11  208.73   67.68
   3  -1  11  346.29   93.60
  -3   1 -11  231.28   67.45
   3  -1  12   17.23   66.44
  -3   1 -12   21.16   37.35
  -3   1 -12  -15.42   56.75
   3  -1  13   55.49   46.40
  -3   1 -13   96.23   50.92
  -3   1 -13   82.29   43.43
   3  -1  14    7.34   31.09
  -3   1 -14    5.61   33.12
  -3   1 -14   23.83   28.12
   3  -1  15  -11.36   27.78
  -3   1 -15   16.20   28.24
   3   0 -16   58.59   24.68
  -3   0  16   52.50   33.37
   3   0 -15  407.05   47.39
   3   0 -15  405.24   51.50
  -3   0  15  346.42   47.06
   3   0 -14   43.49   36.39
   3   0 -14   91.99   53.01
  -3   0  14   36.41   35.10
   3   0 -13 3246.20  137.77
   3   0 -13 4035.00  218.93
   3   0 -13 3904.32  170.08
   3   0 -13 3890.58  164.17
  -3   0  13 4230.90  199.89
   3   0 -12  100.43   70.91
   3   0 -12  120.60   37.92
   3   0 -12  113.33   47.13
   3   0 -12  113.81   45.85
  -3   0  12  111.60   55.51
   3   0 -11  347.72   56.21
   3   0 -11  424.26   95.72
   3   0 -11  460.47   63.45
   3   0 -11  394.37   68.54
  -3   0  11   10.72   23.16
  -3   0  11  445.82   84.77
   3   0 -1016780.47  599.97
   3   0 -1017866.76  707.01
   3   0 -1017732.68  625.57
   3   0 -1017840.04  636.97
  -3   0  1017054.10  660.49
   3   0  -9   19.67   26.07
   3   0  -9  -59.99   38.56
   3   0  -9   22.46   26.68
   3   0  -9  -16.42   25.99
   3   0  -9  -21.33   28.82
  -3   0   9  -21.95   42.12
   3   0  -8 1320.52   89.22
   3   0  -8 1331.46   97.60
   3   0  -8 1337.97   87.19
   3   0  -8 1377.23   93.97
   3   0  -8 1412.20  116.88
  -3   0   8 1343.67  110.34
   3   0  -7 1879.66  102.52
   3   0  -7 1855.51  126.54
   3   0  -7 1888.23  118.62
   3   0  -7 1900.23   97.37
   3   0  -7 1944.13  109.39
   3   0  -7 1931.18  114.63
  -3   0   7 1878.01  165.07
  -3   0   7 1946.79   99.51
  -3   0   7 1879.73  124.36
   3   0  -6  737.22   70.49
   3   0  -6  809.82   83.24
   3   0  -6  832.75   87.28
   3   0  -6  779.14   72.62
   3   0  -6  793.96   62.98
  -3   0   6  836.52   81.13
  -3   0   6  718.40   80.37
  -3   0   6  885.55  109.43
   3   0  -5   18.23   28.49
   3   0  -5   15.08    8.69
   3   0  -5   33.26   32.69
   3   0  -5   11.62   36.11
   3   0  -5   16.85   24.65
   3   0  -5  -12.65   17.38
   3   0  -5    9.49   29.40
  -3   0   5   15.28   32.56
  -3   0   5   14.66   38.61
  -3   0   5   31.78   33.48
  -3   0   5   43.10   29.74
   3   0  -4 1277.89   87.44
   3   0  -4 1148.20   41.46
   3   0  -4 1113.59   88.03
   3   0  -4 1094.16  105.91
   3   0  -4 1177.53   72.59
   3   0  -4 1167.81   47.46
   3   0  -4 1166.01  135.81
  -3   0   4 1123.15  136.03
  -3   0   4 1203.52  101.53
  -3   0   4 1263.58   82.70
  -3   0   4 1309.96   81.03
   3   0  -3   56.70   19.61
   3   0  -3   12.81   73.19
   3   0  -3  112.97   48.87
   3   0  -3   84.69   55.89
   3   0  -3   68.11   41.53
  -3   0   3   63.61   38.21
  -3   0   3   76.02   47.11
  -3   0   3   60.78   32.58
  -3   0   3   85.05   65.42
   3   0  -2  -11.10   17.97
   3   0  -2    7.98   32.30
   3   0  -2  -17.78   35.05
   3   0  -2    1.22   24.47
   3   0  -2  -11.84   30.11
  -3   0   2   10.90   18.14
  -3   0   2   10.31   25.33
  -3   0   2   -6.30   30.05
  -3   0   2    3.02   18.63
  -3   0   2  -17.24   25.73
   3   0  -1  143.03   39.42
   3   0  -1  117.50   34.66
   3   0  -1  148.15   54.01
   3   0  -1  131.25   53.17
   3   0  -1  161.93   48.33
  -3   0   1  118.94   29.66
  -3   0   1  178.02   73.20
  -3   0   1  130.71   25.71
  -3   0   1  156.84   47.23
   3   0   0  617.33   60.77
   3   0   0  625.78   84.68
   3   0   0  634.65  107.45
   3   0   0  661.72  128.91
  -3   0   0  673.76   69.69
  -3   0   0  717.07  134.59
  -3   0   0  696.64   70.11
   3   0   1  -10.91   42.42
   3   0   1   22.58    9.01
   3   0   1   21.39    8.99
   3   0   1   30.89   37.08
   3   0   1   21.67   31.66
  -3   0  -1   14.04   17.29
  -3   0  -1   40.74   24.79
  -3   0  -1   21.59   36.99
  -3   0  -1    8.07   31.11
   3   0   2 2363.48  118.34
   3   0   2 2354.57  146.74
   3   0   2 2235.95   85.60
   3   0   2 2397.04  129.79
   3   0   2 2567.37  133.07
  -3   0  -2 2364.63  100.64
  -3   0  -2 2428.90   88.17
  -3   0  -2 2445.86  116.41
  -3   0  -2 2524.46  137.16
  -3   0  -2 2390.48  115.98
   3   0   3 6947.20  257.14
   3   0   3 6712.93  275.10
   3   0   3 7083.79  345.10
   3   0   3 6306.34  177.27
   3   0   3 6875.50  356.94
  -3   0  -3 6443.50  175.99
  -3   0  -3 6632.54  232.37
  -3   0  -3 6723.03  255.66
  -3   0  -3 6300.54  166.79
  -3   0  -3 6603.72  292.91
   3   0   4 3823.21  172.16
   3   0   4 3802.14  172.80
   3   0   4 3510.76  117.77
   3   0   4 3815.83  174.33
  -3   0  -4 3180.16  109.54
  -3   0  -4 3687.65  151.52
  -3   0  -4 3593.44  163.63
  -3   0  -4 3380.70   89.93
  -3   0  -4 3907.50  217.24
   3   0   5 2835.32  151.07
   3   0   5 2630.05  107.03
   3   0   5 2733.32  144.46
   3   0   5 2810.49  148.47
  -3   0  -5 2801.69  133.13
  -3   0  -5 2801.34  142.96
  -3   0  -5 2721.20  127.63
   3   0   6   -4.54   31.79
   3   0   6    9.98   34.47
   3   0   6  -12.71   21.94
   3   0   6    1.99   54.02
  -3   0  -6   11.10   33.28
   3   0   7 4053.96  195.24
   3   0   7 4172.61  196.40
   3   0   7 3837.41  164.17
   3   0   7 4215.53  212.44
  -3   0  -7 3897.37  183.45
   3   0   8 1198.48  107.64
   3   0   8 1206.29  106.78
   3   0   8 1073.29   93.25
   3   0   8 1357.56  126.95
  -3   0  -8 1186.48  166.64
   3   0   926610.28 1026.97
   3   0   926159.15 1000.18
   3   0   927486.80 1103.51
   3   0   926141.72 1117.88
  -3   0  -927871.41 1038.07
   3   0  10  897.04   86.47
   3   0  10  981.77  128.63
   3   0  10  855.43   97.84
  -3   0 -10  985.45   93.55
   3   0  11 1086.98  132.66
   3   0  11 1152.30  105.90
  -3   0 -11 1057.37   77.07
  -3   0 -11 1155.65   93.41
   3   0  12   -2.41   17.01
   3   0  12   18.19   31.36
  -3   0 -12   14.47   22.19
  -3   0 -12   55.94   46.11
  -3   0 -12  -25.74   35.65
   3   0  13 1868.64  122.91
  -3   0 -13 1964.01  119.10
  -3   0 -13 1397.97   72.93
  -3   0 -13 1794.95   92.36
   3   0  14  -11.74   32.93
  -3   0 -14    8.93   27.95
  -3   0 -14   -7.02   10.99
  -3  -1  16   -5.83   15.58
   3   1 -15   -1.84   25.28
   3   1 -15   42.19   42.42
   3   1 -15   21.14   17.84
  -3  -1  15   -0.63   20.71
   3   1 -14   80.17   37.03
   3   1 -14   94.52   56.53
   3   1 -14   35.14   26.70
   3   1 -14   61.13   25.77
  -3  -1  14   53.89   38.88
   3   1 -13 1994.20   98.77
   3   1 -13 2252.32  128.66
   3   1 -13 2260.52  169.48
   3   1 -13 2067.04  144.67
  -3  -1  13 2236.35  214.40
   3   1 -12  215.40   58.50
   3   1 -12  303.30   76.69
   3   1 -12  112.04   39.52
   3   1 -12  194.11   39.10
   3   1 -12  210.56   64.98
  -3  -1  12  233.45   69.57
   3   1 -11  577.72   77.18
   3   1 -11  544.36   97.83
   3   1 -11  452.92   63.69
   3   1 -11  561.09   52.53
   3   1 -11  437.59   59.28
  -3  -1  11  467.73   87.42
   3   1 -1020531.83  706.53
   3   1 -1021869.99  811.54
   3   1 -1022194.34  852.52
   3   1 -1020469.90  763.59
   3   1 -1020516.48  717.67
  -3  -1  1020969.18  805.52
   3   1  -9  342.50   64.14
   3   1  -9  302.65   71.09
   3   1  -9  229.47   63.98
   3   1  -9  250.21   38.69
   3   1  -9  299.50   47.79
  -3  -1   9  238.96   68.86
   3   1  -8 1630.48  113.17
   3   1  -8 1580.69  117.82
   3   1  -8 1475.74   85.06
   3   1  -8 1464.44   71.46
   3   1  -8 1475.77   85.11
   3   1  -8 1507.35  115.33
  -3  -1   8 1608.99  120.57
   3   1  -7 8703.60  267.33
   3   1  -7 9250.50  337.49
   3   1  -7 9264.99  333.54
   3   1  -7 9495.92  357.76
   3   1  -7 8841.89  356.26
   3   1  -7 8931.81  290.25
  -3  -1   7 9406.49  343.12
  -3  -1   7 9362.57  327.99
  -3  -1   7 8821.46  332.42
   3   1  -6 6710.96  256.60
   3   1  -6 6692.61  243.64
   3   1  -6 6742.94  273.84
   3   1  -6 6447.54  208.90
   3   1  -6 6149.30  188.10
   3   1  -6 6978.85  301.63
  -3  -1   6 6779.26  262.96
  -3  -1   6 6983.69  333.60
   3   1  -5 2892.10  143.82
   3   1  -5 2705.89  121.86
   3   1  -5 2853.87  159.40
   3   1  -5 2612.86   90.82
   3   1  -5 2856.68  126.53
  -3  -1   5 2715.16  219.63
  -3  -1   5 2951.64  137.43
   3   1  -427085.04  945.26
   3   1  -424191.06  706.91
   3   1  -426259.12  948.21
   3   1  -427326.50  911.05
   3   1  -426566.25  882.18
   3   1  -427755.46  927.74
  -3  -1   427904.75 1118.71
  -3  -1   427912.70  955.68
   3   1  -3 1235.50   47.30
   3   1  -3 1419.82  103.34
   3   1  -3 1277.80   68.04
   3   1  -3 1284.57  110.49
   3   1  -3 1314.56   59.75
   3   1  -3 1363.78   89.11
  -3  -1   3 1286.96  142.35
   3   1  -231455.32 1118.03
   3   1  -229594.69 1060.50
   3   1  -229581.33  950.99
   3   1  -229928.17 1030.67
   3   1  -230249.54  964.71
  -3  -1   232922.35 1152.61
   3   1  -1 3235.22  168.88
   3   1  -1 3047.89  147.61
   3   1  -1 3182.47  116.52
   3   1  -1 3401.14  238.35
   3   1  -1 3032.13  155.44
  -3  -1   1 2922.06   82.01
  -3  -1   1 3312.43  140.04
  -3  -1   1 3468.15  154.47
   3   1   035312.23 1210.13
   3   1   036059.49 1309.07
   3   1   035088.18 1216.89
   3   1   032287.06  979.49
   3   1   036444.48 1301.97
   3   1   035510.85 1185.46
  -3  -1   036866.44 1289.04
  -3  -1   036458.46 1299.09
   3   1   1 2309.45  112.93
   3   1   1 2243.72   92.29
   3   1   1 2323.24  212.67
   3   1   1 1996.71   73.78
   3   1   1 2357.87  134.19
  -3  -1  -1 2309.05  117.25
   3   1   2 4685.28  204.37
   3   1   2 4732.61  165.36
   3   1   2 4376.44  121.62
   3   1   2 4532.38  184.93
   3   1   2 4616.11  290.79
  -3  -1  -2 4549.06  124.06
  -3  -1  -2 4764.13  251.75
   3   1   3 7618.99  286.33
   3   1   3 7938.44  262.65
   3   1   3 8188.16  303.24
   3   1   3 7568.33  217.11
   3   1   3 8359.90  318.34
  -3  -1  -3 7947.27  274.32
  -3  -1  -3 8222.52  290.54
   3   1   4  946.49  148.62
   3   1   4  788.16   70.90
   3   1   4  833.99   51.05
   3   1   4  847.23   95.72
  -3  -1  -4  867.78   79.26
  -3  -1  -4  910.47   83.88
   3   1   519216.68  693.72
   3   1   518443.53  729.38
   3   1   518598.63  601.68
   3   1   519076.00  705.52
  -3  -1  -519631.15  656.66
  -3  -1  -518963.04  668.13
   3   1   6   19.65   53.44
   3   1   6   65.82   50.37
   3   1   6   47.80   40.52
   3   1   6   66.05   32.28
  -3  -1  -6   54.48   37.24
   3   1   711860.25  479.41
   3   1   711594.36  452.65
   3   1   711102.10  391.29
   3   1   711047.84  417.50
  -3  -1  -711123.50  385.77
   3   1   8   79.25   65.68
   3   1   8  127.70   57.61
   3   1   8   65.43   55.79
   3   1   8  105.76   45.08
  -3  -1  -8  138.61   75.15
   3   1   9 2438.12  177.70
   3   1   9 2401.46  160.25
   3   1   9 2352.77  144.48
  -3  -1  -9 2342.16  118.69
   3   1  10 3661.03  191.94
   3   1  10 3455.75  182.77
  -3  -1 -10    8.79   33.11
  -3  -1 -10  -28.59   33.98
   3   1  11  233.61   59.13
   3   1  11  242.07   65.51
  -3  -1 -11  179.77   55.71
  -3  -1 -11  274.67   41.18
  -3  -1 -11  205.48   57.96
   3   1  12   -7.65   21.54
   3   1  12   16.11   29.26
  -3  -1 -12    0.20   28.11
  -3  -1 -12   -2.31   25.82
  -3  -1 -12   -5.62   17.29
   3   1  13   67.75   74.58
  -3  -1 -13   57.27   36.41
  -3  -1 -13   52.77   31.58
   3   1  14    2.01   27.41
  -3  -1 -14   15.98   38.55
  -3  -1 -14    3.14   17.03
   3   2 -16  406.15   51.66
  -3  -2  16  355.48   36.47
   3   2 -15  199.20   54.13
   3   2 -15  213.46   66.28
  -3  -2  15  324.65   50.93
   3   2 -14  938.63   94.39
   3   2 -14  755.28  106.05
  -3  -2  14  841.53   86.30
   3   2 -13 6492.34  273.81
   3   2 -13 6296.03  287.10
   3   2 -13 4874.26  198.83
  -3  -2  13 6116.16  267.36
   3   2 -12 1396.71  127.08
   3   2 -12 1411.13  128.56
   3   2 -12 1153.67   95.56
  -3  -2  12 1250.76  119.19
   3   2 -11  365.55   80.54
   3   2 -11  290.48   77.38
   3   2 -11  336.71   68.20
  -3  -2  11  339.73   81.27
   3   2 -10 1098.09  113.21
   3   2 -10 1066.32  106.93
   3   2 -10  946.61  105.63
   3   2 -10  876.81   59.60
  -3  -2  10 1058.98  122.57
   3   2  -9   48.91   82.21
   3   2  -9   37.00   52.39
   3   2  -9   42.09   45.16
   3   2  -9   58.63   26.17
  -3  -2   9  -22.38   45.20
   3   2  -8 1278.48  112.00
   3   2  -8 1266.25  112.95
   3   2  -8 1215.27   92.68
   3   2  -8 1052.64   64.97
   3   2  -710491.43  398.82
   3   2  -710276.38  398.40
   3   2  -710236.16  389.76
   3   2  -7 9997.20  348.77
   3   2  -7 9602.83  305.65
   3   2  -6 5289.41  222.67
   3   2  -6 5138.84  229.52
   3   2  -6 5182.21  223.30
   3   2  -6 5028.50  179.82
   3   2  -6 4751.17  162.12
  -3  -2   6 4897.16  216.62
  -3  -2   6 5112.03  278.08
   3   2  -5 5938.83  228.24
   3   2  -5 5590.90  182.18
   3   2  -5 5794.14  245.18
   3   2  -5 5986.32  238.39
   3   2  -5 5392.90  179.14
  -3  -2   5 5949.22  243.54
  -3  -2   5 6091.40  226.65
   3   2  -4 8046.80  272.36
   3   2  -4 7820.30  297.24
   3   2  -4 8143.19  295.56
   3   2  -4 7505.13  223.03
   3   2  -4 7651.15  240.72
  -3  -2   4 8592.12  293.40
   3   2  -3 6220.16  202.00
   3   2  -3 6049.70  230.28
   3   2  -3 6186.73  230.73
   3   2  -3 5697.88  157.53
   3   2  -3 5525.05  143.25
   3   2  -3 5361.20  153.30
   3   2  -3 6406.61  274.04
   3   2  -2   26.38   21.61
   3   2  -2    9.18   10.77
   3   2  -2   12.97   52.73
   3   2  -2   14.37   36.14
   3   2  -2   31.54   16.67
   3   2  -2   32.05   29.61
   3   2  -1 2455.50   83.95
   3   2  -1 2745.34  135.46
   3   2  -1 2580.11   96.22
   3   2  -1 2620.21  167.23
   3   2  -1 2242.56   84.81
   3   2  -1 2724.61  126.86
   3   2   0 6851.19  182.81
   3   2   0 7791.93  273.08
   3   2   0 7820.35  247.56
   3   2   0 7539.72  233.15
   3   2   0 7057.25  188.73
   3   2   0 6961.17  202.26
   3   2   0 7889.85  274.36
   3   2   1 2606.15  121.42
   3   2   1 2514.21   87.84
   3   2   1 2719.53  194.75
   3   2   1 2424.85   79.46
   3   2   1 2535.85   79.01
   3   2   1 2782.36  215.62
   3   2   212224.15  423.50
   3   2   212053.51  414.82
   3   2   211375.51  337.51
   3   2   212528.39  363.92
   3   2   213132.17  462.26
   3   2   3 7912.17  306.19
   3   2   3 8192.63  286.07
   3   2   3 7447.15  268.44
   3   2   3 8156.34  294.43
   3   2   3 8169.75  319.44
  -3  -2  -3 8615.98  309.70
   3   2   4 4909.21  222.35
   3   2   4 4513.94  155.17
   3   2   4 4851.36  166.70
   3   2   4 5099.33  236.54
   3   2   5 3469.81  292.60
   3   2   5 3370.00  183.61
   3   2   5 3236.82  129.51
   3   2   5 3051.35  124.69
  -3  -2  -5 3443.03  133.06
   3   2   6 2230.75  167.61
   3   2   6 2078.23  152.57
   3   2   6 1959.97  102.11
   3   2   6 2078.35  112.01
  -3  -2  -6 2026.52   95.42
   3   2   7   29.20   54.87
   3   2   7   86.51   80.01
   3   2   7    2.89   33.50
  -3  -2  -7   -3.17   20.03
   3   2   8 1509.82  159.71
   3   2   8 1347.54  225.90
   3   2   8 1346.88  110.02
  -3  -2  -8 1233.71   55.40
  -3  -2  -8    3.40   50.37
   3   2   9 7576.29  341.31
   3   2   9 6993.15  294.32
  -3  -2  -9 7426.11  261.10
   3   2  10  588.11   92.60
   3   2  10  455.25  129.65
  -3  -2 -10  662.92   88.53
  -3  -2 -10  618.69   61.69
   3   2  11  278.93   63.92
   3   2  11  217.68  114.25
  -3  -2 -11  318.28   45.37
  -3  -2 -11  206.71   64.48
   3   2  12  164.25   80.40
   3   2  12  260.12   62.52
  -3  -2 -12  214.80   38.99
  -3  -2 -12  135.22   53.48
   3   2  13 1040.95   92.53
  -3  -2 -13  970.90   91.54
  -3  -2 -13  931.96   76.88
   3   3 -16  343.25   52.65
   3   3 -16  223.61   55.21
   3   3 -15  127.28   54.10
   3   3 -15  154.13   53.55
  -3  -3  15   75.57   59.24
   3   3 -14 2358.46  146.31
   3   3 -14 2140.32  137.78
   3   3 -14 1681.57   90.93
  -3  -3  14 2134.84  127.76
   3   3 -13  830.08  108.62
   3   3 -13  906.81   98.64
   3   3 -13  721.53   77.03
  -3  -3  13  633.55   89.82
   3   3 -12  158.56   71.14
   3   3 -12  181.79   61.74
   3   3 -12  163.25   59.52
  -3  -3  12  149.49   64.80
   3   3 -11 3514.93  209.71
   3   3 -11 3339.07  181.10
   3   3 -11 3237.23  283.54
  -3  -3  11 1049.28  119.20
   3   3 -1017157.11  678.87
   3   3 -1016210.69  726.39
   3   3 -1016274.07  662.64
   3   3  -9  648.53  107.55
   3   3  -9  579.86  101.32
   3   3  -9  594.95   96.52
   3   3  -9  676.58  113.49
   3   3  -8 1233.44  123.87
   3   3  -8 1217.44  126.67
   3   3  -8 1219.10  119.29
   3   3  -8 1005.59  122.48
   3   3  -7  194.89   62.00
   3   3  -7  113.27   56.17
   3   3  -7  128.89   66.15
   3   3  -7  134.97   58.91
   3   3  -6  190.61   57.90
   3   3  -6  224.54   63.09
   3   3  -6  230.11   55.85
   3   3  -6  107.02   30.17
   3   3  -6  153.47   27.46
   3   3  -5  118.56   51.96
   3   3  -5   97.09   45.21
   3   3  -5   76.87   24.70
   3   3  -5   73.85   44.78
   3   3  -412884.29  439.70
   3   3  -413168.06  470.29
   3   3  -413018.84  450.21
   3   3  -412289.46  383.45
   3   3  -3  297.58   45.40
   3   3  -3  232.30   55.38
   3   3  -3  256.40   84.34
   3   3  -3  263.34   37.33
   3   3  -2   53.40   24.66
   3   3  -2   35.86   31.64
   3   3  -2   52.70   33.75
   3   3  -2   27.23   17.94
   3   3  -2   39.37   27.02
   3   3  -1  533.95   61.45
   3   3  -1  570.92   51.19
   3   3  -1  572.97   60.62
   3   3  -1  618.42   72.40
   3   3  -1  513.29   31.88
   3   3  -1  615.18   93.67
   3   3   0 9274.05  268.76
   3   3   011212.54  360.55
   3   3   010742.10  402.39
   3   3   010617.51  364.17
   3   3   010467.14  303.65
   3   3   011400.84  377.68
   3   3   1  268.08   82.49
   3   3   1  335.00   46.71
   3   3   1  285.75   52.18
   3   3   1  290.22   57.40
   3   3   2 1637.10  160.22
   3   3   2 1450.01   81.60
   3   3   2 1467.92   73.18
   3   3   2 1690.01  109.77
   3   3   3  386.18  114.82
   3   3   3  364.66   45.34
   3   3   3  437.88   47.47
   3   3   3  377.76  123.58
   3   3   4  131.32   60.42
   3   3   4  145.31   98.27
   3   3   4   87.31   37.58
  -3  -3  -4   -6.78   16.30
   3   3   5 3601.39  211.69
   3   3   5 3375.83  202.69
   3   3   5 3436.46  155.54
   3   3   6 1471.34  145.34
   3   3   6 1386.89  143.39
   3   3   6 1344.46  103.15
   3   3   7 5614.35  301.87
   3   3   7 5352.40  290.66
   3   3   7 5402.56  236.81
   3   3   8 1985.45  169.02
   3   3   8 1872.93  132.06
   3   3   9  163.69   73.23
   3   3   9  138.18   59.07
  -3  -3  -9  135.41   58.99
   3   3  10 3904.87  215.80
   3   3  10 3842.79  194.22
  -3  -3 -10 4158.43  205.73
   3   3  11 1232.68  166.14
   3   3  11 1208.97  107.10
  -3  -3 -11 1319.90  107.96
   3   3  12   12.01   28.39
   3   3  12   19.87   34.72
  -3  -3 -12    8.22   30.30
   3   3  13   90.71   39.37
  -3  -3 -13   66.02   58.77
   3   4 -15   26.37   38.27
   3   4 -15   29.82   29.85
  -3  -4  15   25.27   28.26
   3   4 -14 1898.47  129.01
   3   4 -14 1742.80  104.66
   3   4 -14 1638.08   94.57
  -3  -4  14 1765.25  114.31
   3   4 -13 4027.83  178.43
   3   4 -13 4337.23  218.17
   3   4 -13 4161.01  191.87
  -3  -4  13 4116.15  202.60
   3   4 -12  328.67   79.65
   3   4 -12  356.34   58.11
   3   4 -12  214.73  124.02
  -3  -4  12  203.70   70.55
   3   4 -11 2479.78  172.30
   3   4 -11 2607.52  172.34
   3   4 -11 2464.26  129.33
   3   4 -10 2720.69  193.02
   3   4 -10 2746.75  189.37
   3   4 -10 2737.71  172.00
   3   4 -10 2585.24  129.37
   3   4  -9 1001.79  119.97
   3   4  -9  780.06  102.16
   3   4  -9  879.81  126.39
   3   4  -9  962.64  103.43
   3   4  -8 2731.95  196.31
   3   4  -8 2654.79  164.09
   3   4  -8 2771.09  186.17
   3   4  -7 7075.00  317.90
   3   4  -7 7175.67  334.81
   3   4  -7 6858.21  282.31
   3   4  -6  577.43   83.77
   3   4  -6  504.55   91.66
   3   4  -6  486.20   71.40
   3   4  -5 5904.53  246.73
   3   4  -5 5980.36  262.45
   3   4  -5 5620.46  223.57
   3   4  -4 6815.82  274.82
   3   4  -4 6553.05  303.85
   3   4  -4 7076.98  349.42
   3   4  -3 1236.25  129.05
   3   4  -3 1174.85   91.24
   3   4  -3 1285.73   80.27
   3   4  -2   47.59   42.26
   3   4  -2   31.70   27.91
   3   4  -2   50.15   26.24
   3   4  -2   -4.17   20.89
   3   4  -1  172.26   53.82
   3   4  -1  186.74   36.29
   3   4  -1  280.32   37.88
   3   4  -1  161.20   35.59
   3   4  -1  243.51   30.91
   3   4  -1  254.30   36.93
   3   4   0 3781.36  146.16
   3   4   0 4518.70  166.46
   3   4   0 4311.81  148.23
   3   4   0 4350.25  161.79
   3   4   1 2137.31  165.22
   3   4   1 2205.67  120.17
   3   4   1 2162.11   96.68
   3   4   2 2815.97  151.20
   3   4   2 3021.93  156.64
   3   4   2 2953.22  172.65
   3   4   3 3250.45  171.80
   3   4   3 3261.53  183.25
   3   4   3 3174.02  193.21
   3   4   4 1472.45  134.32
   3   4   4 1396.45   96.77
   3   4   4 1396.04  119.38
   3   4   5 9293.59  399.27
   3   4   5 9379.25  416.76
   3   4   5 9449.16  354.72
   3   4   6 1432.43  149.06
   3   4   6 1505.52  111.71
   3   4   7  275.89   85.09
   3   4   7  212.37   61.80
  -3  -4  -7  -33.49   40.19
   3   4   8  236.71  134.37
   3   4   8  238.30   64.60
  -3  -4  -8  183.65   58.70
   3   4   9   75.68   92.85
   3   4   9   45.26   45.32
  -3  -4  -9   40.13   42.13
   3   4  10  954.42  104.79
   3   4  10  916.64   91.03
  -3  -4 -10  964.02   89.12
   3   4  11 2507.48  138.78
   3   4  11 2476.30  193.35
  -3  -4 -11 2783.27  135.47
   3   5 -14  615.15   72.87
   3   5 -14  689.53   64.23
  -3  -5  14  697.13   71.37
   3   5 -13  448.37   65.97
   3   5 -13  319.31   38.73
   3   5 -13  518.31   71.31
  -3  -5  13  255.87   64.66
   3   5 -12  263.81   62.50
   3   5 -12  260.44   35.31
   3   5 -12  276.04  121.75
  -3  -5  12   -6.75   37.26
   3   5 -11  964.73  117.12
   3   5 -11  980.99   95.08
   3   5 -10 3135.50  202.64
   3   5 -10 3092.03  204.34
   3   5 -10 2961.21  161.54
   3   5  -9  124.43   57.42
   3   5  -9   50.00   58.74
   3   5  -9   -0.33   40.26
   3   5  -8  191.69   77.73
   3   5  -8  255.60   78.90
   3   5  -8  188.87   51.90
   3   5  -7 1922.09  146.89
   3   5  -7 1880.74  154.60
   3   5  -7 1645.07  104.88
   3   5  -6 1999.30  145.38
   3   5  -6 2041.85  150.12
   3   5  -6 1623.77  147.54
   3   5  -5 2874.60  161.71
   3   5  -5 2760.18  163.36
   3   5  -5 2564.76  124.08
   3   5  -4 1760.25  174.40
   3   5  -4 1708.16  116.18
   3   5  -4 1532.30   85.26
   3   5  -3 1697.92  154.69
   3   5  -3 1539.74  100.96
   3   5  -219923.55  759.61
   3   5  -218529.28  653.42
   3   5  -1  874.68   61.52
   3   5  -1  836.53   89.93
   3   5   0  813.03   66.49
   3   5   0  873.28   65.47
   3   5   1  -45.19   47.09
   3   5   1    1.33   24.75
   3   5   2 3243.00  150.43
   3   5   2 3945.95  257.43
   3   5   2 3967.82  164.98
   3   5   3   31.70   30.89
   3   5   3   28.42   69.85
   3   5   3   15.41   33.46
   3   5   4   26.22   79.02
   3   5   4   34.32   36.73
   3   5   5  538.79  161.25
   3   5   5  664.94   77.68
  -3  -5  -5  524.75   54.62
   3   5   6 1816.04  150.87
   3   5   6 1845.02  121.69
  -3  -5  -6 1902.06   99.22
   3   5   7  297.37   78.58
   3   5   7  231.61   60.05
  -3  -5  -7  371.50   51.94
   3   5   8 2584.91  171.21
   3   5   8 2558.17  139.25
  -3  -5  -8 2607.37  119.90
   3   5   9  917.99   99.26
   3   5   9  819.05   80.25
  -3  -5  -9  846.11   66.65
   3   5  10 1205.63   98.56
   3   5  10 1157.66   83.65
  -3  -5 -10 1130.84  108.36
  -3  -6  13 1025.62   82.55
   3   6 -12  185.19   38.77
  -3  -6  12  201.56   60.07
   3   6 -11 1016.54  167.26
   3   6 -11  667.30   95.73
   3   6 -10 2410.86  162.65
   3   6 -10 2427.15  162.69
   3   6 -10 1879.07  147.17
   3   6  -9  635.70   89.71
   3   6  -9  533.29   91.52
   3   6  -9  370.06   49.17
   3   6  -8  173.64   69.81
   3   6  -8  175.66   70.09
   3   6  -7  793.89  101.43
   3   6  -6 1490.28  125.45
   3   6  -5 2054.80  135.15
   3   6  -5 1933.50  129.35
   3   6  -4   15.51   35.93
   3   6  -4   27.34   32.37
   3   6  -3  717.26   65.10
   3   6  -3  802.17  113.70
   3   6  -2  606.57   85.58
   3   6  -2  455.49   50.04
   3   6  -1 5937.04  216.52
   3   6   0   39.11   29.73
   3   6   1 2523.20  123.74
   3   6   1 2683.87  175.46
   3   6   2   -0.32   34.49
   3   6   2   58.20   31.89
   3   6   3  294.43   62.63
   3   6   3  333.22   55.54
   3   6   4 1309.95  108.54
   3   6   4 1249.62   92.33
   3   6   5 3243.35  176.14
   3   6   5 3109.65  150.44
   3   6   6   -0.28   24.18
   3   6   6   -3.17   31.91
   3   6   7   74.21   35.86
   3   6   7   26.18   47.21
   3   6   8   12.87   26.46
   3   6   8   23.98   36.44
   3   7 -10   65.65   80.13
   3   7  -9 1029.23  105.99
   3   7  -9 1331.58  169.29
   3   7  -8 1624.41  122.67
   3   7  -7 1617.03  119.88
   3   7  -6  183.65   53.65
   3   7  -6  135.04   47.38
   3   7  -5 2608.02  135.42
   3   7  -5 2263.09  118.44
   3   7  -4  111.85   41.91
   3   7  -4   80.76   49.04
   3   7  -3 2303.97  114.74
   3   7  -2 9767.48  327.48
   3   7  -1   42.18   26.83
   3   7   0  361.48   46.11
   3   7   1   -1.45   20.30
   3   7   2 1098.45   72.54
   3   7   3   -6.71   23.00
  -3  -7  -3    2.47   16.27
   3   7   4  626.52   56.86
  -3  -7  -4   -2.52   17.32
   3   7   5  650.04   54.09
  -3  -7  -5  352.71   41.73
   3   8  -6  919.89   64.91
   3   8  -5   69.60   26.78
   4  -7  -5  391.44   50.83
  -4   7   5  250.09   88.76
   4  -7  -4   19.08   30.84
  -4   7   4   29.20   59.45
   4  -7  -3   40.18   37.80
  -4   7   3   -7.13   15.64
  -4   7   3    0.74   14.62
  -4   7   3  -31.79   48.81
   4  -7  -2   29.38   39.17
  -4   7   2   30.20   24.02
  -4   7   2    5.95   26.64
  -4   7   2   58.98   33.51
  -4   7   1 1329.52  117.36
  -4   7   1 1420.74   90.53
  -4   7   1 1388.93   88.76
   4  -7   0   54.66   44.06
  -4   7   0   49.19   39.06
  -4   7   0   65.47   51.84
  -4   7   0   30.68   29.62
   4  -7   1 2150.34  129.19
  -4   7  -1 2104.88  167.36
  -4   7  -1 2045.09  132.09
   4  -7   2   34.39   37.14
  -4   7  -2   25.32   35.98
  -4   7  -2   63.89   42.93
   4  -7   3   62.51   37.48
  -4   7  -3   86.17   41.48
  -4   7  -3   83.85   51.76
   4  -7   4  216.41   44.71
  -4   7  -4  379.77   58.64
  -4   7  -4  257.11   69.34
  -4   7  -5  174.96   51.21
  -4   7  -5  216.60   58.49
  -4   7  -6   18.98   28.02
  -4   7  -6   -8.01   29.23
  -4   6   8  644.29   73.42
   4  -6  -7   -0.37   26.17
  -4   6   7   12.70   15.30
  -4   6   7  -22.10   32.36
   4  -6  -6   -1.04   33.99
  -4   6   6   -8.54   19.13
  -4   6   6    9.04   32.16
   4  -6  -5 2533.83  178.88
   4  -6  -5 2180.16  102.35
  -4   6   5 2440.98  106.92
  -4   6   5 2644.55  145.88
  -4   6   5 1814.84   80.73
   4  -6  -4  761.48   75.11
   4  -6  -4  560.36   56.01
  -4   6   4  738.27   67.73
  -4   6   4  809.52   87.75
  -4   6   4  611.35   58.23
   4  -6  -3  225.84   63.24
   4  -6  -3  313.78   43.56
  -4   6   3  217.33   53.35
  -4   6   3  264.51   61.51
  -4   6   3  224.27   49.97
   4  -6  -2   -8.55   22.25
   4  -6  -2    2.16   59.51
  -4   6   2   48.93   37.60
  -4   6   2   15.52   37.32
  -4   6   2   24.37   37.86
   4  -6  -1    0.79   79.45
   4  -6  -1   44.53   27.70
  -4   6   1   64.03   47.75
  -4   6   1  107.76   41.27
  -4   6   1   69.02   51.31
   4  -6   0 4308.93  295.74
   4  -6   0 3289.62  138.31
  -4   6   0 4359.71  204.66
  -4   6   0 4107.72  225.43
  -4   6   0 4357.41  219.13
   4  -6   1 2015.69  137.76
   4  -6   1 1614.77  118.99
  -4   6  -1 2059.58  134.47
  -4   6  -1 2071.01  146.25
  -4   6  -1 1770.78   94.28
   4  -6   2  452.57   78.35
  -4   6  -2  434.39   78.62
  -4   6  -2  498.45   89.43
   4  -6   3  106.75   52.05
  -4   6  -3  111.95   93.80
  -4   6  -3  137.18   65.30
   4  -6   4 2981.04  153.17
  -4   6  -4 3045.44  273.91
  -4   6  -4 3018.88  175.32
   4  -6   5  445.73   61.39
  -4   6  -5  490.20   82.58
  -4   6  -5  485.51   82.33
   4  -6   6 1640.88   96.64
  -4   6  -6 1639.20  130.39
  -4   6  -6 1771.28  122.01
  -4   6  -7  128.51   54.23
  -4   6  -7   88.66   44.36
  -4   6  -8  473.42   52.53
  -4   6  -8  384.49  116.31
  -4   6  -9  127.84   48.27
   4  -5 -10  148.40   40.47
  -4   5  10  205.23   53.95
   4  -5  -9    8.07   27.30
  -4   5   9   18.82   22.75
  -4   5   9   47.99   40.43
   4  -5  -8   -8.98   26.91
   4  -5  -8   29.22   29.20
  -4   5   8   19.43   27.75
  -4   5   8   90.28   74.90
   4  -5  -7  697.38   55.60
   4  -5  -7  748.57   77.16
  -4   5   7  702.93   70.23
  -4   5   7  872.50  161.45
   4  -5  -6 2763.33  128.43
   4  -5  -6 2882.33  147.68
  -4   5   6 2856.39  138.11
  -4   5   6 3083.82  259.07
  -4   5   6 2350.11  103.78
   4  -5  -5 5086.38  208.75
   4  -5  -5 4981.39  213.42
  -4   5   5 5268.84  223.86
  -4   5   5 5417.72  347.47
  -4   5   5 4819.80  191.73
   4  -5  -4  503.67   73.21
   4  -5  -4  555.10   71.41
  -4   5   4  587.63   77.15
  -4   5   4  340.96  135.00
  -4   5   4  483.69   67.92
   4  -5  -3 2093.23  133.85
   4  -5  -3 2121.13  194.61
  -4   5   3 2218.58  139.88
  -4   5   3 2122.98  138.52
  -4   5   3 2171.64  138.56
   4  -5  -2  244.82   60.01
   4  -5  -2  221.81   64.04
  -4   5   2  170.01   64.18
  -4   5   2  231.53   66.92
  -4   5   2  184.33   56.40
   4  -5  -1  228.30  112.06
   4  -5  -1  244.10   60.94
  -4   5   1   -4.20  112.79
  -4   5   1  187.91   74.69
  -4   5   1  282.02   52.65
   4  -5   0 2480.12  249.89
   4  -5   0 2350.25  143.01
  -4   5   0 2449.89  158.22
  -4   5   0 2544.54  168.83
  -4   5   0 2102.58  111.21
   4  -5   1 8247.88  350.09
   4  -5   1 7737.17  311.20
  -4   5  -1 8159.23  335.19
  -4   5  -1 8380.64  360.91
  -4   5  -1 6698.90  239.34
   4  -5   2  137.19   85.50
   4  -5   2  170.82   66.19
  -4   5  -2  159.99   65.61
  -4   5  -2  143.86   72.22
   4  -5   3 1414.74  120.07
   4  -5   3 1297.61  104.43
  -4   5  -3 1248.75  124.95
  -4   5  -3 1376.33  131.02
   4  -5   4   86.00   52.37
   4  -5   4   96.65   45.34
  -4   5  -4   66.81   59.19
  -4   5  -4  141.60   59.92
   4  -5   5   82.55   47.26
   4  -5   5  100.23   42.51
  -4   5  -5  148.53  103.03
  -4   5  -5  121.99   57.56
   4  -5   6 4939.33  282.85
   4  -5   6 4389.37  190.21
  -4   5  -6 4772.31  236.71
  -4   5  -6 4701.40  296.70
   4  -5   7 1232.91   86.65
   4  -5   7 1083.51  133.20
  -4   5  -7 1255.97  114.88
  -4   5  -7 1183.76   89.93
   4  -5   8   73.45   27.97
   4  -5   8    3.79   22.16
   4  -5   8   81.17   33.44
  -4   5  -8  133.03   48.57
  -4   5  -8   49.41   31.86
   4  -5   9    2.88   21.43
   4  -5   9    2.98   15.53
  -4   5  -9   37.57   59.57
  -4   5  -9   17.56   17.08
   4  -5  10    2.68   15.00
  -4   5 -10  133.16   43.28
  -4   5 -10   90.34   22.70
  -4   5 -11   52.37   32.42
   4  -4 -12   94.87   41.50
   4  -4 -12   92.62   37.35
  -4   4  12   56.97   61.02
   4  -4 -11  113.06   49.58
   4  -4 -11  107.23   42.20
  -4   4  11   67.96   30.56
  -4   4  11   81.55   44.74
   4  -4 -10 2102.62  136.79
   4  -4 -10 2140.10  117.97
  -4   4  10 1813.58  100.03
  -4   4  10 1939.22  131.47
   4  -4  -9  521.38   80.76
   4  -4  -9  443.91   64.78
  -4   4   9  404.58   63.32
  -4   4   9  461.39   82.15
   4  -4  -8  371.24   76.46
   4  -4  -8  391.94   60.27
  -4   4   8  445.70   65.77
  -4   4   8  269.42   80.24
   4  -4  -7   13.92   24.42
   4  -4  -7   60.43   47.11
   4  -4  -7   78.78   35.34
  -4   4   7   52.28   39.42
  -4   4   7    2.85   24.67
  -4   4   7   39.15   45.54
   4  -4  -6 1678.96   92.93
   4  -4  -6 1863.71  137.07
   4  -4  -6 1747.27  100.95
  -4   4   6 1741.12  105.51
  -4   4   6 1865.45  131.59
  -4   4   6 2074.13  143.42
   4  -4  -5 2553.40  123.50
   4  -4  -5 2544.73  159.56
   4  -4  -5 2484.67  116.16
  -4   4   5 2686.79  160.90
  -4   4   5 2454.79  139.30
  -4   4   5 2646.23  161.19
   4  -4  -4 2090.96  119.57
   4  -4  -4 2188.94  142.88
   4  -4  -4 1918.50   96.00
  -4   4   4 2253.35  151.56
  -4   4   4 2218.21  138.63
  -4   4   4 2305.63  140.54
   4  -4  -3  109.20   49.60
   4  -4  -3  126.95   29.70
   4  -4  -3  126.45   58.71
  -4   4   3  182.35   65.67
  -4   4   3  221.80   64.01
  -4   4   3  149.48   54.39
   4  -4  -2   -9.02   30.91
   4  -4  -2   15.77   33.15
  -4   4   2   48.35   44.30
  -4   4   2    6.09   44.46
  -4   4   2   14.18   32.64
   4  -4  -1  192.72   97.06
   4  -4  -1   97.91  105.57
  -4   4   1  197.62   68.85
  -4   4   1  230.87   73.48
  -4   4   1  189.96   73.97
   4  -4   013324.02  650.23
   4  -4   011249.71  455.85
  -4   4   011211.39  431.94
  -4   4   011128.67  450.30
  -4   4   010182.52  350.76
   4  -4   1   49.59   56.28
   4  -4   1   75.16   54.41
  -4   4  -1  120.51  101.14
  -4   4  -1  129.11   65.96
   4  -4   2   47.92   49.57
   4  -4   2   35.98   48.82
  -4   4  -2   22.44   42.60
  -4   4  -2   -0.11   77.98
   4  -4   3 1315.39  118.69
   4  -4   3 1161.45  180.95
  -4   4  -3 1209.01  117.79
  -4   4  -3 1345.52  123.41
   4  -4   4 3763.20  198.94
   4  -4   4 3922.49  209.17
  -4   4  -4 3746.14  188.90
  -4   4  -4 3189.71  122.14
  -4   4  -4 3758.14  190.46
   4  -4   5  221.86   63.09
   4  -4   5  214.16   70.59
  -4   4  -5  234.27   64.58
  -4   4  -5  192.26   37.11
  -4   4  -5  201.17   58.34
   4  -4   6 1493.95  181.65
   4  -4   6 1277.43  124.16
  -4   4  -6 1333.58  115.10
  -4   4  -6 1192.51   77.32
  -4   4  -6 1224.78   92.44
   4  -4   7 1491.63  125.24
   4  -4   7 1427.27  106.97
  -4   4  -7 1449.05  111.76
  -4   4  -7 1248.82  124.40
  -4   4  -7 1294.77   82.54
   4  -4   8   83.24   39.09
   4  -4   8   90.24   50.99
   4  -4   8   44.68   27.00
  -4   4  -8   68.65   38.61
  -4   4  -8   -0.38   30.24
   4  -4   9 3312.22  135.03
   4  -4   9 3769.68  184.02
   4  -4   9 3251.26  129.71
  -4   4  -9 3883.18  174.10
  -4   4  -9 3561.17  210.66
   4  -4  10 1299.22   73.52
   4  -4  10 1537.31  111.95
  -4   4 -10 1737.54   99.61
  -4   4 -10 1608.76   94.98
   4  -4  11  226.72   35.51
  -4   4 -11  306.37   46.18
  -4   4 -11  361.35   49.95
   4  -4  12    0.89   20.75
  -4   4 -12    3.37   19.15
  -4   4 -12   13.41   22.71
   4  -3 -13 3775.26  175.51
   4  -3 -13 3924.14  172.82
  -4   3  13 3273.27  168.84
  -4   3  13 3358.32  142.35
   4  -3 -12    9.87   39.01
   4  -3 -12   23.91   36.64
  -4   3  12  -11.53   37.01
  -4   3  12    9.00   28.06
   4  -3 -11   12.76   42.08
   4  -3 -11   28.33   65.45
  -4   3  11   11.92   31.82
  -4   3  11   20.04   39.00
   4  -3 -10 7456.97  444.57
   4  -3 -10 7845.30  421.88
  -4   3  10 6797.80  269.81
  -4   3  10 7061.80  300.20
   4  -3  -9 1185.77  202.33
   4  -3  -9 1289.83  165.79
  -4   3   9 1224.06  105.65
  -4   3   9 1240.13  120.14
   4  -3  -8   47.06   56.44
   4  -3  -8   82.72   75.28
  -4   3   8   57.48   49.07
  -4   3   8   63.62   32.69
  -4   3   8   93.70   55.15
   4  -3  -7 1251.29  129.51
   4  -3  -7 1485.81  175.30
  -4   3   7 1330.31  113.36
  -4   3   7 1118.71   89.66
  -4   3   7 1310.25  120.96
   4  -3  -6 5587.37  195.77
   4  -3  -6 6504.25  292.78
   4  -3  -6 6558.92  343.06
  -4   3   6 6309.72  275.98
  -4   3   6 6308.91  258.44
  -4   3   6 6554.62  282.99
   4  -3  -5 5307.96  192.85
   4  -3  -5 5981.75  270.74
   4  -3  -5 5845.98  231.79
  -4   3   5 6032.12  259.94
  -4   3   5 5778.55  251.73
  -4   3   5 6020.00  256.67
   4  -3  -4 2196.16  108.74
   4  -3  -4 2442.41  157.50
   4  -3  -4 2319.85  120.80
  -4   3   4 2382.29  229.32
  -4   3   4 2435.69  150.83
  -4   3   4 2384.72  135.64
   4  -3  -3 9493.27  335.15
   4  -3  -310243.79  402.86
   4  -3  -310026.06  344.14
  -4   3   310510.62  403.86
  -4   3   310440.69  410.15
  -4   3   310194.66  362.31
   4  -3  -2 1402.56  154.76
   4  -3  -2 1461.78  124.62
   4  -3  -2 1435.04   81.08
  -4   3   2 1553.61  119.56
  -4   3   2 1492.22  124.42
  -4   3   2 1367.16   86.42
   4  -3  -1 7314.77  374.70
   4  -3  -1 7441.85  410.52
   4  -3  -1 6479.67  268.30
  -4   3   1 7637.16  298.56
  -4   3   1 7440.79  313.47
  -4   3   1 6807.55  229.91
   4  -3   0 7638.28  299.40
   4  -3   0 7960.44  329.59
   4  -3   0 6820.35  230.78
  -4   3   0 7846.24  302.38
  -4   3   0 7874.82  315.45
  -4   3   0 6634.64  210.62
   4  -3   1 3429.15  173.24
   4  -3   1 3568.24  201.45
   4  -3   1 2895.82  109.91
  -4   3  -1 3589.94  171.76
  -4   3  -1 3651.15  186.38
  -4   3  -1 3147.52  121.61
   4  -3   2 1029.50  107.05
   4  -3   2 1089.46  115.01
  -4   3  -2 1061.32  151.04
  -4   3  -2 1041.86  100.05
  -4   3  -2  934.67   67.54
   4  -3   3  949.64  114.10
   4  -3   3 1058.47  105.79
  -4   3  -3  952.48   90.32
  -4   3  -3  872.69   91.12
  -4   3  -3  867.58   71.74
   4  -3   4 2751.81  277.70
   4  -3   4 2611.56  160.23
  -4   3  -4 2524.31  140.59
  -4   3  -4 2439.36  127.32
  -4   3  -4 2690.82  204.64
   4  -3   5   28.75   83.25
   4  -3   5   81.33   60.89
  -4   3  -5  -16.12   26.19
  -4   3  -5   56.65   25.24
  -4   3  -5  -34.02   22.35
   4  -3   620398.06  825.08
  -4   3  -619639.50  802.83
  -4   3  -620185.53  831.96
  -4   3  -617784.08  620.67
   4  -3   7 1667.13  122.84
   4  -3   7 1684.12  155.30
  -4   3  -7 1555.77  106.00
  -4   3  -7 1626.71  113.94
   4  -3   8  468.75   69.09
   4  -3   8  460.29  154.19
   4  -3   8  409.57   46.79
  -4   3  -8  483.43   62.08
  -4   3  -8  517.50   77.32
   4  -3   9 3244.13  199.31
   4  -3   9 3457.66  202.04
   4  -3   9 2871.20  128.17
  -4   3  -9 3158.87  188.18
  -4   3  -9 3538.82  176.42
   4  -3  10  984.05   68.55
   4  -3  10 1031.41  116.83
   4  -3  10  947.72   68.68
  -4   3 -10  951.98   67.09
  -4   3 -10 1129.88   97.54
   4  -3  11   -7.10   36.14
   4  -3  11    1.03   31.69
  -4   3 -11   25.59   60.63
   4  -3  12   -0.76   17.05
  -4   3 -12   -2.24   24.66
  -4   3 -12    7.70   26.37
  -4   3 -13  306.44   49.82
  -4   3 -13  275.40   44.73
   4  -2 -14   75.39   40.92
   4  -2 -14   94.53   41.84
  -4   2  14   78.93   33.98
   4  -2 -13   13.95   61.96
   4  -2 -13   21.62   38.08
  -4   2  13  -24.58   28.19
  -4   2  13   15.90   30.24
   4  -2 -12   20.08   64.10
   4  -2 -12   23.20   71.37
  -4   2  12   45.09   41.98
  -4   2  12   89.19   79.31
   4  -2 -11   67.64   81.61
   4  -2 -11   57.70   82.17
  -4   2  11   72.00   48.72
  -4   2  11  103.99   90.39
   4  -2 -10   46.15   85.06
   4  -2 -10   84.30   85.78
  -4   2  10   76.64   49.02
  -4   2  10   49.03   55.14
   4  -2  -9  -14.22   52.50
   4  -2  -9   12.94   51.68
  -4   2   9   -3.27   30.23
  -4   2   9   10.01   19.87
  -4   2   9  -24.07   35.05
   4  -2  -8  913.89  166.64
   4  -2  -8  876.35  163.97
  -4   2   8  783.86   76.19
  -4   2   8  954.50  101.31
  -4   2   8  876.19  108.15
   4  -2  -7  546.16  144.38
   4  -2  -7  580.99  134.94
  -4   2   7  575.53   71.17
  -4   2   7  583.69   86.23
  -4   2   7  477.05   85.90
   4  -2  -612016.51  599.80
   4  -2  -612165.18  575.15
  -4   2   611135.01  414.82
  -4   2   611712.66  439.93
  -4   2   611404.40  428.85
   4  -2  -5  -18.68   26.22
   4  -2  -5   12.79   34.45
   4  -2  -5    7.56   30.45
  -4   2   5  -36.93   35.93
  -4   2   5   10.52   35.06
  -4   2   5   52.07   32.78
   4  -2  -4 5893.18  241.40
   4  -2  -4 6375.37  261.74
   4  -2  -4 4588.60  218.12
   4  -2  -4 6287.68  241.34
  -4   2   4 6237.66  261.01
  -4   2   4 6479.92  256.20
  -4   2   4 6227.55  231.13
   4  -2  -3 1580.69   83.79
   4  -2  -3 1598.02  119.60
   4  -2  -3 1341.15   81.64
   4  -2  -3 1751.75  103.61
  -4   2   3 1644.91  121.64
  -4   2   3 1717.48  108.99
  -4   2   3 1512.46   86.65
   4  -2  -2 1016.60   76.38
   4  -2  -2 1204.26  105.28
   4  -2  -2  996.08   72.04
   4  -2  -2 1098.43   81.20
  -4   2   2  962.89  141.74
  -4   2   2 1097.17   97.57
  -4   2   2 1084.23   61.70
  -4   2   2 1091.61  103.08
   4  -2  -1 5707.81  216.53
   4  -2  -1 5805.99  241.13
   4  -2  -1 5461.52  210.22
   4  -2  -1 5655.84  202.68
  -4   2   1 6087.72  229.71
  -4   2   1 5418.45  171.25
  -4   2   1 5974.45  244.43
  -4   2   1 5890.82  192.17
   4  -2   0 4905.23  200.64
   4  -2   0 4819.21  192.48
   4  -2   0 4866.29  235.13
   4  -2   0 5001.52  189.19
  -4   2   0 5103.04  200.71
  -4   2   0 5015.02  299.73
   4  -2   110406.65  376.61
   4  -2   110191.39  341.57
   4  -2   110627.59  421.10
  -4   2  -110654.04  360.47
  -4   2  -110761.55  386.10
   4  -2   2 3279.80  166.80
   4  -2   2 3445.06  188.73
   4  -2   2 3101.45  128.37
  -4   2  -2 3239.62  196.29
  -4   2  -2 3309.30  152.03
   4  -2   3 8327.79  325.80
   4  -2   3 8602.42  354.26
   4  -2   3 8007.62  337.89
  -4   2  -3 8293.52  283.15
  -4   2  -3 8412.48  291.39
  -4   2  -3 8502.54  314.29
   4  -2   4  236.16   72.87
   4  -2   4   56.81  110.58
   4  -2   4  155.46   38.75
  -4   2  -4  235.54   42.87
  -4   2  -4  188.86   41.08
  -4   2  -4  183.27   58.76
   4  -2   5  193.11   70.15
   4  -2   5  258.44   76.53
   4  -2   5  148.20   37.72
  -4   2  -5  219.16   39.66
  -4   2  -5  157.60   59.82
  -4   2  -5  109.87   34.35
   4  -2   6 2747.77  170.84
   4  -2   6 2709.87  195.58
  -4   2  -6 2493.62  114.18
  -4   2  -6 2675.98  165.81
   4  -2   7  649.63  115.55
  -4   2  -7  484.55   50.68
  -4   2  -7  577.94  145.35
   4  -2   8  328.15   70.43
   4  -2   8  402.05   98.79
   4  -2   8  299.77   43.77
  -4   2  -8  374.20   41.89
  -4   2  -8  351.01   81.35
   4  -2   9 8190.07  316.33
   4  -2   9 8343.80  384.35
   4  -2   9 7158.16  262.74
  -4   2  -9 8634.19  360.44
   4  -2  10  697.91   69.01
   4  -2  10  821.74  113.99
   4  -2  10  584.79   93.33
  -4   2 -10  809.50   97.44
   4  -2  11   25.36   24.64
   4  -2  11   26.34   50.67
   4  -2  11   15.87   27.23
  -4   2 -11   23.82   41.04
   4  -2  12    0.06   17.24
  -4   2 -12    9.27   34.64
  -4   2 -12   34.21   59.77
   4  -2  13  241.59   36.78
  -4   2 -13  157.70   52.26
  -4   2 -13  364.16   52.21
   4  -1 -14   -7.63   26.47
   4  -1 -14   24.62   28.62
  -4   1  14   -2.10   26.87
  -4   1  14   -4.45   45.64
   4  -1 -13  160.34   83.13
   4  -1 -13  240.28   58.70
  -4   1  13  144.13   54.22
  -4   1  13  169.75   56.67
   4  -1 -12 3318.02  165.45
   4  -1 -12 3586.61  184.14
  -4   1  12 3354.51  175.12
  -4   1  12 3381.94  183.15
   4  -1 -11  185.18   58.05
   4  -1 -11  215.53  112.81
  -4   1  11  244.55   68.23
  -4   1  11  277.38   74.03
   4  -1 -1014735.69  680.52
   4  -1 -1014761.66  551.24
  -4   1  1014254.66  539.80
  -4   1  1014495.71  564.88
  -4   1  1013393.32  464.35
   4  -1  -9 1039.60   96.25
   4  -1  -9 1074.72  171.85
  -4   1   9 1043.35  103.68
  -4   1   9  976.68  111.28
  -4   1   9  995.16   82.08
   4  -1  -8  164.50   40.35
   4  -1  -8  225.89   56.82
   4  -1  -8  110.29  103.91
  -4   1   8  279.25   66.65
  -4   1   8  219.72   68.12
  -4   1   8  181.43   54.84
   4  -1  -7   73.55   36.19
   4  -1  -7  104.01   77.64
   4  -1  -7  135.37   93.86
  -4   1   7  121.48   52.91
  -4   1   7  100.79   54.77
  -4   1   7  121.47   53.33
   4  -1  -6  331.07   51.19
   4  -1  -6  328.30  108.27
   4  -1  -6  352.27   72.88
  -4   1   6  463.14   65.49
  -4   1   6  284.12   64.65
  -4   1   6  327.71   68.83
   4  -1  -5  643.92   66.61
   4  -1  -5  662.37   80.71
   4  -1  -5  786.21   88.85
  -4   1   5  648.08   73.58
  -4   1   5  669.81   69.94
  -4   1   5  650.84   83.41
   4  -1  -4 1954.96   76.44
   4  -1  -4 2123.65  114.96
   4  -1  -4 2318.76  125.46
   4  -1  -4 2280.46  131.94
   4  -1  -4 1994.33   86.97
  -4   1   4 2257.49  115.88
  -4   1   4 2182.17  105.52
  -4   1   4 2217.93  134.57
   4  -1  -3 3183.23  115.90
   4  -1  -3 3440.02  155.37
   4  -1  -3 3578.88  162.96
   4  -1  -3 3564.07  164.63
   4  -1  -3 3477.12  133.09
  -4   1   3 3657.11  147.13
  -4   1   3 3568.55  184.23
  -4   1   3 3460.89  127.61
  -4   1   3 3583.81  173.58
   4  -1  -2  581.81   53.00
   4  -1  -2  584.57  116.48
   4  -1  -2  619.77   63.05
   4  -1  -2  701.91   75.11
   4  -1  -2  622.70   72.80
  -4   1   2  633.26   58.86
  -4   1   2  589.66   42.19
  -4   1   2  592.50   77.31
  -4   1   2  604.95   60.73
   4  -1  -1 3079.97  127.80
   4  -1  -1 3098.07  221.12
   4  -1  -1 3203.35  159.19
   4  -1  -1 3115.87  209.82
  -4   1   1 3375.55  177.62
  -4   1   1 3351.67  139.10
  -4   1   1 2833.53   89.21
  -4   1   1 3294.81  153.26
  -4   1   1 3421.31  141.85
   4  -1   0 1910.55  105.31
   4  -1   0 2004.96  129.06
   4  -1   0 2023.83  119.28
   4  -1   0 2025.66  124.73
  -4   1   0 2026.17   91.04
  -4   1   0 1983.51  104.68
  -4   1   0 2004.41  110.79
  -4   1   0 1976.66  110.44
   4  -1   1  456.16   72.68
   4  -1   1  403.06   64.59
   4  -1   1  425.49   76.54
   4  -1   1  490.68   64.46
  -4   1  -1  353.43   43.67
  -4   1  -1  430.28   53.79
  -4   1  -1  484.35   55.88
   4  -1   2  112.57   81.37
   4  -1   2  145.14   57.51
   4  -1   2  111.96   53.03
   4  -1   2  111.37   45.83
  -4   1  -2  113.46   46.98
  -4   1  -2  144.65   62.31
   4  -1   3  667.67   91.74
   4  -1   3  652.59  145.95
   4  -1   3  774.69  125.03
  -4   1  -3  567.18   43.82
  -4   1  -3  625.78   50.47
   4  -1   4 1354.93  119.86
   4  -1   4 1289.93  100.15
   4  -1   4 1341.83  125.13
  -4   1  -4 1053.47   55.34
  -4   1  -4 1097.06   56.26
  -4   1  -4 1286.13  110.09
   4  -1   5  255.97   73.19
   4  -1   5  248.50   79.57
   4  -1   5  277.14   57.44
  -4   1  -5  313.24   75.33
   4  -1   618387.61  708.64
   4  -1   618691.17  747.99
   4  -1   617831.00  754.68
  -4   1  -617661.78  676.36
   4  -1   7   48.88   30.14
   4  -1   7  -32.63   39.68
   4  -1   7  -16.81   79.94
   4  -1   7   -7.11   30.62
  -4   1  -7   24.05   48.87
   4  -1   8 1167.83   93.07
   4  -1   8 1573.17  128.26
   4  -1   8 1554.99  151.97
   4  -1   8 1306.80  111.13
  -4   1  -8 1571.32  223.18
   4  -1   9 9429.47  370.71
   4  -1   913101.33  484.74
   4  -1   911967.10  474.64
   4  -1   913310.42  543.26
  -4   1  -913711.81  534.20
   4  -1  10  617.62   75.63
   4  -1  10  763.50  110.61
   4  -1  10  566.42   61.15
  -4   1 -10  710.50   92.93
   4  -1  11   -0.61   40.66
   4  -1  11    8.65   23.64
  -4   1 -11   24.29   39.48
   4  -1  12    1.40   20.44
  -4   1 -12   35.81   62.57
  -4   1 -12   40.34   39.63
   4  -1  13  968.99   62.12
  -4   1 -13 1249.45   89.84
  -4   1 -13 1155.44   81.11
   4   0 -15   14.93   17.84
  -4   0  15   -9.67   28.10
   4   0 -14  -10.86   21.67
   4   0 -14   -8.21   25.03
  -4   0  14    5.90   33.98
  -4   0  14   23.39   33.89
   4   0 -13   49.38   52.27
   4   0 -13   93.31   40.64
  -4   0  13   93.40   49.51
  -4   0  13   68.57   50.73
   4   0 -12 1913.10  103.64
   4   0 -12 2000.12  152.97
   4   0 -12 2239.23  131.24
  -4   0  12 1763.46   81.93
  -4   0  12 2184.64  144.06
   4   0 -11  798.94  114.59
   4   0 -11  716.05   69.78
   4   0 -11  812.86   89.17
  -4   0  11  732.20   62.17
  -4   0  11  763.63  100.17
   4   0 -10 6572.53  325.80
   4   0 -10 6692.89  253.07
   4   0 -10 7484.71  306.60
  -4   0  10 6416.64  242.22
  -4   0  10 7194.27  428.15
   4   0  -9  535.89  108.80
   4   0  -9  542.48   61.98
   4   0  -9  495.21   83.08
  -4   0   9  500.62  142.72
   4   0  -8 4538.27  277.48
   4   0  -8 4724.93  250.86
   4   0  -8 5304.45  235.83
  -4   0   8 4830.63  233.93
   4   0  -7  950.96  146.02
   4   0  -7  882.52  119.61
   4   0  -7  899.98  100.29
  -4   0   7  890.79   95.67
   4   0  -619800.19  732.23
   4   0  -620007.56  694.43
   4   0  -620143.06  737.72
  -4   0   619125.08  670.99
   4   0  -5  117.27   52.93
   4   0  -5  151.40   39.84
   4   0  -5   71.67   52.62
  -4   0   5   71.87   34.71
  -4   0   5   75.59   37.53
   4   0  -414615.55  532.51
   4   0  -414573.28  483.56
   4   0  -414408.34  518.70
  -4   0   414423.05  454.50
  -4   0   413829.46  445.89
   4   0  -3 5004.45  190.51
   4   0  -3 5128.30  224.43
   4   0  -3 5055.47  185.16
   4   0  -3 5265.17  218.70
  -4   0   3 5075.11  164.43
  -4   0   3 4794.25  195.79
   4   0  -2 3383.43  160.99
   4   0  -2 3319.19  174.43
   4   0  -2 3246.88  160.86
   4   0  -2 3400.79  138.84
  -4   0   2 3236.89  111.27
  -4   0   2 3100.63  128.96
  -4   0   2 3481.31  156.07
   4   0  -115037.50  485.98
   4   0  -114826.26  674.06
   4   0  -114941.56  503.03
   4   0  -115325.49  553.49
  -4   0   114727.09  489.04
  -4   0   115436.47  519.29
  -4   0   114929.10  498.60
  -4   0   115480.89  530.61
   4   0   0 1744.16   98.43
   4   0   0 1687.76  131.86
   4   0   0 1707.34  105.06
   4   0   0 1683.18  124.18
  -4   0   0 1558.96   62.58
  -4   0   0 1701.18  103.88
  -4   0   0 1734.10   90.98
  -4   0   0 1753.85  113.22
   4   0   114120.48  487.45
   4   0   113879.43  531.63
   4   0   113618.43  471.28
   4   0   113781.23  504.49
  -4   0  -112319.71  353.87
  -4   0  -113660.47  419.58
   4   0   2 6406.19  327.35
   4   0   2 6751.95  263.49
   4   0   2 6601.66  294.20
   4   0   2 6591.07  271.82
  -4   0  -2 6266.69  194.42
   4   0   3 6591.84  272.75
   4   0   3 6765.51  300.80
   4   0   3 6813.54  270.77
   4   0   3 6739.86  288.05
  -4   0  -3 5472.04  191.09
   4   0   4 1715.49  126.83
   4   0   4 1618.00  120.54
   4   0   4 1614.90  129.53
  -4   0  -4   72.67   52.73
   4   0   5 1203.71  120.29
   4   0   5 1237.42  114.80
   4   0   5 1275.37  118.06
  -4   0  -5 1285.25  119.21
   4   0   620058.53  957.54
   4   0   619539.90  892.51
   4   0   619487.80  887.70
  -4   0  -619107.71  724.83
   4   0   7   83.76   55.17
   4   0   7   91.94   61.44
   4   0   7   54.00   28.00
   4   0   7  108.82   58.70
  -4   0  -7  193.99   69.49
   4   0   8 1294.61  118.62
   4   0   8 1352.73  129.02
   4   0   8 1342.31  133.15
   4   0   8 1176.97   76.33
  -4   0  -8 1486.68  196.69
   4   0   9 2132.52  139.64
   4   0   9 2247.66  153.45
   4   0   9 2202.32  164.38
   4   0   9 1963.77  107.40
  -4   0  -9 2418.00  144.26
   4   0  10  725.31   85.38
   4   0  10  647.81   62.62
  -4   0 -10  -42.03   40.26
  -4   0 -10  739.73   59.24
   4   0  11   13.23   34.81
   4   0  11   31.37   27.90
  -4   0 -11    7.89   30.44
  -4   0 -11   15.61   20.24
  -4   0 -11  -11.61   29.27
   4   0  12    4.35   20.80
   4   0  12   -0.05   20.56
  -4   0 -12   18.82   27.23
  -4   0 -12    0.27   15.33
   4   0  13    0.89   29.80
  -4   0 -13    8.46   25.62
  -4  -1  15   10.73   31.94
  -4  -1  15   36.79   30.84
   4   1 -14   -1.40   25.60
   4   1 -14  -14.35   17.45
  -4  -1  14  -19.91   34.29
  -4  -1  14  -17.06   35.61
   4   1 -13  402.29   90.67
   4   1 -13  328.27   44.27
  -4  -1  13  305.49   35.86
  -4  -1  13  304.10   71.62
   4   1 -12 2418.20  140.39
   4   1 -12 2553.26  118.93
  -4  -1  12 2748.33  259.48
   4   1 -11 1010.39   99.92
   4   1 -11 1100.15  112.30
   4   1 -11 1052.58   85.81
  -4  -1  11  972.01  115.89
   4   1 -10 2895.11  166.44
   4   1 -10 2989.62  175.38
   4   1 -10 2887.19  172.95
   4   1 -10 2584.46  150.68
   4   1 -10 2821.81  141.46
  -4  -1  10 3029.96  190.51
   4   1  -9   71.00   51.12
   4   1  -9   66.32   49.91
   4   1  -9   67.22   57.31
   4   1  -9   55.69   44.44
   4   1  -9   58.86   42.04
  -4  -1   9   74.98   55.92
   4   1  -8 1906.35  139.07
   4   1  -8 1780.57  125.62
   4   1  -8 1988.78  158.36
   4   1  -8 1714.91  121.49
   4   1  -8 2025.31  118.71
  -4  -1   8 1932.19  140.58
   4   1  -7  111.74   53.99
   4   1  -7   92.31   62.33
   4   1  -7   80.49   27.77
   4   1  -7   82.40   45.64
  -4  -1   7   68.90   47.48
   4   1  -6 5291.04  332.51
   4   1  -6 5591.49  269.09
   4   1  -6 5116.40  172.30
   4   1  -6 5393.70  218.95
  -4  -1   6 5281.21  213.05
   4   1  -5  441.01   78.41
   4   1  -5  403.66   82.32
   4   1  -5  330.32   36.43
   4   1  -5  290.44   61.95
  -4  -1   5    2.96   28.58
  -4  -1   5  332.01   40.52
   4   1  -4  457.68   77.83
   4   1  -4  346.97   79.07
   4   1  -4  324.77   35.43
   4   1  -4  375.99   62.15
  -4  -1   4  332.37   33.50
  -4  -1   4  324.14   44.50
   4   1  -3 1250.62  115.58
   4   1  -3 1325.24  110.74
   4   1  -3 1199.99   86.43
   4   1  -3 1169.24  152.67
  -4  -1   3 1249.61   52.42
  -4  -1   3 1215.23   60.97
   4   1  -2 1380.63   65.97
   4   1  -2 1670.09  126.17
   4   1  -2 1521.66  109.24
   4   1  -2 1450.27   68.78
   4   1  -2 1703.07  117.57
  -4  -1   2 1390.10   54.49
   4   1  -1 1574.11   78.52
   4   1  -1 1767.80  127.37
   4   1  -1 1715.73  123.35
   4   1  -1 1552.93   72.98
   4   1   0 1320.13   80.70
   4   1   0 1305.98   68.65
   4   1   0 1704.94  187.86
   4   1   0 1351.13  115.44
  -4  -1   0    8.70   21.96
   4   1   1 4630.71  187.42
   4   1   1 4877.39  222.23
   4   1   1 4841.44  232.79
   4   1   1 4859.90  223.97
  -4  -1  -1 4536.93  144.15
   4   1   2 5733.30  318.75
   4   1   2 6074.35  278.85
   4   1   2 6147.92  216.65
   4   1   2 6318.30  284.71
   4   1   3 2776.90  245.01
   4   1   3 2890.38  177.29
   4   1   3 2742.63  127.00
   4   1   3 2888.18  181.83
   4   1   4  831.21  105.34
   4   1   4  815.45   74.34
   4   1   4  874.34  111.50
   4   1   5  120.31   61.75
   4   1   5   91.75   68.74
   4   1   5   36.70   64.33
  -4  -1  -5   71.46   49.54
   4   1   6 1104.17  130.75
   4   1   6 1098.82  130.22
   4   1   6  979.08   91.55
  -4  -1  -6 1102.63  104.50
   4   1   7 1961.90  160.62
   4   1   7 1891.24  158.02
   4   1   7 1845.18  124.71
   4   1   7 1624.84   86.99
  -4  -1  -7 1918.67  126.95
   4   1   8 2833.40  190.68
   4   1   8 2823.78  184.83
   4   1   8 2499.09  119.11
   4   1   8 2706.80  156.54
  -4  -1  -8 2716.16  210.51
   4   1   910226.33  431.72
   4   1   910048.42  530.71
   4   1   9 8831.18  322.89
  -4  -1  -910182.71  368.22
   4   1  10    2.86   38.74
   4   1  10  -19.79   39.96
  -4  -1 -10   36.38   26.55
  -4  -1 -10    8.16   29.89
  -4  -1 -10  -10.42   25.78
   4   1  11  131.25   46.50
   4   1  11    1.84   59.43
  -4  -1 -11  156.15   34.52
  -4  -1 -11   90.67   37.94
  -4  -1 -11    1.64   30.11
   4   1  12  131.28   35.04
   4   1  12    1.12   32.01
  -4  -1 -12  150.30   34.21
  -4  -1 -12   67.92   33.92
   4   2 -15    2.87   23.05
  -4  -2  15   12.13   25.06
  -4  -2  15    8.92   27.44
   4   2 -14    4.44   50.50
  -4  -2  14    8.89   15.02
  -4  -2  14   17.06   32.88
   4   2 -13   17.58   38.25
  -4  -2  13   12.41   64.57
   4   2 -12 3503.04  192.96
   4   2 -12 3580.27  183.58
   4   2 -12 3381.84  174.97
  -4  -2  12 3483.30  196.41
   4   2 -11 2381.87  159.37
   4   2 -11 2405.86  154.15
   4   2 -11 2393.82  140.41
   4   2 -11 1939.52   93.96
  -4  -2  11 2429.05  166.57
   4   2 -1014616.70  576.57
   4   2 -1014095.00  532.72
   4   2 -1014893.40  594.40
   4   2 -1013126.23  454.54
  -4  -2  1014527.65  575.45
   4   2  -9  424.92   90.63
   4   2  -9  440.66   66.98
   4   2  -9  571.73   99.09
   4   2  -9  434.07   51.93
  -4  -2   9  468.58   85.70
   4   2  -8 1729.34  143.50
   4   2  -8 1511.69  100.51
   4   2  -8 1823.49  159.55
   4   2  -8 1660.06   91.71
  -4  -2   8 1615.09  128.45
   4   2  -7   23.17   47.90
   4   2  -7   15.58   27.10
   4   2  -7   16.53   53.84
   4   2  -7   35.09   28.95
  -4  -2   7   12.17   36.27
   4   2  -6 5043.00  348.93
   4   2  -6 5352.30  268.46
   4   2  -6 4762.57  249.08
  -4  -2   6 5006.46  204.20
   4   2  -5 2720.78  255.64
   4   2  -5 2604.26  170.62
   4   2  -5 2432.49  191.90
  -4  -2   5   20.53   29.05
   4   2  -4 9129.91  371.31
   4   2  -4 8429.57  351.20
   4   2  -4 8867.63  324.68
  -4  -2   4    9.47   21.80
   4   2  -3 1594.38  125.14
   4   2  -3 1444.22  111.48
   4   2  -3 1463.45  105.79
  -4  -2   3  359.26   37.11
   4   2  -2 1302.72  116.93
   4   2  -2 1180.88   58.45
   4   2  -2 1388.78   95.66
   4   2  -2 1353.49  102.23
   4   2  -110952.11  414.18
   4   2  -110046.83  326.41
   4   2  -110279.15  357.20
   4   2  -110780.91  398.98
   4   2   0 3647.07  147.85
   4   2   0 3975.36  283.45
   4   2   0 3746.27  270.27
   4   2   1 2478.17  127.49
   4   2   1 2467.53  150.38
   4   2   1 2481.39  163.24
   4   2   2  484.73   72.60
   4   2   2  455.97   79.17
   4   2   2  532.89   91.87
   4   2   3  382.93   76.87
   4   2   3  329.07   73.19
   4   2   3  480.37   89.35
   4   2   4 1980.92  152.61
   4   2   4 2143.31  168.36
  -4  -2  -4   51.77   39.32
   4   2   5 3037.58  324.77
   4   2   5 3015.33  195.19
  -4  -2  -5 2930.72  143.15
   4   2   616142.50  674.25
   4   2   615757.35  631.68
   4   2   613238.38  471.65
   4   2   613974.95  479.75
  -4  -2  -614871.22  521.64
   4   2   7  478.44  110.91
   4   2   7  565.61  160.84
   4   2   7  458.41   52.55
  -4  -2  -7  433.79   55.80
   4   2   8  495.32  111.44
   4   2   8  600.70  103.66
   4   2   8  476.01   56.75
  -4  -2  -8  409.39   43.02
  -4  -2  -8  465.85   48.21
   4   2   9  193.39   71.19
   4   2   9  141.60   41.61
  -4  -2  -9  115.93   28.72
  -4  -2  -9   99.61   28.50
   4   2  10 1358.50  120.25
   4   2  10 1200.50   79.80
  -4  -2 -10 1045.82   59.40
  -4  -2 -10 1312.07   98.01
   4   2  11    4.87   29.67
   4   2  11    1.04   20.36
  -4  -2 -11    9.12   29.68
   4   2  12    0.96   15.95
  -4  -2 -12    0.65   20.21
   4   3 -14  213.75  104.80
  -4  -3  14   -2.68   21.08
  -4  -3  14  245.62   61.77
   4   3 -13   18.18   65.82
   4   3 -13   11.81   32.52
  -4  -3  13   -2.67   32.93
   4   3 -12    2.15   41.20
   4   3 -12    9.25   28.47
   4   3 -12   17.83   38.93
  -4  -3  12   23.42   45.16
   4   3 -11   29.31   46.88
   4   3 -11   12.71   30.05
   4   3 -11   28.05   48.10
  -4  -3  11    6.04   39.19
   4   3 -10 1566.88  137.48
   4   3 -10 1330.59   90.19
   4   3 -10 1559.99  147.45
  -4  -3  10 1551.65  134.69
   4   3  -9   -1.27   37.20
   4   3  -9   -8.76   19.96
   4   3  -9   28.54   41.66
  -4  -3   9  -31.70   47.11
   4   3  -8 1326.76  131.68
   4   3  -8 1366.63  149.46
  -4  -3   8   -5.85   36.07
   4   3  -7   73.43   94.64
   4   3  -7   99.60   66.32
   4   3  -7   72.87   29.30
   4   3  -613167.16  653.99
   4   3  -612929.24  533.07
   4   3  -611338.70  393.70
   4   3  -5  794.38  101.15
   4   3  -5  663.83  102.78
   4   3  -5  739.41   63.85
   4   3  -4 3839.32  201.34
   4   3  -4 3856.23  196.41
   4   3  -4 3620.59  153.25
   4   3  -3 4045.87  201.23
   4   3  -3 3855.06  185.66
   4   3  -3 3914.65  164.10
   4   3  -2 6531.82  271.05
   4   3  -2 5985.55  237.35
   4   3  -2 6344.01  325.87
   4   3  -1 3770.40  257.40
   4   3  -1 3434.00  144.00
   4   3  -1 3429.94  168.03
   4   3  -1 3844.32  179.88
   4   3   0 3056.47  181.65
   4   3   0 3395.36  172.53
   4   3   0 3370.53  173.70
   4   3   1 3813.37  227.22
   4   3   1 3726.21  182.19
   4   3   1 3968.73  199.89
   4   3   2 4836.05  294.51
   4   3   2 5193.13  251.43
   4   3   2 4802.84  217.06
   4   3   3   33.99   78.20
   4   3   3   32.45   88.50
   4   3   4 4341.68  256.61
   4   3   4 4507.57  338.33
  -4  -3  -4 3970.67  153.03
   4   3   5  633.78  112.29
   4   3   5  571.21  105.89
  -4  -3  -5  384.71   42.55
   4   3   6 2172.38  170.79
   4   3   6 2024.77  167.88
   4   3   6 1677.92   91.35
   4   3   7  650.31  113.42
   4   3   7  701.49  105.23
   4   3   7  522.49   57.62
   4   3   8 1713.34  146.75
   4   3   8 1330.33   84.41
   4   3   9 1224.07  120.80
   4   3   9  910.65   71.17
  -4  -3  -9 1303.59  108.33
   4   3  10  128.58   67.43
   4   3  10   -0.26   23.82
  -4  -3 -10  102.08   47.60
   4   3  11  150.84   42.99
   4   3  11    2.80   41.35
  -4  -3 -11  355.48   57.43
   4   4 -14  563.55   76.02
  -4  -4  14  430.57   62.89
   4   4 -13 1541.93  193.10
   4   4 -13 1414.94  107.97
  -4  -4  13 1302.04  105.37
   4   4 -12  601.08  143.83
   4   4 -12  656.57   93.55
  -4  -4  12  687.73   89.16
   4   4 -11 1301.52  188.50
   4   4 -11 1356.75  132.90
  -4  -4  11 1347.30  121.18
   4   4 -10 3858.75  302.79
   4   4 -10 4079.94  238.66
  -4  -4  10 3828.82  203.23
   4   4  -9  256.62  116.16
   4   4  -9  256.20   88.29
  -4  -4   9    0.03   29.12
   4   4  -8   42.93  119.34
   4   4  -8  317.41   85.81
   4   4  -7  199.30   69.20
   4   4  -7  216.19  129.68
   4   4  -6  986.78   97.55
   4   4  -6 1070.10  107.79
   4   4  -6 1075.94  191.05
   4   4  -5 9172.01  342.53
   4   4  -5 9158.41  367.22
   4   4  -5 9084.17  493.37
   4   4  -4  691.98   64.65
   4   4  -4  729.64   84.83
   4   4  -4  730.26   89.31
   4   4  -3   28.91   26.42
   4   4  -3  -41.46   25.05
   4   4  -3    6.90   18.47
   4   4  -2   10.51   51.72
   4   4  -2   36.98   26.49
   4   4  -2   -6.64   26.55
   4   4  -1 3880.08  179.27
   4   4  -1 3987.20  170.02
   4   4   010252.00  355.83
   4   4   0 9710.90  359.43
   4   4   010834.49  392.36
   4   4   1  -74.44   46.82
   4   4   1    6.67   24.67
   4   4   1    6.41   20.39
   4   4   2 1044.02  108.28
   4   4   2 1261.86   98.55
   4   4   3  269.27   79.20
   4   4   3  517.51   75.69
   4   4   4   28.72   48.10
   4   4   4   36.74   47.74
   4   4   5 1608.71  144.52
   4   4   5 1638.18  141.41
   4   4   6 2778.82  178.94
   4   4   6 2291.32  106.78
   4   4   7  104.69   57.78
   4   4   7   52.11   28.74
  -4  -4  -7  -36.33   38.25
   4   4   8   43.72   63.80
   4   4   8   -0.55   19.82
  -4  -4  -8   21.76   35.01
   4   4   9  216.65   48.99
   4   4   9    1.37   25.11
  -4  -4  -9  136.96   47.03
   4   4  10   19.06   34.66
  -4  -4 -10   12.23   27.05
   4   5 -12  227.49   55.81
  -4  -5  12  171.13   55.55
   4   5 -11  440.50   65.65
   4   5 -11  247.87   82.62
  -4  -5  11  219.46   63.53
   4   5 -10 3098.00  165.87
   4   5 -10 3333.04  201.70
  -4  -5  10 3107.80  170.79
   4   5  -9  115.35   51.40
   4   5  -9  143.33   67.62
  -4  -5   9  -27.25   40.67
   4   5  -8    0.61   33.40
   4   5  -8   30.61   44.51
   4   5  -7  423.52   65.46
   4   5  -6 4882.46  210.69
   4   5  -6 4499.43  196.95
   4   5  -5   33.38   30.26
   4   5  -5   -0.41   29.59
   4   5  -5   19.70   38.70
   4   5  -4 1076.05   74.54
   4   5  -4 1059.81   77.61
   4   5  -4 1077.79   90.61
   4   5  -3  352.84   52.38
   4   5   1 1645.47   92.00
   4   5   2   35.56   35.98
   4   5   2  168.05   61.95
   4   5   3  227.41   56.49
   4   5   3  603.59  100.20
   4   5   4 1623.45  182.49
   4   5   5  755.57   90.71
  -4  -5  -5  782.90   60.39
   4   5   6  558.07   45.32
   4   5   6  769.28   86.26
  -4  -5  -6  805.88   61.54
   4   5   7  144.24   42.49
   4   5   7    0.41   20.21
  -4  -5  -7  105.82   33.83
   4   5   8   70.17   46.62
  -4  -5  -8   33.57   24.92
   4   6 -11   95.20   50.28
  -4  -6  11   57.76   38.50
   4   6 -10    6.56   17.86
   4   6 -10   12.99   36.67
  -4  -6  10  -21.90   34.03
   4   6  -9   93.80   28.33
   4   6  -9  154.07   56.04
  -4  -6   9  -22.90   34.13
   4   6  -8  599.87   50.65
   4   6  -8  884.27   88.61
   4   6  -7  -51.33   44.43
   4   6  -6 3351.63  151.24
   4   6  -6 3241.22  163.00
   4   6  -5 3576.29  151.55
   4   6  -5 3636.11  163.45
   4   6  -4   -4.44   20.63
   4   6   2  618.34   50.52
   4   6   3  937.92   67.73
   4   6   4  885.26   71.73
   4   6   5   16.06   28.75
   4   6   6   13.88   27.37
   4   7  -8   -1.89   19.09
   4   7  -7    5.99   19.90
   4   7  -6   26.50   19.32
   5  -6  -5   -4.84   16.88
  -5   6   5   41.26   27.73
  -5   6   5   31.85   28.08
   5  -6  -4  482.61   54.03
  -5   6   4  533.99   57.86
  -5   6   4  421.57   46.19
  -5   6   4  501.84   49.92
   5  -6  -3  108.83   41.87
  -5   6   3   55.84   37.92
  -5   6   3   62.37   34.99
   5  -6  -2  613.16   73.60
  -5   6   2  702.19   72.79
  -5   6   2  553.79   72.63
   5  -6  -1   63.84   43.57
  -5   6   1  -17.58   32.94
  -5   6   1   -5.10   34.59
   5  -6   0   -7.94   33.47
  -5   6   0  -10.36   32.91
  -5   6   0   -8.27   35.65
  -5   6  -1   93.52   49.39
  -5   6  -1  134.86   54.60
   5  -6   2  -17.03   36.31
  -5   6  -2   -8.66   50.06
  -5   6  -2   13.55   51.77
   5  -6   3  177.46   97.52
  -5   6  -3  145.65   53.21
  -5   6  -3  130.03   92.05
   5  -6   4   -2.29   27.35
  -5   6  -4    9.81   31.54
  -5   6  -4    8.03   31.46
   5  -6   5   49.69   34.57
  -5   6  -5   45.52   37.30
  -5   6  -5   27.96   33.00
  -5   6  -6  158.83   46.62
   5  -5  -8   75.95   38.32
  -5   5   8   96.41   61.44
  -5   5   8  157.75   44.70
   5  -5  -7  839.34   79.03
  -5   5   7  834.89  118.98
  -5   5   7  921.54   80.63
   5  -5  -6   21.55   28.79
   5  -5  -6   -2.67   15.93
  -5   5   6   21.53   59.94
  -5   5   6   38.75   24.91
  -5   5   6   21.34   35.24
   5  -5  -5  765.19   62.28
   5  -5  -5  904.77   87.09
  -5   5   5  882.52  137.62
  -5   5   5  813.86   71.49
  -5   5   5  876.10   76.15
   5  -5  -4   20.95   29.95
   5  -5  -4   25.21   38.35
  -5   5   4   19.47   63.30
  -5   5   4   15.68   34.35
  -5   5   4   21.44   29.19
   5  -5  -3  196.62   53.14
   5  -5  -3  223.42   60.79
  -5   5   3  225.29  108.13
  -5   5   3  193.88   64.07
  -5   5   3  275.01   43.15
   5  -5  -2  610.46   79.60
   5  -5  -2  658.60   84.97
  -5   5   2  626.78   87.19
  -5   5   2  649.48   88.14
  -5   5   2  542.01   52.33
   5  -5  -1 1909.18  131.62
   5  -5  -1 1899.39  132.00
  -5   5   1 2146.84  143.73
  -5   5   1 1984.22  150.41
   5  -5   0 3208.01  176.00
   5  -5   0 3229.40  170.46
  -5   5   0 3289.50  180.97
  -5   5   0 3276.26  191.02
   5  -5   1   81.07   53.74
   5  -5   1   83.73   85.04
  -5   5  -1   64.39   50.47
  -5   5  -1   72.92   55.03
   5  -5   2   99.20   55.86
   5  -5   2  107.36   53.26
  -5   5  -2  167.54   59.65
  -5   5  -2  149.97   63.82
   5  -5   3  388.65  115.53
   5  -5   3  284.01   66.46
  -5   5  -3  438.59   76.18
  -5   5  -3  468.00   79.78
   5  -5   4    4.15   54.33
   5  -5   4   -2.54   27.75
  -5   5  -4  -12.35   65.41
  -5   5  -4   29.33   36.81
   5  -5   5 2156.65  134.21
   5  -5   5 1959.93  122.85
  -5   5  -5 2102.51  128.82
  -5   5  -5 2028.04  178.27
   5  -5   6  123.73   47.07
   5  -5   6  108.34   73.66
  -5   5  -6  108.77   45.72
  -5   5  -6   89.19   34.60
   5  -5   7  457.55   58.14
   5  -5   7  539.53   60.84
  -5   5  -7  537.16   63.81
  -5   5  -8  558.61   92.06
   5  -4 -10  637.43  115.22
  -5   4  10  614.61   61.71
  -5   4  10  720.85  120.64
   5  -4  -9   88.15   44.50
   5  -4  -9   65.64   31.58
  -5   4   9   50.89   39.28
  -5   4   9   76.83   43.25
   5  -4  -8  301.87   70.24
   5  -4  -8  416.73   49.17
  -5   4   8  439.71   68.18
  -5   4   8  381.34   61.11
  -5   4   8  415.47   69.59
   5  -4  -7 1671.99  120.28
   5  -4  -7 1499.57   85.39
  -5   4   7 1647.90  116.71
  -5   4   7 1334.62  128.32
  -5   4   7 1652.94  113.19
   5  -4  -6  668.92   47.75
   5  -4  -6  880.72  146.99
   5  -4  -6  648.36   57.81
  -5   4   6  885.81   93.89
  -5   4   6  718.90   77.88
  -5   4   6  802.50   82.13
   5  -4  -5 1203.14   74.96
   5  -4  -5 1484.47  183.16
   5  -4  -5 1143.79  103.98
  -5   4   5 1435.09  121.46
  -5   4   5 1427.34  108.54
  -5   4   5 1458.77   98.82
   5  -4  -4   43.26   31.98
   5  -4  -4   63.84   85.43
   5  -4  -4   24.23   41.91
  -5   4   4   75.55   47.40
  -5   4   4   20.11   46.27
  -5   4   4   19.37   53.58
   5  -4  -3   93.67   45.11
   5  -4  -3  172.31   64.14
  -5   4   3  147.94   60.22
  -5   4   3  131.85   61.22
  -5   4   3  116.33   62.03
   5  -4  -2  134.41   54.22
   5  -4  -2  195.63   70.49
  -5   4   2  162.78   59.68
  -5   4   2  150.62   63.27
  -5   4   2   89.74   31.34
   5  -4  -1 1065.16  122.87
   5  -4  -1 1032.49  101.71
  -5   4   1 1035.17  177.13
  -5   4   1 1068.92  119.14
   5  -4   0  976.62  104.18
   5  -4   0  991.96  122.78
  -5   4   0 1004.88  107.58
  -5   4   0 1033.58  188.45
   5  -4   1 3667.77  197.31
   5  -4   1 3761.08  213.00
  -5   4  -1 3818.34  200.78
  -5   4  -1 4024.59  316.79
   5  -4   2   39.22   46.84
   5  -4   2   -9.61   81.45
  -5   4  -2   55.12   48.52
  -5   4  -2   59.47   51.05
   5  -4   3  328.61  121.61
   5  -4   3  296.31   82.04
  -5   4  -3  282.18   64.85
  -5   4  -3  304.34   68.78
   5  -4   4 1876.43  150.12
   5  -4   4 1869.79  150.52
  -5   4  -4 1901.66  182.73
  -5   4  -4 1829.01  119.61
   5  -4   5 6087.70  282.64
   5  -4   5 6176.10  288.08
  -5   4  -5 5859.49  228.29
  -5   4  -5 4704.79  168.04
  -5   4  -5 5423.24  213.45
   5  -4   6   91.35   53.78
   5  -4   6   98.63   59.24
  -5   4  -6  130.48   37.75
  -5   4  -6   73.73   45.05
  -5   4  -6   -0.37   25.55
   5  -4   7   66.76   45.10
   5  -4   7   87.62   54.52
  -5   4  -7   75.92   35.68
  -5   4  -7   74.58   28.63
   5  -4   8 2101.37  168.43
   5  -4   8 2226.25  141.66
  -5   4  -8 2154.37  136.69
  -5   4  -8 2022.81  125.90
   5  -4   9    6.08   31.92
  -5   4  -9    4.87   18.03
   5  -3 -11 2569.18  137.82
   5  -3 -11 2564.60  130.39
  -5   3  11 2493.98  125.22
  -5   3  11 2532.17  136.41
   5  -3 -10   59.09   43.45
   5  -3 -10   32.74   39.52
  -5   3  10   47.30   35.17
  -5   3  10  -13.96   37.84
   5  -3  -9   34.78   43.86
   5  -3  -9   28.67   38.20
  -5   3   9   39.17   41.27
  -5   3   9   19.50   24.54
  -5   3   9   62.59   41.54
   5  -3  -8   88.48   54.59
   5  -3  -8   88.00   46.56
  -5   3   8   46.16   44.64
  -5   3   8   19.62   32.25
  -5   3   8   51.21   42.19
   5  -3  -7 2540.27  164.13
   5  -3  -7 2601.35  143.03
  -5   3   7 2784.56  162.93
  -5   3   7 2430.73  141.70
  -5   3   7 2634.52  149.90
   5  -3  -6    0.75   46.01
   5  -3  -6   29.83   34.77
  -5   3   6  -23.16   40.37
  -5   3   6    3.43   37.08
  -5   3   6   42.33   33.03
   5  -3  -5 5237.86  187.83
   5  -3  -5 6459.86  285.43
   5  -3  -5 6241.91  242.29
  -5   3   5 6547.44  289.13
  -5   3   5 6590.12  287.05
  -5   3   5 6399.38  248.02
   5  -3  -4  798.86   65.95
   5  -3  -4  796.50  170.68
   5  -3  -4  949.55  120.51
  -5   3   4  943.26  104.53
  -5   3   4 1030.16  111.68
  -5   3   4  878.19   73.41
   5  -3  -3 1297.47   91.04
   5  -3  -3 1628.84  221.16
   5  -3  -3 1460.84  145.99
  -5   3   3 1530.54  118.74
  -5   3   3 1416.99  132.51
  -5   3   3 1253.09   76.24
   5  -3  -2  201.42   55.10
   5  -3  -2  277.03   85.64
   5  -3  -2  214.15   48.39
  -5   3   2  222.84   68.96
  -5   3   2  299.15   79.91
   5  -3  -1 8875.70  340.11
   5  -3  -1 8337.74  301.00
  -5   3   1 9222.72  368.01
  -5   3   1 9603.07  399.20
   5  -3   0  916.51   63.63
   5  -3   0  -27.86   31.05
  -5   3   0  907.00  148.53
  -5   3   0  876.90  108.78
   5  -3   1 7927.40  336.64
   5  -3   1 8394.27  384.16
  -5   3  -1 8170.61  330.18
  -5   3  -1 8216.91  309.74
  -5   3  -1 6694.43  241.06
   5  -3   2  309.93  127.50
   5  -3   2  335.23   92.05
  -5   3  -2  283.03   64.52
  -5   3  -2  189.41   57.53
  -5   3  -2  220.86   43.87
   5  -3   3   40.83   84.32
   5  -3   3   14.87   55.10
  -5   3  -3   31.82   31.84
  -5   3  -3    2.64   28.02
  -5   3  -3   21.15   58.49
   5  -3   4  216.31   79.82
   5  -3   4  218.70   83.26
  -5   3  -4  218.07   42.69
  -5   3  -4   -0.04   43.80
  -5   3  -4  118.55   43.81
   5  -3   5   20.94   45.51
   5  -3   5    7.54   50.29
  -5   3  -5    2.99   29.81
  -5   3  -5    1.33   54.14
  -5   3  -5   37.97   25.80
   5  -3   6  261.87   85.49
  -5   3  -6  223.23   40.68
  -5   3  -6  143.21   49.09
   5  -3   7  249.17   66.48
   5  -3   7  258.32  134.28
  -5   3  -7  178.61   35.43
  -5   3  -7  165.91   51.29
   5  -3   8   64.74   86.80
   5  -3   8  162.21   66.92
  -5   3  -8   83.81   43.85
   5  -3   9 2655.50  134.12
   5  -3   9 2915.19  174.69
  -5   3  -9 2828.18  135.68
   5  -3  10   95.14   55.40
  -5   3 -10   66.94   60.16
   5  -2 -12 1921.99  109.39
   5  -2 -12 2001.29  119.80
  -5   2  12 1902.43  170.29
  -5   2  12 1959.78  121.30
   5  -2 -11   33.75   38.30
   5  -2 -11   28.09   40.96
  -5   2  11    8.45   35.43
  -5   2  11   32.01   38.23
   5  -2 -10 4798.06  216.02
   5  -2 -10 4844.62  226.16
  -5   2  10 4602.42  205.38
  -5   2  10 4045.66  155.76
  -5   2  10 4672.15  214.88
   5  -2  -9 1263.66  111.77
   5  -2  -9 1328.47  116.97
  -5   2   9 1253.11  108.26
  -5   2   9 1286.34  134.93
  -5   2   9 1231.95  177.41
   5  -2  -8   45.15   40.76
   5  -2  -8  -10.20   42.31
  -5   2   8  -25.15   30.37
  -5   2   8   34.77   45.38
  -5   2   8   32.88   50.60
   5  -2  -7 1690.27  132.33
   5  -2  -7 1625.14  129.37
  -5   2   7 1635.35  122.78
  -5   2   7 1578.56  187.69
  -5   2   7 1618.73  171.81
   5  -2  -6 1363.55  122.30
   5  -2  -6 1409.43  118.87
  -5   2   6 1344.60  174.75
  -5   2   6 1283.95  125.50
  -5   2   6 1325.27  156.65
   5  -2  -5 2029.33  146.32
   5  -2  -5 2010.95  138.24
  -5   2   5 2195.40  215.39
  -5   2   5 2108.98  156.95
  -5   2   5 2160.86  169.66
   5  -2  -4   28.67   24.97
   5  -2  -4   59.74   48.07
   5  -2  -4   42.90   42.73
  -5   2   4   24.91   47.06
  -5   2   4   87.67   55.52
  -5   2   4   64.32   31.28
   5  -2  -3  105.77   32.79
   5  -2  -3   39.72   34.30
   5  -2  -3   98.85   92.24
   5  -2  -3   39.46   76.78
  -5   2   3   89.99   49.10
  -5   2   3  158.11  102.78
  -5   2   3   84.73   28.24
   5  -2  -2   -1.72   26.63
   5  -2  -2   36.00   43.13
   5  -2  -2  -39.85   34.59
   5  -2  -2   -9.78   25.68
  -5   2   2   41.50   38.57
  -5   2   2   -6.00   85.85
   5  -2  -1  858.47   84.54
   5  -2  -1  915.61   83.51
   5  -2  -1 1016.59   90.39
  -5   2   1  985.03   85.89
  -5   2   1  949.74  114.93
   5  -2   0  928.04  148.98
   5  -2   0  989.47   87.98
  -5   2   0  984.27   81.85
  -5   2   0 1033.97  107.57
   5  -2   1  875.43  166.54
   5  -2   1  781.18  112.41
   5  -2   1  768.84   77.72
  -5   2  -1  898.78   93.16
  -5   2  -1  962.09  115.54
   5  -2   2  145.59   68.21
   5  -2   2  165.86  114.91
   5  -2   2   99.56   74.92
  -5   2  -2  183.20   48.31
  -5   2  -2  106.68   39.43
  -5   2  -2  140.28   55.07
   5  -2   3    5.70   44.05
   5  -2   3   -7.86   25.91
  -5   2  -3   -0.59   27.25
  -5   2  -3   -8.37   23.14
  -5   2  -3  -39.90   36.59
   5  -2   4 4343.30  238.68
   5  -2   4 4423.03  248.13
   5  -2   4 3656.72  162.15
  -5   2  -4 3432.19  133.17
  -5   2  -4 3895.83  194.36
  -5   2  -4 3535.32  186.15
   5  -2   513449.61  554.03
   5  -2   513193.10  569.96
  -5   2  -512478.18  489.39
   5  -2   6  -58.87   47.10
   5  -2   6   33.17   53.77
  -5   2  -6   -0.80   31.95
   5  -2   7 2756.56  301.55
  -5   2  -7 3065.05  253.10
   5  -2   8  841.62   99.08
   5  -2   8  883.96  120.09
  -5   2  -8  844.37   95.38
   5  -2   9   76.55   44.64
   5  -2   9   44.95   58.39
  -5   2  -9   57.16   45.61
   5  -2  10   -6.48   41.39
   5  -2  10  -11.72   27.18
  -5   2 -10   15.65   34.84
  -5   2 -11   86.19   70.02
   5  -1 -13   33.27   24.15
   5  -1 -13   61.81   34.05
  -5   1  13   34.43   34.03
  -5   1  13   44.19   37.20
   5  -1 -12  124.72   38.68
   5  -1 -12  133.89   49.64
  -5   1  12  119.41   40.64
  -5   1  12   38.54   17.52
  -5   1  12  154.77   74.54
   5  -1 -11  405.99   57.51
   5  -1 -11  349.54   72.15
  -5   1  11  425.27   64.52
  -5   1  11  122.01   69.55
  -5   1  11  458.02   70.63
   5  -1 -10 1193.22   92.21
   5  -1 -10 1230.62  113.79
  -5   1  10 1262.36  100.00
  -5   1  10 1060.51   84.05
  -5   1  10 1261.44  109.18
   5  -1  -9   37.00   40.37
   5  -1  -9   54.75   48.13
  -5   1   9   90.79   43.48
  -5   1   9   10.44   40.50
  -5   1   9   42.74   45.80
   5  -1  -8  124.69   58.14
   5  -1  -8  136.72   53.10
   5  -1  -8  162.71   64.29
  -5   1   8  134.57   52.92
  -5   1   8  129.26   56.28
  -5   1   8  122.62   53.05
   5  -1  -711479.16  501.35
   5  -1  -713577.31  498.20
   5  -1  -713862.16  535.60
  -5   1   714086.70  509.22
  -5   1   713412.47  523.07
  -5   1   713526.30  492.87
   5  -1  -6   12.61   50.73
   5  -1  -6   19.03   36.77
   5  -1  -6   18.18   45.15
  -5   1   6  -11.79   25.65
  -5   1   6   23.43   33.49
  -5   1   6   -0.71   23.30
   5  -1  -5 9436.13  364.19
   5  -1  -5 9681.48  392.96
   5  -1  -5 9461.83  444.96
  -5   1   5 9560.91  344.36
  -5   1   5 9739.62  394.86
  -5   1   5 8938.10  313.94
   5  -1  -4 3745.42  182.97
   5  -1  -4 3542.72  184.59
   5  -1  -4 3836.37  200.37
  -5   1   4 3923.48  226.76
  -5   1   4 4023.90  210.81
  -5   1   4 3477.11  135.75
   5  -1  -313312.30  510.00
   5  -1  -314368.27  652.65
   5  -1  -313301.43  527.71
   5  -1  -315031.41  712.78
  -5   1   314043.58  486.44
  -5   1   314452.26  556.82
   5  -1  -2 4653.66  185.82
   5  -1  -2 4672.60  229.23
   5  -1  -2 4848.76  240.94
   5  -1  -2 5023.30  244.20
  -5   1   2 4809.84  184.05
  -5   1   2 5040.14  236.32
   5  -1  -1 8490.83  362.67
   5  -1  -1 8726.92  325.55
   5  -1  -1 8797.57  366.08
   5  -1  -1 9000.80  369.74
  -5   1   1 8487.92  286.76
  -5   1   1 8815.72  343.06
   5  -1   0 1338.57  111.36
   5  -1   0 1520.33  133.66
   5  -1   0 1424.19  130.38
   5  -1   0 1425.41  125.04
  -5   1   0 1366.49   72.85
  -5   1   0 1529.41  165.66
   5  -1   114760.29  561.00
   5  -1   114836.67  572.02
   5  -1   114659.02  593.20
   5  -1   114271.82  551.13
  -5   1  -114372.72  494.78
  -5   1  -112395.95  447.91
   5  -1   2 1640.26  136.20
   5  -1   2 1741.77  223.96
   5  -1   2 1653.54  204.22
  -5   1  -2 1554.66   90.67
   5  -1   3  584.49   98.24
   5  -1   3  614.77  100.85
   5  -1   3  626.02   88.75
  -5   1  -3  488.50   46.94
  -5   1  -3  532.18   90.35
   5  -1   4 3360.66  202.01
   5  -1   4 3324.12  176.94
  -5   1  -4 3378.35  198.94
   5  -1   5 6549.75  316.60
   5  -1   5 6903.02  323.44
   5  -1   5 6584.80  275.86
  -5   1  -5 6685.47  303.16
   5  -1   6  -10.15   29.41
   5  -1   6    0.58   66.74
   5  -1   6   18.40   70.49
  -5   1  -6    2.49   37.85
   5  -1   7 1537.94  108.53
   5  -1   7 2099.99  155.95
   5  -1   7 2101.38  154.85
  -5   1  -7 2102.28  153.97
   5  -1   8   63.35   34.18
   5  -1   8  138.34   58.49
   5  -1   8  121.38   61.95
  -5   1  -8   67.11   49.19
   5  -1   9  120.27   52.30
   5  -1   9   76.89   60.52
  -5   1  -9   66.32   48.11
   5  -1  10   60.11   40.44
  -5   1 -10   30.97   38.15
  -5   1 -11   19.48   30.61
  -5   1 -11   37.54   52.41
   5   0 -13  -34.64   47.67
  -5   0  13   34.34   29.22
  -5   0  13   -7.55   33.82
   5   0 -12 1434.50   71.09
   5   0 -12 1868.33  103.89
  -5   0  12 1899.27  107.66
  -5   0  12 1582.24   80.26
  -5   0  12 1803.20  124.88
   5   0 -11   34.05   27.63
   5   0 -11   13.80   24.47
   5   0 -11   66.61   38.33
  -5   0  11   29.17   32.55
  -5   0  11   -3.20   27.94
  -5   0  11   33.07   39.39
   5   0 -10 3318.08  152.32
   5   0 -10 3101.14  134.73
   5   0 -10 3652.28  177.02
  -5   0  10 3540.21  163.78
  -5   0  10 3313.92  164.48
  -5   0  10 3604.40  183.13
   5   0  -9  391.70   65.29
   5   0  -9  401.66   52.01
   5   0  -9  450.07   76.13
  -5   0   9  487.43   61.91
  -5   0   9  283.24   71.81
  -5   0   9  275.77   70.80
   5   0  -8  230.63   57.72
   5   0  -8  128.69   43.09
   5   0  -8  225.12   64.72
  -5   0   8  165.50   46.85
  -5   0   8  135.48   61.90
  -5   0   8  105.79   52.12
   5   0  -7  748.15   93.06
   5   0  -7  731.07   67.73
   5   0  -7  758.73   98.60
  -5   0   7  920.54   76.40
  -5   0   7  771.53  105.23
  -5   0   7  886.48   81.74
   5   0  -6   16.36   48.29
   5   0  -6   63.18   32.88
   5   0  -6   42.75   50.18
  -5   0   6   36.57   28.16
  -5   0   6    9.76   46.90
  -5   0   6    1.85   29.45
   5   0  -5  142.32   65.81
   5   0  -5  196.22   43.62
   5   0  -5  168.82  112.24
  -5   0   5  115.73   36.50
  -5   0   5  160.98   64.78
  -5   0   5  119.55   36.33
   5   0  -4  233.42   72.37
   5   0  -4  246.14   80.70
  -5   0   4  193.40   36.47
  -5   0   4  255.61   71.41
  -5   0   4  154.26   31.52
   5   0  -3   30.95   33.86
   5   0  -3   37.54   82.84
   5   0  -3   24.47   52.19
  -5   0   3    1.28   28.16
  -5   0   3   -6.75   33.81
   5   0  -2    3.83   19.53
   5   0  -2    3.12   39.39
   5   0  -2    7.43   39.17
   5   0  -2  -20.82   25.79
  -5   0   2   10.51   36.99
   5   0  -1  421.89   54.71
   5   0  -1  429.51   61.82
   5   0  -1  366.52   92.81
   5   0  -1  415.29   88.95
  -5   0   1  475.50   69.19
   5   0   0  464.98  103.12
   5   0   0  556.84   68.09
   5   0   0  558.63   96.39
  -5   0   0  416.76   59.84
   5   0   1 2792.90  159.57
   5   0   1 2901.51  209.76
   5   0   1 4540.12  315.29
   5   0   1 2928.12  225.11
  -5   0  -1 2784.41  119.05
   5   0   2  884.97  101.63
   5   0   2  820.54  128.54
   5   0   2  889.58   91.26
   5   0   2  946.56  120.11
   5   0   3  244.69   76.35
   5   0   3  324.73   66.37
   5   0   3  281.65   82.60
  -5   0  -3    5.93   42.56
   5   0   4 1134.46  198.75
   5   0   4 1182.75  111.55
   5   0   4 1322.61  130.17
  -5   0  -4 1319.41  134.31
   5   0   5 3980.31  241.67
   5   0   5 4167.33  294.78
   5   0   5 4129.18  221.84
  -5   0  -5 4012.11  223.40
   5   0   6   83.86   60.01
   5   0   6  145.22   67.71
   5   0   6   90.91   56.48
  -5   0  -6  125.82   63.16
   5   0   7 2712.69  171.86
   5   0   7 2894.61  193.69
   5   0   7 2852.44  169.59
  -5   0  -7 2982.47  177.46
   5   0   8  815.73   88.35
   5   0   8  885.43  108.01
   5   0   8  783.52   95.32
  -5   0  -8 1125.61  164.10
   5   0   9  185.70   62.17
   5   0   9  162.88   57.78
  -5   0  -9  140.42   51.15
   5   0  10  224.23   60.17
  -5   0 -10  -16.50   33.50
  -5   0 -10   64.64   25.21
  -5   0 -10  179.45   39.51
   5   0  11  395.02   54.83
  -5   0 -11  371.60   43.31
  -5   0 -11  166.98   74.54
   5   1 -13   -5.27   17.76
  -5  -1  13   -6.62   15.08
  -5  -1  13   20.57   21.34
  -5  -1  13  -30.26   28.88
   5   1 -12 1757.31  106.49
   5   1 -12 1837.24  139.99
  -5  -1  12 1662.72   95.13
  -5  -1  12 1899.46   98.44
  -5  -1  12 1907.36  125.72
   5   1 -11  174.91   53.19
   5   1 -11  139.16   69.75
  -5  -1  11  104.88   37.25
  -5  -1  11  106.37   50.43
  -5  -1  11   58.56   43.05
   5   1 -10 6183.47  271.09
   5   1 -10 5812.47  303.09
  -5  -1  10 5640.73  211.59
  -5  -1  10 6059.14  254.44
  -5  -1  10 5985.71  248.26
   5   1  -9  296.82   74.58
   5   1  -9  305.92  100.45
  -5  -1   9  382.47   46.27
  -5  -1   9  323.19  105.10
  -5  -1   9   -4.02   68.55
   5   1  -8  246.19   75.41
   5   1  -8  219.34   99.47
  -5  -1   8  230.38   41.90
  -5  -1   8  240.63   93.98
   5   1  -7 9555.22  410.88
   5   1  -7 8908.43  457.47
  -5  -1   7 8318.54  277.77
  -5  -1   7 8762.82  392.20
   5   1  -6  562.32   99.64
   5   1  -6  517.84  146.93
  -5  -1   6  513.36   45.24
  -5  -1   6  514.67   91.25
   5   1  -5 7311.08  347.64
   5   1  -5 7492.63  330.52
  -5  -1   5 6437.15  262.30
   5   1  -4 4550.29  254.84
   5   1  -4 4692.06  245.75
  -5  -1   4  -32.17   45.02
   5   1  -313518.23  566.76
   5   1  -314091.79  564.45
  -5  -1   312346.22  455.09
   5   1  -2 4392.70  378.72
   5   1  -2 4511.11  243.73
  -5  -1   2 4372.44  191.70
   5   1  -1 5789.85  267.90
   5   1  -1 6185.65  309.63
   5   1  -1 6076.89  291.22
   5   1  -1 5137.92  235.91
  -5  -1   1 5900.67  221.96
   5   1   0 1108.76  128.87
   5   1   0 1140.18  134.63
   5   1   0  966.79   70.95
  -5  -1   0 1096.56   71.73
   5   1   1 4671.83  210.17
   5   1   1 4820.98  270.68
   5   1   1 5062.35  272.18
   5   1   1 4390.75  176.14
   5   1   2 1182.30  108.64
   5   1   2 1239.57  139.00
   5   1   2 1040.51   76.65
   5   1   2 1219.01  139.56
   5   1   3   23.98   46.03
   5   1   3   33.15   29.48
   5   1   3  -17.30   56.51
   5   1   4 7561.71  343.18
   5   1   4 8152.01  377.49
   5   1   4 7073.34  338.90
  -5  -1  -4 8311.88  353.19
   5   1   512013.24  663.87
   5   1   511821.76  497.81
   5   1   510738.14  397.60
  -5  -1  -512108.35  471.98
   5   1   6  231.14   94.12
   5   1   6  383.50   91.14
   5   1   6  415.74   56.21
  -5  -1  -6  245.51   65.62
   5   1   7  235.50   81.88
   5   1   7  276.73   81.76
   5   1   7  322.99   51.81
  -5  -1  -7  207.09   59.54
   5   1   8  187.52   69.27
   5   1   8  220.06  117.63
  -5  -1  -8  336.90   56.63
   5   1   9 1453.23  127.17
  -5  -1  -9 1197.63   65.43
  -5  -1  -9 1297.23   81.07
   5   1  10   49.85   43.82
  -5  -1 -10    1.60   19.68
  -5  -1 -10    0.78   17.51
   5   2 -13   24.23   33.99
  -5  -2  13   14.68   23.39
  -5  -2  13   35.14   34.34
   5   2 -12  180.69   52.58
   5   2 -12   93.20   22.23
  -5  -2  12  247.07   33.05
  -5  -2  12  103.38   47.87
  -5  -2  12  172.99   56.54
   5   2 -11  526.89   78.44
   5   2 -11  337.48   42.44
  -5  -2  11  350.47   36.52
  -5  -2  11   -8.83   58.62
  -5  -2  11  286.57  108.20
   5   2 -10   -1.83   42.12
   5   2 -10  -12.38   24.08
  -5  -2  10    7.72   18.17
  -5  -2  10    1.26   33.49
   5   2  -9   65.55   62.31
   5   2  -9   85.60   38.73
  -5  -2   9   40.02   21.35
  -5  -2   9   37.41   40.58
   5   2  -8  947.75  125.18
   5   2  -8  995.52  127.34
   5   2  -8  904.85   83.47
  -5  -2   8  875.81   81.40
   5   2  -7 8414.62  387.30
   5   2  -7 8094.04  391.10
   5   2  -7 8048.89  315.04
  -5  -2   7 7383.38  271.61
   5   2  -6  -20.66   43.02
   5   2  -6   -3.46   42.74
   5   2  -6    6.23   31.09
  -5  -2   6   25.35   27.32
   5   2  -5 4818.40  265.30
   5   2  -5 4626.98  253.49
   5   2  -5 4722.38  219.92
  -5  -2   5 3910.31  141.86
   5   2  -4   -3.78   47.29
   5   2  -4   14.78   36.86
   5   2  -3   45.68   44.09
   5   2  -3  -23.87   36.42
   5   2  -2  125.09  113.29
   5   2  -2   93.40   59.14
  -5  -2   2   21.22   29.99
   5   2  -1 3393.90  246.21
   5   2  -110290.54  469.71
  -5  -2   1 3169.77  128.02
   5   2   0 4362.33  181.34
   5   2   0 4782.28  259.05
   5   2   0 5125.14  265.87
   5   2   1 6346.91  257.78
   5   2   1 6942.35  330.53
   5   2   1 7003.30  332.81
   5   2   2  985.03   98.30
   5   2   2 1055.19  122.08
   5   2   2 1059.69  134.17
   5   2   3  -10.43   31.75
   5   2   3   14.52   42.21
  -5  -2  -3   19.72   40.17
   5   2   4  444.47  174.98
   5   2   4  490.64   89.40
  -5  -2  -4  511.38   75.14
   5   2   5   58.47   72.13
   5   2   5  120.68   62.05
  -5  -2  -5  171.36   50.35
   5   2   6   -3.46   46.41
   5   2   6   24.45   70.93
  -5  -2  -6   26.98   31.48
   5   2   7   69.48   62.63
   5   2   7   59.74   58.77
  -5  -2  -7   66.06   52.65
   5   2   8 2514.22  174.10
  -5  -2  -8 1827.19   83.25
   5   2   9  663.13   90.41
  -5  -2  -9  490.79   64.23
   5   2  10  -16.67   34.68
  -5  -2 -10   -5.19   23.54
   5   3 -13  168.96   51.84
  -5  -3  13   63.72   31.78
  -5  -3  13  115.91   39.67
   5   3 -12 2043.08  136.92
  -5  -3  12  -21.34   57.31
  -5  -3  12 2041.50  116.73
   5   3 -11  660.34   95.61
  -5  -3  11  619.00   76.78
   5   3 -10 4060.75  222.67
   5   3 -10 3916.52  226.41
  -5  -3  10 3715.34  173.04
   5   3  -9  103.81   61.75
   5   3  -9   57.17   65.34
  -5  -3   9   55.01   39.97
   5   3  -8   31.93   58.64
   5   3  -8   87.23   61.20
  -5  -3   8   51.28   36.51
   5   3  -7  619.06  104.32
   5   3  -7  699.88  105.63
   5   3  -7  568.42   57.15
  -5  -3   7  608.17   60.72
   5   3  -6 1769.23  146.94
   5   3  -6 1652.29  144.14
   5   3  -6 1425.69   92.98
  -5  -3   6 1328.86   75.88
   5   3  -5 3423.68  204.69
   5   3  -5 3278.86  190.96
   5   3  -5 2843.88  202.25
   5   3  -4  659.06  101.30
   5   3  -4  628.42   87.98
   5   3  -4  600.68  121.08
   5   3  -3  974.33  180.60
   5   3  -3  944.77   96.71
   5   3  -2  617.01  106.11
   5   3  -2  795.29   92.19
   5   3  -1 5908.81  291.00
   5   3  -1 6394.47  282.70
   5   3   0  578.00   91.94
   5   3   0  678.41   95.28
   5   3   1   39.81   32.17
   5   3   1   -1.35   43.01
   5   3   1   45.07   49.90
   5   3   2   19.77   34.16
   5   3   2    8.48   80.92
   5   3   3  588.35  106.24
   5   3   3  605.73   82.55
  -5  -3  -3  554.36   61.05
   5   3   4 3008.08  209.84
   5   3   4 3230.24  178.93
  -5  -3  -4 2835.19  124.45
   5   3   5 3346.15  220.90
   5   3   5 3305.54  188.91
  -5  -3  -5 2552.44  107.99
   5   3   6  107.09   63.48
   5   3   6   50.62   55.51
   5   3   7  719.42   98.64
   5   3   8  177.47   63.63
  -5  -3  -8  120.89   47.04
   5   3   9 1564.62  177.38
  -5  -3  -9 1527.70   94.89
   5   4 -12 3346.07  163.48
  -5  -4  12 3141.60  195.76
   5   4 -11  313.10   69.66
  -5  -4  11  359.33   56.49
   5   4 -10  964.05  101.21
   5   4 -10  920.43  112.04
  -5  -4  10  850.13   75.99
   5   4  -9  127.24   60.35
   5   4  -9  133.01   66.45
  -5  -4   9   67.52   36.64
   5   4  -8  282.10   80.13
   5   4  -8  542.44   86.79
  -5  -4   8  394.73   52.48
   5   4  -7 3472.90  195.16
   5   4  -7 3619.78  203.82
  -5  -4   7 2988.91  124.17
   5   4  -6  172.38   63.86
   5   4  -6  183.20   64.63
  -5  -4   6   73.17   26.09
   5   4  -5 2056.75  137.87
   5   4  -5 1920.52  133.12
   5   4  -4  156.99  115.48
   5   4  -4  359.57   60.36
   5   4  -3   -1.96   50.87
   5   4  -3  140.42   36.08
   5   4  -2   -1.01   32.11
   5   4  -2  -12.44   26.40
   5   4  -1 1414.01  104.13
   5   4  -1 1596.25  103.00
   5   4   0 1763.79  184.19
   5   4   0 1755.25  107.11
   5   4   1  951.18  102.36
   5   4   1  986.92   67.18
   5   4   2   58.86   46.42
   5   4   2   45.96   33.86
   5   4   3   37.85   51.15
   5   4   3  110.61   41.39
   5   4   4 1677.77  142.11
   5   4   4 1930.69  120.20
   5   4   5  603.80   90.69
   5   4   5  647.17   81.47
   5   4   6  275.47  106.85
   5   4   7 1093.81  150.40
  -5  -4  -7 1025.99   77.15
   5   5 -10   45.56   34.88
   5   5 -10   60.73   45.03
  -5  -5  10   21.73   24.99
   5   5  -9   82.16   39.71
   5   5  -9   68.67   50.85
  -5  -5   9   59.08   26.42
   5   5  -8 1288.19   92.73
   5   5  -8 1510.35  114.20
   5   5  -7  259.23   91.00
   5   5  -7  416.00   67.33
   5   5  -6  178.91   90.56
   5   5  -6  427.42   61.79
   5   5  -5   -1.84   39.79
   5   5  -5  195.27   40.55
   5   5  -4    0.13   18.99
   5   5  -3   -0.78   19.50
   5   5   1   55.72   28.50
   5   5   2   -7.64   17.89
   5   5   3   -3.54   19.76
   5   5   4    0.22   17.62
   5   5   5   69.31   31.85
   6  -5  -3    0.25   15.59
   6  -5  -3   12.90   42.35
  -6   5   3   29.58   32.41
  -6   5   3   17.71   32.95
   6  -5  -2   -3.89   22.13
   6  -5  -2   -0.42   47.91
  -6   5   2   16.26   31.89
  -6   5   2   17.08   33.55
   6  -5  -1 2044.58  111.81
   6  -5  -1 2103.58  128.19
  -6   5   1 2151.19  118.64
  -6   5   1 2263.11  130.50
   6  -5   0 1788.54  109.80
   6  -5   0 1691.65  118.08
  -6   5   0 1722.14  104.78
  -6   5   0 1839.17  117.40
   6  -5   1  767.33   79.20
   6  -5   1  663.98   80.32
  -6   5  -1  789.54  111.86
  -6   5  -1  704.25   79.63
   6  -5   2  402.01   62.00
   6  -5   2  217.14   58.54
  -6   5  -2  190.83   49.68
  -6   5  -2  334.87   53.62
   6  -5   3  156.00   47.78
   6  -5   3  103.71   44.31
  -6   5  -3  145.68   39.00
  -6   5  -3  126.86   66.84
   6  -4  -6   70.84   45.33
  -6   4   6   73.57   64.78
  -6   4   6   44.32   32.87
   6  -4  -5  429.89   73.75
  -6   4   5  232.69   93.77
  -6   4   5  218.37   92.56
   6  -4  -4  838.98   51.00
   6  -4  -4 1110.86  101.17
  -6   4   4 1192.47  148.41
  -6   4   4  949.02  159.89
   6  -4  -3  675.82   57.47
   6  -4  -3  736.93   93.38
  -6   4   3  721.14   80.12
  -6   4   3  725.94  148.01
   6  -4  -2    8.63   34.11
   6  -4  -2  101.16   48.19
  -6   4   2  120.26   48.83
  -6   4   2  139.35   97.47
   6  -4  -1  673.11   75.29
   6  -4  -1  742.90  152.78
  -6   4   1  664.28   76.09
  -6   4   1  704.31   90.50
   6  -4   0   81.42   48.62
   6  -4   0  121.47   97.45
  -6   4   0   99.86   43.16
  -6   4   0   97.10   52.71
   6  -4   1   48.92   39.28
   6  -4   1   -9.91   46.16
  -6   4  -1    7.39   24.84
  -6   4  -1  -16.91   30.30
   6  -4   2  183.48   59.45
   6  -4   2  164.49   65.61
  -6   4  -2  109.65   67.30
  -6   4  -2  146.63   48.27
   6  -4   3   48.67   46.66
   6  -4   3   56.95   50.40
  -6   4  -3   62.05   31.94
  -6   4  -3   44.80   34.23
   6  -4   4   21.76   37.37
   6  -4   4    6.15   39.77
  -6   4  -4   19.10   23.10
   6  -4   5 2956.35  152.14
   6  -4   5 2871.30  241.55
   6  -4   6 1604.65  164.64
   6  -4   6 1466.73  110.43
   6  -3  -8  470.42   68.55
   6  -3  -8  461.12   59.05
  -6   3   8  355.72   48.40
  -6   3   8  427.07   60.76
   6  -3  -7 1959.12  129.64
   6  -3  -7 1958.53  109.59
  -6   3   7 1786.37  109.04
  -6   3   7 2021.79  115.20
   6  -3  -6 2726.14  157.05
   6  -3  -6 2609.10  129.93
  -6   3   6 2658.91  145.89
  -6   3   6 2645.53  140.66
   6  -3  -5  277.12   73.80
   6  -3  -5  336.73   53.80
  -6   3   5  209.90   71.90
  -6   3   5  408.09   62.65
   6  -3  -4   -5.06   15.69
   6  -3  -4   15.69   36.18
   6  -3  -4   16.30   23.75
  -6   3   4    2.17   40.60
  -6   3   4  -23.70   33.20
   6  -3  -3   39.32   29.96
   6  -3  -3  124.41   54.97
   6  -3  -3   64.34   32.94
  -6   3   3   61.41   52.22
  -6   3   3   80.17   70.52
   6  -3  -2 1884.94  104.16
   6  -3  -2 1980.32  152.07
   6  -3  -2 1554.71   90.92
  -6   3   2 2098.47  145.19
  -6   3   2 2041.22  176.72
   6  -3  -1 1935.77  116.08
   6  -3  -1 1647.78  125.92
  -6   3   1 2008.26  140.26
  -6   3   1 2061.88  114.80
   6  -3   0   94.28   48.81
  -6   3   0  104.44   56.24
  -6   3   0  149.24   41.31
   6  -3   1  908.94   94.22
   6  -3   1  803.57  115.88
  -6   3  -1  755.69   65.58
  -6   3  -1  802.74  135.78
   6  -3   2  159.10   60.58
   6  -3   2  151.80   72.11
  -6   3  -2   66.03   30.20
  -6   3  -2   42.29   27.50
  -6   3  -2  123.42   40.14
   6  -3   3 2687.04  179.33
   6  -3   3 2463.67  159.05
  -6   3  -3 2138.85  126.93
  -6   3  -3 1650.45  126.95
  -6   3  -3 2241.18  107.44
   6  -3   4 1667.41  130.94
   6  -3   4 1775.04  143.73
  -6   3  -4 1444.59   77.70
   6  -3   5  804.51   93.21
   6  -3   5  873.65  172.74
  -6   3  -5  790.74   59.92
   6  -3   6 2584.93  237.81
   6  -3   6 2690.78  166.64
  -6   3  -6 2551.62  107.57
   6  -3   7  204.09   55.40
   6  -3   7  209.43   63.83
  -6   3  -7  284.12   39.81
   6  -2 -10  363.06   47.74
   6  -2 -10  368.65   61.46
  -6   2  10  402.80   54.48
  -6   2  10  415.86   47.82
   6  -2  -9   15.82   29.02
   6  -2  -9    6.22   34.46
  -6   2   9  -17.36   29.00
  -6   2   9   21.95   24.12
  -6   2   9   19.04   26.27
   6  -2  -8  108.20   46.80
   6  -2  -8  131.43   53.43
  -6   2   8   79.21   42.19
  -6   2   8   86.08   32.36
  -6   2   8   88.67   44.82
   6  -2  -7   23.41   40.79
   6  -2  -7   51.50   44.40
  -6   2   7   69.52   36.88
  -6   2   7   33.75   26.68
  -6   2   7   26.69   45.46
   6  -2  -6 6367.03  267.88
   6  -2  -6 6672.62  282.36
  -6   2   6 6719.22  247.12
  -6   2   6 5539.33  189.88
  -6   2   6 6691.78  281.37
   6  -2  -5  802.86   94.01
   6  -2  -5  768.36   92.66
  -6   2   5  741.47   75.63
  -6   2   5  721.85  100.52
   6  -2  -4 1032.43  107.00
   6  -2  -4  978.86  100.50
  -6   2   4  999.60   82.16
  -6   2   4 1094.90  113.51
   6  -2  -3  647.32   53.37
   6  -2  -3  766.72   97.59
   6  -2  -3  806.67   86.87
  -6   2   3  858.21   71.48
  -6   2   3  753.52  104.77
   6  -2  -2  887.63   73.41
   6  -2  -2 1278.63  126.84
   6  -2  -2 1155.37   94.87
  -6   2   2 1106.02  116.58
  -6   2   2 1108.33  111.50
   6  -2  -1 8352.96  309.75
   6  -2  -1 8854.07  373.08
   6  -2  -1 8172.74  321.12
  -6   2   1 7984.12  275.53
  -6   2   1 7510.92  270.79
  -6   2   1 9041.07  346.53
   6  -2   0 1254.30  100.56
   6  -2   0 1302.71  204.17
   6  -2   0 1249.84  151.11
  -6   2   0 1086.26   68.03
  -6   2   0 1031.68   82.89
  -6   2   0 1334.78  102.01
   6  -2   1 4185.75  200.89
   6  -2   1 4445.92  236.10
   6  -2   1 3932.75  180.18
  -6   2  -1 3295.54  124.74
  -6   2  -1 3605.75  162.19
  -6   2  -1 3990.93  164.66
   6  -2   2   17.02   39.94
   6  -2   2   -0.95   24.93
  -6   2  -2    0.12   30.08
  -6   2  -2   23.57   39.19
   6  -2   3  816.78   95.96
   6  -2   3  806.09  108.29
   6  -2   3  759.88   64.69
  -6   2  -3  651.87   72.69
  -6   2  -3  507.63   48.68
   6  -2   4  772.10   97.93
   6  -2   4  768.19  104.75
  -6   2  -4  655.36   77.88
   6  -2   5  396.99  135.78
   6  -2   5  308.84  134.89
  -6   2  -5  182.44   88.98
   6  -2   6   21.27   40.55
   6  -2   6    4.36   41.03
  -6   2  -6   -4.91   28.58
   6  -2   7  452.92   72.06
   6  -2   7  125.73   67.04
  -6   2  -7   76.15   40.56
   6  -2   8   18.30   35.05
   6  -2   8   34.30   38.22
  -6   2  -8   22.65   30.78
   6  -1 -10  360.62   41.80
   6  -1 -10  542.36   71.19
  -6   1  10  406.16   53.99
  -6   1  10  471.05   53.20
  -6   1  10  491.32   55.52
   6  -1  -9  -15.06   23.98
   6  -1  -9   -2.48   38.36
  -6   1   9   -9.42   27.46
  -6   1   9  -23.80   25.31
  -6   1   9   13.22   55.33
   6  -1  -8   26.68   31.99
   6  -1  -8   69.00   48.35
  -6   1   8   27.89   32.57
  -6   1   8   22.07   71.24
  -6   1   8   46.30   28.06
   6  -1  -7  184.68   41.46
   6  -1  -7    2.90   31.90
   6  -1  -7  230.87   59.70
  -6   1   7  227.87   43.13
  -6   1   7  151.47  104.78
  -6   1   7  115.07   34.13
   6  -1  -6   65.05   37.03
   6  -1  -6   11.53   31.35
   6  -1  -6  100.07   52.47
  -6   1   6  113.42   37.83
  -6   1   6  113.16   58.71
   6  -1  -5    5.59   35.23
   6  -1  -5   47.62   32.18
   6  -1  -5    4.15   47.92
  -6   1   5   43.84   30.03
  -6   1   5   24.16   52.54
   6  -1  -4   23.29   34.05
   6  -1  -4  -41.32   33.45
   6  -1  -4  -33.82   44.34
  -6   1   4   10.98   22.19
  -6   1   4    0.52   66.96
   6  -1  -3  114.99   46.89
   6  -1  -3   31.64   49.13
   6  -1  -3  114.08   58.23
  -6   1   3   78.09   29.26
  -6   1   3   87.68   90.65
   6  -1  -2  526.73   54.19
   6  -1  -2  830.92   81.98
   6  -1  -2  692.91   89.29
   6  -1  -2  782.14   98.24
  -6   1   2  876.06  158.19
   6  -1  -1   97.65   37.23
   6  -1  -1   59.99   81.42
   6  -1  -1   86.86   56.06
  -6   1   1   67.38   46.28
   6  -1   0   63.57   82.59
   6  -1   0   67.56   41.35
   6  -1   0   99.52   90.18
  -6   1   0   91.68   43.22
   6  -1   1  138.64   52.17
   6  -1   1  121.24   57.29
   6  -1   1  132.42   60.66
  -6   1  -1  118.26   55.17
  -6   1  -1  104.99   38.39
   6  -1   2   15.38   42.03
   6  -1   2   44.79   43.34
   6  -1   2   25.02   41.14
  -6   1  -2   10.29   38.21
   6  -1   3 2422.05  157.28
   6  -1   3 2530.61  146.77
  -6   1  -3 2408.18  153.94
   6  -1   4 1414.00  126.22
   6  -1   4 1351.37  117.78
   6  -1   4 1220.13  152.76
  -6   1  -4 1403.50  118.28
   6  -1   5  588.71   73.47
   6  -1   5  900.35  103.09
   6  -1   5 1032.99  147.05
  -6   1  -5  830.46   97.84
   6  -1   6  899.25   76.33
   6  -1   6 1521.73  120.56
   6  -1   6 1589.63  108.01
  -6   1  -6 1692.28  188.67
   6  -1   7    1.34   32.36
   6  -1   7   -3.62   27.85
  -6   1  -7   13.58   33.22
   6  -1   8   21.25   34.15
   6  -1   8    5.69   30.84
  -6   1  -8    6.93   29.05
   6   0 -11   15.65   29.70
  -6   0  11   42.03   45.38
  -6   0  11    4.32   44.05
   6   0 -10 1117.72   96.33
  -6   0  10 1011.24   61.41
  -6   0  10 1090.77   84.22
  -6   0  10  933.98  108.30
   6   0  -9    8.51   39.13
   6   0  -9  339.81   56.76
  -6   0   9  459.74   46.44
  -6   0   9  442.57   71.03
  -6   0   9  442.54   79.74
   6   0  -8 1969.72   87.19
   6   0  -8 2266.46  127.77
   6   0  -8 2904.49  157.87
  -6   0   8 2516.48  104.60
  -6   0   8 2735.30  154.20
  -6   0   8 2415.57  105.75
   6   0  -7  310.57   41.51
   6   0  -7  386.50   67.06
   6   0  -7  482.48   83.03
  -6   0   7  370.51   43.08
  -6   0   7  503.48   80.00
  -6   0   7  374.20   40.43
   6   0  -611180.05  395.17
   6   0  -612494.78  499.14
   6   0  -614253.57  543.39
  -6   0   611559.10  374.80
  -6   0   614082.07  523.24
   6   0  -5  161.31   39.14
   6   0  -5  138.47   65.52
   6   0  -5  297.54   72.87
  -6   0   5  240.65   70.28
   6   0  -4  897.25   72.18
   6   0  -4 1178.95  114.10
   6   0  -4 1253.07  123.40
  -6   0   4 1120.11  108.62
   6   0  -3  479.12   59.38
   6   0  -3  691.70   97.13
   6   0  -3  723.78  103.38
  -6   0   3  666.85   85.08
   6   0  -2 1982.68  159.76
   6   0  -2 2185.60  168.94
   6   0  -2 2414.47  169.35
  -6   0   2 2305.39  132.68
   6   0  -110309.08  364.30
   6   0  -112024.82  504.82
   6   0  -110925.67  402.88
   6   0  -112042.98  621.61
  -6   0   111962.41  501.14
   6   0   0 2396.48  127.56
   6   0   0 2461.58  132.47
   6   0   0 2926.39  192.89
  -6   0   0 2510.85  117.84
   6   0   1 4022.68  185.38
   6   0   1 3879.36  177.54
   6   0   1 4310.04  236.86
   6   0   2  133.58   56.12
   6   0   2  154.40   47.97
   6   0   2  187.50   70.68
  -6   0  -2  118.46   64.65
   6   0   3 4195.09  212.74
   6   0   3 3976.20  181.53
   6   0   3 4589.36  230.17
  -6   0  -3 4515.34  228.08
   6   0   4 1808.07  134.63
   6   0   4 1623.31  104.10
   6   0   4 1784.05  212.63
  -6   0  -4 1843.44  141.37
   6   0   5  920.11  102.31
   6   0   5 1090.03  109.22
   6   0   5  927.99   80.44
  -6   0  -5 1032.44  107.12
   6   0   6 1167.88  102.24
   6   0   6 1366.88  116.52
   6   0   6 1199.35   83.40
  -6   0  -6 1457.65  115.11
   6   0   7   -0.21   30.02
   6   0   7   24.88   40.31
   6   0   7   29.51   25.93
  -6   0  -7    8.65   30.91
   6   0   8   36.16   70.79
  -6   0  -8    6.58   16.00
  -6   0  -8   39.45   28.91
   6   1 -11   63.76   28.63
  -6  -1  11   72.77   29.91
  -6  -1  11   46.98   35.27
   6   1 -10  353.94   60.72
   6   1 -10  426.68   56.32
  -6  -1  10  359.19   46.36
  -6  -1  10  373.27   63.55
   6   1  -9   87.47   96.17
   6   1  -9  262.58   56.09
  -6  -1   9  257.33   39.12
  -6  -1   9  207.48   63.40
   6   1  -8  176.30  108.32
   6   1  -8  267.34   62.72
  -6  -1   8  221.21   61.11
  -6  -1   8  127.41   32.84
   6   1  -7  449.13  155.46
   6   1  -7  818.56   92.73
  -6  -1   7  831.24   98.99
   6   1  -6 1782.31  151.15
   6   1  -6 1929.14  142.67
  -6  -1   6 1937.01  136.84
   6   1  -5  532.11  100.93
   6   1  -5  566.06   92.60
  -6  -1   5  536.33   81.39
   6   1  -4   15.54   46.69
   6   1  -4    4.97   43.04
  -6  -1   4   27.45   39.12
   6   1  -3   99.46   70.05
   6   1  -3  101.51   64.80
  -6  -1   3  126.60   48.21
   6   1  -2 1557.83  157.43
   6   1  -2 1514.35  238.66
  -6  -1   2 1566.96   96.23
   6   1  -1 2651.19  193.73
   6   1  -1 2728.54  194.17
  -6  -1   1 2239.48  104.40
   6   1   0 1348.21   86.06
   6   1   0 1716.67  158.84
   6   1   0 1849.76  152.23
   6   1   1 1635.89  101.88
   6   1   1 1841.44  159.10
   6   1   2  -27.19   33.55
   6   1   2    8.38   50.46
  -6  -1  -2  -27.78   48.03
   6   1   3   47.47   45.59
   6   1   3   92.50   60.75
  -6  -1  -3   39.11   48.26
   6   1   4  131.66   76.25
   6   1   4  244.04   62.64
  -6  -1  -4  128.70   58.02
   6   1   5  173.38   79.49
   6   1   5  426.89   71.29
  -6  -1  -5  169.47   56.36
   6   1   6   22.61   41.21
   6   1   6    5.42   69.51
  -6  -1  -6   22.13   56.72
   6   1   7    3.65   32.32
   6   1   7  -17.13   34.57
  -6  -1  -7  -12.63   26.60
   6   2 -10  753.86  130.24
   6   2 -10  542.67   64.62
  -6  -2  10  677.76   77.76
   6   2  -9   38.29   61.22
   6   2  -9  -12.37   21.98
  -6  -2   9   -3.04   30.83
   6   2  -8 1065.99  181.99
   6   2  -8  976.37   77.72
  -6  -2   8 1015.42  100.16
   6   2  -7   -4.48   96.84
   6   2  -7   80.99   41.12
  -6  -2   7   44.12   45.08
   6   2  -6 4153.13  242.35
   6   2  -6 4296.07  195.24
  -6  -2   6 4581.85  208.73
   6   2  -5   73.51   66.28
   6   2  -5  108.38   82.21
  -6  -2   5  105.03   47.87
   6   2  -4 1564.65  152.37
   6   2  -4 1668.57  202.52
  -6  -2   4 1519.96  100.28
   6   2  -3  351.30   98.47
   6   2  -3  496.29   87.19
  -6  -2   3  448.76   55.99
   6   2  -2 1138.39  136.21
   6   2  -2 1308.52  125.75
  -6  -2   2 1110.92   68.23
   6   2  -1 2068.05  171.85
   6   2  -1 2225.38  165.13
   6   2   0 1010.07  126.83
   6   2   0 1159.98  127.38
   6   2   1   -7.80   37.02
   6   2   1   -3.32   42.64
   6   2   2   67.84   58.79
   6   2   2   28.57  100.32
  -6  -2  -2   44.15   44.57
   6   2   3 3596.19  222.32
   6   2   3 3335.87  162.09
  -6  -2  -3 3501.21  170.55
   6   2   4  851.58  119.33
   6   2   4  935.75   88.64
  -6  -2  -4  982.35   83.56
   6   2   5 1655.59  144.78
   6   2   5 1708.92  120.44
  -6  -2  -5 1683.16   94.67
   6   2   6  779.40  100.03
   6   2   6  744.49   85.73
   6   2   7 1058.78   91.87
  -6  -3  10   14.20   30.93
   6   3  -9   55.65   82.16
  -6  -3   9  107.98   47.08
   6   3  -8  -20.07   72.41
   6   3  -8  -18.21   16.61
  -6  -3   8  -20.79   35.42
   6   3  -7 2866.85  178.50
   6   3  -7 2436.76  106.93
  -6  -3   7 3050.72  150.87
   6   3  -6 3048.97  187.83
   6   3  -6 2687.93  123.53
  -6  -3   6 3286.12  151.92
   6   3  -5  248.45   80.19
   6   3  -5  332.35   53.86
  -6  -3   5  408.61   55.87
   6   3  -4   24.54   45.63
   6   3  -4   18.77   33.31
  -6  -3   4   22.07   25.30
   6   3  -3  136.68   68.66
   6   3  -3  203.40   54.60
  -6  -3   3   91.87   28.04
   6   3  -2 2981.63  188.68
   6   3  -2 3070.08  164.71
   6   3  -1 2278.96  158.21
   6   3  -1 2330.33  145.61
   6   3   0  721.25  150.39
   6   3   1  223.28  114.01
  -6  -3  -1  -29.49   32.49
   6   3   2   48.51   36.26
   6   3   2   -9.98   18.50
  -6  -3  -2    3.64   23.84
   6   3   3  258.91   79.61
   6   3   3  396.97   48.83
  -6  -3  -3  433.96   47.23
   6   3   4  171.80   72.53
   6   3   4  330.34   48.56
   6   3   5 2723.17  169.13
   6   3   5 2750.76  126.18
   6   4  -8   26.80   37.10
  -6  -4   8   22.58   29.00
   6   4  -7  501.34   75.13
  -6  -4   7  649.85   60.01
   6   4  -6   12.26   34.56
  -6  -4   6    1.85   18.38
   6   4  -5  194.99   56.57
   6   4  -4   18.28   55.50
   6   4  -4  810.09   68.11
   6   4  -3   20.16   49.89
   6   4  -3  176.31   45.92
   6   4  -2   -2.96   21.13
   6   4  -1   52.38   34.43
  -6  -4   1    0.20   16.64
   6   4   0    8.42   26.61
   6   4   1 1453.58  102.46
   6   4   2   11.00   28.96
   6   4   3   20.23   31.93
   7  -2  -4   -0.18   19.49
   7  -2  -4    0.09   19.89
  -7   2   4   27.74   34.53
   7  -2  -3   48.01   36.12
   7  -2  -3   58.03   33.72
  -7   2   3   54.60   37.57
   7  -2  -2    0.54   23.99
  -7   2   2    6.82   26.61
   7  -2  -1 2483.42  130.74
  -7   2   1 2590.86  172.08
   7  -2   0  809.72   52.84
   7  -2   0  893.30   82.99
  -7   2   0  512.30   36.18
   7  -2   1    1.34   30.61
   7  -2   1  167.44   40.74
  -7   2  -1   37.69   32.23
   7  -2   2   45.11   31.14
   7  -2   2   26.21   59.57
   7  -1  -6   33.16   61.61
  -7   1   6   16.67   32.97
   7  -1  -5  123.22   86.63
  -7   1   5   98.51   45.36
   7  -1  -4   11.18   19.37
   7  -1  -4   13.94   36.10
  -7   1   4    6.47   14.93
  -7   1   4  -26.50   26.05
   7  -1  -3  140.12   34.62
   7  -1  -3  197.48   56.24
  -7   1   3   77.92   31.66
  -7   1   3  159.42   43.05
   7  -1  -2 1457.39   84.19
   7  -1  -2 1826.81  117.94
  -7   1   2 1570.08   89.88
  -7   1   2 1774.56   95.88
   7  -1  -1 2165.34  105.65
   7  -1  -1 2559.94  136.58
  -7   1   1 2075.18  106.52
   7  -1   0   -4.84   20.88
   7  -1   0   86.90   29.01
   7  -1   0  107.15   37.14
  -7   1   0   66.24   36.42
   7  -1   1   -1.07   30.81
   7  -1   1  171.85   54.54
   7  -1   1  182.33   41.16
  -7   1  -1  154.06   44.81
   7  -1   2  416.33   50.44
   7  -1   2  424.87   48.11
  -7   1  -2  395.96   58.16
   7  -1   3   58.87   33.71
  -7   1  -3   29.74   53.07
   7   0  -6   20.54   65.01
  -7   0   6  -24.22   33.29
   7   0  -5   -5.95   59.35
  -7   0   5   12.76   31.22
   7   0  -4   -7.64   38.31
  -7   0   4   -8.36   27.41
   7   0  -3   25.60   44.25
  -7   0   3   18.07   29.09
  -7   0   3    3.37   26.13
   7   0  -2  166.66   63.83
  -7   0   2  -40.02   38.14
   7   0  -1  521.48   83.88
  -7   0   1  482.02   70.26
   7   0   0   -5.65   34.58
  -7   0   0    7.97   32.09
   7   0   1    0.03   16.17
   7   0   1   42.20   34.77
  -7   0  -1   34.04   38.52
   7   0   2   70.80   50.26
   7   0   2   -5.63   19.64
  -7   0  -2  153.34   51.36
   7   0   3   20.40   34.37
   7   0   3   44.23   41.42
  -7   0  -3   36.32   36.62
   7   1  -6    2.51   28.66
   7   1  -6  -12.46   30.17
  -7  -1   6    1.53   39.28
   7   1  -5  -12.55   37.01
   7   1  -5   55.96   39.96
  -7  -1   5   33.68   31.02
   7   1  -4   -0.25   28.21
  -7  -1   4  -11.25   24.32
   7   1  -3   49.74   48.41
   7   1  -2 2012.60  139.76
  -7  -1   2  -12.79   35.30
   7   1  -1  158.92   61.22
  -7  -1   1  121.44   52.26
   7   1   0  270.79   68.96
  -7  -1   0  106.52   50.78
   7   1   1  -41.99   75.93
  -7  -1  -1  -15.55   34.89
   7   1   2  121.95   55.55
  -7  -1  -2  401.31   63.74
   7   2  -5   67.36   36.28
   7   2  -4   -6.74   28.84
   7   2  -3  189.39   53.70
   7   2  -2  991.01   92.45
  -7  -2   2    0.44   25.30
   7   2  -1 5079.46  313.19
  -7  -2   1 5395.61  216.84
   7   2   0   66.06   78.46
  -7  -2   0   67.22   40.47
   0   0   0    0.00    0.00
;
_shelx_hkl_checksum              41714
loop_
_space_group_symop_operation_xyz
'x, y, z'
'-x, -y, -z'
loop_
_atom_site_label
_atom_site_type_symbol
_atom_site_fract_x
_atom_site_fract_y
_atom_site_fract_z
_atom_site_U_iso_or_equiv
_atom_site_adp_type
_atom_site_occupancy
_atom_site_site_symmetry_order
_atom_site_calc_flag
_atom_site_refinement_flags_posn
_atom_site_refinement_flags_adp
C1 C 0.8620(3) 0.6640(2) 0.37244(11) 0.0413(4) Uani 1 1 d . .
H1 H 0.9898 0.6223 0.4018 0.050 Uiso 1 1 calc R U
C2 C 0.8491(3) 0.6429(2) 0.27512(11) 0.0428(4) Uani 1 1 d . .
H2 H 0.9689 0.5883 0.2490 0.051 Uiso 1 1 calc R U
C3 C 0.6843(3) 0.6910(2) 0.21091(11) 0.0422(4) Uani 1 1 d . .
C4 C 0.6824(3) 0.6658(3) 0.11310(12) 0.0545(5) Uani 1 1 d . .
H4 H 0.7916 0.6113 0.0794 0.065 Uiso 1 1 calc R U
C5 C 0.4903(4) 0.7358(3) 0.07443(13) 0.0620(5) Uani 1 1 d . .
H5 H 0.4513 0.7358 0.0105 0.074 Uiso 1 1 calc R U
C6 C 0.3649(3) 0.8060(3) 0.14590(12) 0.0550(5) Uani 1 1 d . .
H6 H 0.2296 0.8600 0.1376 0.066 Uiso 1 1 calc R U
C7 C 0.4766(3) 0.7814(2) 0.23201(11) 0.0421(4) Uani 1 1 d . .
C8 C 0.4053(3) 0.8305(2) 0.31967(11) 0.0414(4) Uani 1 1 d . .
H8 H 0.2693 0.8848 0.3196 0.050 Uiso 1 1 calc R U
C9 C 0.5068(2) 0.8104(2) 0.40763(11) 0.0394(4) Uani 1 1 d . .
H9 H 0.4266 0.8510 0.4576 0.047 Uiso 1 1 calc R U
C10 C 0.7115(2) 0.73867(19) 0.43350(11) 0.0367(4) Uani 1 1 d . .
C11 C 0.7742(2) 0.74425(19) 0.53692(11) 0.0367(4) Uani 1 1 d . .
C12 C 0.9851(3) 0.8170(2) 0.57209(11) 0.0403(4) Uani 1 1 d . .
H12 H 1.0708 0.8492 0.5268 0.048 Uiso 1 1 calc R U
C13 C 1.0852(3) 0.8483(2) 0.66338(12) 0.0426(4) Uani 1 1 d . .
H13 H 1.2248 0.9030 0.6704 0.051 Uiso 1 1 calc R U
C14 C 1.0081(3) 0.8101(2) 0.74571(11) 0.0415(4) Uani 1 1 d . .
C15 C 1.1186(3) 0.8438(3) 0.83618(13) 0.0549(5) Uani 1 1 d . .
H15 H 1.2576 0.8987 0.8520 0.066 Uiso 1 1 calc R U
C16 C 0.9855(3) 0.7813(3) 0.89855(13) 0.0600(5) Uani 1 1 d . .
H16 H 1.0222 0.7884 0.9631 0.072 Uiso 1 1 calc R U
C17 C 0.7904(3) 0.7069(3) 0.85044(12) 0.0533(5) Uani 1 1 d . .
H17 H 0.6766 0.6554 0.8772 0.064 Uiso 1 1 calc R U
C18 C 0.7928(3) 0.7220(2) 0.75528(11) 0.0413(4) Uani 1 1 d . .
C19 C 0.6258(3) 0.6686(2) 0.68482(11) 0.0420(4) Uani 1 1 d . .
H19 H 0.5015 0.6167 0.7041 0.050 Uiso 1 1 calc R U
C20 C 0.6158(3) 0.6810(2) 0.58932(11) 0.0402(4) Uani 1 1 d . .
H20 H 0.4830 0.6409 0.5548 0.048 Uiso 1 1 calc R U
loop_
_atom_site_aniso_label
_atom_site_aniso_U_11
_atom_site_aniso_U_22
_atom_site_aniso_U_33
_atom_site_aniso_U_23
_atom_site_aniso_U_13
_atom_site_aniso_U_12
C1 0.0367(8) 0.0423(9) 0.0463(9) 0.0082(7) 0.0073(7) 0.0073(7)
C2 0.0410(9) 0.0411(9) 0.0480(9) 0.0049(7) 0.0148(7) 0.0068(7)
C3 0.0447(9) 0.0406(9) 0.0421(9) 0.0049(7) 0.0096(7) 0.0023(7)
C4 0.0601(11) 0.0602(11) 0.0438(10) 0.0034(8) 0.0132(8) 0.0080(9)
C5 0.0703(13) 0.0742(13) 0.0405(10) 0.0063(9) 0.0028(9) 0.0063(10)
C6 0.0540(11) 0.0616(11) 0.0478(10) 0.0065(8) -0.0019(8) 0.0093(9)
C7 0.0411(9) 0.0408(9) 0.0439(9) 0.0052(7) 0.0028(7) 0.0009(7)
C8 0.0345(8) 0.0403(9) 0.0487(9) 0.0038(7) 0.0039(7) 0.0040(6)
C9 0.0347(8) 0.0412(9) 0.0425(9) 0.0025(6) 0.0094(6) 0.0026(6)
C10 0.0358(8) 0.0337(8) 0.0417(9) 0.0063(6) 0.0079(6) 0.0001(6)
C11 0.0350(8) 0.0340(8) 0.0416(8) 0.0056(6) 0.0060(6) 0.0025(6)
C12 0.0342(8) 0.0435(9) 0.0456(9) 0.0121(7) 0.0079(6) 0.0019(7)
C13 0.0332(8) 0.0412(9) 0.0540(10) 0.0108(7) 0.0020(7) 0.0014(6)
C14 0.0394(9) 0.0387(8) 0.0459(9) 0.0075(7) 0.0002(7) 0.0044(7)
C15 0.0523(11) 0.0572(11) 0.0530(11) 0.0082(8) -0.0058(8) 0.0007(8)
C16 0.0658(12) 0.0703(13) 0.0437(10) 0.0100(9) 0.0002(9) 0.0075(10)
C17 0.0563(11) 0.0608(11) 0.0453(10) 0.0117(8) 0.0108(8) 0.0048(9)
C18 0.0439(9) 0.0407(9) 0.0411(9) 0.0084(7) 0.0084(7) 0.0063(7)
C19 0.0397(9) 0.0419(9) 0.0465(9) 0.0084(7) 0.0125(7) 0.0004(7)
C20 0.0360(8) 0.0410(9) 0.0435(9) 0.0046(7) 0.0058(6) -0.0020(7)
loop_
_atom_type_symbol
_atom_type_description
_atom_type_scat_dispersion_real
_atom_type_scat_dispersion_imag
_atom_type_scat_source
C C 0.0181 0.0091 'International Tables Vol C Tables 4.2.6.8 and 6.1.1.4'
H H 0.0000 0.0000 'International Tables Vol C Tables 4.2.6.8 and 6.1.1.4'
loop_
_geom_angle_atom_site_label_1
_geom_angle_atom_site_label_2
_geom_angle_atom_site_label_3
_geom_angle
C2 C1 C10 129.86(15)
C2 C1 H1 115.1
C10 C1 H1 115.1
C3 C2 C1 129.67(14)
C3 C2 H2 115.2
C1 C2 H2 115.2
C2 C3 C4 126.64(15)
C2 C3 C7 127.09(14)
C4 C3 C7 106.26(14)
C5 C4 C3 108.74(16)
C5 C4 H4 125.6
C3 C4 H4 125.6
C4 C5 C6 109.79(16)
C4 C5 H5 125.1
C6 C5 H5 125.1
C5 C6 C7 108.45(16)
C5 C6 H6 125.8
C7 C6 H6 125.8
C8 C7 C6 126.29(16)
C8 C7 C3 126.96(15)
C6 C7 C3 106.75(14)
C7 C8 C9 129.42(15)
C7 C8 H8 115.3
C9 C8 H8 115.3
C8 C9 C10 130.40(14)
C8 C9 H9 114.8
C10 C9 H9 114.8
C1 C10 C9 126.57(15)
C1 C10 C11 117.31(13)
C9 C10 C11 116.12(13)
C20 C11 C12 126.44(15)
C20 C11 C10 116.96(14)
C12 C11 C10 116.59(13)
C13 C12 C11 130.25(15)
C13 C12 H12 114.9
C11 C12 H12 114.9
C14 C13 C12 129.55(16)
C14 C13 H13 115.2
C12 C13 H13 115.2
C13 C14 C15 126.84(17)
C13 C14 C18 126.80(15)
C15 C14 C18 106.35(15)
C16 C15 C14 108.45(17)
C16 C15 H15 125.8
C14 C15 H15 125.8
C17 C16 C15 110.07(17)
C17 C16 H16 125.0
C15 C16 H16 125.0
C16 C17 C18 108.69(17)
C16 C17 H17 125.7
C18 C17 H17 125.7
C19 C18 C17 126.39(17)
C19 C18 C14 127.16(15)
C17 C18 C14 106.44(15)
C18 C19 C20 129.54(15)
C18 C19 H19 115.2
C20 C19 H19 115.2
C19 C20 C11 130.12(15)
C19 C20 H20 114.9
C11 C20 H20 114.9
loop_
_geom_bond_atom_site_label_1
_geom_bond_atom_site_label_2
_geom_bond_distance
C1 C2 1.386(2)
C1 C10 1.404(2)
C1 H1 0.9300
C2 C3 1.386(2)
C2 H2 0.9300
C3 C4 1.397(2)
C3 C7 1.485(2)
C4 C5 1.391(3)
C4 H4 0.9300
C5 C6 1.394(3)
C5 H5 0.9300
C6 C7 1.394(2)
C6 H6 0.9300
C7 C8 1.381(2)
C8 C9 1.385(2)
C8 H8 0.9300
C9 C10 1.405(2)
C9 H9 0.9300
C10 C11 1.498(2)
C11 C20 1.399(2)
C11 C12 1.408(2)
C12 C13 1.384(2)
C12 H12 0.9300
C13 C14 1.383(2)
C13 H13 0.9300
C14 C15 1.397(2)
C14 C18 1.488(2)
C15 C16 1.392(3)
C15 H15 0.9300
C16 C17 1.385(3)
C16 H16 0.9300
C17 C18 1.395(2)
C17 H17 0.9300
C18 C19 1.379(2)
C19 C20 1.390(2)
C19 H19 0.9300
C20 H20 0.9300
loop_
_geom_torsion_atom_site_label_1
_geom_torsion_atom_site_label_2
_geom_torsion_atom_site_label_3
_geom_torsion_atom_site_label_4
_geom_torsion
C10 C1 C2 C3 0.5(3)
C1 C2 C3 C4 179.85(18)
C1 C2 C3 C7 0.8(3)
C2 C3 C4 C5 -178.73(18)
C7 C3 C4 C5 0.5(2)
C3 C4 C5 C6 -0.3(2)
C4 C5 C6 C7 0.0(2)
C5 C6 C7 C8 -179.04(18)
C5 C6 C7 C3 0.3(2)
C2 C3 C7 C8 -1.9(3)
C4 C3 C7 C8 178.85(17)
C2 C3 C7 C6 178.73(17)
C4 C3 C7 C6 -0.5(2)
C6 C7 C8 C9 180.00(18)
C3 C7 C8 C9 0.8(3)
C7 C8 C9 C10 1.5(3)
C2 C1 C10 C9 0.2(3)
C2 C1 C10 C11 -179.37(16)
C8 C9 C10 C1 -1.8(3)
C8 C9 C10 C11 177.75(15)
C1 C10 C11 C20 -131.05(15)
C9 C10 C11 C20 49.32(19)
C1 C10 C11 C12 50.50(19)
C9 C10 C11 C12 -129.13(15)
C20 C11 C12 C13 -1.8(3)
C10 C11 C12 C13 176.45(15)
C11 C12 C13 C14 2.8(3)
C12 C13 C14 C15 179.38(16)
C12 C13 C14 C18 0.6(3)
C13 C14 C15 C16 -178.62(16)
C18 C14 C15 C16 0.34(19)
C14 C15 C16 C17 0.2(2)
C15 C16 C17 C18 -0.7(2)
C16 C17 C18 C19 -177.92(16)
C16 C17 C18 C14 0.85(19)
C13 C14 C18 C19 -3.0(3)
C15 C14 C18 C19 178.02(16)
C13 C14 C18 C17 178.23(15)
C15 C14 C18 C17 -0.73(18)
C17 C18 C19 C20 179.28(16)
C14 C18 C19 C20 0.8(3)
C18 C19 C20 C11 2.8(3)
C12 C11 C20 C19 -2.0(3)
C10 C11 C20 C19 179.68(15)
