#------------------------------------------------------------------------------
#$Date: 2020-04-22 23:31:07 +0300 (Wed, 22 Apr 2020) $
#$Revision: 251049 $
#$URL: file:///home/coder/svn-repositories/cod/cif/1/55/78/1557855.cif $
#------------------------------------------------------------------------------
#
# This file is available in the Crystallography Open Database (COD),
# http://www.crystallography.net/
#
# All data on this site have been placed in the public domain by the
# contributors.
#
data_1557855
loop_
_publ_author_name
'Wang, Meng'
'Du, Jiao-Xian'
'Hui-Xiang, Yang'
'Dai, Quan'
'Liu, Ya-Pei'
'He, Juan'
'Wang, Yi'
'Li, Zheng-Hui'
'Feng, Tao'
'Liu, Ji-Kai'
_publ_section_title
;
 Sesquiterpenoids from Cultures of the Basidiomycetes <i>Irpex
 lacteus</i>.
;
_journal_name_full               'Journal of natural products'
_journal_paper_doi               10.1021/acs.jnatprod.9b01177
_journal_year                    2020
_chemical_absolute_configuration unk
_chemical_formula_sum            'C15 H20 O4'
_chemical_formula_weight         264.31
_space_group_crystal_system      monoclinic
_space_group_IT_number           4
_space_group_name_Hall           'P 2yb'
_space_group_name_H-M_alt        'P 1 21 1'
_atom_sites_solution_hydrogens   geom
_cell_angle_alpha                90
_cell_angle_beta                 103.7600(10)
_cell_angle_gamma                90
_cell_formula_units_Z            2
_cell_length_a                   6.6612(4)
_cell_length_b                   11.0697(6)
_cell_length_c                   9.6314(5)
_cell_measurement_reflns_used    9946
_cell_measurement_temperature    150.(2)
_cell_measurement_theta_max      79.41
_cell_measurement_theta_min      4.73
_cell_volume                     689.81(7)
_computing_molecular_graphics    'shelXle (C.B. Huebschle, rev 833)'
_computing_structure_refinement  'SHELXL-2016/6 (Sheldrick, 2016)'
_computing_structure_solution    'SHELXT 2014/5 (Sheldrick, 2014)'
_diffrn_ambient_temperature      150.(2)
_diffrn_measured_fraction_theta_full 0.995
_diffrn_measured_fraction_theta_max 0.995
_diffrn_radiation_wavelength     1.54178
_diffrn_reflns_av_R_equivalents  0.0321
_diffrn_reflns_av_unetI/netI     0.0257
_diffrn_reflns_limit_h_max       8
_diffrn_reflns_limit_h_min       -8
_diffrn_reflns_limit_k_max       13
_diffrn_reflns_limit_k_min       -13
_diffrn_reflns_limit_l_max       12
_diffrn_reflns_limit_l_min       -12
_diffrn_reflns_number            17725
_diffrn_reflns_theta_full        79.40
_diffrn_reflns_theta_max         79.40
_diffrn_reflns_theta_min         4.73
_exptl_absorpt_coefficient_mu    0.747
_exptl_absorpt_correction_T_max  0.92
_exptl_absorpt_correction_T_min  0.78
_exptl_absorpt_correction_type   multi-scan
_exptl_absorpt_process_details
;
;
_exptl_crystal_colour            'light colourless'
_exptl_crystal_density_diffrn    1.273
_exptl_crystal_density_method    'not measured'
_exptl_crystal_description       BLOCK
_exptl_crystal_F_000             284
_exptl_crystal_size_max          0.345
_exptl_crystal_size_mid          0.326
_exptl_crystal_size_min          0.110
_refine_diff_density_max         0.192
_refine_diff_density_min         -0.198
_refine_ls_abs_structure_details
;

Refined as an inversion twin.
;
_refine_ls_abs_structure_Flack   0.12(19)
_refine_ls_extinction_method     none
_refine_ls_goodness_of_fit_ref   1.047
_refine_ls_hydrogen_treatment    mixed
_refine_ls_matrix_type           full
_refine_ls_number_parameters     179
_refine_ls_number_reflns         2917
_refine_ls_number_restraints     1
_refine_ls_restrained_S_all      1.047
_refine_ls_R_factor_all          0.0303
_refine_ls_R_factor_gt           0.0301
_refine_ls_shift/su_max          0.000
_refine_ls_shift/su_mean         0.000
_refine_ls_structure_factor_coef Fsqd
_refine_ls_weighting_details
'w=1/[\s^2^(Fo^2^)+(0.0422P)^2^+0.1163P] where P=(Fo^2^+2Fc^2^)/3'
_refine_ls_weighting_scheme      calc
_refine_ls_wR_factor_gt          0.0773
_refine_ls_wR_factor_ref         0.0776
_reflns_number_gt                2891
_reflns_number_total             2917
_reflns_threshold_expression     'I > 2\s(I)'
_cod_data_source_file            np9b01177_si_004.cif
_cod_data_source_block           LWL116
_cod_database_code               1557855
_shelx_res_file
;

TITL LWL116_0m_a.res in P2(1)
    LWL116_0m.res
    created by SHELXL-2016/6 at 10:52:55 on 12-Sep-2018
CELL 1.54178 6.6612 11.0697 9.6314 90.000 103.760 90.000
ZERR 2.00 0.0004 0.0006 0.0005 0.000 0.001 0.000
LATT -1
SYMM -x, y+1/2, -z
SFAC C H O
UNIT 30 40 8
SIZE 0.345 0.326 0.110
LIST 4 ! automatically inserted. Change 6 to 4 for CHECKCIF!!
ACTA
TEMP -123.150
ACTA
L.S. 10
FMAP 2
PLAN -4 0 0.00
HTAB
TWIN
BOND $H
CONF
WGHT    0.042200    0.116300
BASF   0.11837
FVAR       1.72898
O1    3   -0.083881    0.536928    0.298660    11.00000    0.02752    0.02826 =
         0.02000    0.00101   -0.00310   -0.00095
C1    1    0.243265    0.342813    0.847529    11.00000    0.02911    0.02719 =
         0.01984    0.00203   -0.00153   -0.00569
AFIX  23
H1A   2    0.092268    0.328755    0.818748    11.00000   -1.20000
H1B   2    0.310072    0.271452    0.901234    11.00000   -1.20000
AFIX   0
C11   1    0.618683    0.514773    0.564005    11.00000    0.02814    0.04658 =
         0.02884   -0.00829    0.00974   -0.00695
AFIX  23
H11A  2    0.745649    0.552674    0.547563    11.00000   -1.20000
H11B  2    0.620536    0.427431    0.542250    11.00000   -1.20000
AFIX   0
C15   1    0.507899    0.452133    1.036705    11.00000    0.02492    0.02531 =
         0.01631    0.00167    0.00081   -0.00133
C14   1    0.142504    0.476655    1.036968    11.00000    0.02795    0.04888 =
         0.02134    0.00343    0.00499   -0.00121
AFIX 137
H14A  2   -0.000237    0.475886    0.979460    11.00000   -1.50000
H14B  2    0.171650    0.554676    1.085681    11.00000   -1.50000
H14C  2    0.161134    0.411777    1.108124    11.00000   -1.50000
AFIX   0
C2    1    0.291749    0.457209    0.938964    11.00000    0.02247    0.02746 =
         0.01644    0.00107   -0.00036   -0.00093
O2    3   -0.103732    0.335240    0.306985    11.00000    0.03239    0.02741 =
         0.02411   -0.00225   -0.00792   -0.00050
AFIX 148
H2    2   -0.204770    0.347189    0.220683    11.00000   -1.50000
AFIX   0
O3    3    0.611857    0.360525    1.061354    11.00000    0.03096    0.02852 =
         0.02765   -0.00250   -0.00636    0.00293
C3    1    0.273698    0.556960    0.825510    11.00000    0.02129    0.02534 =
         0.01729    0.00026    0.00013    0.00284
AFIX  23
H3A   2    0.126956    0.578449    0.785932    11.00000   -1.20000
H3B   2    0.349125    0.630269    0.867902    11.00000   -1.20000
AFIX   0
C13   1   -0.027212    0.440477    0.357642    11.00000    0.02141    0.02758 =
         0.01770   -0.00257    0.00324   -0.00029
C12   1    0.424832    0.575492    0.473228    11.00000    0.03546    0.04827 =
         0.01957    0.00034    0.00348   -0.01121
AFIX  23
H12A  2    0.389564    0.542138    0.375043    11.00000   -1.20000
H12B  2    0.444633    0.663873    0.468107    11.00000   -1.20000
AFIX   0
C4    1    0.369320    0.505558    0.707644    11.00000    0.01966    0.02401 =
         0.01708   -0.00041   -0.00108    0.00142
O4    3    0.569465    0.556064    1.098167    11.00000    0.03787    0.02611 =
         0.03406   -0.00277   -0.01635    0.00079
AFIX 148
H4    2    0.699400    0.546685    1.160108    11.00000   -1.50000
AFIX   0
C7    1    0.179098    0.338087    0.576584    11.00000    0.02709    0.02540 =
         0.01986   -0.00276   -0.00056    0.00062
AFIX  43
H7    2    0.122887    0.260069    0.551135    11.00000   -1.20000
AFIX   0
C6    1    0.131776    0.435429    0.493451    11.00000    0.02220    0.02765 =
         0.01801   -0.00270    0.00170    0.00133
C5    1    0.254501    0.545591    0.552834    11.00000    0.02335    0.02638 =
         0.01650   -0.00011   -0.00107   -0.00005
AFIX  13
H5    2    0.162597    0.616668    0.554894    11.00000   -1.20000
AFIX   0
C8    1    0.330944    0.365841    0.714606    11.00000    0.02399    0.02165 =
         0.01965   -0.00050   -0.00222    0.00135
AFIX  13
H8    2    0.462417    0.319997    0.721963    11.00000   -1.20000
AFIX   0
C10   1    0.660684    0.665076    0.765938    11.00000    0.02594    0.03555 =
         0.03098   -0.00392    0.00389   -0.00671
AFIX 137
H10A  2    0.799843    0.682125    0.753755    11.00000   -1.50000
H10B  2    0.658862    0.674481    0.866806    11.00000   -1.50000
H10C  2    0.562094    0.721566    0.707869    11.00000   -1.50000
AFIX   0
C9    1    0.600192    0.535590    0.718143    11.00000    0.02056    0.03141 =
         0.02374   -0.00309    0.00152   -0.00044
AFIX  13
H9    2    0.690510    0.477135    0.783847    11.00000   -1.20000

REM #####
AFIX   0
HKLF 4 1 1 0 0 0 1 0 0 0 1




REM  LWL116_0m_a.res in P2(1)
REM R1 =  0.0301 for    2891 Fo > 4sig(Fo)  and  0.0303 for all    2917 data
REM    179 parameters refined using      1 restraints

END

WGHT      0.0422      0.1163

REM Instructions for potential hydrogen bonds
EQIV $1 x-1, y, z-1
HTAB O2 O3_$1
EQIV $2 x+1, y, z+1
HTAB O4 O1_$2

REM Highest difference peak  0.192,  deepest hole -0.198,  1-sigma level  0.038
Q1    1   0.3209  0.5373  0.7680  11.00000  0.05    0.19
Q2    1   0.3305  0.5610  0.5063  11.00000  0.05    0.18
Q3    1   0.3617  0.4356  0.7192  11.00000  0.05    0.18
Q4    1   0.2769  0.4966  0.8819  11.00000  0.05    0.15
;
_shelx_res_checksum              76890
_shelx_hkl_file
;
  -1   0   0 3116.59  103.89
  -2   0   0  204.38    8.50
  -2   0   0  199.78    8.60
  -3   0   0  259.07   11.00
  -3   0   0  257.77   11.50
  -3   0   0  251.57   10.50
  -4   0   0 1430.16   50.69
   4   0   0 1403.66   48.30
  -4   0   0 1378.96   49.40
  -4   0   0 1372.66   49.70
   5   0   0    4.90    1.30
  -5   0   0    6.80    1.60
   5   0   0    4.60    1.20
  -5   0   0    4.70    1.70
  -5   0   0    5.20    1.20
  -5   0   0    5.90    1.70
  -5   0   0    7.30    1.50
   5   0   0    3.90    1.30
  -5   0   0    6.40    1.90
  -5   0   0    5.30    1.30
   6   0   0  121.99    6.50
   6   0   0  114.29    6.30
  -6   0   0  113.69    7.40
  -6   0   0  117.89    6.50
  -6   0   0  122.19    7.40
  -6   0   0  120.69    7.10
  -6   0   0  119.39    7.20
  -6   0   0  121.69    8.20
  -6   0   0  124.99    6.80
   6   0   0  129.29    7.00
  -6   0   0  116.99    5.90
  -7   0   0   20.00    2.30
   7   0   0   20.50    2.10
  -7   0   0   18.60    2.20
  -7   0   0   21.60    2.50
  -7   0   0   19.10    2.60
  -7   0   0   19.30    1.60
   7   0   0   21.90    2.20
   7   0   0   23.00    2.20
  -7   0   0   24.90    2.10
   8   0   0  132.29    4.80
  -8   0   0  117.89    5.10
  -8   0   0  111.49    5.10
  -8   0   0  116.49    5.00
   8   0   0  102.49    4.90
  -1  -1   0 4133.49  131.39
  -1   1   0 3784.02  130.39
  -1   1   0 3917.91  130.39
  -1   1   0 3914.11  131.39
  -2  -1   0  711.43   25.20
  -2   1   0  670.93   24.10
  -2   1   0  663.23   24.80
  -3  -1   0 4678.33  162.28
  -3  -1   0 5174.48  164.58
  -3   1   0 4712.53  162.48
  -3   1   0 4936.01  163.88
  -3   1   0 4786.52  162.88
  -4  -1   0    2.90    1.30
  -4  -1   0    4.80    1.40
   4   1   0    2.60    0.70
  -5  -1   0  157.58    9.10
  -5  -1   0  166.18    9.20
  -5  -1   0  170.58    8.20
  -5  -1   0  158.48    7.70
   5  -1   0  175.88    8.40
   5  -1   0  160.28    7.80
   5  -1   0  159.88    7.60
  -5  -1   0  164.38    7.60
  -5  -1   0  168.48    7.40
  -5  -1   0  141.49   10.40
  -5   1   0  162.08    8.40
   5   1   0  154.08    7.80
  -5   1   0  168.08    8.10
  -5   1   0  162.18    7.40
  -5   1   0  165.78    9.40
  -5   1   0  164.98    8.00
  -5   1   0  145.49    8.60
   5   1   0  158.78    8.40
  -5   1   0  159.48    8.60
   5   1   0  152.78    7.70
   6  -1   0  324.67   14.00
   6  -1   0  366.96   14.90
  -6  -1   0  359.56   16.40
  -6  -1   0  367.16   15.50
   6  -1   0  342.87   14.20
  -6  -1   0  349.77   15.10
  -6  -1   0  336.17   13.60
  -6  -1   0  330.47   14.20
  -6  -1   0  354.46   16.30
  -6  -1   0  342.57   14.40
  -6   1   0  356.56   17.10
   6   1   0  346.37   14.90
  -6   1   0  342.97   14.80
  -6   1   0  359.56   15.80
   6   1   0  350.26   14.30
  -6   1   0  317.17   14.20
  -6   1   0  340.57   15.80
  -6   1   0  338.97   13.70
   6   1   0  338.77   14.20
  -6   1   0  358.16   15.20
  -6   1   0  345.37   15.50
  -7  -1   0   67.99    4.00
  -7  -1   0   78.39    4.70
   7  -1   0   75.99    4.30
  -7  -1   0   71.29    3.60
  -7  -1   0   74.39    5.20
   7  -1   0   75.69    4.50
   7  -1   0   80.09    4.50
  -7  -1   0   78.49    4.80
   7   1   0   84.89    4.90
  -7   1   0   77.99    6.40
  -7   1   0   72.69    4.80
   7   1   0   78.19    4.40
  -7   1   0   75.29    5.20
   7   1   0   80.29    4.40
  -7   1   0   74.89    4.70
  -7   1   0   75.09    4.20
   8  -1   0   33.60    1.80
  -8  -1   0   29.40    2.00
  -8  -1   0   28.20    1.90
  -8  -1   0   31.50    2.00
   8   1   0   28.90    1.90
  -8   1   0   29.40    1.90
   8   1   0   31.60    1.60
  -8   1   0   27.20    2.00
  -8   1   0   31.50    1.90
  -1  -2   0 2835.22   96.99
  -1   2   0 2925.81   97.19
  -2  -2   0  338.77   14.00
  -2   2   0  328.87   14.80
  -3  -2   0  221.68   11.40
  -3  -2   0  233.58   10.00
  -3   2   0  242.98   11.40
  -4  -2   0   93.79    6.80
  -4  -2   0   86.09    5.50
   4  -2   0   80.79    4.40
   4   2   0   86.39    4.70
  -4   2   0   93.19    5.20
  -4   2   0   86.69    8.30
   5  -2   0   28.20    2.70
   5  -2   0   26.90    2.50
  -5  -2   0   19.30    4.40
  -5  -2   0   23.50    3.00
  -5  -2   0   24.20    2.20
   5  -2   0   24.10    2.30
  -5  -2   0   25.80    2.50
  -5   2   0   22.20    2.80
  -5   2   0   27.40    3.50
  -5   2   0   25.70    2.80
   5   2   0   22.60    2.30
   5   2   0   20.70    2.60
  -5   2   0   23.50    3.10
  -5   2   0   27.30    2.60
  -5   2   0   23.10    2.70
  -5   2   0   24.80    2.60
   5   2   0   22.90    2.50
  -5   2   0   24.70    2.30
  -5   2   0   22.70    2.10
  -5   2   0   28.60    4.70
  -6  -2   0  247.78   11.60
  -6  -2   0  242.78   11.00
   6  -2   0  237.08   10.90
  -6  -2   0  245.88   10.00
   6  -2   0  234.58   10.50
  -6  -2   0  235.48   10.60
  -6  -2   0  244.48   12.80
  -6  -2   0  241.98   10.50
   6  -2   0  229.18   10.50
   6   2   0  250.77   11.60
  -6   2   0  246.68   12.20
  -6   2   0  247.68   11.60
  -6   2   0  238.38   11.30
  -6   2   0  233.48   12.20
   6   2   0  242.38   10.70
  -6   2   0  244.98   11.00
  -6   2   0  227.98   11.70
  -6   2   0  252.37   13.60
   6   2   0  240.18   10.70
  -6   2   0  245.88   10.30
  -7  -2   0   64.99    4.80
  -7  -2   0   72.29    4.20
  -7  -2   0   63.99    5.40
  -7  -2   0   65.09    3.60
   7  -2   0   66.89    3.90
   7  -2   0   68.09    4.20
  -7  -2   0   67.89    4.50
   7  -2   0   72.29    4.00
   7   2   0   68.19    4.00
  -7   2   0   69.69    5.30
   7   2   0   68.79    4.40
  -7   2   0   65.79    4.50
  -7   2   0   74.79    4.10
  -7   2   0   67.79    4.40
  -7   2   0   65.09    4.70
  -7   2   0   67.29    4.40
   7   2   0   69.69    4.00
   8  -2   0  104.19    4.00
  -8  -2   0   92.99    4.30
  -8  -2   0   93.89    4.20
   8   2   0   86.39    4.20
  -8   2   0  111.39    5.70
  -8   2   0   94.09    4.30
   0  -3   0   -0.10    0.20
   0   3   0   -0.20    0.30
  -1  -3   0  330.87   13.50
   1   3   0  336.47   12.60
  -1   3   0  349.67   13.90
  -2  -3   0  226.98   10.80
  -2   3   0  230.48   10.90
  -3  -3   0  279.67   13.50
  -3  -3   0  270.87   12.10
  -3  -3   0  260.07   11.30
  -3   3   0  275.07   13.30
   3   3   0  265.67   10.70
  -4  -3   0  118.89    7.00
  -4  -3   0  116.99    8.50
   4  -3   0  114.09    5.60
  -4   3   0  116.89    7.00
  -4   3   0  121.39    7.50
  -4   3   0  125.79    6.60
   4   3   0  128.09    7.00
   4   3   0  116.29    6.00
  -4   3   0  119.39    8.30
  -4   3   0  133.49    7.50
  -4   3   0  126.39    6.50
   4   3   0  122.59    6.10
  -5  -3   0  338.37   15.60
  -5  -3   0  337.17   13.50
  -5  -3   0  332.47   18.30
   5  -3   0  323.87   13.90
   5  -3   0  339.47   13.50
  -5   3   0  357.26   16.80
  -5   3   0  327.17   13.40
  -5   3   0  360.36   14.70
   5   3   0  302.77   14.80
  -5   3   0  334.77   15.60
  -5   3   0  340.87   15.40
  -5   3   0  334.17   15.60
   5   3   0  337.87   14.80
   5   3   0  320.07   13.70
  -5   3   0  350.26   14.60
   5   3   0  340.47   13.80
  -5   3   0  295.27   17.10
  -5   3   0  347.17   14.30
  -5   3   0  324.47   14.10
  -6  -3   0  146.79    7.20
  -6  -3   0  145.89    6.80
  -6  -3   0  150.28    9.30
   6  -3   0  126.59    6.90
   6  -3   0  132.59    7.00
  -6  -3   0  145.69    7.10
  -6  -3   0  152.78    8.20
  -6   3   0  154.88    9.20
  -6   3   0  149.69    8.20
  -6   3   0  154.48    8.10
   6   3   0  156.28    8.20
   6   3   0  158.28    7.30
  -6   3   0  149.88    8.50
  -6   3   0  145.49    7.50
   6   3   0  152.78   10.10
  -6   3   0  145.09    8.90
  -6   3   0  144.79    7.00
   6   3   0  151.18    7.20
  -6   3   0  145.29    9.90
  -7  -3   0   57.49    4.00
  -7  -3   0   54.29    3.30
  -7  -3   0   49.50    4.70
   7  -3   0   51.39    3.10
  -7  -3   0   49.00    2.80
   7  -3   0   47.40    3.00
   7   3   0   47.80    3.20
   7   3   0   47.40    3.50
  -7   3   0   45.70    3.50
  -7   3   0   52.49    3.80
  -7   3   0   50.49    4.40
  -7   3   0   50.39    2.90
   7   3   0   47.90    3.00
  -7   3   0   49.80    3.80
  -7   3   0   47.10    3.10
  -8  -3   0    6.90    0.90
   8   3   0    7.00    1.00
  -8   3   0    8.50    0.80
   0  -4   0 4566.24  151.28
   0   4   0 4470.25  151.88
  -1  -4   0  301.67   13.20
   1   4   0  314.67   12.30
  -1   4   0  312.47   13.70
  -2  -4   0  293.17   13.70
  -2  -4   0  306.87   12.20
  -2   4   0  287.37   13.90
  -3  -4   0   39.40    4.10
  -3  -4   0   36.10    3.30
  -3  -4   0   33.70    3.10
  -3  -4   0   33.40    3.80
   3   4   0   35.30    2.50
  -3   4   0   39.60    4.20
   4  -4   0  116.69    5.30
  -4  -4   0  110.19    6.90
  -4  -4   0  122.89    8.80
  -4  -4   0  106.09    7.40
   4   4   0  104.99    5.60
   4   4   0  127.89    9.10
  -4   4   0  111.79    9.40
  -4   4   0  115.79    7.30
  -4   4   0  124.99    7.40
  -4   4   0  113.39    8.10
   4   4   0   98.79    6.80
  -4   4   0  113.59    6.70
  -4   4   0  114.79    6.30
  -4   4   0  123.09    8.20
  -4   4   0  111.89    6.30
  -4   4   0  108.19    8.50
   5  -4   0   99.59    5.30
  -5  -4   0   97.39    7.10
  -5  -4   0   96.19    9.20
   5   4   0   97.89    5.40
  -5   4   0  103.99    5.50
   5   4   0  100.59    7.10
  -5   4   0  106.89    6.30
   5   4   0   99.89    6.40
  -5   4   0  107.29   10.10
  -5   4   0   98.39    6.50
  -5   4   0   97.39    6.50
   5   4   0   90.59    5.30
  -5   4   0  112.49    8.20
  -5   4   0  106.09    7.40
  -5   4   0   98.09    6.50
  -5   4   0  109.89    6.60
  -5   4   0  113.89    9.40
  -6  -4   0 1017.70   35.60
  -6  -4   0  992.90   35.50
   6  -4   0  955.90   35.40
  -6  -4   0 1032.80   39.10
   6  -4   0  964.80   35.40
   6   4   0  990.50   35.40
  -6   4   0 1025.90   36.60
  -6   4   0  977.60   36.50
  -6   4   0 1008.90   41.70
   6   4   0  910.91   36.70
  -6   4   0 1034.00   39.20
   6   4   0 1137.99   41.00
  -6   4   0  990.10   35.50
  -6   4   0 1013.00   37.80
  -6   4   0 1004.00   38.60
  -6   4   0 1009.90   37.70
   6   4   0  963.70   35.30
  -6   4   0  992.40   39.20
  -7  -4   0    2.40    1.70
  -7  -4   0    3.70    0.80
  -7  -4   0    2.50    0.80
   7  -4   0    2.80    0.90
  -7   4   0    2.50    1.00
  -7   4   0    3.10    1.00
  -7   4   0    2.30    0.80
  -7   4   0    4.10    0.80
  -7   4   0    1.00    1.10
   7   4   0    1.90    0.80
  -7   4   0    1.10    0.80
   0  -5   0    1.10    0.60
   0   5   0    0.90    0.60
  -1  -5   0  104.79    6.40
   1  -5   0   98.19    5.10
  -1   5   0  103.69    6.70
   1   5   0  106.79    7.70
  -2  -5   0   99.19    5.70
  -2  -5   0   98.59    5.70
  -2  -5   0   96.49    6.80
  -2   5   0  101.59    7.20
  -3  -5   0 3063.69  109.69
  -3  -5   0 3068.39  107.29
  -3  -5   0 2810.82  106.49
  -3  -5   0 3157.28  106.69
  -3   5   0 3155.18  109.99
   3   5   0 3358.86  105.39
  -4  -5   0   83.09    6.20
  -4  -5   0   87.09    6.00
  -4  -5   0   94.89    7.80
  -4   5   0   84.99    5.10
  -4   5   0   79.59    5.70
  -4   5   0   77.39    5.30
  -4   5   0   79.89    4.50
  -4   5   0   92.59    6.70
  -4   5   0   85.19    6.50
  -4   5   0   91.79    5.70
  -4   5   0   86.29    5.40
  -4   5   0   82.29    5.70
  -4   5   0   89.29    4.70
   4   5   0   85.79    5.50
  -4   5   0   83.79    5.00
  -4   5   0   84.09    7.50
  -4   5   0   82.19    5.50
   4   5   0   80.29    4.40
  -4   5   0   83.89    6.30
  -5  -5   0   65.19    8.10
   5  -5   0   73.29    4.20
  -5  -5   0   73.49    6.00
  -5   5   0   74.89    6.60
   5   5   0   75.29    5.30
  -5   5   0   67.29    4.90
   5   5   0   67.89    5.50
  -5   5   0   78.59    6.50
   5   5   0   68.99    4.20
  -5   5   0   65.89    7.40
  -5   5   0   74.79    5.10
  -5   5   0   71.79    5.40
  -5   5   0   73.09    4.40
  -5   5   0   72.19    5.80
  -5   5   0   78.99    5.20
  -5   5   0   78.59    5.40
   5   5   0   71.39    4.10
  -6  -5   0   53.69    3.40
   6  -5   0   58.19    3.60
  -6  -5   0   55.09    5.20
   6  -5   0   62.89    3.70
  -6   5   0   51.29    4.10
  -6   5   0   50.29    4.30
  -6   5   0   59.89    4.30
   6   5   0   50.79    3.00
  -6   5   0   53.09    3.50
  -6   5   0   51.99    5.60
  -6   5   0   57.09    4.50
   6   5   0   50.19    4.10
  -6   5   0   51.39    4.30
  -6   5   0   56.79    4.10
  -6   5   0   61.79    5.40
   6   5   0   52.09    4.10
   7  -5   0  222.68    8.40
  -7  -5   0  206.98   10.20
  -7  -5   0  220.78    9.10
  -7  -5   0  204.48    8.60
   7  -5   0  187.18    8.90
  -7   5   0  215.58   10.50
   7   5   0  216.68    8.90
  -7   5   0  211.98    9.00
  -7   5   0  211.18    8.30
  -7   5   0  210.08    8.50
  -7   5   0  208.18    9.20
  -7   5   0  209.48    9.40
   7   5   0  211.18    9.00
   0  -6   0 3636.04  124.79
   0   6   0 3681.13  125.69
  -1  -6   0  668.53   24.70
   1  -6   0  624.74   25.20
  -1  -6   0  665.43   27.10
  -1  -6   0  711.83   25.50
   1   6   0  690.13   26.20
  -1   6   0  698.33   27.80
  -2  -6   0  356.26   15.00
  -2  -6   0  348.87   14.80
  -2  -6   0  344.57   17.00
  -2  -6   0  343.87   14.50
  -2   6   0  363.46   17.70
  -3  -6   0  229.18   13.80
  -3  -6   0  223.68   11.10
  -3  -6   0  245.28   11.90
  -3   6   0  246.48   12.30
  -3   6   0  258.97   12.00
  -3   6   0  219.68   12.20
   3   6   0  236.08   10.80
  -3   6   0  240.48   14.30
  -3   6   0  231.18    9.90
  -3   6   0  242.18   10.30
   3   6   0  218.68   12.30
  -3   6   0  228.08   10.70
  -3   6   0  252.87   11.20
  -3   6   0  235.88   10.70
  -3   6   0  237.78   12.40
  -3   6   0  244.18   11.90
  -3   6   0  228.48   10.50
  -3   6   0  234.98   10.70
  -3   6   0  257.07   12.60
  -3   6   0  237.08   11.40
  -4  -6   0  546.95   25.20
  -4  -6   0  565.24   24.50
  -4  -6   0  556.14   27.90
  -4  -6   0  581.54   24.40
  -4   6   0  604.34   24.50
  -4   6   0  599.64   28.40
   4   6   0  632.54   23.60
  -4   6   0  632.44   26.10
  -4   6   0  605.74   23.70
   4   6   0  553.84   21.10
  -4   6   0  600.54   23.00
  -4   6   0  601.54   23.40
  -4   6   0  606.44   24.00
  -4   6   0  616.64   24.20
  -4   6   0  611.64   26.10
  -4   6   0  570.34   21.30
  -4   6   0  613.14   24.30
   4   6   0  589.94   24.50
  -4   6   0  584.24   22.80
  -4   6   0  633.34   25.30
  -5  -6   0  156.78    9.30
   5  -6   0  137.29    6.70
  -5   6   0  145.49    7.90
  -5   6   0  158.08   10.00
  -5   6   0  143.59    8.90
  -5   6   0  146.69    8.10
  -5   6   0  150.58    8.50
  -5   6   0  150.88    8.50
  -5   6   0  133.79    8.30
  -5   6   0  156.48   10.40
  -5   6   0  144.49    7.10
   5   6   0  146.09    8.10
   5   6   0  146.39    8.50
   6  -6   0  474.25   17.40
   6  -6   0  470.35   17.60
  -6  -6   0  480.45   20.60
  -6   6   0  429.56   18.80
  -6   6   0  513.15   21.70
  -6   6   0  453.85   19.20
  -6   6   0  469.75   19.30
   6   6   0  460.35   18.40
   6   6   0  466.45   18.90
  -6   6   0  450.55   18.60
  -6   6   0  454.75   18.50
  -6   6   0  506.85   22.60
  -6   6   0  460.65   17.60
  -7  -6   0  151.58    6.90
  -7   6   0  163.78    7.10
  -7   6   0  165.48    8.30
  -7   6   0  159.78    8.40
  -7   6   0  163.08    7.40
   7   6   0  168.38    7.30
   7   6   0  176.88    8.80
  -7   6   0  167.48    6.60
   0  -7   0    0.90    0.60
   0  -7   0    0.80    1.40
   0   7   0    1.70    1.00
  -1  -7   0  444.86   17.50
  -1  -7   0  440.66   20.10
   1  -7   0  423.86   18.40
  -1  -7   0  462.85   18.10
  -1   7   0  439.26   20.60
   1   7   0  442.26   19.00
  -2  -7   0   61.29    6.20
  -2  -7   0   69.29    4.60
  -2  -7   0   67.09    7.10
  -2  -7   0   64.99    4.70
  -2  -7   0   62.79    4.40
  -2  -7   0   64.09    4.60
  -2   7   0   67.79    5.00
  -2   7   0   63.39    4.50
  -2   7   0   64.59    3.90
   2   7   0   61.59    5.20
  -2   7   0   70.89    4.90
  -2   7   0   69.09    4.90
   2   7   0   61.69    4.80
  -2   7   0   68.19    4.90
  -2   7   0   72.09    4.70
  -2   7   0   64.59    5.70
  -2   7   0   69.29    5.00
  -2   7   0   69.49    4.60
  -2   7   0   62.79    6.30
  -2   7   0   64.69    5.50
  -3  -7   0  257.87   13.10
  -3  -7   0  264.47   13.80
  -3  -7   0  276.97   16.10
  -3  -7   0  258.57   12.80
  -3  -7   0  261.77   12.80
  -3   7   0  280.17   13.10
  -3   7   0  283.37   14.60
  -3   7   0  295.27   13.40
  -3   7   0  268.67   12.80
  -3   7   0  257.67   10.50
  -3   7   0  261.57   11.60
   3   7   0  271.37   11.90
  -3   7   0  271.57   14.20
  -3   7   0  260.57   11.30
  -3   7   0  269.77   12.40
  -3   7   0  268.97   11.20
   3   7   0  259.37   12.90
  -3   7   0  273.97   12.20
  -3   7   0  284.37   12.40
  -3   7   0  276.77   13.10
  -3   7   0  276.87   13.00
  -3   7   0  285.37   16.40
  -4  -7   0   71.19    8.40
  -4  -7   0   70.59    5.80
  -4  -7   0   60.89    5.40
  -4   7   0   69.89    5.40
  -4   7   0   62.19    7.90
   4   7   0   69.59    4.80
   4   7   0   74.39    5.70
  -4   7   0   75.69    6.10
  -4   7   0   66.89    6.30
  -4   7   0   73.09    5.40
  -4   7   0   74.39    5.50
  -4   7   0   65.49    3.80
  -4   7   0   67.49    4.60
  -4   7   0   73.29    4.30
  -4   7   0   71.09    6.60
  -4   7   0   71.89    4.70
  -4   7   0   74.49    5.70
  -4   7   0   67.19    5.00
  -5  -7   0   47.30    4.60
  -5   7   0   42.50    3.30
   5   7   0   41.40    3.40
  -5   7   0   47.50    4.50
  -5   7   0   42.60    3.60
  -5   7   0   44.50    4.10
  -5   7   0   38.60    3.10
  -5   7   0   45.60    3.30
  -5   7   0   46.80    5.20
   5   7   0   47.00    4.10
  -5   7   0   45.90    5.10
  -5   7   0   47.50    4.40
  -5   7   0   43.00    3.80
   5   7   0   43.40    2.90
  -5   7   0   43.70    4.00
  -6  -7   0   60.59    3.10
   6  -7   0   60.09    3.30
  -6  -7   0   60.99    5.20
  -6  -7   0   58.79    3.10
  -6   7   0   61.79    5.70
   6   7   0   59.69    4.10
  -6   7   0   61.49    4.10
  -6   7   0   62.09    4.10
   6   7   0   51.99    3.10
  -6   7   0   59.69    4.20
  -6   7   0   63.59    4.30
  -6   7   0   62.49    4.40
   6   7   0   56.89    3.60
  -6   7   0   60.09    3.40
  -7  -7   0   97.09    4.30
  -7   7   0  103.89    4.20
   7   7   0  110.09    4.00
  -7   7   0   99.69    4.60
  -7   7   0   99.49    4.70
  -7   7   0   92.89    4.70
   0  -8   0  916.01   35.70
   0  -8   0  989.40   39.50
   0   8   0  980.00   35.50
   0   8   0 1042.00   36.80
   0   8   0 1021.90   35.00
   0   8   0 1073.39   38.00
   0   8   0  985.70   36.40
   0   8   0 1154.08   40.10
   0   8   0  962.90   37.00
   0   8   0  956.70   39.80
  -1  -8   0   84.19    5.50
  -1  -8   0   84.49    5.20
  -1  -8   0   77.99    6.90
  -1  -8   0   80.79    5.30
   1  -8   0   77.39    4.50
  -1   8   0   86.89    5.70
   1   8   0   86.09    6.50
   1   8   0   93.19    5.30
  -1   8   0   90.69    5.50
   1   8   0   82.29    5.50
   1   8   0  108.99    8.30
  -1   8   0   93.19    5.60
  -1   8   0   98.09    6.50
  -1   8   0   90.09    6.10
  -1   8   0   86.29    4.30
  -1   8   0   91.49    5.20
   1   8   0   85.19    7.00
  -1   8   0   97.89    6.90
  -1   8   0   94.99    5.10
  -1   8   0   98.69    8.00
   1   8   0   84.79    4.30
  -2  -8   0   84.79    5.70
  -2  -8   0   79.89    5.40
  -2  -8   0   79.69    5.90
  -2  -8   0   83.09    5.70
  -2  -8   0   82.09    7.50
  -2   8   0   85.59    6.10
  -2   8   0   80.49    6.00
  -2   8   0   67.49    4.70
  -2   8   0   84.09    7.70
  -2   8   0   82.59    4.60
   2   8   0   72.99    4.80
  -2   8   0   82.59    4.20
  -2   8   0   85.09    5.40
   2   8   0   76.89    6.20
  -2   8   0   89.19    6.20
  -2   8   0   81.49    4.70
  -2   8   0   71.79    4.60
  -2   8   0   84.59    5.50
  -2   8   0   82.69    5.30
  -2   8   0   88.29    6.00
  -2   8   0   84.89    7.20
  -2   8   0   83.79    6.60
   2   8   0   73.49    5.40
  -3  -8   0  306.97   15.80
  -3  -8   0  313.27   15.10
  -3  -8   0  310.17   14.90
  -3  -8   0  310.77   18.30
  -3  -8   0  329.27   15.10
  -3   8   0  322.67   14.30
   3   8   0  295.27   12.80
  -3   8   0  331.57   16.80
  -3   8   0  344.37   14.20
  -3   8   0  287.67   13.20
  -3   8   0  311.57   15.30
  -3   8   0  328.17   16.00
  -3   8   0  322.57   15.10
  -3   8   0  295.97   12.20
   3   8   0  305.67   14.60
  -3   8   0  330.47   15.00
  -3   8   0  325.67   14.10
  -3   8   0  342.87   15.20
  -3   8   0  310.07   18.60
  -3   8   0  337.77   13.20
  -4  -8   0  240.98   12.60
  -4  -8   0  238.08   13.40
  -4  -8   0  230.48   12.40
   4   8   0  241.28    9.70
  -4   8   0  230.68   11.80
   4   8   0  228.68   10.30
  -4   8   0  233.08   13.60
  -4   8   0  235.78   10.80
  -4   8   0  236.08   10.30
  -4   8   0  254.57   14.20
  -4   8   0  239.48   12.30
   4   8   0  240.88   12.00
  -4   8   0  234.68   10.80
  -4   8   0  230.88   11.30
  -4   8   0  228.98   12.30
  -4   8   0  245.98   12.10
  -4   8   0  247.78   13.00
  -5  -8   0   86.99    6.30
   5  -8   0   84.79    4.30
  -5   8   0   88.89    6.20
  -5   8   0   81.49    5.20
   5   8   0   80.09    4.40
  -5   8   0   75.29    5.40
   5   8   0   71.99    4.40
   5   8   0   80.79    5.40
  -5   8   0   76.89    4.60
  -5   8   0   82.59    4.50
  -5   8   0   80.99    5.80
  -5   8   0   83.29    7.00
  -5   8   0   83.89    4.60
  -5   8   0   84.49    5.60
  -6  -8   0  101.59    6.60
  -6  -8   0   88.09    3.90
  -6   8   0   89.59    4.80
  -6   8   0   94.89    4.40
  -6   8   0   92.19    5.10
  -6   8   0   88.99    5.10
   6   8   0   96.29    5.10
   6   8   0   99.09    4.10
  -6   8   0   93.59    5.50
  -6   8   0   82.79    6.30
   0  -9   0   -0.90    0.70
   0  -9   0    1.20    0.70
   0  -9   0   -1.10    0.90
   0   9   0   -0.20    0.70
   0   9   0    3.80    1.20
   0   9   0    0.70    0.60
   0   9   0    1.00    0.60
   0   9   0    0.40    0.50
   0   9   0    1.80    1.10
   0   9   0   -0.50    0.70
   0   9   0    0.80    2.30
   0   9   0    1.30    0.70
   0   9   0    0.20    1.00
  -1  -9   0  152.08    8.10
  -1  -9   0  159.48   11.50
  -1  -9   0  153.28    8.10
   1  -9   0  154.08    7.50
  -1  -9   0  166.18    9.00
  -1  -9   0  154.68    8.60
   1   9   0  156.18    8.00
   1   9   0  157.28    6.90
  -1   9   0  164.48   11.20
  -1   9   0  159.38   10.10
  -1   9   0  157.68    9.40
   1   9   0  140.89    7.80
  -1   9   0  157.68    7.40
  -1   9   0  161.28    8.40
  -1   9   0  162.08    7.70
   1   9   0  153.38    8.00
  -1   9   0  174.18    9.40
   1   9   0  160.68    8.10
  -1   9   0  168.48    8.60
   1   9   0  158.38    9.70
  -1   9   0  156.58    6.80
  -2  -9   0   36.70    3.60
  -2  -9   0   30.20    3.40
  -2  -9   0   33.50    3.90
  -2  -9   0   25.90    5.30
   2  -9   0   29.10    2.50
   2   9   0   28.90    3.10
  -2   9   0   30.40    3.10
  -2   9   0   47.60    7.30
   2   9   0   31.30    2.70
   2   9   0   31.00    2.30
  -2   9   0   31.20    3.70
  -2   9   0   35.60    3.70
  -2   9   0   30.50    3.10
  -2   9   0   26.20    2.50
  -2   9   0   32.60    4.20
  -2   9   0   29.50    2.50
  -2   9   0   30.40    3.30
  -2   9   0   31.40    2.20
  -3  -9   0  791.62   30.80
  -3  -9   0  756.52   30.90
  -3  -9   0  756.12   30.60
  -3  -9   0  779.42   32.20
  -3   9   0  795.42   31.20
  -3   9   0  842.12   32.10
  -3   9   0  745.93   33.10
  -3   9   0  775.72   29.40
  -3   9   0  761.12   31.00
  -3   9   0  821.82   29.60
  -3   9   0  787.42   29.80
   3   9   0  781.02   27.60
  -3   9   0  663.53   27.00
  -3   9   0  786.82   28.30
  -3   9   0  797.52   30.60
   3   9   0  775.52   30.10
  -4  -9   0   30.40    3.90
  -4  -9   0   38.00    5.40
  -4  -9   0   37.80    4.10
   4   9   0   38.80    3.10
  -4   9   0   38.90    3.90
  -4   9   0   41.30    3.50
  -4   9   0   37.30    3.80
  -4   9   0   36.80    3.70
  -4   9   0   36.40    3.10
   4   9   0   41.10    3.80
  -4   9   0   42.70    3.40
   4   9   0   40.90    2.70
  -4   9   0   35.70    2.80
  -4   9   0   42.20    4.30
  -4   9   0   42.10    4.90
  -5  -9   0   20.60    3.10
  -5   9   0   19.80    1.70
   5   9   0   20.00    2.30
   5   9   0   19.70    1.50
   5   9   0   20.50    1.60
  -5   9   0   19.20    2.50
  -5   9   0   15.50    1.90
  -5   9   0   19.00    2.60
  -5   9   0   17.30    3.20
  -5   9   0   16.30    2.00
  -5   9   0   21.00    2.50
  -5   9   0   20.50    2.20
  -6  -9   0   40.00    2.30
  -6   9   0   41.20    2.60
  -6   9   0   42.40    2.20
  -6   9   0   37.20    2.30
   6   9   0   42.00    2.60
  -6   9   0   36.90    2.70
   6   9   0   41.70    2.00
   0 -10   0 2259.67   80.59
   0 -10   0 2246.98   80.89
   0 -10   0 2187.88   79.79
   0  10   0 2291.77   78.39
   0  10   0 2202.78   78.59
   0  10   0 2415.16   82.19
   0  10   0 2365.36   80.39
   0  10   0 2411.76   80.09
   0  10   0 2360.46   83.59
   0  10   0 2449.66   80.69
  -1 -10   0  277.87   13.40
  -1 -10   0  276.37   12.80
  -1 -10   0  282.97   13.30
   1 -10   0  272.77   12.20
  -1  10   0  281.97   11.80
  -1  10   0  293.57   14.00
   1  10   0  281.47   12.50
  -1  10   0  280.77   12.00
   1  10   0  288.57   14.50
  -1  10   0  298.07   15.20
   1  10   0  270.07   12.10
   1  10   0  285.97   11.20
  -1  10   0  284.07   11.10
  -1  10   0  285.17   13.10
   1  10   0  279.07   12.40
  -1  10   0  287.17   12.90
   1  10   0  279.97   11.50
   1  10   0  276.87   11.90
  -2 -10   0   40.40    4.20
  -2 -10   0   39.70    3.80
  -2 -10   0   37.80    3.60
   2 -10   0   37.70    3.00
  -2  10   0   35.30    2.80
  -2  10   0   37.90    3.40
  -2  10   0   30.80    3.60
   2  10   0   35.30    2.50
  -2  10   0   40.50    4.10
  -2  10   0   37.60    3.60
   2  10   0   36.80    3.30
  -2  10   0   40.50    4.50
   2  10   0   32.00    2.90
  -2  10   0   35.00    2.80
  -2  10   0   36.50    2.40
   2  10   0   35.50    3.30
  -3 -10   0   51.39    5.30
  -3 -10   0   53.89    4.80
  -3 -10   0   39.30    5.90
  -3  10   0   55.49    4.10
  -3  10   0   53.69    4.60
  -3  10   0   53.59    4.60
   3  10   0   48.40    3.70
  -3  10   0   48.90    4.10
  -3  10   0   57.09    5.40
  -3  10   0   51.99    4.00
  -3  10   0   48.30    3.30
   3  10   0   53.79    4.20
   3  10   0   49.70    3.10
  -3  10   0   39.30    3.00
  -4 -10   0   58.59    5.50
  -4 -10   0   45.90    7.40
  -4 -10   0   65.09    5.00
   4  10   0   63.49    3.30
  -4  10   0   61.59    4.70
  -4  10   0   57.89    4.70
  -4  10   0   59.69    3.90
   4  10   0   60.49    4.20
   4  10   0   60.39    3.70
  -4  10   0   59.49    3.60
  -4  10   0   61.19    3.90
  -4  10   0   64.39    5.10
  -4  10   0   60.09    4.20
  -5 -10   0   48.20    2.70
  -5  10   0   52.19    2.90
  -5  10   0   50.69    3.70
   5  10   0   48.80    2.50
  -5  10   0   51.19    3.50
  -5  10   0   51.09    3.70
  -5  10   0   48.90    3.10
   5  10   0   53.79    2.60
   5  10   0   57.39    3.40
   0 -11   0    1.30    1.00
   0 -11   0    3.50    1.00
   0 -11   0    1.20    0.90
   0  11   0    0.20    0.40
   0  11   0    0.50    0.50
   0  11   0    0.00    0.40
   0  11   0   -0.30    0.90
   0  11   0   -0.60    0.30
   1 -11   0   25.50    3.00
  -1 -11   0   25.70    2.80
  -1 -11   0   23.50    2.60
   1 -11   0   27.20    2.70
  -1 -11   0   26.40    3.30
  -1  11   0   26.90    1.90
   1  11   0   26.60    2.50
  -1  11   0   26.00    2.70
   1  11   0   25.90    2.00
   1  11   0   26.90    2.40
  -1  11   0   26.80    3.20
   1  11   0   24.10    2.50
   1  11   0   28.50    3.90
  -1  11   0   23.00    3.40
  -1  11   0   25.50    2.40
  -1  11   0   26.40    2.70
   1  11   0   22.60    1.90
   2 -11   0   20.10    2.30
  -2 -11   0   18.90    2.20
   2 -11   0   15.00    2.20
  -2 -11   0   18.40    5.10
  -2 -11   0   18.40    2.50
   2  11   0   17.20    1.90
  -2  11   0   20.30    2.60
  -2  11   0   20.60    2.40
   2  11   0   17.60    1.60
  -2  11   0   15.40    1.70
  -2  11   0   12.10    1.50
   2  11   0   17.60    1.60
   2  11   0   14.90    2.10
  -2  11   0   16.40    2.80
  -2  11   0   14.70    1.70
   2  11   0   18.00    2.10
  -2  11   0   19.50    2.40
  -3 -11   0  511.15   22.10
  -3 -11   0  539.65   21.40
   3  11   0  483.45   19.20
   3  11   0  515.95   19.10
  -3  11   0  476.65   18.60
  -3  11   0  511.05   21.70
  -3  11   0  517.75   20.60
   3  11   0  519.35   18.20
  -3  11   0  488.55   19.60
  -3  11   0  515.45   19.60
   3  11   0  483.35   18.40
  -4 -11   0  129.89    6.60
  -4  11   0  118.89    5.60
  -4  11   0  116.79    6.80
  -4  11   0  115.39    5.70
   4  11   0  128.49    5.40
   4  11   0  129.29    5.80
  -4  11   0  119.89    5.40
  -4  11   0  122.29    6.40
   4  11   0  123.19    5.50
   4  11   0  122.69    5.10
   5  11   0   17.60    1.00
   5  11   0   17.10    1.10
  -5  11   0   15.40    1.60
   5  11   0   19.00    1.40
   0 -12   0  169.08    8.60
   0 -12   0  202.88    9.80
   0 -12   0  191.48    9.10
   0  12   0  199.58   10.70
   0  12   0  197.98    9.00
   0  12   0  185.88    8.40
   0  12   0  178.88    7.60
   0  12   0  193.48    8.60
  -1 -12   0   41.20    3.10
   1 -12   0   43.90    3.50
   1 -12   0   31.90    3.00
  -1 -12   0   37.20    3.80
  -1 -12   0   37.60    3.30
  -1  12   0   36.90    3.90
   1  12   0   37.50    3.00
  -1  12   0   39.30    3.20
  -1  12   0   36.50    3.00
   1  12   0   36.00    2.80
   1  12   0   37.60    2.20
  -1  12   0   36.40    2.60
   1  12   0   34.90    2.50
  -1  12   0   31.50    2.00
  -2 -12   0   14.70    2.80
  -2 -12   0   15.30    2.50
  -2  12   0   14.70    1.80
  -2  12   0   15.60    1.80
   2  12   0   14.00    1.20
  -2  12   0   15.90    2.40
   2  12   0   12.50    1.20
   2  12   0   14.20    1.60
  -3 -12   0   30.70    3.10
  -3 -12   0   26.40    3.70
  -3  12   0   27.70    2.20
  -3  12   0   30.40    3.00
  -3  12   0   27.50    2.50
   3  12   0   27.90    2.10
  -3  12   0   24.70    2.10
   3  12   0   27.00    1.70
   3  12   0   25.50    1.60
   4  12   0   91.99    3.80
  -4  12   0   91.29    4.60
  -4  12   0   86.69    4.00
   4  12   0   94.89    3.60
   0 -13   0   -1.70    0.90
   0 -13   0    0.60    0.80
   0  13   0    0.00    0.40
   0  13   0   -0.10    0.30
   0  13   0    0.40    0.40
  -1 -13   0   28.60    3.10
  -1 -13   0   24.80    2.60
   1  13   0   19.60    1.30
   1  13   0   19.90    1.70
  -1  13   0   21.00    1.90
  -1  13   0   23.20    2.80
  -1  13   0   22.70    1.80
  -1  13   0   16.20    1.90
  -2 -13   0    3.00    1.20
  -2  13   0    4.40    0.80
   2  13   0    4.60    0.60
  -2  13   0    4.20    0.80
   2  13   0    4.30    0.70
  -2  13   0    3.90    1.30
  -3  13   0   56.49    3.50
  -3  13   0   52.59    2.70
  -3  13   0   60.19    3.10
   3  13   0   62.19    3.10
  -8   0   1    5.30    1.00
   8   0  -1    5.30    1.00
  -8   0   1    4.70    1.00
  -8   0   1    6.40    0.90
   8   0  -1    7.30    1.00
   7   0  -1   27.70    2.40
  -7   0   1   26.10    3.10
  -7   0   1   25.40    1.90
  -7   0   1   27.60    2.40
  -7   0   1   28.00    2.70
   7   0  -1   28.30    2.50
   7   0  -1   27.80    2.60
  -7   0   1   24.60    2.80
  -7   0   1   27.60    2.70
  -7   0   1   26.20    2.80
  -6   0   1   81.69    6.30
  -6   0   1   74.39    4.20
  -6   0   1   67.59    5.20
   6   0  -1   77.59    4.80
  -6   0   1   72.29    4.90
  -6   0   1   80.19    5.10
   6   0  -1   72.09    4.70
   6   0  -1   72.69    5.10
  -6   0   1   81.99    5.40
  -6   0   1   79.89    5.30
  -5   0   1  629.54   23.90
   5   0  -1  596.04   23.60
  -5   0   1  622.04   22.90
  -5   0   1  634.14   23.80
  -5   0   1  654.23   23.50
  -5   0   1  603.54   22.50
  -5   0   1  629.14   24.90
  -5   0   1  600.24   23.10
   5   0  -1  622.84   25.30
   5   0  -1  610.94   23.20
  -5   0   1  606.84   24.10
   4   0  -1   65.79    3.90
  -4   0   1   60.29    4.10
  -4   0   1   66.89    4.10
  -4   0   1   60.69    4.60
  -3   0   1   96.39    4.70
  -3   0   1  105.59    5.50
  -3   0   1   92.59    4.80
  -2   0   1 1272.77   43.40
  -2   0   1 1248.18   42.90
   0   0  -1  108.99    4.90
   0   0   1  135.99    5.40
  -1   0  -1 1268.07   43.80
  -2   0  -1  681.13   27.30
  -3   0  -1  300.97   13.70
  -3   0  -1  288.77   12.40
  -3   0  -1  290.77   13.30
  -4   0  -1 1270.97   48.40
  -4   0  -1 1341.07   49.30
   4   0   1 1348.97   46.10
  -4   0  -1 1340.77   48.10
  -5   0  -1   43.30    3.20
  -5   0  -1   48.80    4.50
  -5   0  -1   47.00    3.40
   5   0   1   42.60    3.30
   5   0   1   42.30    3.30
  -5   0  -1   47.00    3.30
  -5   0  -1   46.80    3.80
   5   0   1   45.80    3.70
  -5   0  -1   40.70    3.60
  -6   0  -1    6.00    1.30
  -6   0  -1    6.00    1.10
  -6   0  -1    7.70    1.90
   6   0   1    8.10    1.70
  -6   0  -1    6.70    1.30
   6   0   1    5.50    1.40
   6   0   1    4.30    1.20
  -6   0  -1    7.10    1.90
  -6   0  -1    9.10    2.50
  -6   0  -1   11.20    2.20
  -6   0  -1   11.60    2.60
  -7   0  -1    1.40    0.50
   7   0   1    0.90    0.80
  -7   0  -1    0.40    0.80
   7   0   1    0.70    0.60
  -7   0  -1    0.70    0.50
   7   0   1    0.30    0.50
  -7   0  -1    1.00    0.80
  -8   0  -1   10.10    0.90
  -8   0  -1    7.90    0.80
  -8  -1   1   90.99    4.40
  -8  -1   1   94.79    5.00
   8  -1  -1  102.29    4.90
  -8  -1   1   96.49    4.40
  -8   1   1   86.99    4.70
   8   1  -1   87.49    4.30
  -8   1   1   87.59    4.30
  -8   1   1   97.39    4.90
  -7  -1   1    2.70    1.20
  -7  -1   1    2.60    0.80
  -7  -1   1    3.00    1.00
  -7  -1   1    2.80    1.20
   7  -1  -1    2.10    0.80
   7  -1  -1    3.90    0.90
  -7  -1   1    2.60    0.80
   7  -1  -1    1.40    0.70
  -7   1   1    1.90    0.90
  -7   1   1    2.30    1.20
  -7   1   1    2.00    0.90
  -7   1   1    2.00    1.10
  -7   1   1   -0.60    0.70
  -7   1   1    1.70    1.10
   7   1  -1    1.10    0.70
   7   1  -1    0.90    0.70
   7   1  -1    1.70    0.70
  -6  -1   1   62.79    4.50
  -6  -1   1   61.19    5.10
  -6  -1   1   55.89    3.40
  -6  -1   1   61.09    5.10
  -6  -1   1   62.99    4.70
   6  -1  -1   57.69    4.10
   6  -1  -1   60.89    4.40
  -6  -1   1   57.99    4.20
  -6  -1   1   60.19    4.10
   6  -1  -1   58.39    4.00
   6   1  -1   64.69    4.30
  -6   1   1   60.99    5.40
  -6   1   1   62.29    3.70
  -6   1   1   62.09    4.60
   6   1  -1   59.09    4.50
   6   1  -1   65.19    4.30
  -6   1   1   62.19    4.30
  -6   1   1   58.19    4.90
  -6   1   1   62.69    3.70
  -6   1   1   56.19    4.60
  -6   1   1   62.29    4.50
  -5  -1   1  193.88   10.00
  -5  -1   1  225.88   11.50
  -5  -1   1  208.68    9.50
  -5  -1   1  194.18    8.60
  -5  -1   1  203.88    9.20
   5  -1  -1  207.68    9.70
   5  -1  -1  193.68    9.20
  -5  -1   1  191.08   11.00
   5  -1  -1  201.68    9.00
  -5   1   1  199.28    9.50
  -5   1   1  207.28    9.40
  -5   1   1  197.08    9.00
   5   1  -1  206.08    9.30
  -5   1   1  205.58    9.90
  -5   1   1  191.88    9.50
  -5   1   1  209.48    8.70
  -5   1   1  211.08    9.90
  -5   1   1  200.38   10.60
   5   1  -1  200.18   10.00
  -5   1   1  208.48    9.60
   5   1  -1  205.88    9.40
   4  -1  -1 1001.90   35.90
  -4  -1   1 1042.90   36.80
  -4  -1   1 1072.09   38.70
  -4   1   1  958.10   37.50
   4   1  -1 1048.00   36.20
  -4   1   1 1033.50   36.50
  -3  -1   1  318.87   12.70
  -3  -1   1  345.27   14.30
  -2  -1   1 1493.55   50.99
  -2   1   1 1448.46   50.59
   1  -1  -1 4002.00  131.79
   1  -1  -1 3980.80  131.79
  -1  -1   1 4016.30  132.79
   1   1  -1 4073.29  132.89
  -1   1   1 3833.32  132.69
   0  -1  -1 1333.17   44.20
   0   1   1 1295.67   44.10
   0   1   1 1268.87   44.40
   0   1  -1 1346.67   44.40
  -1  -1  -1 3775.12  122.89
  -1   1  -1 3553.24  122.69
  -2  -1  -1 7465.05  248.58
  -2   1  -1 7410.96  248.18
  -3  -1  -1 1979.00   69.59
  -3  -1  -1 2090.99   71.69
  -3   1  -1 2031.30   70.39
  -3   1  -1 1993.40   69.79
  -3   1  -1 2003.30   71.19
  -4  -1  -1  676.13   27.40
  -4  -1  -1  630.54   25.00
  -4  -1  -1  606.54   24.50
   4  -1   1  652.73   23.10
   4   1   1  660.43   23.30
  -4   1  -1  593.64   24.20
  -4   1  -1  588.44   28.90
  -4   1  -1  629.84   24.90
  -5  -1  -1  161.88    7.60
   5  -1   1  172.48    8.60
  -5  -1  -1  174.58    9.90
  -5  -1  -1  169.48    8.40
  -5  -1  -1  163.18    7.70
  -5  -1  -1  144.79   11.30
   5  -1   1  154.68    7.60
   5  -1   1  151.68    7.70
  -5  -1  -1  154.58    9.70
  -5   1  -1  180.78    9.20
  -5   1  -1  174.48    8.70
  -5   1  -1  176.18    8.30
  -5   1  -1  162.88    7.80
  -5   1  -1  160.68    7.70
  -5   1  -1  163.58   10.00
   5   1   1  157.78    7.80
  -5   1  -1  161.78    9.50
   5   1   1  162.28    8.50
   5   1   1  166.08    7.90
  -6  -1  -1   40.60    3.70
  -6  -1  -1   49.99    5.00
   6  -1   1   44.90    3.70
  -6  -1  -1   43.60    3.40
   6  -1   1   42.80    3.30
   6  -1   1   44.30    3.30
  -6  -1  -1   40.70    3.00
  -6  -1  -1   41.30    3.60
  -6   1  -1   40.00    2.90
  -6   1  -1   42.20    3.40
  -6   1  -1   40.90    4.10
  -6   1  -1   40.40    3.10
   6   1   1   41.50    3.60
   6   1   1   40.40    3.20
  -6   1  -1   48.00    4.90
  -6   1  -1   42.40    3.60
   6   1   1   36.40    3.10
  -6   1  -1   37.50    3.90
  -6   1  -1   38.90    3.90
   7  -1   1    3.90    1.00
  -7  -1  -1    3.20    1.10
  -7  -1  -1    3.00    0.90
   7  -1   1    3.70    1.10
   7  -1   1    2.80    1.10
  -7  -1  -1    3.60    1.10
  -7  -1  -1    3.60    0.70
  -7   1  -1    4.60    1.20
  -7   1  -1    4.10    0.80
  -7   1  -1    6.30    1.40
  -7   1  -1    4.30    1.60
   7   1   1    3.20    0.80
  -7   1  -1    5.30    1.50
   7   1   1    4.60    1.00
   7   1   1    4.40    1.20
  -8  -1  -1    8.80    0.80
  -8  -1  -1   11.10    1.00
  -8   1  -1   11.60    1.00
  -8  -2   1   65.79    3.40
  -8  -2   1   72.29    3.40
  -8  -2   1   61.29    3.30
   8  -2  -1   78.49    3.40
   8  -2  -1   73.79    3.30
  -8   2   1   60.59    3.40
   8   2  -1   72.19    3.60
   8   2  -1   72.59    3.00
  -8   2   1   70.49    3.70
  -8   2   1   69.49    3.60
  -7  -2   1   29.30    2.50
  -7  -2   1   26.30    3.70
  -7  -2   1   32.20    3.10
   7  -2  -1   29.50    2.40
  -7  -2   1   33.20    2.80
  -7  -2   1   29.00    2.40
   7  -2  -1   25.80    2.40
  -7  -2   1   25.30    2.70
   7  -2  -1   32.80    2.50
   7   2  -1   32.40    2.50
   7   2  -1   30.10    2.80
  -7   2   1   30.90    3.30
  -7   2   1   29.60    3.00
   7   2  -1   29.90    2.40
  -7   2   1   24.60    2.40
  -7   2   1   30.70    3.60
  -7   2   1   34.20    2.70
  -7   2   1   28.90    2.70
  -7   2   1   29.10    2.80
   6  -2  -1  347.37   14.50
  -6  -2   1  362.76   16.50
   6  -2  -1  361.76   15.00
  -6  -2   1  372.16   15.20
  -6  -2   1  361.46   14.80
  -6  -2   1  353.96   14.70
   6  -2  -1  340.47   14.60
  -6  -2   1  355.66   15.50
  -6   2   1  371.36   16.50
  -6   2   1  382.66   15.40
   6   2  -1  362.56   14.90
  -6   2   1  330.97   17.00
  -6   2   1  362.96   14.10
  -6   2   1  342.77   14.70
  -6   2   1  351.46   15.40
   6   2  -1  357.46   15.70
   6   2  -1  368.26   14.90
  -6   2   1  370.06   15.60
  -6   2   1  360.86   16.20
   5  -2  -1  593.34   22.80
  -5  -2   1  561.14   26.40
  -5  -2   1  627.14   23.30
  -5  -2   1  621.74   24.70
  -5  -2   1  626.64   23.10
  -5   2   1  647.54   25.60
  -5   2   1  623.34   24.80
  -5   2   1  619.34   24.60
  -5   2   1  589.24   25.90
  -5   2   1  651.03   23.80
  -5   2   1  608.54   23.90
  -5   2   1  614.84   23.40
  -5   2   1  635.94   24.00
   5   2  -1  608.84   23.40
  -5   2   1  645.64   23.80
   5   2  -1  599.34   23.20
  -5   2   1  608.24   22.50
   5   2  -1  600.94   24.30
  -5   2   1  648.24   24.60
  -4  -2   1   63.49    5.40
   4  -2  -1   58.09    4.90
  -4  -2   1   58.39    4.00
  -4   2   1   53.49    3.50
  -4   2   1   64.99    5.00
   4   2  -1   61.79    3.70
  -3  -2   1  629.34   23.60
  -3  -2   1  667.83   25.70
  -3   2   1  654.53   25.30
  -2  -2   1  256.07   11.00
  -2   2   1  244.88   10.80
   1   2  -1 7974.40  263.67
   0  -2  -1  559.54   19.20
   0   2  -1  563.54   19.90
   0   2   1  536.95   19.60
   0   2   1  539.35   18.90
   0   2  -1  534.15   19.40
  -1  -2  -1  285.37   11.40
  -1   2  -1  272.07   10.50
  -2  -2  -1  210.18   10.00
  -2   2  -1  209.08    8.70
  -2   2  -1  209.28   10.30
  -3  -2  -1  699.13   27.50
  -3  -2  -1  701.73   25.50
   3   2   1  670.43   24.30
  -3   2  -1  672.13   27.10
  -3   2  -1  657.33   25.50
   4  -2   1  744.53   26.60
  -4  -2  -1  754.22   28.60
  -4  -2  -1  745.03   31.30
   4   2   1  741.63   26.90
   4   2   1  743.73   26.80
   4   2   1  759.92   27.80
  -4   2  -1  703.33   28.10
  -4   2  -1  709.33   26.50
  -4   2  -1  735.73   30.50
   5  -2   1   50.89    3.50
  -5  -2  -1   32.20    6.20
   5  -2   1   53.29    3.60
  -5  -2  -1   51.49    3.30
  -5  -2  -1   52.69    4.90
   5  -2   1   55.19    3.90
  -5  -2  -1   49.10    3.40
  -5   2  -1   50.99    4.30
  -5   2  -1   57.69    4.80
  -5   2  -1   51.59    4.00
   5   2   1   45.50    3.50
  -5   2  -1   50.39    3.50
  -5   2  -1   38.10    6.20
  -5   2  -1   50.69    3.90
  -5   2  -1   50.49    5.20
  -5   2  -1   53.59    4.60
   5   2   1   46.10    4.00
   5   2   1   42.40    4.00
  -5   2  -1   49.20    3.40
   5   2   1   46.00    3.50
  -6  -2  -1   95.49    6.20
  -6  -2  -1   85.69    4.70
  -6  -2  -1   86.89    5.80
  -6  -2  -1   92.89    5.20
   6  -2   1   91.19    5.20
   6  -2   1   87.09    5.10
  -6  -2  -1   84.99    7.50
   6   2   1   95.89    5.20
  -6   2  -1   86.79    5.00
  -6   2  -1   94.09    6.60
  -6   2  -1   91.09    5.00
   6   2   1   83.39    5.70
  -6   2  -1   92.29    6.30
  -6   2  -1   87.99    7.20
  -6   2  -1   93.39    5.70
  -6   2  -1   89.49    5.70
   6   2   1   94.29    5.30
  -7  -2  -1   59.89    3.10
   7  -2   1   71.99    3.80
   7  -2   1   69.19    5.20
  -7  -2  -1   67.69    5.30
  -7  -2  -1   73.79    4.70
   7  -2   1   64.59    3.80
  -7  -2  -1   73.89    3.90
  -7  -2  -1   72.39    4.40
   7   2   1   68.09    3.60
   7   2   1   58.29    4.60
  -7   2  -1   61.19    3.40
  -7   2  -1   64.29    4.10
  -7   2  -1   59.39    4.20
  -7   2  -1   65.09    4.60
  -7   2  -1   59.69    4.00
   7   2   1   68.19    4.20
  -8  -3   1  215.48    8.30
   8  -3  -1  237.78    8.30
  -8  -3   1  218.08    8.50
  -8   3   1  223.48    8.90
   8   3  -1  226.68    8.80
  -8   3   1  223.28    8.80
  -7  -3   1   34.10    4.10
  -7  -3   1   33.60    2.60
  -7  -3   1   39.60    2.90
   7  -3  -1   36.90    2.70
  -7  -3   1   35.10    3.00
  -7   3   1   43.90    3.40
  -7   3   1   38.20    3.00
  -7   3   1   34.90    3.10
  -7   3   1   36.00    2.30
   7   3  -1   39.40    3.20
  -7   3   1   35.20    3.20
  -7   3   1   35.30    3.70
  -7   3   1   34.40    3.90
   7   3  -1   37.50    2.70
   7   3  -1   36.70    2.70
   6  -3  -1   15.20    1.90
   6  -3  -1   20.00    2.00
  -6  -3   1   17.00    2.30
  -6  -3   1   21.10    1.90
  -6  -3   1   14.70    1.90
  -6  -3   1   16.30    2.20
  -6   3   1   13.50    2.40
  -6   3   1   17.20    2.00
  -6   3   1   11.30    2.10
  -6   3   1   16.40    2.10
  -6   3   1   19.80    2.10
   6   3  -1   16.20    2.30
  -6   3   1   15.10    2.00
  -6   3   1   16.80    1.70
   6   3  -1   13.30    1.90
  -6   3   1   19.50    3.00
   6   3  -1   15.90    1.90
  -5  -3   1  140.29   10.00
  -5  -3   1  135.89    8.00
  -5  -3   1  128.19    6.60
   5  -3  -1  116.89    6.30
  -5   3   1  134.29    8.10
  -5   3   1  134.19    6.40
   5   3  -1  135.09    6.90
  -5   3   1  130.29    7.10
  -5   3   1  128.39   11.20
   5   3  -1  140.99    8.20
  -5   3   1  137.29    7.40
  -5   3   1  138.59    7.30
  -5   3   1  139.19    7.70
  -5   3   1  125.79    8.40
  -5   3   1  133.09    8.00
  -5   3   1  142.09    7.60
  -5   3   1  145.49    8.00
   5   3  -1  141.09    7.90
   5   3  -1  133.19    7.00
  -4  -3   1  374.36   18.10
  -4   3   1  385.96   18.10
   4   3  -1  382.06   14.90
  -3  -3   1  245.78   12.20
  -3  -3   1  246.08   11.00
  -3  -3   1  238.98   10.20
  -3   3   1  237.98   12.10
  -2  -3   1  121.69    6.90
  -2   3   1  118.69    6.80
  -1  -3   1  257.47   11.10
  -1   3   1  269.37   11.40
   1   3  -1  266.77   10.00
   0  -3   1  225.38    9.00
   0  -3  -1  217.08    8.80
   0   3   1  213.98    9.40
   0   3   1  202.08    8.10
   0   3  -1  229.88    9.40
   0   3  -1  236.48    9.00
  -1  -3  -1 1689.93   58.39
  -1   3  -1 1685.53   58.89
  -1   3  -1 1670.53   56.59
  -2  -3  -1  485.05   20.20
  -2   3  -1  500.15   20.40
  -3  -3  -1   91.29    6.50
  -3  -3  -1   75.39    5.00
   3   3   1   73.19    4.00
  -3   3  -1   77.39    4.60
  -3   3  -1   89.99    6.60
  -4  -3  -1  135.09    8.00
   4  -3   1  133.79    6.30
  -4  -3  -1  143.79   10.30
  -4   3  -1  144.19    7.30
  -4   3  -1  137.09    8.70
  -4   3  -1  114.89    6.90
  -4   3  -1  141.89    7.20
   4   3   1  142.19    7.50
  -4   3  -1  120.99    9.20
   4   3   1  136.79    6.60
  -4   3  -1  144.49    7.90
  -4   3  -1  143.39    6.60
   4   3   1  134.49    6.60
  -4   3  -1  149.69    8.30
   5  -3   1  723.53   26.90
   5  -3   1  718.83   26.20
  -5  -3  -1  696.43   32.30
  -5  -3  -1  730.83   29.50
   5  -3   1  677.93   26.10
  -5  -3  -1  702.53   25.90
   5   3   1  685.33   27.60
   5   3   1  688.63   26.10
  -5   3  -1  708.93   26.20
  -5   3  -1  662.73   30.50
  -5   3  -1  711.13   26.70
   5   3   1  686.53   26.10
  -5   3  -1  711.93   31.50
  -5   3  -1  755.42   28.60
  -5   3  -1  764.42   30.70
  -5   3  -1  634.84   26.60
  -5   3  -1  760.22   27.50
   5   3   1  749.82   27.70
  -5   3  -1  738.93   27.30
  -5   3  -1  724.53   34.50
   6  -3   1  264.37   11.80
  -6  -3  -1  258.57   11.00
  -6  -3  -1  278.47   11.00
  -6  -3  -1  263.77   11.30
  -6  -3  -1  283.17   14.40
   6  -3   1  278.67   11.60
  -6  -3  -1  273.57   13.20
   6  -3   1  270.37   11.50
  -6   3  -1  261.27   12.10
  -6   3  -1  267.37   12.40
   6   3   1  263.67   12.30
  -6   3  -1  275.77   13.80
  -6   3  -1  286.97   11.50
  -6   3  -1  311.57   15.00
   6   3   1  291.67   14.50
  -6   3  -1  258.47   13.10
   6   3   1  277.57   11.50
  -6   3  -1  270.37   15.00
  -6   3  -1  253.87   11.50
   7  -3   1   30.30    2.80
  -7  -3  -1   40.60    3.00
   7  -3   1   38.70    2.70
  -7  -3  -1   39.50    3.30
  -7  -3  -1   42.40    2.40
   7  -3   1   38.30    2.60
  -7   3  -1   39.50    2.90
   7   3   1   39.20    2.20
  -7   3  -1   42.40    3.30
  -7   3  -1   38.70    2.40
  -7   3  -1   34.50    2.80
  -7   3  -1   38.40    3.50
  -7   3  -1   43.40    3.00
   7   3   1   41.60    3.00
   8   4  -1   78.09    3.40
  -8   4   1   71.19    3.30
  -8   4   1   70.79    3.50
  -7  -4   1  108.09    5.70
   7  -4  -1  103.09    5.00
  -7  -4   1  106.69    5.10
   7  -4  -1  111.39    5.10
  -7  -4   1  113.29    5.60
  -7  -4   1   97.59    6.30
   7   4  -1   97.19    4.60
  -7   4   1   98.99    5.90
  -7   4   1  102.49    5.50
  -7   4   1  101.59    7.20
  -7   4   1  102.79    4.80
  -7   4   1  102.59    5.70
  -7   4   1  102.49    5.70
  -7   4   1  100.49    6.70
   7   4  -1  100.49    5.70
   7   4  -1  101.09    4.90
   6  -4  -1  117.69    6.00
   6  -4  -1  119.09    6.00
  -6  -4   1  121.09    6.40
  -6  -4   1  132.79    8.80
  -6   4   1  121.29    7.30
  -6   4   1  122.39    6.00
  -6   4   1  121.69    7.30
   6   4  -1  127.79    6.30
  -6   4   1  126.49    7.10
   6   4  -1  133.79    7.50
   6   4  -1  122.69    6.20
  -6   4   1  114.89    7.10
  -6   4   1  138.59    9.00
  -6   4   1  124.69    8.90
  -6   4   1  120.29    8.20
   6   4  -1  112.49    7.00
  -5  -4   1  250.17   12.30
  -5  -4   1  220.48   14.10
   5  -4  -1  225.08    9.80
  -5  -4   1  231.98   10.00
  -5   4   1  238.08   11.10
  -5   4   1  244.98   12.60
   5   4  -1  245.98   11.90
   5   4  -1  239.18   10.40
  -5   4   1  247.18   13.10
  -5   4   1  241.08   12.00
  -5   4   1  250.37   11.50
  -5   4   1  234.68   11.60
   5   4  -1  211.88   11.60
  -5   4   1  231.18   10.00
  -5   4   1  232.58   11.00
   5   4  -1  237.18   11.00
  -5   4   1  250.37   11.40
  -5   4   1  224.18   14.10
  -5   4   1  233.48   11.50
  -4  -4   1  165.98   10.90
  -4   4   1  168.58    8.60
  -4   4   1  163.58    7.40
  -4   4   1  158.78    8.10
   4   4  -1  162.28    7.70
  -4   4   1  172.38    8.40
  -4   4   1  166.58    8.60
  -4   4   1  164.58   10.60
  -4   4   1  169.18    8.40
   4   4  -1  162.68    7.80
  -4   4   1  167.78    7.30
  -4   4   1  176.08    9.20
  -4   4   1  171.58    9.40
  -4   4   1  170.58    7.70
  -4   4   1  184.98    8.50
   4   4  -1  174.38    8.90
  -4   4   1  166.48    8.30
  -3  -4   1  327.57   14.80
  -3  -4   1  350.76   14.20
  -3  -4   1  361.86   15.00
  -3  -4   1  360.16   16.80
   3   4  -1  324.77   13.20
  -3   4   1  370.96   18.90
  -2  -4   1   23.90    2.10
  -2  -4   1   26.10    2.90
  -2   4   1   24.20    3.00
  -1  -4   1 3081.59  104.59
   1  -4  -1 2966.50  102.29
   1   4  -1 3056.69  103.29
  -1   4   1 3165.78  105.19
   0  -4   1  568.74   20.50
   0  -4  -1  548.85   20.20
   0   4  -1  521.35   20.70
   0   4   1  532.95   20.80
  -1  -4  -1 3383.96  114.59
  -1   4  -1 3348.86  115.19
  -2  -4  -1  545.55   20.70
  -2  -4  -1  535.95   22.60
  -2   4  -1  560.04   23.00
  -3  -4  -1  580.44   25.00
  -3  -4  -1  587.14   22.30
  -3  -4  -1  546.55   23.40
  -3   4  -1  590.04   25.00
   3   4   1  530.35   20.30
   4  -4   1  195.18    8.60
  -4  -4  -1  199.98   10.60
  -4   4  -1  205.68    9.90
   4   4   1  190.28   10.10
  -4   4  -1  220.08   10.60
  -4   4  -1  200.48    9.80
  -4   4  -1  205.98    9.60
  -4   4  -1  206.48   12.80
  -4   4  -1  196.88   11.00
   4   4   1  184.38    8.60
  -4   4  -1  210.18    9.50
  -4   4  -1  206.08   11.70
  -4   4  -1  204.48    9.00
   4   4   1  199.98    9.90
  -4   4  -1  222.48   11.40
  -4   4  -1  214.58   10.00
   5  -4   1  143.89    7.00
  -5  -4  -1  144.69   11.30
  -5  -4  -1  139.79    6.70
  -5  -4  -1  144.39    9.40
  -5   4  -1  133.99   11.60
  -5   4  -1  145.09    9.10
  -5   4  -1  156.18    7.30
  -5   4  -1  151.18    8.60
  -5   4  -1  138.19    7.80
   5   4   1  136.29    6.80
  -5   4  -1  141.69    9.90
   5   4   1  131.69    8.10
  -5   4  -1  154.98    7.90
  -5   4  -1  148.49    9.40
  -5   4  -1  143.09    7.70
   5   4   1  144.69    7.90
  -5   4  -1  146.49    8.10
  -6  -4  -1  196.38    8.30
  -6  -4  -1  197.48   11.30
   6  -4   1  189.48    8.60
  -6  -4  -1  186.78    7.90
   6  -4   1  191.68    8.40
  -6   4  -1  189.68   11.90
  -6   4  -1  200.18   10.00
   6   4   1  187.38    8.00
   6   4   1  184.48    9.30
  -6   4  -1  189.08   10.30
  -6   4  -1  183.18    9.10
  -6   4  -1  179.88    8.30
   6   4   1  178.78    7.90
   6   4   1  178.98    9.20
  -6   4  -1  190.88    9.50
  -6   4  -1  185.38    8.70
  -6   4  -1  185.08   10.80
  -7  -4  -1   60.49    3.00
   7  -4   1   63.49    3.30
  -7  -4  -1   65.39    3.80
   7  -4   1   62.79    3.40
  -7  -4  -1   61.09    4.80
  -7   4  -1   66.39    3.70
  -7   4  -1   65.09    4.60
  -7   4  -1   61.49    3.20
  -7   4  -1   61.29    4.00
  -7   4  -1   64.69    3.90
   7   4   1   62.09    3.80
   7  -5  -1   56.59    2.90
  -7  -5   1   59.99    4.40
  -7  -5   1   52.29    3.40
  -7  -5   1   52.79    3.00
  -7  -5   1   54.49    3.10
   7  -5  -1   52.19    3.00
  -7   5   1   52.89    4.50
  -7   5   1   52.99    3.60
   7   5  -1   55.09    3.60
   7   5  -1   53.39    3.50
  -7   5   1   52.09    3.50
  -7   5   1   52.69    2.90
  -7   5   1   50.89    3.40
  -7   5   1   51.29    4.70
  -7   5   1   53.99    3.90
  -6  -5   1    2.80    1.20
  -6  -5   1    3.30    0.80
   6   5  -1    3.10    1.10
   6   5  -1    4.10    1.40
  -6   5   1    3.10    1.10
  -6   5   1    2.60    1.10
   6   5  -1    1.90    0.80
  -6   5   1    2.70    0.80
  -6   5   1    3.80    1.20
  -6   5   1    4.80    1.40
  -6   5   1    4.10    1.40
   6   5  -1    3.70    1.20
  -6   5   1    5.70    1.30
  -6   5   1    2.60    1.60
  -6   5   1    2.30    1.10
  -5  -5   1  153.38   10.90
  -5  -5   1  143.49    8.80
   5  -5  -1  144.79    6.70
  -5   5   1  157.88    9.90
  -5   5   1  160.28    9.50
  -5   5   1  147.29    7.00
  -5   5   1  150.18   11.20
  -5   5   1  142.19    8.10
   5   5  -1  138.39    6.90
  -5   5   1  145.19    8.40
  -5   5   1  153.48    8.80
  -5   5   1  154.48    8.20
  -5   5   1  143.79    8.30
   5   5  -1  146.29    8.20
   5   5  -1  137.69    8.60
  -5   5   1  146.89    8.70
   5   5  -1  137.99    6.90
  -5   5   1  156.78    8.20
  -4  -5   1  969.70   40.10
  -4  -5   1  959.80   36.10
  -4  -5   1  955.50   37.20
  -4  -5   1  883.61   36.90
  -4  -5   1  924.41   36.20
  -4   5   1  976.70   35.70
  -4   5   1  976.20   36.90
   4   5  -1 1001.00   36.00
  -4   5   1 1000.50   35.70
  -4   5   1 1006.70   35.70
  -4   5   1  998.50   36.00
  -4   5   1  935.51   34.80
  -4   5   1  980.60   36.90
  -4   5   1  961.30   34.40
  -4   5   1  926.11   34.90
  -4   5   1  972.80   39.90
   4   5  -1  872.01   36.30
   4   5  -1  933.71   34.20
  -4   5   1 1044.30   35.70
  -4   5   1  936.71   33.60
  -4   5   1  990.00   37.20
  -4   5   1 1004.50   36.10
  -4   5   1  987.20   34.20
  -3  -5   1  700.63   27.10
  -3  -5   1  718.73   29.60
  -3  -5   1  666.63   27.80
  -3  -5   1  730.03   27.00
   3   5  -1  643.84   24.70
  -3   5   1  712.03   29.70
  -2  -5   1  206.18    9.30
  -2  -5   1  200.28    9.00
  -2  -5   1  206.88    9.70
  -2  -5   1  207.48   11.20
  -2   5   1  205.98   11.40
   1  -5  -1  935.01   33.70
  -1  -5   1  944.31   35.70
   1   5  -1  957.60   34.40
  -1   5   1  991.10   36.30
   0  -5   1  288.77   13.20
   0  -5  -1  289.37   12.40
   0   5   1  309.87   13.40
   0   5  -1  288.07   13.10
  -1  -5  -1 1810.52   65.39
  -1   5  -1 1894.81   66.19
  -2  -5  -1 2081.39   74.69
  -2  -5  -1 2173.78   74.29
  -2  -5  -1 1940.81   71.69
  -2  -5  -1 2114.79   73.39
  -2   5  -1 2104.99   74.99
  -3  -5  -1  109.39    7.40
  -3  -5  -1   98.49    7.30
  -3  -5  -1  102.39    8.20
  -3  -5  -1   96.19    6.10
  -3   5  -1   97.89    6.30
  -3   5  -1  111.79    7.30
  -3   5  -1  110.89    9.20
  -3   5  -1  106.39    8.30
  -3   5  -1  104.59    6.30
  -3   5  -1  107.79    5.50
  -3   5  -1  101.49    6.20
  -4  -5  -1   88.59    7.00
   4  -5   1   96.99    5.10
  -4  -5  -1  106.49    8.80
  -4  -5  -1   98.39    6.90
  -4  -5  -1   88.29    7.80
  -4   5  -1  109.69    7.50
   4   5   1   99.89    6.60
   4   5   1   99.09    6.20
   4   5   1   96.59    5.00
  -4   5  -1  107.29    6.80
  -4   5  -1  106.89    6.50
  -4   5  -1  109.89    8.00
  -4   5  -1  104.89    7.60
  -4   5  -1  105.59    6.10
  -4   5  -1  111.39    6.20
  -4   5  -1  101.29    5.90
  -4   5  -1  104.29    5.50
  -4   5  -1  104.19    9.00
  -4   5  -1  115.19    6.60
  -4   5  -1  103.59    5.80
   5  -5   1  460.75   17.80
  -5  -5  -1  455.55   17.50
  -5  -5  -1  484.35   21.30
   5  -5   1  430.16   17.70
  -5   5  -1  463.75   18.80
  -5   5  -1  466.85   20.80
   5   5   1  478.35   19.20
  -5   5  -1  471.85   18.90
  -5   5  -1  449.26   19.40
  -5   5  -1  493.15   19.80
  -5   5  -1  482.85   22.70
  -5   5  -1  482.95   21.70
  -5   5  -1  461.65   18.00
  -5   5  -1  464.85   19.90
   5   5   1  452.65   17.20
   5   5   1  447.06   19.50
   6  -5   1   80.89    4.40
   6  -5   1   78.39    4.50
  -6  -5  -1   79.59    4.20
  -6  -5  -1   85.79    6.70
  -6   5  -1   77.89    5.30
  -6   5  -1   76.19    5.60
  -6   5  -1   72.89    6.20
  -6   5  -1   83.59    4.90
   6   5   1   80.69    5.10
   6   5   1   80.69    5.30
  -6   5  -1   75.79    4.40
  -6   5  -1   76.59    4.80
  -6   5  -1   80.29    5.60
   7  -5   1   77.39    3.60
  -7  -5  -1   82.59    4.20
   7  -5   1   77.49    3.70
  -7   5  -1   67.99    6.30
  -7   5  -1   78.49    4.30
  -7   5  -1   81.29    4.00
   7   5   1   77.39    4.10
  -7   5  -1   73.99    3.60
   7   5   1   74.59    4.00
  -7   5  -1   78.49    4.40
  -7  -6   1  140.59    6.10
  -7  -6   1  119.39    5.60
  -7  -6   1  136.89    6.00
  -7   6   1  135.29    6.30
   7   6  -1  137.09    6.20
  -7   6   1  127.89    6.20
  -7   6   1  130.19    6.30
   7   6  -1  125.39    6.00
  -7   6   1  138.49    6.70
  -7   6   1  146.09    7.80
  -7   6   1  137.89    5.50
  -6  -6   1   20.40    1.90
   6  -6  -1   18.60    1.90
  -6  -6   1   20.40    2.90
  -6   6   1   17.70    2.40
  -6   6   1   17.60    2.40
  -6   6   1   20.20    1.90
  -6   6   1   20.70    2.40
  -6   6   1   19.80    2.50
   6   6  -1   19.50    2.30
  -6   6   1   22.80    3.50
  -6   6   1   19.70    2.40
  -6   6   1   17.80    2.30
  -6   6   1   16.00    2.80
   6   6  -1   20.30    2.50
  -5  -6   1  138.79    8.60
   5   6  -1  129.89    7.50
  -5   6   1  134.79    7.80
  -5   6   1  148.39    8.20
  -5   6   1  130.89    7.80
  -5   6   1  136.59    9.10
  -5   6   1  136.79    7.60
   5   6  -1  124.59    5.90
  -5   6   1  134.49    8.30
  -5   6   1  129.69    7.80
   5   6  -1  136.59    8.20
  -5   6   1  130.79    6.50
  -5   6   1  122.29    6.80
  -5   6   1  145.69    9.70
  -5   6   1  140.79    8.60
  -4  -6   1  325.87   15.40
  -4  -6   1  303.07   15.10
  -4  -6   1  359.76   19.10
  -4  -6   1  329.67   16.10
  -4  -6   1  309.57   15.90
  -4   6   1  333.17   12.90
  -4   6   1  333.27   13.70
  -4   6   1  333.27   13.90
  -4   6   1  343.27   14.50
   4   6  -1  316.17   12.70
  -4   6   1  331.77   16.10
  -4   6   1  337.77   14.90
  -4   6   1  348.17   15.20
  -4   6   1  344.07   15.30
  -4   6   1  332.97   14.10
  -4   6   1  340.07   18.60
  -4   6   1  337.17   13.40
  -4   6   1  349.17   15.10
  -4   6   1  334.27   14.90
  -4   6   1  325.37   14.20
   4   6  -1  332.07   15.60
  -4   6   1  347.17   15.90
  -4   6   1  346.67   16.30
   4   6  -1  344.47   14.80
  -3  -6   1   33.70    3.10
  -3  -6   1   24.90    3.20
  -3  -6   1   28.50    3.10
  -3  -6   1   27.40    3.00
  -3  -6   1   34.00    4.50
  -3   6   1   31.30    3.00
  -3   6   1   23.10    2.50
  -3   6   1   25.40    2.30
  -3   6   1   28.90    3.00
  -3   6   1   27.80    3.00
  -3   6   1   29.40    2.90
  -3   6   1   27.60    3.00
  -3   6   1   26.90    2.20
   3   6  -1   24.80    3.20
  -3   6   1   27.20    2.90
   3   6  -1   28.50    2.80
  -3   6   1   32.00    3.50
  -3   6   1   28.20    3.30
  -3   6   1   29.80    4.00
  -3   6   1   21.50    1.90
  -3   6   1   32.10    2.90
  -3   6   1   26.10    2.50
  -3   6   1   35.30    3.40
  -2  -6   1  203.88   11.70
  -2  -6   1  203.08    9.60
  -2  -6   1  194.08    9.40
  -2  -6   1  212.78   10.10
  -2   6   1  211.78   12.10
  -1  -6   1  393.06   15.40
  -1  -6   1  405.96   17.80
   1  -6  -1  367.56   15.60
   1   6  -1  405.26   16.50
  -1   6   1  419.16   18.60
   0  -6   1  123.39    7.30
   0  -6  -1  133.59    7.30
   0   6   1  133.39    8.10
   0   6  -1  129.29    7.90
   1  -6   1  808.92   31.60
  -1  -6  -1  885.71   33.30
  -1  -6  -1  845.92   30.70
  -1   6  -1  862.11   34.70
  -2  -6  -1  384.56   16.40
  -2  -6  -1  372.76   15.70
  -2  -6  -1  370.46   18.30
  -2  -6  -1  377.06   15.70
  -2   6  -1  380.46   18.80
  -3  -6  -1   99.49    6.80
   3  -6   1   89.79    4.60
  -3  -6  -1   92.19    6.40
  -3  -6  -1   91.99    7.20
  -3  -6  -1   81.59    6.90
  -3  -6  -1   96.79    8.10
  -3   6  -1  102.09    5.70
  -3   6  -1  104.79    7.50
  -3   6  -1   90.79    7.10
  -3   6  -1   96.39    5.70
  -3   6  -1   94.79    8.40
  -3   6  -1   97.49    6.20
  -3   6  -1   86.69    5.70
  -3   6  -1   95.59    6.10
  -3   6  -1   95.29    7.00
  -3   6  -1   93.59    6.20
   3   6   1   88.59    6.10
   3   6   1   94.19    5.60
  -3   6  -1   98.29    5.00
  -3   6  -1  100.49    5.90
  -4  -6  -1    2.10    1.70
  -4  -6  -1    1.50    2.20
  -4  -6  -1    3.10    3.30
  -4   6  -1    3.10    1.70
  -4   6  -1    4.70    2.00
  -4   6  -1    0.30    1.80
  -4   6  -1    4.20    1.10
   4   6   1    2.90    1.70
  -4   6  -1    2.80    1.20
  -4   6  -1    2.00    2.10
  -4   6  -1    2.10    1.00
  -4   6  -1    3.30    1.10
  -4   6  -1    3.00    0.90
  -4   6  -1    2.00    1.30
  -4   6  -1    3.40    1.50
  -5  -6  -1  165.18   10.80
   5  -6   1  171.88    7.80
   5  -6   1  169.88    7.80
  -5   6  -1  174.38    8.90
  -5   6  -1  170.58    9.50
  -5   6  -1  188.38    9.00
  -5   6  -1  158.18    8.00
   5   6   1  178.58    9.40
  -5   6  -1  176.88   11.40
  -5   6  -1  164.28    8.00
   5   6   1  169.88    8.80
  -5   6  -1  179.48   10.40
  -5   6  -1  180.78   11.80
  -5   6  -1  183.38    9.70
   6  -6   1   55.89    3.50
   6  -6   1   60.19    3.50
  -6  -6  -1   59.89    3.30
  -6  -6  -1   58.69    6.00
   6   6   1   59.89    4.40
  -6   6  -1   56.39    3.50
  -6   6  -1   64.09    4.50
  -6   6  -1   64.39    5.60
  -6   6  -1   63.49    4.50
  -6   6  -1   65.09    4.00
  -6   6  -1   69.29    4.10
   6   6   1   58.89    3.90
  -7  -6  -1    0.90    0.50
   7  -6   1    0.30    0.40
  -7   6  -1    1.10    0.50
  -7   6  -1    1.50    0.60
  -7   6  -1    1.50    0.40
  -7   6  -1    1.50    0.70
   7   6   1    0.90    0.30
  -7  -7   1   92.79    4.10
  -7   7   1   95.69    4.40
  -7   7   1   98.49    3.80
   7   7  -1   78.89    4.20
  -7   7   1   86.09    5.40
   7   7  -1   97.69    3.70
  -7   7   1   91.39    4.60
  -7   7   1   82.19    4.70
  -6  -7   1   76.89    5.70
   6  -7  -1   70.89    3.80
  -6  -7   1   72.79    3.90
  -6   7   1   76.49    5.20
  -6   7   1   74.59    6.10
  -6   7   1   70.99    4.70
   6   7  -1   70.89    4.40
  -6   7   1   67.59    4.50
  -6   7   1   74.19    4.70
  -6   7   1   69.69    3.90
  -6   7   1   69.59    6.10
  -6   7   1   76.09    4.90
  -5  -7   1  106.89    7.30
  -5   7   1  110.29    7.00
  -5   7   1  100.59    5.90
   5   7  -1  103.89    7.90
  -5   7   1  105.69    8.10
  -5   7   1  107.19    7.10
   5   7  -1  113.79    9.70
  -5   7   1  102.99    6.90
  -5   7   1  105.89    6.80
  -5   7   1  105.79    6.50
  -5   7   1  108.49    5.60
  -5   7   1  116.79    7.30
  -5   7   1  106.69    8.20
  -4  -7   1  226.08   12.80
  -4  -7   1  221.28   12.30
  -4  -7   1  217.18   11.80
  -4  -7   1  235.98   15.30
  -4  -7   1  224.08   11.70
  -4   7   1  219.38    9.40
  -4   7   1  218.98   10.60
  -4   7   1  235.48   12.90
  -4   7   1  235.58   13.00
  -4   7   1  235.48   11.60
  -4   7   1  239.78   12.00
  -4   7   1  235.18   11.80
  -4   7   1  224.18   11.50
  -4   7   1  223.28   11.50
  -4   7   1  229.28   10.60
  -4   7   1  220.38   14.90
  -4   7   1  222.38   10.60
  -4   7   1  234.18   11.20
  -4   7   1  247.08   10.10
  -4   7   1  233.68   10.40
  -4   7   1  243.88   12.50
   4   7  -1  222.88   10.80
  -3  -7   1  516.05   22.90
  -3  -7   1  541.25   26.20
  -3  -7   1  564.64   22.90
  -3  -7   1  533.65   22.10
  -3  -7   1  527.15   21.90
  -3   7   1  539.55   26.30
  -3   7   1  530.25   19.80
   3   7  -1  525.45   21.30
  -3   7   1  560.04   23.70
  -3   7   1  561.54   22.30
  -3   7   1  541.45   22.40
  -3   7   1  554.44   23.40
  -3   7   1  568.44   22.30
  -3   7   1  541.85   21.30
  -3   7   1  543.85   20.40
  -3   7   1  574.14   22.20
  -3   7   1  528.95   20.80
  -3   7   1  547.65   22.40
  -3   7   1  556.94   20.50
  -3   7   1  551.04   21.50
   3   7  -1  528.25   22.70
  -3   7   1  590.54   22.00
  -3   7   1  550.74   23.40
  -2  -7   1   64.49    6.40
  -2  -7   1   57.19    4.80
  -2  -7   1   55.09    4.00
  -2  -7   1   53.49    4.10
  -2  -7   1   54.59    5.70
  -2  -7   1   57.99    4.60
  -2   7   1   63.49    4.20
  -2   7   1   53.99    3.10
  -2   7   1   60.49    4.60
  -2   7   1   61.69    4.40
  -2   7   1   63.09    4.60
  -2   7   1   60.49    4.30
  -2   7   1   57.29    4.10
  -2   7   1   60.59    4.60
  -2   7   1   63.99    4.50
  -2   7   1   54.89    3.50
  -2   7   1   55.29    4.80
  -2   7   1   52.09    6.00
   2   7  -1   50.59    4.60
  -1  -7   1  368.16   16.40
  -1  -7   1  391.96   18.30
  -1  -7   1  370.26   15.40
   1   7  -1  413.86   17.40
  -1   7   1  388.76   18.70
   0  -7  -1  483.65   20.20
   0  -7   1  479.85   20.40
   0  -7  -1  453.35   17.40
   0  -7   1  434.16   17.30
   0   7  -1  471.45   20.60
   0   7   1  461.85   20.70
  -1  -7  -1  174.08   10.70
  -1  -7  -1  180.38    8.80
  -1  -7  -1  183.08    8.90
   1  -7   1  185.98   10.00
  -1   7  -1  181.18   11.10
  -2  -7  -1   91.19    7.60
  -2  -7  -1   82.79    5.50
  -2  -7  -1   83.69    5.60
  -2  -7  -1   66.19    6.20
   2  -7   1   81.09    4.30
  -2   7  -1   87.29    5.30
  -2   7  -1   84.59    7.60
  -2   7  -1   89.49    6.60
   2   7   1   85.69    5.90
  -2   7  -1   87.29    5.80
  -2   7  -1   88.69    5.80
  -2   7  -1   79.59    5.60
  -2   7  -1   88.39    5.50
  -2   7  -1   86.09    4.60
  -2   7  -1  113.79   10.80
  -2   7  -1   81.69    7.70
  -3  -7  -1   33.70    4.40
  -3  -7  -1   43.40    3.80
  -3  -7  -1   35.40    5.10
  -3  -7  -1   31.50    3.80
  -3  -7  -1   34.40    3.70
   3  -7   1   28.30    2.50
  -3   7  -1   25.90    5.60
  -3   7  -1   34.10    3.20
   3   7   1   33.70    3.00
  -3   7  -1   37.40    4.00
  -3   7  -1   29.10    4.10
  -3   7  -1   35.90    3.60
  -3   7  -1   34.40    3.30
  -3   7  -1   35.70    3.90
  -3   7  -1   36.00    4.00
   3   7   1   34.10    3.60
  -3   7  -1   29.00    4.20
  -3   7  -1   33.00    2.60
  -3   7  -1   36.00    3.20
  -3   7  -1   35.20    3.20
   4  -7   1   32.10    2.60
  -4  -7  -1   29.50    5.00
  -4  -7  -1   36.40    4.20
  -4  -7  -1   35.20    4.40
  -4   7  -1   36.90    3.70
  -4   7  -1   41.40    4.50
  -4   7  -1   39.20    3.30
   4   7   1   40.20    3.30
  -4   7  -1   39.70    4.90
   4   7   1   40.20    4.00
  -4   7  -1   36.20    3.50
   4   7   1   37.20    3.00
  -4   7  -1   42.10    5.20
  -4   7  -1   37.50    3.00
  -4   7  -1   42.30    4.20
  -4   7  -1   35.80    3.10
  -4   7  -1   35.10    3.30
   5  -7   1   56.29    3.50
  -5  -7  -1   59.19    5.50
  -5   7  -1   55.79    3.60
   5   7   1   58.89    3.90
  -5   7  -1   57.59    4.20
  -5   7  -1   56.29    5.80
  -5   7  -1   59.09    3.80
  -5   7  -1   56.19    4.30
  -5   7  -1   61.09    5.20
  -5   7  -1   64.89    4.90
   5   7   1   58.49    4.60
  -5   7  -1   58.59    4.80
   6  -7   1  213.28    9.40
   6  -7   1  228.18    9.20
  -6  -7  -1  255.87   12.30
   6   7   1  199.18    9.30
   6   7   1  258.77   10.50
  -6   7  -1  241.08   10.50
  -6   7  -1  234.78   10.60
  -6   7  -1  242.78   12.50
  -6   7  -1  245.28    9.50
  -6   7  -1  250.47   11.00
  -6   7  -1  241.88    9.90
   6   7   1  224.38    9.00
  -6  -8   1  100.89    4.50
  -6  -8   1  103.99    6.50
  -6   8   1   99.39    5.30
  -6   8   1   86.79    4.90
  -6   8   1   95.99    5.20
  -6   8   1   98.09    4.50
   6   8  -1   84.59    4.40
   6   8  -1  102.49    5.40
  -6   8   1   92.09    6.40
  -6   8   1   97.99    5.60
  -6   8   1   92.59    5.40
  -5  -8   1  312.57   15.00
  -5   8   1  311.57   12.60
  -5   8   1  316.87   14.00
   5   8  -1  321.47   14.40
  -5   8   1  303.47   12.90
  -5   8   1  330.67   16.30
  -5   8   1  326.17   14.60
  -5   8   1  309.17   14.40
  -5   8   1  318.37   16.00
   5   8  -1  301.87   12.80
  -5   8   1  309.27   13.80
  -5   8   1  319.97   14.40
  -5   8   1  312.67   14.70
  -4  -8   1   49.00    4.70
  -4  -8   1   48.00    4.50
  -4  -8   1   46.00    5.70
  -4   8   1   47.10    5.00
   4   8  -1   40.80    3.50
  -4   8   1   49.10    4.40
  -4   8   1   47.00    3.60
  -4   8   1   46.20    4.30
  -4   8   1   47.50    4.60
  -4   8   1   48.80    5.10
  -4   8   1   45.20    4.20
  -4   8   1   49.20    4.80
   4   8  -1   51.59    4.50
  -4   8   1   44.20    3.30
  -4   8   1   49.30    4.10
  -4   8   1   48.40    3.80
  -4   8   1   46.30    4.60
  -4   8   1   48.20    3.40
  -4   8   1   48.40    4.20
  -3  -8   1   15.10    2.60
  -3  -8   1   19.20    2.70
  -3  -8   1   21.90    2.80
  -3  -8   1   32.60    4.80
  -3  -8   1   16.90    2.70
   3   8  -1   16.20    2.20
  -3   8   1   17.00    2.30
  -3   8   1   19.30    2.40
  -3   8   1   19.80    2.90
  -3   8   1   14.60    1.90
  -3   8   1   18.80    2.00
  -3   8   1   17.60    2.80
  -3   8   1   13.50    2.60
  -3   8   1   19.00    2.60
  -3   8   1   17.70    2.40
  -3   8   1   15.20    2.80
  -3   8   1   24.10    4.30
  -3   8   1   17.10    2.80
   3   8  -1   17.80    2.80
  -3   8   1   18.90    2.70
  -3   8   1   16.70    4.50
  -2  -8   1  211.98   10.40
  -2  -8   1  207.88   10.30
  -2  -8   1  226.28   11.40
  -2  -8   1  216.78   13.50
  -2  -8   1  214.98   10.40
   2   8  -1  204.28    9.70
  -2   8   1  228.38   11.20
  -2   8   1  223.18   11.40
  -2   8   1  219.68   13.90
   2   8  -1  195.98   10.90
  -2   8   1  223.68   12.70
   2   8  -1  210.28    9.80
  -2   8   1  221.18    9.80
  -2   8   1  220.88   10.50
  -2   8   1  229.38   10.90
  -2   8   1  217.98    9.60
  -2   8   1  230.28   12.10
  -2   8   1  221.28   10.80
  -2   8   1  210.48    9.20
  -2   8   1  221.88   11.30
   2   8  -1  203.18   11.40
  -2   8   1  217.68    9.30
  -2   8   1  219.18   11.40
  -2   8   1  218.88    8.90
  -2   8   1  219.48   10.40
  -1  -8   1  678.53   27.80
  -1  -8   1  760.22   29.10
  -1  -8   1  738.63   28.20
  -1  -8   1  719.33   27.90
  -1  -8   1  707.93   31.50
  -1   8   1  764.22   27.00
  -1   8   1  767.62   26.80
  -1   8   1  775.72   28.80
  -1   8   1  749.62   28.10
   1   8  -1  762.02   29.10
   1   8  -1  806.52   30.90
  -1   8   1  765.82   30.20
   1   8  -1  678.23   28.30
  -1   8   1  770.32   28.40
  -1   8   1  743.83   26.40
  -1   8   1  713.83   27.00
  -1   8   1  746.53   32.40
  -1   8   1  750.52   29.00
  -1   8   1  800.12   28.50
   1   8  -1  705.33   29.90
   1   8  -1  724.83   27.40
   1   8  -1  787.92   29.00
  -1   8   1  763.42   27.40
   1   8  -1  710.83   28.80
   0  -8  -1  324.07   13.70
   0  -8  -1  325.77   14.20
   0  -8   1  318.57   16.70
   0  -8   1  311.57   13.50
   0   8  -1  351.66   15.30
   0   8   1  338.47   12.80
   0   8   1  347.07   14.10
   0   8   1  337.87   14.20
   0   8  -1  337.27   14.30
   0   8   1  351.26   13.40
   0   8  -1  324.67   15.90
   0   8   1  345.17   15.10
   0   8  -1  299.77   13.90
   0   8   1  353.56   16.20
   0   8  -1  346.77   12.60
   0   8   1  333.87   13.20
   0   8  -1  345.87   14.40
   0   8  -1  324.07   16.70
   0   8   1  338.17   13.90
   0   8   1  333.57   17.30
  -1  -8  -1  250.67   14.30
   1  -8   1  235.08   10.50
  -1  -8  -1  256.67   11.80
  -1  -8  -1  241.68   11.70
  -1  -8  -1  240.08   11.40
   1   8   1  255.07   10.50
   1   8   1  249.88   10.10
   1   8   1  268.87   11.40
  -1   8  -1  267.27   11.00
   1   8   1  262.87   13.20
  -1   8  -1  255.77   12.60
  -1   8  -1  267.07   13.40
  -1   8  -1  266.37   11.90
  -1   8  -1  257.67   11.30
  -1   8  -1  272.37   12.00
  -1   8  -1  257.97   11.70
   1   8   1  253.17   11.10
  -1   8  -1  257.57   12.40
  -1   8  -1  240.78   10.60
   1   8   1  246.98   11.30
  -1   8  -1  254.17    9.90
  -1   8  -1  247.58   14.60
   1   8   1  249.58   11.30
  -2  -8  -1  263.17   12.80
   2  -8   1  251.87   11.00
  -2  -8  -1  274.27   13.80
  -2  -8  -1  283.27   16.20
  -2  -8  -1  262.97   12.80
  -2  -8  -1  277.57   13.00
  -2   8  -1  295.17   13.90
  -2   8  -1  289.37   12.80
  -2   8  -1  276.87   11.40
  -2   8  -1  276.97   12.60
   2   8   1  290.27   11.40
  -2   8  -1  297.67   16.90
  -2   8  -1  276.87   13.40
   2   8   1  270.27   10.90
  -2   8  -1  283.67   14.50
  -2   8  -1  272.87   12.40
   2   8   1  253.67   11.60
  -2   8  -1  279.77   15.40
   2   8   1  267.37   12.60
  -2   8  -1  268.87   13.30
   2   8   1  273.97   12.00
   3  -8   1   12.40    1.80
  -3  -8  -1   17.70    3.90
  -3  -8  -1   18.50    2.80
  -3  -8  -1   15.10    2.60
   3   8   1   14.80    2.30
   3   8   1   16.30    1.70
  -3   8  -1   13.70    2.60
  -3   8  -1   16.50    2.90
  -3   8  -1   14.40    2.00
  -3   8  -1   22.30    2.60
  -3   8  -1   17.70    2.90
  -3   8  -1   15.30    2.10
  -3   8  -1   15.30    1.80
  -3   8  -1   15.60    3.70
   3   8   1   13.80    1.90
  -3   8  -1   17.40    2.20
  -4  -8  -1   31.00    5.20
  -4  -8  -1   49.99    4.40
  -4  -8  -1   39.40    4.50
   4  -8   1   41.10    2.90
  -4   8  -1   36.20    3.90
   4   8   1   41.90    3.10
  -4   8  -1   38.10    3.30
   4   8   1   40.40    3.00
  -4   8  -1   37.00    4.10
  -4   8  -1   43.90    3.70
  -4   8  -1   39.90    5.10
   4   8   1   41.80    3.90
   4   8   1   38.00    3.60
  -4   8  -1   40.60    3.40
  -4   8  -1   40.00    3.40
  -4   8  -1   39.40    3.00
  -4   8  -1   37.60    4.30
   5  -8   1  165.08    7.20
  -5  -8  -1  160.88    6.80
  -5  -8  -1  165.68    9.70
  -5   8  -1  164.98    7.40
  -5   8  -1  161.18    8.00
  -5   8  -1  163.98    7.50
   5   8   1  179.48    8.70
  -5   8  -1  168.78   11.00
  -5   8  -1  168.98    8.50
   5   8   1  161.48    7.00
  -5   8  -1  169.08    8.90
  -5   8  -1  174.08    9.00
  -5   8  -1  169.98    9.50
  -6   8  -1   26.10    2.30
   6   8   1   23.50    2.10
  -6   8  -1   22.50    1.70
  -6   8  -1   22.50    2.10
  -6   8  -1   23.60    1.70
   6   8   1   22.40    1.40
  -6   8  -1   22.40    2.10
  -6  -9   1   33.60    1.80
  -6  -9   1   35.30    2.10
  -6   9   1   31.20    2.60
   6   9  -1   40.50    2.60
  -6   9   1   39.10    2.30
  -6   9   1   34.50    2.60
   6   9  -1   38.30    2.10
  -6   9   1   33.90    2.40
  -5  -9   1   70.09    5.30
  -5   9   1   73.69    4.80
   5   9  -1   69.79    3.90
  -5   9   1   67.79    3.90
  -5   9   1   70.59    4.90
  -5   9   1   73.29    5.00
  -5   9   1   77.19    5.20
  -5   9   1   58.89    5.60
  -5   9   1   69.29    4.20
   5   9  -1   68.79    3.60
  -5   9   1   69.39    4.50
   5   9  -1   71.79    4.80
  -4  -9   1  644.44   26.00
  -4  -9   1  626.94   26.00
  -4   9   1  616.34   23.50
   4   9  -1  628.64   25.50
  -4   9   1  603.14   22.70
  -4   9   1  651.93   25.90
  -4   9   1  651.53   24.40
  -4   9   1  604.84   25.80
  -4   9   1  653.93   24.20
  -4   9   1  703.23   26.80
  -4   9   1  666.73   25.50
  -4   9   1  633.44   27.60
  -4   9   1  624.14   24.90
  -3  -9   1  180.08    9.60
  -3  -9   1  155.48    9.50
  -3  -9   1  159.68    9.10
  -3  -9   1  167.08   10.10
  -3   9   1  157.58    7.00
  -3   9   1  163.18    9.90
  -3   9   1  161.48    8.20
  -3   9   1  170.48    8.70
  -3   9   1  169.58    9.70
  -3   9   1  168.68    8.60
  -3   9   1  152.98   10.30
  -3   9   1  166.58    9.50
   3   9  -1  158.48    7.10
   3   9  -1  158.58    9.10
  -3   9   1  169.78    9.20
  -3   9   1  145.89    7.60
  -3   9   1  160.58    8.80
  -3   9   1  159.18    7.70
  -2  -9   1  415.56   18.30
  -2  -9   1  394.46   17.20
  -2  -9   1  401.36   18.00
  -2  -9   1  410.46   17.10
  -2  -9   1  378.86   17.10
  -2  -9   1  392.16   21.10
  -2   9   1  409.56   18.70
  -2   9   1  392.36   15.70
  -2   9   1  404.86   16.20
  -2   9   1  425.76   18.00
  -2   9   1  413.46   19.20
   2   9  -1  407.86   15.20
   2   9  -1  396.16   18.40
  -2   9   1  419.36   18.20
  -2   9   1  389.56   24.90
  -2   9   1  383.86   15.90
  -2   9   1  425.16   17.20
   2   9  -1  388.16   17.50
  -2   9   1  435.36   17.30
  -2   9   1  401.56   15.90
  -2   9   1  407.96   15.30
  -2   9   1  406.96   17.60
   1  -9  -1  203.08    9.40
  -1  -9   1  217.08   10.30
  -1  -9   1  216.08   10.70
  -1  -9   1  207.58   10.10
  -1  -9   1  218.88   14.30
  -1  -9   1  230.28   11.40
  -1   9   1  224.58   10.60
   1   9  -1  215.78    8.80
  -1   9   1  221.08    9.90
  -1   9   1  220.58    9.50
  -1   9   1  219.08   13.60
  -1   9   1  214.58   12.30
  -1   9   1  216.48   10.30
  -1   9   1  220.58    9.20
   1   9  -1  204.58   10.40
   1   9  -1  209.88   11.90
  -1   9   1  202.68    9.20
   1   9  -1  211.48   10.10
  -1   9   1  226.78   11.30
   1   9  -1  206.78   10.00
  -1   9   1  217.88    8.90
   0  -9   1   70.59    4.60
   0  -9   1   62.39    4.50
   0  -9  -1   65.09    4.80
   0  -9  -1   82.99    5.20
   0  -9   1   70.09    4.60
   0   9  -1   74.49    3.80
   0   9  -1   78.69    7.70
   0   9   1   70.39    4.10
   0   9   1   88.49    7.40
   0   9  -1   72.09    4.60
   0   9  -1   64.69    4.60
   0   9  -1   77.59    5.10
   0   9   1   76.59    4.40
   0   9   1   81.39    6.60
   0   9  -1   65.09    4.00
   0   9   1   77.69    5.10
   0   9   1   74.99    4.00
   0   9   1   70.59    3.90
   0   9   1   76.19    4.90
   0   9   1   74.29    4.80
   0   9  -1   72.69    6.20
   0   9  -1   74.09    5.70
   0   9   1   74.09    5.70
   0   9  -1   74.09    5.10
  -1  -9  -1  150.48   10.90
   1  -9   1  118.39    6.30
  -1  -9  -1  121.39    7.60
  -1  -9  -1  111.19    7.00
  -1  -9  -1  120.79    7.10
   1   9   1  125.49    6.10
  -1   9  -1  123.99    5.60
  -1   9  -1  140.49   10.20
   1   9   1  124.19    6.80
  -1   9  -1  128.79    8.60
   1   9   1  128.89    7.40
   1   9   1  117.49    6.50
   1   9   1  124.39    6.50
   1   9   1  120.39    8.30
  -1   9  -1  127.49    8.70
  -1   9  -1  128.59    9.10
  -1   9  -1  136.89    7.90
   1   9   1  124.39    5.90
  -1   9  -1  116.59    6.10
  -1   9  -1  133.19    8.30
  -1   9  -1  129.99    6.60
  -2  -9  -1  705.83   30.20
  -2  -9  -1  732.63   29.10
  -2  -9  -1  695.83   28.80
   2  -9   1  722.83   27.70
  -2  -9  -1  744.43   33.90
   2   9   1  708.33   27.60
  -2   9  -1  777.12   28.80
  -2   9  -1  735.93   34.10
  -2   9  -1  754.32   29.70
  -2   9  -1  763.42   28.60
   2   9   1  745.33   28.10
  -2   9  -1  791.72   28.80
   2   9   1  730.53   28.20
   2   9   1  732.93   26.60
  -2   9  -1  779.12   31.20
  -2   9  -1  801.12   30.30
   2   9   1  739.63   26.80
  -2   9  -1  724.63   27.00
  -3  -9  -1  258.77   14.50
  -3  -9  -1  303.57   18.80
  -3  -9  -1  260.37   13.50
   3  -9   1  251.87   10.80
   3   9   1  261.57   10.60
  -3   9  -1  267.17   12.10
  -3   9  -1  257.87   12.10
  -3   9  -1  257.17   13.30
  -3   9  -1  287.57   14.40
   3   9   1  244.98   10.50
  -3   9  -1  249.58   10.90
   3   9   1  256.57   11.50
  -3   9  -1  262.67   13.00
   3   9   1  250.27   12.10
  -3   9  -1  253.77   15.10
  -3   9  -1  260.47   11.90
  -4  -9  -1   20.30    3.30
  -4  -9  -1   11.60    2.70
  -4  -9  -1    7.70    3.10
  -4   9  -1   12.50    1.70
   4   9   1   10.30    1.70
   4   9   1   11.40    1.40
  -4   9  -1   11.50    2.20
  -4   9  -1   11.90    2.40
  -4   9  -1   11.20    2.90
  -4   9  -1   11.80    1.50
  -4   9  -1   12.00    1.70
   4   9   1    9.80    1.20
  -4   9  -1   13.50    1.70
  -4   9  -1   10.50    2.20
   4   9   1   11.10    1.20
  -5  -9  -1   88.69    6.00
   5  -9   1   75.39    3.90
   5   9   1   80.29    3.70
  -5   9  -1   75.49    3.80
  -5   9  -1   77.49    4.00
  -5   9  -1   80.49    5.40
   5   9   1   83.29    4.80
  -5   9  -1   73.79    4.30
  -5   9  -1   79.09    5.00
  -6  -9  -1   89.89    4.00
   6   9   1   93.29    3.80
   6   9   1   98.69    4.20
  -6   9  -1   87.09    4.40
   6   9   1   91.49    3.60
  -6   9  -1   88.79    4.30
  -6   9  -1   91.99    3.80
  -5  10   1   80.69    4.50
   5  10  -1   73.39    3.70
   5  10  -1   73.79    3.50
  -5  10   1   73.39    4.60
  -5  10   1   75.29    4.20
  -5  10   1   80.09    3.90
   5  10  -1   82.49    4.50
  -5  10   1   72.39    4.70
  -5  10   1   78.29    4.40
  -4 -10   1   33.10    3.50
  -4 -10   1   20.50    3.00
  -4 -10   1   23.10    3.90
  -4  10   1   19.50    2.40
  -4  10   1   21.60    2.70
  -4  10   1   22.00    2.60
   4  10  -1   22.10    2.20
   4  10  -1   20.90    2.50
  -4  10   1   23.60    2.20
  -4  10   1   23.90    2.90
   4  10  -1   23.30    1.70
  -4  10   1   22.00    2.30
  -4  10   1   21.20    2.00
  -3 -10   1   33.20    3.60
  -3 -10   1   38.20    4.30
  -3 -10   1   29.20    4.10
  -3 -10   1   28.10    3.40
  -3  10   1   24.30    3.20
   3  10  -1   28.10    2.80
  -3  10   1   28.10    2.80
  -3  10   1   23.60    2.30
  -3  10   1   31.50    3.70
  -3  10   1   28.50    2.40
   3  10  -1   26.40    2.10
  -3  10   1   29.30    2.80
  -3  10   1   30.40    3.30
   3  10  -1   25.50    3.10
  -3  10   1   26.20    3.00
  -3  10   1   32.40    3.50
  -2 -10   1  160.78    8.80
   2 -10  -1  166.98    7.60
  -2 -10   1  161.08    9.60
  -2 -10   1  143.49    8.90
   2  10  -1  169.88    7.00
   2  10  -1  161.18    8.50
   2  10  -1  159.38    7.60
  -2  10   1  163.68    8.50
  -2  10   1  166.78   10.30
  -2  10   1  146.29    7.50
  -2  10   1  166.48    8.60
  -2  10   1  160.38    7.60
   2  10  -1  150.48    7.60
  -2  10   1  157.08    7.70
  -2  10   1  168.98    9.30
  -2  10   1  152.98    6.90
  -2  10   1  164.58    9.40
  -1 -10   1 1159.78   43.60
  -1 -10   1 1204.98   43.50
  -1 -10   1 1209.68   44.70
  -1 -10   1 1147.29   44.90
   1 -10  -1 1187.48   43.20
   1 -10  -1 1099.09   43.30
   1  10  -1 1184.48   43.40
   1  10  -1 1297.57   43.60
  -1  10   1 1212.18   42.00
  -1  10   1 1229.28   42.40
   1  10  -1 1138.99   43.10
  -1  10   1 1275.67   45.30
  -1  10   1 1217.68   42.00
   1  10  -1 1202.88   45.90
   1  10  -1 1176.38   43.40
   1  10  -1 1200.88   41.90
  -1  10   1 1269.57   43.30
   1  10  -1 1228.68   41.70
  -1  10   1 1168.28   42.60
  -1  10   1 1289.27   44.20
  -1  10   1 1233.38   43.80
  -1  10   1 1280.17   46.80
   0 -10  -1  477.95   20.00
   0 -10   1  489.35   21.50
   0 -10  -1  475.65   20.30
   0 -10   1  491.95   20.00
   0 -10   1  498.55   20.60
   0 -10  -1  492.55   20.50
   0 -10   1  499.55   20.00
   0  10   1  522.05   18.90
   0  10  -1  537.05   20.10
   0  10  -1  522.15   20.70
   0  10   1  546.75   23.30
   0  10  -1  474.65   18.40
   0  10  -1  534.75   20.80
   0  10  -1  518.85   22.90
   0  10  -1  477.05   18.70
   0  10   1  527.25   20.30
   0  10   1  504.85   19.10
   0  10   1  528.85   19.30
   0  10   1  522.25   20.60
   0  10   1  531.35   20.10
   0  10  -1  530.75   22.10
   1 -10   1   26.30    2.80
   1 -10   1   23.60    2.70
  -1 -10  -1   26.40    3.10
  -1 -10  -1   28.80    3.40
  -1 -10  -1   31.60    3.00
  -1  10  -1   28.00    2.40
   1  10   1   28.90    4.00
   1  10   1   24.80    2.20
  -1  10  -1   31.80    3.10
   1  10   1   27.40    2.60
  -1  10  -1   29.70    3.90
   1  10   1   27.00    2.10
   1  10   1   26.80    2.70
  -1  10  -1   30.50    3.10
  -1  10  -1   30.40    3.50
   1  10   1   26.20    2.30
  -1  10  -1   28.10    2.50
   1  10   1   25.90    2.40
  -1  10  -1   28.40    2.00
  -2 -10  -1  290.87   14.00
  -2 -10  -1  300.87   13.70
   2 -10   1  288.87   12.30
  -2  10  -1  278.67   11.90
  -2  10  -1  298.97   13.50
   2  10   1  280.57   12.50
  -2  10  -1  321.17   15.90
   2  10   1  292.47   12.60
  -2  10  -1  300.47   13.40
  -2  10  -1  307.67   14.60
   2  10   1  295.77   12.80
   2  10   1  299.27   11.70
  -2  10  -1  295.97   14.70
  -3 -10  -1   51.79    4.80
   3 -10   1   43.50    3.10
  -3 -10  -1   51.99    5.70
   3  10   1   41.20    3.40
  -3  10  -1   41.50    4.50
   3  10   1   43.00    3.20
  -3  10  -1   41.00    3.40
  -3  10  -1   41.00    4.00
  -3  10  -1   42.90    3.60
   3  10   1   42.10    2.80
  -3  10  -1   35.40    2.80
  -3  10  -1   40.70    4.20
  -3  10  -1   41.60    3.50
  -4 -10  -1  159.18   10.90
  -4  10  -1  148.89    7.10
  -4  10  -1  158.18    8.10
  -4  10  -1  135.19    6.70
   4  10   1  158.08    6.30
  -4  10  -1  140.09    7.00
  -4  10  -1  145.09    8.50
   4  10   1  141.19    6.50
  -4  10  -1  149.29    8.30
  -4  10  -1  137.69    6.40
   4  10   1  153.38    7.30
   5  10   1   76.89    3.40
  -5  10  -1   74.69    4.30
   5  10   1   82.59    3.70
   5  10   1   81.59    4.10
  -5  10  -1   74.49    5.10
  -5  10  -1   81.89    4.60
  -5  10  -1   71.09    3.60
  -5  11   1  237.78    9.50
   5  11  -1  253.77    9.30
   5  11  -1  243.08    8.90
  -5  11   1  241.18    9.20
   5  11  -1  282.37    9.60
  -4 -11   1   81.79    5.00
  -4  11   1   83.99    4.30
  -4  11   1   78.99    4.70
  -4  11   1   83.09    4.60
   4  11  -1   84.69    3.70
  -4  11   1   85.29    5.40
   4  11  -1   84.69    4.50
   4  11  -1   78.29    3.80
   4  11  -1   79.29    4.30
  -4  11   1   79.89    4.10
  -3 -11   1    9.00    1.90
  -3 -11   1    7.60    2.00
  -3 -11   1    8.40    2.50
   3  11  -1    9.30    1.50
   3  11  -1    9.20    1.40
  -3  11   1    6.50    1.90
  -3  11   1    8.70    1.30
  -3  11   1    9.80    1.50
  -3  11   1    9.00    1.30
  -3  11   1    6.60    1.50
  -3  11   1    9.30    1.90
   3  11  -1    7.60    1.00
   3  11  -1    7.40    1.10
   2 -11  -1  145.79    7.60
  -2 -11   1  168.08    8.90
  -2 -11   1  157.78    8.80
  -2 -11   1  156.58   11.20
  -2  11   1  157.68    7.40
  -2  11   1  171.58   10.00
  -2  11   1  151.28    7.40
  -2  11   1  169.38    9.10
   2  11  -1  151.68    8.00
  -2  11   1  162.98    6.80
   2  11  -1  164.28    6.90
   2  11  -1  162.88    7.70
  -2  11   1  176.88    8.70
   2  11  -1  144.29    7.30
   2  11  -1  165.18    8.10
   2  11  -1  167.38    6.80
  -1 -11   1  143.49    7.80
  -1 -11   1  141.19    8.20
  -1 -11   1  133.99    8.10
   1 -11  -1  142.99    7.70
   1  11  -1  141.29    8.90
  -1  11   1  141.49    7.60
   1  11  -1  138.69    6.10
   1  11  -1  137.09    6.40
  -1  11   1  143.89    6.30
   1  11  -1  143.69    7.30
  -1  11   1  141.19    7.50
   1  11  -1  140.59    7.20
  -1  11   1  146.89    7.20
  -1  11   1  140.19    9.30
   1  11  -1  139.09    7.30
   0 -11   1   22.50    2.60
   0 -11  -1   23.30    2.70
   0 -11   1   22.70    2.80
   0 -11   1   23.00    2.80
   0 -11  -1   23.70    3.00
   0  11  -1   18.80    3.10
   0  11  -1   22.30    2.50
   0  11   1   22.20    3.40
   0  11  -1   21.60    2.40
   0  11   1   24.60    2.40
   0  11  -1   19.80    1.70
   0  11   1   24.50    1.90
   0  11   1   21.10    1.90
   0  11   1   23.90    2.60
   0  11  -1   19.30    2.10
   0  11   1   24.30    2.40
  -1 -11  -1   52.49    4.20
   1 -11   1   58.59    4.20
   1 -11   1   47.20    3.70
   1 -11   1   51.09    4.30
  -1 -11  -1   52.39    4.70
  -1  11  -1   51.89    4.10
  -1  11  -1   49.70    5.00
   1  11   1   53.29    3.10
   1  11   1   51.19    3.80
   1  11   1   51.89    3.30
   1  11   1   53.49    3.90
  -1  11  -1   48.60    2.70
  -1  11  -1   51.79    3.40
  -1  11  -1   57.59    5.00
   1  11   1   49.10    3.30
  -1  11  -1   55.69    4.10
  -2 -11  -1  241.08   13.00
  -2 -11  -1  249.78   12.20
   2 -11   1  239.68   10.50
   2  11   1  236.18    9.80
  -2  11  -1  225.98    9.80
   2  11   1  244.28   10.60
  -2  11  -1  243.48   11.40
  -2  11  -1  237.38   12.90
  -2  11  -1  245.48   11.90
  -2  11  -1  247.28   11.10
   2  11   1  247.38    9.60
   2  11   1  227.38   10.30
   2  11   1  234.68    9.60
  -3 -11  -1  107.79    6.90
  -3 -11  -1  116.09    7.90
  -3  11  -1  101.89    5.70
  -3  11  -1  100.99    5.60
   3  11   1  103.89    5.30
   3  11   1   98.29    4.70
  -3  11  -1  100.19    6.30
  -3  11  -1  105.59    6.90
  -3  11  -1   95.99    4.80
   3  11   1  101.89    5.00
  -4  11  -1    0.60    0.70
   4  11   1    2.00    0.60
   4  11   1    1.20    0.60
  -4  11  -1    1.20    0.80
   4  11   1    1.40    0.40
  -4  11  -1    0.60    0.70
  -4  11  -1    1.10    0.40
  -4  11  -1    0.30    0.50
   4  11   1    1.10    0.40
   4  12  -1   99.59    4.30
  -4  12   1  100.09    4.90
   4  12  -1   96.89    3.80
  -4  12   1  106.09    4.60
  -3 -12   1    1.10    1.00
  -3 -12   1    0.00    1.60
  -3  12   1    2.40    0.80
   3  12  -1    2.00    0.60
  -3  12   1    1.70    0.60
   3  12  -1    2.20    0.60
  -3  12   1    2.60    1.10
  -2 -12   1   52.89    4.00
  -2 -12   1   60.79    5.00
  -2 -12   1   64.39    4.50
   2  12  -1   55.09    3.50
  -2  12   1   56.99    3.70
  -2  12   1   50.59    2.80
   2  12  -1   53.39    2.70
  -2  12   1   50.19    3.10
  -2  12   1   55.59    3.70
  -2  12   1   59.79    4.80
  -1 -12   1  149.09    7.60
   1 -12  -1  137.59    7.40
  -1 -12   1  152.68    8.50
  -1 -12   1  131.69    7.40
  -1  12   1  141.89    7.00
  -1  12   1  145.49    7.20
  -1  12   1  143.99    8.60
   1  12  -1  138.89    6.60
   1  12  -1  130.29    5.60
  -1  12   1  135.39    6.60
   1  12  -1  139.69    6.90
   1  12  -1  147.79    6.90
   0 -12   1  166.88    8.10
   0 -12   1  166.88    8.60
   0 -12  -1  169.18    8.80
   0 -12   1  152.68    8.10
   0  12  -1  166.58    9.20
   0  12  -1  166.18    7.80
   0  12   1  161.48    7.80
   0  12  -1  138.99    6.20
   0  12   1  162.88    6.70
   0  12  -1  160.28    7.30
   0  12   1  160.98    7.40
   0  12   1  171.78    7.70
   0  12  -1  153.78    7.70
   1 -12   1   26.70    2.60
   1 -12   1   27.30    2.80
  -1 -12  -1   31.80    3.20
  -1 -12  -1   25.40    3.50
   1 -12   1   38.40    4.30
  -1  12  -1   27.00    3.20
  -1  12  -1   23.30    1.90
   1  12   1   25.20    1.80
   1  12   1   25.80    3.80
   1  12   1   25.10    1.90
  -1  12  -1   28.00    2.70
  -1  12  -1   28.80    2.60
   1  12   1   28.60    2.50
  -2 -12  -1    3.10    1.70
   2 -12   1    3.30    1.00
  -2 -12  -1    5.60    1.60
  -2  12  -1    3.70    1.10
  -2  12  -1    2.70    1.20
  -2  12  -1    3.10    1.00
   2  12   1    3.00    0.80
   2  12   1    3.60    0.80
  -2  12  -1    2.20    1.00
   2  12   1    2.40    0.60
  -3 -12  -1   37.90    3.40
  -3  12  -1   35.70    2.50
   3  12   1   34.60    2.00
  -3  12  -1   35.80    3.20
  -3  12  -1   34.90    2.50
   3  12   1   33.90    2.00
   3  12   1   32.50    2.20
  -3  12  -1   39.00    3.00
   4  12   1   64.09    2.60
  -4  12  -1   61.69    3.80
   3  13  -1   16.60    1.20
  -3  13   1   17.80    1.50
  -3  13   1   14.10    1.30
  -2 -13   1    3.00    1.10
  -2 -13   1    1.00    2.10
  -2  13   1    4.70    1.20
  -2  13   1    3.60    0.90
   2  13  -1    3.00    0.70
  -2  13   1    4.10    0.90
  -1 -13   1   55.39    3.70
  -1 -13   1   54.39    4.20
   1  13  -1   51.89    3.10
  -1  13   1   51.49    3.00
   1  13  -1   49.30    2.90
  -1  13   1   49.30    3.20
  -1  13   1   44.90    2.60
   0 -13  -1   28.40    3.20
   0 -13  -1   25.60    2.80
   0 -13   1   32.10    2.90
   0 -13   1   35.10    2.70
   0  13   1   29.80    2.00
   0  13  -1   29.50    2.10
   0  13  -1   28.60    2.20
   0  13   1   30.10    2.40
   0  13   1   28.70    2.10
   0  13   1   29.50    2.20
   0  13  -1   27.50    1.90
  -1 -13  -1   36.00    3.20
  -1 -13  -1   37.40    3.60
  -1  13  -1   29.60    2.30
  -1  13  -1   29.30    2.20
  -1  13  -1   30.10    2.90
   1  13   1   30.90    2.20
  -2 -13  -1    9.40    1.80
  -2 -13  -1    8.50    2.10
   2  13   1    9.60    1.00
   2  13   1    9.40    0.80
  -2  13  -1    9.70    1.50
  -2  13  -1   10.80    1.20
  -2  13  -1   10.60    1.10
  -8   0   2    4.10    0.90
   8   0  -2    3.50    0.80
  -8   0   2    2.20    1.50
  -8   0   2    2.80    1.10
   8   0  -2    2.60    0.70
   8   0  -2    2.70    0.70
  -8   0   2    2.80    0.80
  -8   0   2    1.60    0.60
  -7   0   2  651.03   24.40
  -7   0   2  613.04   23.70
  -7   0   2  584.44   23.40
  -7   0   2  610.04   25.10
   7   0  -2  620.94   23.40
   7   0  -2  650.23   23.30
  -7   0   2  625.64   23.70
   7   0  -2  639.34   23.20
  -7   0   2  588.94   23.80
  -6   0   2   54.39    4.20
  -6   0   2   61.99    4.30
  -6   0   2   57.79    5.00
  -6   0   2   54.39    4.30
   6   0  -2   54.89    4.30
  -6   0   2   57.49    3.70
  -6   0   2   57.49    4.40
   6   0  -2   61.49    4.10
   6   0  -2   55.19    4.10
  -6   0   2   58.19    4.70
  -6   0   2   57.79    4.20
  -5   0   2    2.70    1.00
   5   0  -2    3.30    1.10
  -5   0   2    2.50    0.80
  -5   0   2    2.70    1.20
  -5   0   2    4.60    1.20
  -5   0   2    2.20    1.10
   5   0  -2    2.20    0.90
  -5   0   2    2.00    0.90
   4   0  -2  729.93   28.10
  -4   0   2  754.12   27.00
  -4   0   2  730.43   26.70
  -4   0   2  777.72   27.40
  -3   0   2 1352.16   47.80
  -3   0   2 1442.86   48.80
  -3   0   2 1418.36   48.40
  -2   0   2 7804.92  271.77
  -2   0   2 8544.15  272.07
   2   0  -2 8226.08  272.47
  -1   0   2 1833.82   63.99
   1   0  -2 1962.40   64.49
   0   0  -2  221.98    9.40
  -1   0  -2  156.58    7.70
  -2   0  -2 5821.52  196.28
  -3   0  -2 1677.63   58.59
   3   0   2 1546.05   54.49
  -3   0  -2 1573.64   56.79
   4   0   2   97.69    5.60
   4   0   2   89.49    5.40
   4   0   2   93.09    5.10
  -4   0  -2   89.49    7.00
  -4   0  -2   94.49    7.50
  -4   0  -2   95.79    6.70
  -5   0  -2  607.04   26.60
  -5   0  -2  587.64   24.70
  -5   0  -2  600.64   23.50
  -5   0  -2  623.84   23.50
   5   0   2  673.63   25.70
   5   0   2  626.04   23.60
  -5   0  -2  655.43   24.40
   5   0   2  607.54   23.50
  -6   0  -2    2.80    1.20
  -6   0  -2    4.70    1.10
   6   0   2    3.70    1.20
  -6   0  -2    4.10    1.20
   6   0   2    3.50    1.00
  -6   0  -2    3.50    2.10
   6   0   2    3.60    1.10
  -6   0  -2    2.20    1.00
   7   0   2   20.20    2.00
   7   0   2   20.00    1.70
  -7   0  -2   19.20    1.50
  -7   0  -2   14.40    1.90
   7   0   2   21.00    1.70
  -7   0  -2   20.70    2.20
  -7   0  -2   19.00    1.90
  -8  -1   2   37.50    2.30
  -8  -1   2   39.90    2.60
  -8  -1   2   39.10    2.80
   8  -1  -2   44.20    2.40
   8  -1  -2   45.80    2.50
  -8   1   2   40.30    2.80
  -8   1   2   41.50    2.60
   8   1  -2   40.30    2.50
   8   1  -2   37.90    3.00
   8   1  -2   44.90    2.40
  -8   1   2   34.60    2.30
  -8   1   2   38.00    2.30
  -8   1   2   35.70    2.70
  -7  -1   2    5.70    1.70
  -7  -1   2    1.60    0.90
   7  -1  -2    4.10    1.10
  -7  -1   2    2.80    1.20
   7  -1  -2    3.70    1.10
  -7  -1   2    4.50    1.10
  -7  -1   2    2.10    0.80
   7  -1  -2    2.60    0.80
  -7  -1   2    2.90    1.00
  -7   1   2    4.50    1.40
  -7   1   2    2.20    0.90
  -7   1   2    2.40    1.10
  -7   1   2    3.60    1.50
  -7   1   2    3.50    1.20
  -7   1   2    2.50    0.90
  -6  -1   2  537.85   21.90
   6  -1  -2  534.95   21.30
   6  -1  -2  517.35   20.90
  -6  -1   2  551.64   22.60
  -6  -1   2  531.45   21.00
  -6  -1   2  539.45   21.30
   6  -1  -2  528.45   20.90
  -6  -1   2  582.14   21.90
  -6  -1   2  581.04   21.90
  -6   1   2  559.64   21.80
  -6   1   2  548.75   20.90
  -6   1   2  561.34   22.30
  -6   1   2  535.05   23.10
   6   1  -2  524.25   21.00
   6   1  -2  546.45   21.30
  -6   1   2  521.65   19.80
   6   1  -2  560.74   22.00
  -6   1   2  549.25   22.20
  -6   1   2  540.05   21.70
  -6   1   2  546.85   21.50
  -5  -1   2  277.27   15.10
  -5  -1   2  347.67   15.70
  -5  -1   2  325.67   13.60
   5  -1  -2  289.17   12.90
  -5  -1   2  304.47   13.60
  -5  -1   2  321.67   12.60
   5  -1  -2  316.17   13.70
   5  -1  -2  299.67   12.80
  -5  -1   2  310.97   13.10
  -5  -1   2  323.47   13.30
  -5   1   2  321.67   12.90
  -5   1   2  343.87   13.80
  -5   1   2  317.87   13.40
   5   1  -2  307.97   13.10
  -5   1   2  295.87   12.70
   5   1  -2  318.67   14.00
  -5   1   2  315.27   12.30
  -5   1   2  320.27   13.50
  -5   1   2  337.17   13.70
  -5   1   2  313.47   13.20
   5   1  -2  321.17   13.30
  -5   1   2  316.87   14.30
  -4  -1   2  628.74   23.60
   4  -1  -2  559.64   21.20
  -4  -1   2  606.64   21.90
  -4   1   2  540.45   22.50
  -4   1   2  576.54   21.20
   4   1  -2  598.94   21.60
  -3  -1   2 1028.40   36.70
  -3  -1   2  983.40   35.10
  -3   1   2 1015.90   38.00
   2  -1  -2 5977.50  198.28
  -2  -1   2 6245.78  199.08
   2   1  -2 5810.92  199.18
  -2   1   2 5902.61  198.78
   2   1  -2 5837.82  197.28
  -1   1   2 9999.00  330.57
   0  -1  -2  341.27   13.20
   0   1  -2  341.97   13.50
  -1  -1  -2 1890.21   64.09
  -1   1  -2 1808.02   63.99
  -2  -1  -2 6122.69  200.88
  -2   1  -2 6114.09  199.98
  -2   1  -2 5604.14  200.08
  -3  -1  -2   10.90    2.70
   3  -1   2    5.20    1.10
  -3  -1  -2    5.30    1.40
  -3   1  -2    6.40    1.90
   4  -1   2  356.46   14.60
  -4  -1  -2  376.96   19.00
  -4  -1  -2  366.96   17.10
  -4  -1  -2  355.56   19.20
   4  -1   2  395.36   15.60
  -4   1  -2  393.96   15.00
  -4   1  -2  382.16   17.30
  -4   1  -2  393.36   15.30
  -4   1  -2  361.46   16.90
   4   1   2  350.36   14.60
   4   1   2  369.76   15.50
  -4   1  -2  358.86   18.00
  -4   1  -2  386.46   17.70
  -5  -1  -2  480.15   18.70
  -5  -1  -2  440.16   17.60
   5  -1   2  440.66   17.80
  -5  -1  -2  453.95   22.10
  -5  -1  -2  436.56   20.80
   5  -1   2  440.26   17.80
   5  -1   2  489.85   19.80
   5   1   2  463.55   17.90
  -5   1  -2  466.15   27.20
   5   1   2  452.15   18.70
  -5   1  -2  471.75   18.60
  -5   1  -2  445.36   17.70
  -5   1  -2  443.56   19.50
   5   1   2  475.25   18.00
  -5   1  -2  445.16   20.20
  -5   1  -2  405.56   20.60
   6  -1   2   64.79    4.20
   6  -1   2   68.39    4.70
  -6  -1  -2   64.69    5.90
   6  -1   2   68.49    4.30
  -6  -1  -2   64.69    4.10
  -6  -1  -2   62.99    4.60
  -6  -1  -2   68.79    4.10
  -6   1  -2   67.49    4.70
  -6   1  -2   71.99    5.40
   6   1   2   71.09    4.40
  -6   1  -2   68.79    4.50
   6   1   2   74.79    4.40
  -6   1  -2   69.39    4.20
  -6   1  -2   66.89    5.00
   6   1   2   73.59    4.90
  -6   1  -2   65.79    4.60
  -6   1  -2   65.99    5.50
   7  -1   2   52.99    3.00
  -7  -1  -2   41.90    3.20
   7  -1   2   46.60    3.10
  -7  -1  -2   52.79    3.30
  -7  -1  -2   50.09    3.60
  -7  -1  -2   50.69    2.70
  -7  -1  -2   47.90    2.80
   7  -1   2   55.69    3.00
   7   1   2   49.20    3.30
  -7   1  -2   52.39    2.80
  -7   1  -2   49.00    3.00
  -7   1  -2   54.49    3.70
   7   1   2   52.19    3.00
  -7   1  -2   52.69    3.20
   7   1   2   51.19    2.80
  -7   1  -2   44.70    3.30
  -8  -2   2   43.30    2.50
  -8  -2   2   46.60    3.30
   8  -2  -2   44.20    2.60
  -8  -2   2   36.30    2.50
   8  -2  -2   44.10    2.40
   8   2  -2   40.10    2.60
  -8   2   2   43.90    3.00
  -8   2   2   41.30    2.40
  -8   2   2   46.10    3.00
   8   2  -2   48.90    2.50
  -8   2   2   39.60    2.70
   7  -2  -2   98.39    5.20
  -7  -2   2  101.49    5.80
  -7  -2   2  101.49    6.00
   7  -2  -2  105.79    5.40
   7  -2  -2  102.79    5.30
  -7  -2   2   95.39    5.70
  -7  -2   2   99.99    5.60
  -7  -2   2   98.89    5.60
   7   2  -2  103.49    5.50
  -7   2   2  102.59    6.60
  -7   2   2  101.89    5.90
  -7   2   2  107.89    7.30
  -7   2   2  102.79    5.90
  -7   2   2  109.39    5.40
  -7   2   2  100.19    5.80
  -7   2   2   99.59    6.00
   7   2  -2  108.19    5.50
  -7   2   2   95.49    4.50
   7   2  -2   99.89    6.00
  -6  -2   2  187.08    9.90
   6  -2  -2  176.98    8.60
  -6  -2   2  189.98    9.10
  -6  -2   2  188.78    9.30
  -6  -2   2  188.68    9.00
   6  -2  -2  177.28    8.50
  -6  -2   2  193.88    9.70
   6  -2  -2  188.38    8.90
  -6   2   2  184.38   10.00
  -6   2   2  191.78    9.40
  -6   2   2  177.18    7.90
  -6   2   2  187.68    9.50
  -6   2   2  193.78    9.50
  -6   2   2  175.28    9.10
  -6   2   2  194.08   10.80
   6   2  -2  177.18    9.50
  -6   2   2  171.68    8.70
   6   2  -2  183.48    8.90
   6   2  -2  181.68    8.90
  -6   2   2  184.48    9.30
  -5  -2   2   63.59    4.10
  -5  -2   2   53.49    5.70
  -5  -2   2   64.89    4.70
  -5  -2   2   65.29    4.20
  -5  -2   2   64.89    4.60
  -5  -2   2   63.09    3.50
   5  -2  -2   56.29    3.80
  -5   2   2   59.99    4.70
  -5   2   2   60.69    4.00
   5   2  -2   57.09    4.10
  -5   2   2   62.69    4.40
   5   2  -2   59.79    4.60
  -5   2   2   62.69    4.50
  -5   2   2   62.99    5.00
  -5   2   2   65.69    4.70
  -5   2   2   59.59    4.30
  -5   2   2   66.09    4.50
   5   2  -2   55.89    4.00
  -5   2   2   60.29    3.50
  -5   2   2   62.09    4.10
  -4  -2   2  521.15   20.00
  -4  -2   2  543.25   22.30
   4   2  -2  526.55   19.70
  -4   2   2  497.75   21.30
  -3  -2   2  976.30   35.80
  -3  -2   2  920.91   33.60
  -3   2   2  965.80   35.30
   2  -2  -2  595.04   21.60
  -2  -2   2  657.03   23.60
   2   2  -2  615.74   23.70
  -2   2   2  602.34   23.30
   1  -2  -2  644.74   22.50
  -1  -2   2  666.93   23.70
   1   2  -2  630.54   23.80
  -1   2   2  640.94   23.70
   0  -2  -2 2279.17   76.19
   0   2  -2 2217.08   76.49
  -1  -2  -2   87.09    5.20
  -1   2  -2   83.89    4.80
  -2  -2  -2 1183.58   43.10
  -2  -2  -2 1230.28   44.90
  -2   2  -2 1262.07   43.80
  -2   2  -2 1214.88   43.60
   3  -2   2  399.06   15.40
  -3  -2  -2  440.06   19.60
  -3  -2  -2  389.76   17.10
   3   2   2  416.86   16.20
  -3   2  -2  420.06   17.60
  -3   2  -2  405.76   17.10
  -3   2  -2  436.46   19.70
  -4  -2  -2   48.10    5.90
  -4  -2  -2   52.39    4.70
   4  -2   2   51.39    3.70
   4  -2   2   47.00    3.20
   4  -2   2   43.60    3.20
  -4   2  -2   46.00    3.50
   4   2   2   42.90    3.10
   4   2   2   47.90    3.70
  -4   2  -2   47.60    3.20
   4   2   2   42.60    3.00
  -4   2  -2   52.09    3.50
  -4   2  -2   44.10    4.40
  -4   2  -2   35.40    5.10
  -4   2  -2   44.10    4.40
  -4   2  -2   47.60    4.20
  -5  -2  -2   83.89    4.70
   5  -2   2   92.29    5.60
  -5  -2  -2   63.09    8.70
   5  -2   2   78.49    4.80
   5  -2   2   87.29    5.00
  -5  -2  -2   85.79    7.00
  -5   2  -2   84.99    7.20
  -5   2  -2   82.09    5.10
  -5   2  -2   84.59    6.30
   5   2   2   81.39    4.90
  -5   2  -2   58.59    8.90
  -5   2  -2   84.29    5.40
   5   2   2   82.29    4.90
  -5   2  -2   87.49    6.20
  -5   2  -2   80.09    5.50
  -5   2  -2   79.69    4.90
   5   2   2   86.99    5.70
  -6  -2  -2  106.99    6.20
   6  -2   2  106.09    5.70
  -6  -2  -2  119.89    8.10
  -6  -2  -2  107.29    5.50
   6  -2   2  110.29    5.80
   6  -2   2   99.19    6.00
  -6  -2  -2  103.39    5.40
  -6   2  -2  104.29    6.00
  -6   2  -2  101.59    5.50
  -6   2  -2   99.59    6.70
  -6   2  -2  104.19    6.00
   6   2   2  116.89    6.60
  -6   2  -2  110.99    7.10
   6   2   2  110.69    5.60
   6   2   2  100.59    5.40
  -6   2  -2  103.09    7.20
   6   2   2   98.99    6.20
  -7  -2  -2  108.09    5.30
   7  -2   2  102.19    5.00
  -7  -2  -2  113.59    6.00
   7  -2   2  110.09    4.90
  -7  -2  -2  104.19    4.60
   7  -2   2  116.09    5.10
  -7   2  -2  106.89    5.20
  -7   2  -2  103.09    5.40
  -7   2  -2  103.29    4.80
  -7   2  -2  103.29    5.10
   7   2   2   99.49    5.40
  -7   2  -2  109.19    5.80
  -8  -3   2   22.90    1.50
  -8  -3   2   27.00    1.70
   8  -3  -2   26.60    1.50
  -8   3   2   22.30    1.60
  -8   3   2   20.10    2.00
  -8   3   2   22.60    1.70
  -8   3   2   22.40    1.90
   8   3  -2   23.00    1.70
   7  -3  -2   43.60    2.90
  -7  -3   2   41.80    3.10
  -7  -3   2   40.90    3.10
  -7  -3   2   44.90    4.20
  -7  -3   2   45.10    3.40
  -7  -3   2   46.60    3.10
  -7   3   2   44.90    3.20
   7   3  -2   43.50    3.60
  -7   3   2   47.20    4.20
  -7   3   2   43.60    3.40
  -7   3   2   40.10    3.50
  -7   3   2   41.50    4.30
   7   3  -2   43.10    3.00
   7   3  -2   46.00    3.00
  -7   3   2   43.10    3.40
  -7   3   2   41.20    2.50
  -7   3   2   42.40    3.30
  -6  -3   2  100.69    5.90
  -6  -3   2  101.79    6.70
  -6  -3   2  102.49    5.90
   6  -3  -2  109.09    5.60
  -6  -3   2  102.59    6.30
   6  -3  -2   98.79    5.50
  -6   3   2  108.69    6.50
  -6   3   2  105.99    6.50
  -6   3   2   98.79    6.00
   6   3  -2  102.09    5.80
  -6   3   2  112.09    6.40
  -6   3   2  108.19    6.60
  -6   3   2   99.19    5.20
   6   3  -2  109.89    6.70
  -6   3   2  106.79    7.10
  -6   3   2  106.49    6.50
  -6   3   2  108.99    7.60
   6   3  -2  104.49    6.00
  -5  -3   2   79.59    7.40
   5  -3  -2   77.09    4.40
  -5  -3   2   77.99    4.70
   5   3  -2   81.59    5.00
  -5   3   2   85.99    5.10
  -5   3   2   78.39    5.30
  -5   3   2   85.39    5.30
  -5   3   2   78.19    5.60
  -5   3   2   86.29    6.30
  -5   3   2   84.69    5.30
  -5   3   2   80.19    5.40
  -5   3   2   74.99    4.30
  -5   3   2   74.59    7.30
  -5   3   2   71.99    4.60
  -5   3   2   76.89    5.00
   5   3  -2   81.19    5.60
   5   3  -2   72.69    4.80
  -4  -3   2  152.98    7.70
  -4  -3   2  147.79    9.30
   4   3  -2  155.48    7.20
  -4   3   2  140.69    9.10
  -3  -3   2   91.39    5.50
  -3  -3   2   98.19    6.50
   3   3  -2   88.89    4.60
  -3   3   2   86.09    6.20
  -2  -3   2  838.02   31.00
  -2   3   2  812.32   30.80
   2   3  -2  808.52   31.00
  -1  -3   2  608.94   23.30
   1  -3  -2  609.04   21.40
   1   3  -2  625.44   22.20
   1   3  -2  605.04   23.20
  -1   3   2  621.54   23.50
   0  -3  -2  437.56   16.50
   0   3   2  427.86   18.30
   0   3   2  425.36   16.80
   0   3  -2  445.86   16.80
  -1  -3  -2   51.19    3.90
  -2  -3  -2  174.68    9.70
  -2  -3  -2  170.18    8.20
  -2   3  -2  178.08    7.90
  -2   3  -2  182.78   10.20
  -2   3  -2  161.88    8.10
  -3  -3  -2  248.58   13.50
  -3  -3  -2  237.68   12.50
  -3  -3  -2  242.28   11.40
   3  -3   2  239.18    9.70
  -3   3  -2  255.57   13.50
  -3   3  -2  230.68   10.90
   3   3   2  239.78    9.80
  -4  -3  -2   44.30    5.00
  -4  -3  -2   48.10    4.80
   4  -3   2   49.40    3.30
  -4  -3  -2   42.90    6.40
   4  -3   2   53.39    3.40
   4  -3   2   53.89    3.80
  -4   3  -2   49.70    5.20
  -4   3  -2   50.69    4.30
  -4   3  -2   52.49    3.70
   4   3   2   41.70    3.20
   4   3   2   48.30    3.20
  -4   3  -2   45.60    4.50
   4   3   2   43.00    4.40
  -4   3  -2   48.20    3.80
  -4   3  -2   51.29    3.40
  -4   3  -2   47.00    3.30
  -4   3  -2   58.89    6.00
  -4   3  -2   47.00    3.80
   4   3   2   45.80    3.70
  -5  -3  -2  242.38   10.20
  -5  -3  -2  250.97   13.70
   5  -3   2  221.38   10.40
  -5  -3  -2  246.28   15.80
   5  -3   2  228.88   10.50
   5  -3   2  253.07   11.40
  -5   3  -2  239.18   13.10
  -5   3  -2  240.98   11.40
  -5   3  -2  259.47   12.40
   5   3   2  224.38   11.50
   5   3   2  262.57   11.80
  -5   3  -2  220.88   15.00
   5   3   2  245.08   10.30
  -5   3  -2  244.08   12.90
  -5   3  -2  247.18   11.20
  -5   3  -2  241.18   14.20
  -5   3  -2  230.18   10.70
  -5   3  -2  252.57   10.70
  -6  -3  -2  155.78    8.10
  -6  -3  -2  155.98    7.10
  -6  -3  -2  161.08   10.20
  -6  -3  -2  159.68    7.20
   6  -3   2  160.98    8.50
   6  -3   2  164.88    7.80
   6  -3   2  158.68    7.30
   6   3   2  154.28    7.00
  -6   3  -2  153.58    7.40
  -6   3  -2  162.28    9.30
   6   3   2  165.18    8.40
  -6   3  -2  163.78    7.80
   6   3   2  148.39    8.10
  -6   3  -2  157.78    8.80
  -6   3  -2  149.39    8.00
  -6   3  -2  160.98    9.40
   6   3   2  158.88    7.10
  -7  -3  -2   50.49    3.00
   7  -3   2   49.70    2.70
  -7  -3  -2   42.10    2.30
  -7  -3  -2   49.90    3.40
   7  -3   2   51.79    2.90
   7   3   2   47.40    3.10
  -7   3  -2   46.00    3.10
  -7   3  -2   49.90    3.30
  -7   3  -2   48.10    3.20
  -7   3  -2   49.60    2.80
  -7   3  -2   47.60    2.60
  -8  -4   2  136.49    5.40
   8   4  -2  137.79    5.50
  -8   4   2  128.99    5.50
  -8   4   2  131.39    5.70
  -8   4   2  135.19    6.90
  -7  -4   2   12.60    1.50
  -7  -4   2   15.10    2.60
  -7  -4   2   12.40    1.70
   7  -4  -2   14.70    1.50
  -7  -4   2   11.40    2.10
  -7   4   2   12.80    1.70
  -7   4   2   11.50    1.60
  -7   4   2    8.20    2.00
  -7   4   2   11.90    1.60
  -7   4   2   10.40    2.40
  -7   4   2   10.00    1.10
   7   4  -2    9.30    1.60
   7   4  -2   11.90    1.70
  -7   4   2   10.00    1.80
  -7   4   2   13.40    1.70
   7   4  -2   12.00    1.70
  -6  -4   2  157.48   10.10
  -6  -4   2  161.78    8.00
  -6  -4   2  173.38    8.60
   6  -4  -2  166.18    7.50
  -6  -4   2  177.18   10.20
  -6   4   2  159.78    8.70
   6   4  -2  148.29    8.80
  -6   4   2  162.18    8.90
   6   4  -2  171.88    9.10
  -6   4   2  162.58    8.50
  -6   4   2  163.88    7.40
  -6   4   2  160.98    8.60
  -6   4   2  165.78    9.90
  -6   4   2  174.68    9.00
  -6   4   2  171.48   10.40
  -6   4   2  157.18    8.40
   6   4  -2  167.88    7.90
   6   4  -2  167.68    7.90
   5  -4  -2  282.97   12.10
  -5  -4   2  266.87   16.30
  -5  -4   2  328.77   14.60
  -5  -4   2  304.37   12.60
   5   4  -2  297.47   12.80
  -5   4   2  312.17   13.90
  -5   4   2  284.27   13.10
  -5   4   2  312.77   13.50
  -5   4   2  302.77   12.30
  -5   4   2  284.77   16.60
   5   4  -2  320.27   14.40
  -5   4   2  321.87   15.20
  -5   4   2  334.07   13.00
  -5   4   2  320.57   14.00
   5   4  -2  303.47   13.00
  -5   4   2  334.17   13.70
  -5   4   2  323.77   13.80
  -5   4   2  304.17   13.90
   5   4  -2  274.67   14.20
  -5   4   2  328.47   14.90
  -4  -4   2  352.26   18.30
  -4  -4   2  329.97   17.10
  -4  -4   2  305.87   13.90
  -4   4   2  325.77   12.70
  -4   4   2  305.37   14.30
  -4   4   2  341.37   13.80
   4   4  -2  297.37   13.00
  -4   4   2  309.77   16.60
  -4   4   2  320.07   12.90
  -4   4   2  340.07   13.70
  -4   4   2  327.17   13.70
   4   4  -2  328.07   14.40
  -4   4   2  329.97   12.60
  -4   4   2  329.47   13.60
  -4   4   2  342.17   14.00
  -4   4   2  329.67   14.30
  -4   4   2  321.57   13.90
   4   4  -2  307.67   13.10
  -4   4   2  340.57   14.30
  -3  -4   2   41.80    3.80
  -3  -4   2   44.00    3.50
  -3  -4   2   45.70    3.30
  -3  -4   2   40.60    4.20
   3   4  -2   38.60    3.00
  -3   4   2   44.80    5.00
  -2  -4   2  852.41   32.30
  -2  -4   2  840.52   29.90
  -2   4   2  814.12   32.30
   1  -4  -2 1273.87   44.40
  -1  -4   2 1279.17   46.70
  -1   4   2 1316.47   47.10
   1   4  -2 1325.87   45.30
   1   4  -2 1299.77   46.50
   0  -4   2 1032.00   38.40
   0  -4  -2 1050.89   38.00
   0   4  -2 1086.79   39.00
   0   4   2 1085.79   39.10
   0   4  -2 1107.09   38.20
  -1  -4  -2  382.06   16.90
  -1   4  -2  397.56   15.30
  -1   4  -2  422.36   15.50
  -1   4  -2  414.86   17.80
  -2  -4  -2 1640.04   57.29
  -2  -4  -2 1624.14   58.29
  -2  -4  -2 1535.75   55.79
  -2   4  -2 1618.34   58.79
  -2   4  -2 1569.84   54.99
  -3  -4  -2  404.96   18.70
   3  -4   2  390.06   15.30
  -3  -4  -2  416.26   19.80
  -3  -4  -2  409.66   17.40
  -3   4  -2  393.26   15.70
  -3   4  -2  421.56   20.30
  -4  -4  -2   78.99    6.30
  -4  -4  -2   76.99    6.20
   4  -4   2   79.99    4.70
   4  -4   2   78.09    4.50
   4  -4   2   81.59    5.20
  -4  -4  -2   92.49    8.60
  -4   4  -2   77.49    5.30
   4   4   2   82.09    4.50
  -4   4  -2   87.59    5.90
  -4   4  -2   82.79    5.40
  -4   4  -2   86.69    6.70
   4   4   2   82.19    5.40
  -4   4  -2   90.09    5.50
  -4   4  -2   79.69    4.90
  -4   4  -2   87.59    7.30
   4   4   2   77.39    5.50
  -4   4  -2   80.79    6.40
  -4   4  -2   86.99    5.10
   4   4   2   81.89    4.40
  -4   4  -2   81.19    7.80
  -4   4  -2   82.49    4.80
  -5  -4  -2 1261.57   47.70
   5  -4   2 1175.88   43.30
   5  -4   2 1197.38   43.30
   5  -4   2 1291.07   44.10
  -5  -4  -2 1202.48   42.80
  -5   4  -2 1231.98   48.90
   5   4   2 1267.47   44.70
  -5   4  -2 1287.97   47.30
   5   4   2 1138.89   42.40
  -5   4  -2 1246.78   46.80
   5   4   2 1140.89   44.60
  -5   4  -2 1189.18   43.60
  -5   4  -2 1240.88   44.00
  -5   4  -2 1236.68   43.40
  -5   4  -2 1307.87   44.90
  -6  -4  -2   48.10    5.40
   6  -4   2   54.19    3.40
   6  -4   2   48.70    3.30
  -6  -4  -2   50.99    3.00
  -6  -4  -2   53.59    3.00
   6  -4   2   54.49    3.50
  -6  -4  -2   45.80    3.60
  -6   4  -2   50.59    4.50
   6   4   2   47.50    3.90
  -6   4  -2   54.99    5.10
  -6   4  -2   49.99    4.10
   6   4   2   47.70    3.80
  -6   4  -2   48.70    3.30
  -6   4  -2   46.00    3.40
  -6   4  -2   52.59    4.00
  -7  -4  -2   60.49    3.20
   7  -4   2   56.19    3.00
  -7  -4  -2   58.49    3.60
  -7   4  -2   56.89    3.50
   7   4   2   53.39    3.20
  -7   4  -2   51.19    2.90
  -7   4  -2   54.39    3.10
  -7   4  -2   65.99    4.50
  -7   4  -2   58.79    2.90
  -7  -5   2   90.79    4.50
   7  -5  -2   85.19    4.20
   7  -5  -2   80.69    4.10
  -7  -5   2   89.59    4.70
  -7  -5   2   88.19    4.40
  -7  -5   2   91.09    5.80
  -7   5   2   80.99    4.70
   7   5  -2   86.19    4.80
  -7   5   2   92.99    5.10
  -7   5   2   80.69    4.60
  -7   5   2   89.49    5.20
   7   5  -2   92.59    5.00
  -7   5   2   81.09    4.80
  -7   5   2   85.29    6.40
  -7   5   2   90.59    6.10
  -7   5   2   86.09    4.00
  -6  -5   2   56.59    3.90
   6  -5  -2   64.29    3.60
  -6  -5   2   63.39    5.20
  -6   5   2   55.69    4.20
  -6   5   2   64.29    5.30
  -6   5   2   59.39    4.60
  -6   5   2   53.39    4.60
  -6   5   2   56.79    4.30
   6   5  -2   62.49    4.70
  -6   5   2   58.69    3.60
   6   5  -2   62.79    4.60
   6   5  -2   60.39    4.70
  -6   5   2   68.19    6.40
  -6   5   2   55.79    4.50
  -6   5   2   62.09    4.50
   6   5  -2   58.29    3.60
  -5  -5   2   94.99    5.00
  -5  -5   2   88.89    6.40
  -5  -5   2   88.79    8.80
  -5   5   2   94.29    6.00
  -5   5   2   89.49    6.30
   5   5  -2   85.29    5.00
  -5   5   2   94.49    5.90
  -5   5   2   95.59    5.00
  -5   5   2   88.79    6.00
  -5   5   2   89.19    6.70
  -5   5   2   84.19    5.50
  -5   5   2  106.99    7.50
   5   5  -2   85.89    5.10
  -5   5   2   90.49    6.00
  -5   5   2   93.89    6.30
  -5   5   2   92.19    6.00
   5   5  -2   90.29    6.20
   5   5  -2   87.89    6.60
  -5   5   2   97.99    5.70
  -4  -5   2   83.79    6.60
  -4  -5   2   85.89    5.70
  -4  -5   2   82.79    7.70
  -4  -5   2   84.09    6.40
   4   5  -2   79.99    4.60
   4   5  -2   78.69    4.70
   4   5  -2   82.99    6.20
   4   5  -2   80.59    5.60
  -4   5   2   81.69    5.80
  -4   5   2   81.89    6.10
  -4   5   2   93.69    7.40
  -4   5   2   82.99    5.40
  -4   5   2   76.99    4.90
  -4   5   2   76.59    4.40
  -4   5   2   84.79    4.50
  -4   5   2   80.99    5.40
  -4   5   2   72.49    4.70
  -4   5   2   82.79    5.40
  -4   5   2   79.89    5.30
  -4   5   2   78.79    4.60
  -4   5   2   82.29    5.30
  -4   5   2   84.39    6.00
  -4   5   2   85.69    5.20
  -4   5   2   81.59    5.40
  -3  -5   2   93.69    6.00
  -3  -5   2   93.39    6.00
  -3  -5   2   87.49    5.50
  -3  -5   2   82.09    7.10
   3   5  -2   95.29    4.80
  -3   5   2   93.99    7.50
  -2  -5   2  569.94   21.50
  -2  -5   2  575.04   21.60
  -2  -5   2  583.44   22.20
  -2  -5   2  553.74   24.10
   1  -5  -2  372.46   14.50
  -1  -5   2  375.16   16.60
  -1   5   2  395.96   17.30
   1   5  -2  375.76   15.40
   0  -5   2  631.34   25.90
   0  -5  -2  685.43   25.60
   0   5  -2  676.23   26.50
   0   5   2  703.93   26.80
  -1  -5  -2 2076.79   75.49
  -1   5  -2 2231.88   76.79
  -1   5  -2 2131.79   72.89
  -2  -5  -2  755.42   29.10
  -2  -5  -2  788.22   28.90
   2  -5   2  720.73   27.20
  -2  -5  -2  790.62   31.90
  -2  -5  -2  799.52   30.20
  -2   5  -2  773.62   27.50
  -2   5  -2  799.42   32.30
  -3  -5  -2  528.35   23.00
  -3  -5  -2  558.34   26.10
   3  -5   2  520.15   20.70
  -3   5  -2  567.64   21.70
   3   5   2  586.74   22.00
  -3   5  -2  575.74   26.60
  -3   5  -2  622.34   27.60
  -3   5  -2  580.64   22.40
  -3   5  -2  588.64   21.10
  -3   5  -2  567.44   22.40
  -3   5  -2  651.93   24.00
   3   5   2  599.54   25.10
  -3   5  -2  550.54   22.70
  -3   5  -2  459.95   27.90
   4  -5   2  135.99    6.80
  -4  -5  -2  144.99    9.10
   4  -5   2  133.19    6.80
  -4  -5  -2  132.79    9.00
  -4  -5  -2  156.18   11.40
  -4   5  -2  136.99    7.00
  -4   5  -2  153.48    9.70
  -4   5  -2  149.99    7.60
  -4   5  -2  158.38   10.70
   4   5   2  142.49    8.10
  -4   5  -2  140.09    9.20
  -4   5  -2  140.19   10.80
  -4   5  -2  135.79    7.50
  -4   5  -2  152.08    7.60
  -4   5  -2  156.38    8.20
   4   5   2  138.99    7.60
   4   5   2  131.99    6.10
  -4   5  -2  139.89    8.20
  -5  -5  -2  981.70   34.20
  -5  -5  -2  974.30   38.80
   5  -5   2  946.91   34.60
   5  -5   2  955.30   34.60
  -5   5  -2  937.21   37.80
  -5   5  -2  995.40   36.40
  -5   5  -2 1032.10   35.50
   5   5   2  956.50   36.10
  -5   5  -2  937.61   38.90
  -5   5  -2  961.70   34.70
  -5   5  -2  978.50   36.70
  -5   5  -2  977.00   35.30
   5   5   2  932.71   35.60
   6  -5   2   67.89    3.80
  -6  -5  -2   72.79    6.00
   6  -5   2   63.29    3.50
  -6  -5  -2   64.29    3.30
   6  -5   2   67.59    4.00
   6   5   2   53.39    3.90
  -6   5  -2   66.69    5.50
  -6   5  -2   65.89    4.00
  -6   5  -2   68.59    4.60
  -6   5  -2   65.59    3.80
  -6   5  -2   68.59    4.70
  -6   5  -2   66.09    5.10
  -7  -5  -2    6.70    1.00
  -7  -5  -2    7.00    0.80
   7  -5   2    7.50    0.80
   7   5   2    4.90    0.70
  -7   5  -2    6.20    0.70
  -7   5  -2    7.00    0.90
  -7   5  -2    7.00    1.10
  -7  -6   2   34.90    2.20
  -7  -6   2   31.50    2.20
  -7  -6   2   31.50    3.40
  -7  -6   2   32.30    2.10
  -7   6   2   29.90    3.30
  -7   6   2   32.00    3.30
  -7   6   2   34.00    2.80
  -7   6   2   33.50    2.60
  -7   6   2   29.80    2.40
   7   6  -2   33.10    2.50
   7   6  -2   35.70    2.60
  -7   6   2   30.80    2.00
  -7   6   2   29.40    2.30
  -6  -6   2  128.79    7.90
   6  -6  -2  113.29    5.50
  -6  -6   2  117.39    6.10
  -6   6   2  124.09    8.20
  -6   6   2  123.69    7.10
  -6   6   2  129.99    6.90
  -6   6   2  116.69    7.00
  -6   6   2  127.39    5.90
  -6   6   2  123.99    8.60
   6   6  -2  121.19    6.90
   6   6  -2  124.69    7.20
  -6   6   2  113.39    6.60
  -6   6   2  121.49    7.10
  -5  -6   2  144.29    8.80
  -5   6   2  159.38    8.30
  -5   6   2  148.59    8.60
  -5   6   2  134.89    7.40
  -5   6   2  157.28    8.60
  -5   6   2  148.39    8.40
  -5   6   2  149.59    7.10
  -5   6   2  144.29    8.40
  -5   6   2  149.59    9.40
   5   6  -2  141.79    8.80
  -5   6   2  148.79    8.50
  -5   6   2  148.39    8.10
   5   6  -2  137.69    6.60
  -5   6   2  147.89    9.50
  -5   6   2  155.58    7.80
   5   6  -2  145.39    8.30
  -4  -6   2  372.76   18.30
  -4  -6   2  395.46   17.50
  -4  -6   2  389.76   17.40
  -4  -6   2  431.76   21.60
  -4   6   2  433.26   17.30
  -4   6   2  413.36   18.10
   4   6  -2  399.76   17.30
  -4   6   2  393.26   16.00
  -4   6   2  434.96   17.70
  -4   6   2  391.56   15.30
  -4   6   2  413.16   16.70
  -4   6   2  437.56   17.70
  -4   6   2  414.26   18.40
   4   6  -2  381.66   15.40
  -4   6   2  417.96   21.50
  -4   6   2  409.66   17.40
  -4   6   2  440.86   16.00
  -4   6   2  403.86   16.50
  -4   6   2  389.36   18.20
   4   6  -2  387.16   18.30
  -4   6   2  399.56   16.30
  -4   6   2  406.26   16.00
  -4   6   2  419.26   17.20
  -3  -6   2   80.49    5.40
  -3  -6   2   82.89    6.30
  -3  -6   2   77.99    5.80
  -3  -6   2   83.19    6.40
  -3  -6   2   90.49    6.10
  -3  -6   2   96.59    7.70
  -3   6   2   84.99    5.00
   3   6  -2   79.69    5.40
   3   6  -2   81.49    6.10
  -3   6   2   84.89    6.10
  -3   6   2   87.99    5.20
  -3   6   2   88.59    5.20
  -3   6   2   84.19    5.40
  -3   6   2   85.09    5.50
  -3   6   2   88.99    6.00
  -3   6   2   84.19    5.50
  -3   6   2   82.59    4.50
  -3   6   2   90.49    5.50
  -3   6   2   82.39    4.30
  -3   6   2   92.29    5.80
  -3   6   2   92.49    7.80
  -3   6   2   88.09    4.70
  -3   6   2   79.39    5.30
  -3   6   2   85.69    6.00
  -2  -6   2  236.58   10.90
  -2  -6   2  238.48   10.70
  -2  -6   2  246.28   13.30
  -2  -6   2  246.78   11.60
  -2   6   2  246.68   13.60
  -1  -6   2  422.56   16.60
   1  -6  -2  390.86   16.60
  -1  -6   2  426.66   16.30
  -1  -6   2  435.06   19.20
   1   6  -2  425.16   17.60
  -1   6   2  447.86   19.70
   0  -6   2 1807.22   63.49
   0  -6  -2 1844.22   65.79
   0  -6   2 1722.43   66.29
   0   6   2 2030.80   67.69
   0   6  -2 1918.01   66.99
   1  -6   2   61.89    5.00
   1  -6   2   55.89    3.40
  -1  -6  -2   61.89    4.30
  -1  -6  -2   59.29    5.30
  -1   6  -2   62.49    5.60
   2  -6   2  296.67   12.10
  -2  -6  -2  293.37   16.20
  -2  -6  -2  302.87   13.90
  -2  -6  -2  306.57   13.50
  -2  -6  -2  324.37   15.00
  -2   6  -2  331.37   14.10
  -2   6  -2  322.07   14.00
  -2   6  -2  328.07   13.70
  -2   6  -2  315.27   15.80
   2   6   2  293.47   13.40
  -2   6  -2  345.57   15.40
  -2   6  -2  311.37   16.70
  -3  -6  -2  389.86   20.80
  -3  -6  -2  377.16   18.20
   3  -6   2  372.66   15.20
  -3  -6  -2  367.86   17.60
  -3  -6  -2  403.06   19.30
  -3   6  -2  424.46   16.40
  -3   6  -2  412.16   17.40
  -3   6  -2  406.66   18.60
  -3   6  -2  405.06   17.30
  -3   6  -2  417.16   16.90
  -3   6  -2  392.36   19.60
   3   6   2  394.96   15.70
  -3   6  -2  408.96   16.70
  -3   6  -2  414.16   16.50
  -3   6  -2  399.76   15.50
  -3   6  -2  391.66   19.30
   3   6   2  393.66   17.00
  -3   6  -2  400.36   21.20
   3   6   2  411.56   16.30
   4  -6   2  164.98    8.20
  -4  -6  -2  179.18   10.70
  -4  -6  -2  184.48   13.30
  -4  -6  -2  172.48   10.60
  -4   6  -2  180.48   10.90
  -4   6  -2  179.78    9.10
  -4   6  -2  189.98   10.00
  -4   6  -2  174.18    8.40
  -4   6  -2  185.38   11.90
  -4   6  -2  190.58    9.00
  -4   6  -2  166.78   12.80
   4   6   2  184.68    9.00
  -4   6  -2  188.18   10.00
   4   6   2  179.48    9.70
  -4   6  -2  185.28    9.20
   5  -6   2  484.25   18.80
  -5  -6  -2  513.15   22.80
   5  -6   2  522.75   19.10
  -5   6  -2  501.45   20.80
  -5   6  -2  491.15   19.10
  -5   6  -2  502.65   22.20
  -5   6  -2  520.85   19.80
  -5   6  -2  513.35   19.30
  -5   6  -2  514.45   20.90
   5   6   2  477.85   19.60
  -5   6  -2  483.25   19.60
  -5   6  -2  495.75   23.10
   5   6   2  498.85   20.40
   6  -6   2   94.79    5.00
  -6  -6  -2   88.19    6.70
   6  -6   2   88.49    4.30
   6   6   2   87.29    4.70
   6   6   2   87.19    3.90
   6   6   2   89.49    5.10
  -6   6  -2   92.39    5.50
  -6   6  -2   91.49    5.70
  -6   6  -2   90.49    5.30
  -6   6  -2   91.49    4.50
  -6   6  -2   85.39    4.60
  -6   6  -2   83.59    6.40
  -7  -6  -2    1.60    0.50
  -7   6  -2    1.50    0.60
  -7   6  -2    2.30    0.40
  -7  -7   2   45.10    2.30
  -7  -7   2   42.50    2.10
  -7  -7   2   37.50    2.10
  -7   7   2   42.20    2.60
   7   7  -2   37.30    2.30
  -7   7   2   42.80    2.70
  -7   7   2   43.00    2.10
   7   7  -2   49.60    3.80
  -7   7   2   41.50    2.70
  -7   7   2   41.80    3.40
  -6  -7   2  255.87   10.50
  -6  -7   2  260.27   14.10
  -6   7   2  263.57   13.20
   6   7  -2  264.77   14.90
   6   7  -2  253.67   11.10
  -6   7   2  258.37   10.30
  -6   7   2  265.37   12.00
  -6   7   2  263.57   11.50
  -6   7   2  243.68   11.70
  -6   7   2  251.67   11.80
  -6   7   2  242.48   13.10
  -6   7   2  269.87   13.20
  -5  -7   2   19.40    2.90
  -5   7   2   23.20    2.10
  -5   7   2   19.80    2.70
  -5   7   2   18.90    3.00
  -5   7   2   21.60    3.30
  -5   7   2   23.20    2.80
   5   7  -2   22.20    2.60
   5   7  -2   18.10    2.80
  -5   7   2   21.90    2.60
  -5   7   2   20.50    3.70
  -5   7   2   20.00    2.60
  -5   7   2   19.50    2.50
  -5   7   2   21.40    3.00
  -4  -7   2   42.20    5.80
  -4  -7   2   44.70    4.20
  -4  -7   2   60.09    6.80
  -4  -7   2   51.39    4.70
  -4   7   2   48.70    4.70
  -4   7   2   47.10    4.10
  -4   7   2   63.49    7.00
  -4   7   2   54.59    3.60
  -4   7   2   54.09    4.50
  -4   7   2   53.69    4.40
  -4   7   2   53.29    5.10
   4   7  -2   48.40    4.90
  -4   7   2   52.09    4.50
  -4   7   2   51.19    3.70
  -4   7   2   52.69    4.80
   4   7  -2   52.09    4.20
  -4   7   2   51.19    4.50
  -4   7   2   49.40    3.90
  -4   7   2   49.70    3.70
  -4   7   2   52.69    4.20
  -4   7   2   49.50    3.60
  -4   7   2   60.09    5.00
  -3  -7   2  575.24   23.80
  -3  -7   2  597.74   24.20
  -3  -7   2  633.54   25.30
  -3  -7   2  582.24   24.90
  -3  -7   2  604.74   28.30
  -3  -7   2  631.14   24.00
  -3   7   2  648.24   22.80
  -3   7   2  600.24   24.80
  -3   7   2  627.84   24.20
  -3   7   2  594.54   28.60
  -3   7   2  598.14   22.10
   3   7  -2  588.44   25.20
  -3   7   2  630.14   24.30
  -3   7   2  605.04   23.60
  -3   7   2  589.84   22.50
  -3   7   2  636.24   25.50
  -3   7   2  591.64   22.90
  -3   7   2  604.74   22.50
  -3   7   2  599.94   23.40
   3   7  -2  609.94   23.80
  -3   7   2  620.34   24.50
  -3   7   2  644.04   25.70
  -3   7   2  618.04   24.10
  -3   7   2  656.13   24.10
  -3   7   2  607.84   24.50
  -3   7   2  608.34   23.20
  -2  -7   2  409.26   17.50
  -2  -7   2  399.06   20.00
  -2  -7   2  384.76   16.70
  -2  -7   2  374.86   16.30
  -2  -7   2  391.86   16.60
  -2  -7   2  373.06   16.50
  -2   7   2  405.86   20.40
  -2   7   2  387.86   16.70
  -2   7   2  385.56   15.10
  -2   7   2  400.76   16.30
  -2   7   2  396.36   15.70
  -2   7   2  407.66   16.50
  -2   7   2  410.16   18.00
  -2   7   2  427.86   17.70
  -2   7   2  414.16   16.80
  -2   7   2  403.86   18.60
  -2   7   2  410.56   15.90
  -2   7   2  423.76   20.00
  -2   7   2  389.76   15.00
  -2   7   2  412.36   16.80
  -2   7   2  402.36   17.20
  -1  -7   2  156.08    7.90
  -1  -7   2  156.98   10.40
  -1  -7   2  154.88    8.00
  -1   7   2  165.78   10.70
  -1   7   2  165.68    8.50
  -1   7   2  176.88    8.40
  -1   7   2  178.88    9.00
  -1   7   2  169.58    8.50
   1   7  -2  180.68    9.40
   0  -7   2  414.56   16.20
   0  -7  -2  422.36   16.40
   0  -7   2  401.86   19.10
   0  -7  -2  417.76   18.60
   0   7  -2  426.46   19.50
   0   7   2  431.26   19.80
   1  -7   2  298.67   12.30
  -1  -7  -2  306.17   13.20
  -1  -7  -2  311.97   13.90
   1  -7   2  334.37   16.20
  -1  -7  -2  293.67   15.70
  -1   7  -2  311.17   14.00
   1   7   2  293.97   12.90
  -1   7  -2  319.77   15.00
   1   7   2  298.17   13.00
   1   7   2  306.57   14.80
   1   7   2  327.37   13.00
  -1   7  -2  310.77   13.50
  -1   7  -2  313.57   14.20
  -1   7  -2  301.37   16.30
   1   7   2  308.47   11.90
  -1   7  -2  333.77   13.70
  -2  -7  -2  256.47   13.40
  -2  -7  -2  244.08   12.40
  -2  -7  -2  256.87   15.20
  -2  -7  -2  263.97   12.10
  -2  -7  -2  242.58   12.40
   2   7   2  249.78   11.40
   2   7   2  256.47   11.90
  -2   7  -2  282.17   14.90
  -2   7  -2  257.97   12.30
  -2   7  -2  265.47   12.40
  -2   7  -2  271.67   15.60
  -2   7  -2  222.08   11.30
   2   7   2  278.17   11.50
  -2   7  -2  260.67   12.40
  -2   7  -2  281.47   12.20
  -2   7  -2  272.67   13.70
  -2   7  -2  278.57   12.20
  -2   7  -2  257.67   10.70
  -2   7  -2  261.87   12.70
   3  -7   2  105.49    5.60
  -3  -7  -2  120.99    7.90
  -3  -7  -2  135.79   10.50
  -3  -7  -2  109.89    8.70
   3   7   2  113.79    6.10
  -3   7  -2  125.09    7.20
  -3   7  -2  130.69   10.50
  -3   7  -2  120.39    7.10
  -3   7  -2  119.69    6.80
  -3   7  -2  111.79   11.00
  -3   7  -2  112.89    5.90
   3   7   2  108.89    6.10
  -3   7  -2  125.29   10.50
  -3   7  -2  119.69    6.60
  -4  -7  -2   57.89    5.30
   4  -7   2   52.09    3.50
   4  -7   2   49.20    3.40
  -4  -7  -2   54.39    5.40
  -4  -7  -2   55.59    6.20
  -4   7  -2   51.19    3.80
  -4   7  -2   53.69    4.20
  -4   7  -2   61.99    4.90
   4   7   2   55.59    4.40
  -4   7  -2   53.49    3.60
  -4   7  -2   49.80    4.60
  -4   7  -2   63.09    6.20
   4   7   2   53.99    3.90
  -4   7  -2   58.19    4.40
  -4   7  -2   54.19    4.00
   4   7   2   50.69    3.40
  -4   7  -2   58.29    5.60
   5  -7   2  210.38    8.90
   5  -7   2  212.28    9.00
  -5  -7  -2  218.68   11.90
  -5   7  -2  209.48   10.50
  -5   7  -2  209.28    9.20
   5   7   2  215.48   10.10
  -5   7  -2  200.18   10.40
  -5   7  -2  208.98   11.30
   5   7   2  192.78    9.10
  -5   7  -2  205.18    9.40
  -5   7  -2  213.48   12.60
  -5   7  -2  210.88    9.00
   6  -7   2    6.30    1.00
   6  -7   2    4.00    0.80
  -6  -7  -2    9.30    2.20
  -6   7  -2    5.70    0.80
  -6   7  -2    5.70    1.10
   6   7   2    5.60    0.90
  -6   7  -2    5.60    1.20
   6   7   2    7.30    1.30
  -6   7  -2    5.30    1.20
   6   7   2    6.00    0.60
  -6   7  -2    5.50    0.90
  -6  -8   2  165.88    7.10
  -6  -8   2  176.48    7.20
  -6  -8   2  172.08    8.70
  -6   8   2  168.38    7.50
  -6   8   2  162.58    9.20
  -6   8   2  165.68    7.80
   6   8  -2  150.28    7.10
   6   8  -2  156.98    6.70
  -6   8   2  165.08    8.00
  -6   8   2  168.78    7.00
  -6   8   2  167.78    8.20
   6   8  -2  184.38    8.20
  -5  -8   2   44.90    4.40
  -5   8   2   40.50    4.60
  -5   8   2   41.50    3.80
   5   8  -2   43.70    3.40
  -5   8   2   43.20    4.00
  -5   8   2   38.00    3.40
  -5   8   2   41.10    4.50
  -5   8   2   43.90    4.00
   5   8  -2   43.90    4.10
  -5   8   2   41.70    3.80
  -5   8   2   43.30    3.60
  -5   8   2   39.30    3.50
  -5   8   2   40.00    2.90
  -4  -8   2  206.28   11.80
  -4  -8   2  203.18   10.70
  -4  -8   2  198.08   10.60
  -4  -8   2  200.08   11.50
  -4   8   2  198.28   11.70
  -4   8   2  197.78    9.20
  -4   8   2  193.18   10.60
  -4   8   2  194.98    9.90
  -4   8   2  210.48   11.20
   4   8  -2  180.48    9.30
  -4   8   2  203.68   10.20
   4   8  -2  188.78   10.70
  -4   8   2  201.28   10.30
  -4   8   2  196.18   10.60
  -4   8   2  207.68   10.90
  -4   8   2  201.78    8.90
  -4   8   2  200.18    9.40
  -4   8   2  210.18   11.60
  -4   8   2  210.98    9.90
  -4   8   2  196.88    8.60
  -4   8   2  200.68   10.40
  -3  -8   2   61.59    5.40
  -3  -8   2   64.69    5.40
  -3  -8   2   62.79    7.30
  -3  -8   2   64.19    4.90
  -3  -8   2   56.99    4.70
  -3   8   2   55.19    4.70
  -3   8   2   55.89    3.70
  -3   8   2   66.59    5.40
  -3   8   2   61.69    4.50
  -3   8   2   53.89    5.20
  -3   8   2   67.69    4.90
  -3   8   2   66.09    5.10
  -3   8   2   58.99    4.70
  -3   8   2   63.89    4.00
  -3   8   2   61.19    4.40
  -3   8   2   56.69    4.10
  -3   8   2   60.69    4.30
  -3   8   2   59.09    3.60
  -3   8   2   64.59    7.10
  -3   8   2   65.09    8.80
  -3   8   2   60.29    3.90
   3   8  -2   57.99    5.10
   3   8  -2   61.49    5.40
  -3   8   2   63.79    5.60
  -3   8   2   61.39    4.70
  -2  -8   2  170.98    8.70
  -2  -8   2  183.48    9.10
  -2  -8   2  161.18    8.80
  -2  -8   2  166.48   12.00
  -2  -8   2  175.18   10.10
  -2  -8   2  185.38    9.50
  -2   8   2  175.88   12.20
  -2   8   2  181.28    9.90
   2   8  -2  158.38    8.00
  -2   8   2  172.58    7.70
  -2   8   2  174.48   11.20
  -2   8   2  177.28    8.40
  -2   8   2  180.18   10.40
  -2   8   2  164.28    8.20
  -2   8   2  178.58    9.50
  -2   8   2  182.48    9.20
  -2   8   2  189.38    9.10
   2   8  -2  166.78    9.70
  -2   8   2  175.28    7.90
  -2   8   2  188.68    9.50
  -2   8   2  184.68    9.60
  -2   8   2  180.08    7.60
  -2   8   2  172.88    9.30
   2   8  -2  162.38    9.40
  -2   8   2  177.48    8.00
  -2   8   2  183.08    9.00
   2   8  -2  170.18    8.50
  -1  -8   2  311.67   13.50
  -1  -8   2  309.37   16.80
  -1  -8   2  296.77   14.50
  -1  -8   2  280.37   12.90
  -1  -8   2  284.07   13.20
   1   8  -2  290.87   14.20
   1   8  -2  315.77   11.80
   1   8  -2  309.37   14.20
  -1   8   2  313.87   12.50
   1   8  -2  295.07   14.80
  -1   8   2  313.87   14.00
  -1   8   2  293.77   18.40
  -1   8   2  317.27   14.10
  -1   8   2  301.47   12.00
  -1   8   2  312.97   12.10
  -1   8   2  320.07   14.40
  -1   8   2  321.77   13.40
  -1   8   2  312.47   12.90
   1   8  -2  305.37   13.30
  -1   8   2  328.37   13.70
   1   8  -2  314.97   13.60
  -1   8   2  323.17   14.20
  -1   8   2  315.57   13.50
  -1   8   2  313.07   12.80
  -1   8   2  335.17   15.70
   1   8  -2  296.57   15.70
  -1   8   2  323.47   12.60
   0  -8   2  373.76   15.40
   0  -8   2  376.26   19.00
   0  -8   2  343.37   15.10
   0  -8   2  380.46   15.60
   0  -8  -2  386.06   19.50
   0   8   2  402.26   16.00
   0   8  -2  358.86   16.10
   0   8   2  392.46   15.60
   0   8  -2  375.06   16.80
   0   8   2  395.26   15.20
   0   8  -2  376.96   16.00
   0   8   2  408.26   18.10
   0   8   2  399.46   14.50
   0   8   2  400.16   15.60
   0   8  -2  396.76   16.30
   0   8   2  360.96   14.40
   0   8   2  391.66   16.60
   0   8  -2  384.86   18.80
   0   8   2  378.46   14.90
   0   8  -2  362.76   17.40
   1  -8   2   65.49    4.90
  -1  -8  -2   68.49    4.40
  -1  -8  -2   70.99    7.10
  -1  -8  -2   66.69    4.80
  -1  -8  -2   65.99    5.30
   1  -8   2   60.49    4.10
   1  -8   2   65.79    5.50
   1  -8   2   62.69    6.50
   1   8   2   67.49    4.40
  -1   8  -2   67.09    4.90
   1   8   2   63.49    4.20
  -1   8  -2   71.99    6.90
  -1   8  -2   53.99    4.40
   1   8   2   64.59    5.80
  -1   8  -2   66.19    3.70
  -1   8  -2   67.19    5.10
  -1   8  -2   60.59    4.40
   1   8   2   65.99    4.20
   1   8   2   66.89    3.70
  -1   8  -2   66.99    5.70
  -1   8  -2   65.69    5.50
   1   8   2   65.29    4.50
   1   8   2   70.09    4.10
  -1   8  -2   64.99    4.80
  -2  -8  -2   98.69    9.00
  -2  -8  -2   98.09    6.80
   2  -8   2   98.19    5.40
  -2   8  -2  112.39    8.10
   2   8   2   97.59    5.90
  -2   8  -2  104.49    7.10
  -2   8  -2  106.69    6.50
   2   8   2   97.19    5.00
  -2   8  -2  105.89    9.20
  -2   8  -2  104.09    6.90
   2   8   2   98.09    6.10
  -2   8  -2  100.59    5.30
   2   8   2  104.19    5.50
   2   8   2   99.79    5.80
  -2   8  -2  102.79    6.00
  -2   8  -2  102.19    6.40
  -3  -8  -2   68.19    5.90
  -3  -8  -2   71.69    6.90
  -3  -8  -2   67.29    5.90
   3  -8   2   63.89    4.00
  -3   8  -2   66.39    5.00
  -3   8  -2   69.19    4.70
  -3   8  -2   71.79    4.90
  -3   8  -2   64.69    6.80
  -3   8  -2   73.89    6.20
   3   8   2   63.19    4.10
  -3   8  -2   65.69    5.40
   3   8   2   65.49    3.70
   3   8   2   69.39    5.10
  -3   8  -2   69.49    5.70
   3   8   2   65.79    4.30
  -3   8  -2   70.79    4.20
  -4  -8  -2    2.10    1.50
  -4  -8  -2    1.80    1.50
   4  -8   2    2.70    1.00
   4  -8   2    2.30    0.90
  -4  -8  -2    3.50    2.60
   4   8   2    3.40    0.70
  -4   8  -2    4.20    1.10
  -4   8  -2    3.60    1.10
   4   8   2    1.30    0.70
  -4   8  -2    3.50    1.60
   4   8   2    2.20    0.60
  -4   8  -2    0.80    0.40
  -4   8  -2    1.90    1.00
  -4   8  -2    2.80    1.10
  -4   8  -2    2.00    0.90
  -4   8  -2    1.10    1.50
   4   8   2    1.60    1.10
   5  -8   2   80.79    4.10
   5  -8   2   83.79    4.30
  -5  -8  -2   86.29    6.40
  -5   8  -2   79.19    4.30
  -5   8  -2   85.39    5.50
  -5   8  -2   81.69    4.40
  -5   8  -2   80.29    5.90
   5   8   2   77.89    4.00
   5   8   2   82.39    3.80
   5   8   2   81.69    5.00
  -5   8  -2   80.69    5.30
  -5   8  -2   77.69    4.20
  -6  -8  -2   22.70    1.70
  -6   8  -2   25.00    1.90
   6   8   2   21.30    1.40
  -6   8  -2   24.10    1.50
   6   8   2   22.30    1.20
  -6   8  -2   23.00    1.90
   6   8   2   25.10    1.90
  -6   8  -2   23.80    2.00
  -6  -9   2   24.20    1.70
  -6  -9   2   28.50    1.70
  -6   9   2   24.00    2.50
  -6   9   2   28.10    2.00
  -6   9   2   24.70    2.10
  -6   9   2   26.90    1.90
  -5  -9   2  207.28   10.10
   5   9  -2  206.98    9.60
  -5   9   2  190.68    9.10
  -5   9   2  200.78    9.90
  -5   9   2  176.98   11.10
  -5   9   2  184.08    9.20
  -5   9   2  188.58    9.80
  -5   9   2  189.68    8.10
  -5   9   2  186.28    8.60
  -5   9   2  184.98    9.00
   5   9  -2  157.88    7.50
  -4  -9   2   26.70    3.40
  -4  -9   2   33.10    3.50
  -4  -9   2   32.50    3.60
  -4  -9   2   34.00    5.40
  -4   9   2   31.00    3.30
  -4   9   2   33.00    3.70
  -4   9   2   27.40    3.80
  -4   9   2   27.50    2.90
  -4   9   2   29.60    2.50
  -4   9   2   26.00    2.50
  -4   9   2   27.40    3.40
  -4   9   2   31.20    3.90
  -4   9   2   28.00    2.90
   4   9  -2   25.70    2.40
  -4   9   2   29.50    2.90
  -4   9   2   29.70    3.50
  -4   9   2   31.00    3.90
   4   9  -2   26.60    3.20
  -4   9   2   24.20    3.10
  -4   9   2   29.50    3.30
  -4   9   2   29.60    3.10
  -3  -9   2  510.05   22.20
  -3  -9   2  485.95   22.20
  -3  -9   2  495.65   21.20
  -3  -9   2  502.35   21.20
  -3   9   2  547.15   21.40
  -3   9   2  508.85   22.10
  -3   9   2  503.75   19.40
  -3   9   2  513.65   19.00
  -3   9   2  516.85   22.10
  -3   9   2  531.95   20.80
  -3   9   2  532.55   21.30
  -3   9   2  538.55   22.70
   3   9  -2  497.55   21.70
  -3   9   2  528.05   20.60
  -3   9   2  490.25   19.70
  -3   9   2  542.15   21.60
  -3   9   2  522.25   19.70
  -3   9   2  505.75   22.90
   3   9  -2  497.35   18.70
  -3   9   2  524.75   21.60
  -3   9   2  489.95   19.80
  -2  -9   2   23.00    4.60
  -2  -9   2   25.80    3.10
  -2  -9   2   23.50    2.80
  -2  -9   2   23.90    2.60
  -2  -9   2   30.00    5.90
   2   9  -2   21.80    2.10
  -2   9   2   23.20    2.30
  -2   9   2   20.10    2.30
  -2   9   2   23.60    2.70
   2   9  -2   25.00    3.30
  -2   9   2   19.70    2.00
  -2   9   2   18.80    1.80
  -2   9   2   22.20    3.20
  -2   9   2   20.90    2.10
  -2   9   2   24.70    3.00
  -2   9   2   22.70    2.80
  -2   9   2   25.20    2.70
   2   9  -2   20.80    2.30
  -2   9   2   23.10    2.20
  -2   9   2   26.70    3.30
   2   9  -2   17.50    2.80
  -2   9   2   24.40    3.30
  -2   9   2   25.30    3.30
   2   9  -2   24.00    1.90
  -2   9   2   24.70    2.90
  -1  -9   2 1014.80   37.10
  -1  -9   2  967.00   38.40
  -1  -9   2  983.00   37.40
  -1  -9   2 1009.80   42.60
  -1  -9   2  927.71   37.20
   1  -9  -2  989.30   36.30
  -1   9   2 1085.49   40.50
  -1   9   2 1119.79   36.10
  -1   9   2  998.40   40.40
   1   9  -2 1018.20   37.10
  -1   9   2  994.80   36.40
   1   9  -2  937.11   38.70
   1   9  -2 1000.50   36.90
  -1   9   2 1033.60   40.40
  -1   9   2  941.71   38.70
  -1   9   2  972.80   42.20
   1   9  -2 1051.99   34.90
  -1   9   2  982.10   36.00
  -1   9   2 1108.59   37.80
  -1   9   2 1002.70   35.70
   0  -9   2  133.29    7.40
   0  -9   2  135.19    7.40
   0  -9   2  141.29    7.50
   0  -9   2  131.09   10.80
   0  -9  -2  132.49    7.70
   0   9  -2  145.69    7.30
   0   9   2  147.39    8.10
   0   9   2  142.49    7.00
   0   9   2  143.19    6.90
   0   9  -2  153.38    8.00
   0   9  -2  144.79    8.70
   0   9   2  153.28    7.20
   0   9   2  140.99    8.30
   0   9  -2  166.78   11.00
   0   9  -2  146.99    9.20
   0   9  -2  141.29    7.80
   0   9   2  142.29   12.20
   0   9   2  143.49    7.50
   0   9  -2  149.29    8.40
   1  -9   2   33.90    3.00
  -1  -9  -2   36.50    3.90
   1  -9   2   36.40    2.90
  -1  -9  -2   36.90    4.00
   1   9   2   38.60    3.30
  -1   9  -2   36.50    3.80
   1   9   2   38.80    2.70
  -1   9  -2   39.30    4.60
   1   9   2   38.70    3.30
  -1   9  -2   39.70    3.20
   1   9   2   42.40    4.90
  -1   9  -2   41.60    3.70
   1   9   2   36.40    2.90
  -1   9  -2   42.00    4.40
   1   9   2   35.20    2.90
   1   9   2   35.10    2.90
   1   9   2   40.40    3.10
  -1   9  -2   36.80    3.90
  -1   9  -2   41.80    3.80
  -2  -9  -2   94.69    7.50
   2  -9   2   85.59    5.20
   2  -9   2   90.09    5.30
  -2  -9  -2   95.69    7.00
   2   9   2   91.09    5.70
  -2   9  -2  103.39    6.40
   2   9   2   98.89    5.00
  -2   9  -2  100.09    6.30
   2   9   2  114.89    6.10
   2   9   2   96.29    5.20
  -2   9  -2   92.69    5.10
  -2   9  -2   92.39    5.80
  -2   9  -2  100.29    7.30
  -2   9  -2   93.09    7.40
  -2   9  -2   97.09    6.80
   2   9   2   98.09    5.80
  -3  -9  -2   30.50    3.80
   3  -9   2   29.50    2.70
  -3  -9  -2   33.50    4.80
  -3  -9  -2   46.70    5.40
   3  -9   2   31.30    2.70
   3   9   2   30.00    3.00
  -3   9  -2   34.70    3.60
   3   9   2   28.90    2.50
  -3   9  -2   33.70    3.00
  -3   9  -2   35.00    3.90
  -3   9  -2   34.80    3.30
  -3   9  -2   32.60    3.60
  -3   9  -2   29.10    3.50
   3   9   2   33.90    4.10
   4  -9   2  130.59    6.20
  -4  -9  -2  132.59    8.80
  -4  -9  -2  136.99    9.00
   4  -9   2  131.69    6.30
  -4  -9  -2  144.59    8.50
   4   9   2  131.49    6.10
  -4   9  -2  133.99    6.50
   4   9   2  138.39    7.10
  -4   9  -2  128.19    8.40
   4   9   2  135.59    5.90
  -4   9  -2  148.49    7.20
  -4   9  -2  127.89    6.60
   4   9   2  134.89    6.10
  -4   9  -2  126.09    6.20
  -4   9  -2  135.59    7.80
   5  -9   2    6.80    1.10
   5  -9   2    8.10    1.30
   5   9   2    8.70    1.30
  -5   9  -2    5.70    1.00
   5   9   2    7.30    0.80
  -5   9  -2    8.70    1.10
  -5   9  -2    7.70    1.50
  -5   9  -2   11.00    1.40
  -5   9  -2    8.50    1.00
   5   9   2    8.70    1.00
   5   9   2    6.00    0.90
  -5   9  -2    9.80    1.60
   5  10  -2    4.10    0.70
  -5  10   2    4.20    1.10
   5  10  -2    4.30    0.70
  -5  10   2    3.40    1.20
  -5  10   2    5.90    1.80
  -5  10   2    3.40    1.00
  -5  10   2    2.80    1.10
   5  10  -2    4.10    1.20
  -5  10   2    3.80    0.70
  -4 -10   2   80.49    5.30
  -4 -10   2   83.39    7.80
  -4 -10   2   73.09    5.70
  -4  10   2   69.29    4.10
  -4  10   2   74.79    5.00
  -4  10   2   72.39    5.10
   4  10  -2   79.09    5.30
  -4  10   2   68.39    4.10
  -4  10   2   74.49    4.40
   4  10  -2   80.09    3.80
  -4  10   2   73.09    5.40
  -4  10   2   80.59    4.90
  -4  10   2   79.29    5.20
  -3 -10   2   86.89    6.80
  -3 -10   2   92.19    6.20
  -3 -10   2   95.09    6.70
  -3 -10   2   87.09    6.50
  -3  10   2   91.19    5.10
  -3  10   2   85.79    5.10
  -3  10   2   90.29    6.70
  -3  10   2   95.29    6.10
  -3  10   2   92.29    5.70
  -3  10   2   97.49    6.30
  -3  10   2   96.19    5.80
  -3  10   2   91.69    6.10
   3  10  -2   90.39    6.10
  -3  10   2   91.19    4.70
   3  10  -2   92.39    4.40
  -3  10   2   96.19    5.60
  -3  10   2   83.79    5.10
  -2 -10   2  264.67   13.20
  -2 -10   2  264.57   13.20
  -2 -10   2  256.87   12.20
  -2 -10   2  266.27   12.00
  -2  10   2  246.78   10.70
  -2  10   2  255.77   11.80
   2  10  -2  252.37   11.30
  -2  10   2  268.57   12.60
  -2  10   2  255.77   11.40
  -2  10   2  247.68   11.00
   2  10  -2  268.67   12.50
   2  10  -2  262.27   10.10
  -2  10   2  261.07   10.50
  -2  10   2  231.58   10.80
   2  10  -2  246.88   11.50
  -2  10   2  268.37   12.00
  -2  10   2  265.37   13.80
  -1 -10   2  263.77   12.70
  -1 -10   2  262.77   12.00
  -1 -10   2  234.28   12.80
   1 -10  -2  251.97   11.60
  -1 -10   2  259.97   12.00
   1  10  -2  258.97   11.70
   1  10  -2  242.68   11.80
   1  10  -2  253.97   13.30
  -1  10   2  272.47   10.70
  -1  10   2  275.87   12.80
  -1  10   2  273.47   11.90
  -1  10   2  255.27   10.80
   1  10  -2  248.28   10.00
  -1  10   2  277.67   14.20
   1  10  -2  255.17   11.90
  -1  10   2  253.17   11.00
  -1  10   2  274.47   12.20
  -1  10   2  272.57   11.70
   0 -10   2   86.59    5.40
   0 -10   2   88.79    5.40
   0 -10  -2   82.99    5.50
   0 -10  -2   86.39    6.20
   0 -10   2   84.99    6.40
   0 -10   2   86.09    5.60
   0  10  -2   84.29    6.30
   0  10   2   86.79    4.80
   0  10   2   94.49    5.40
   0  10   2   90.79    7.00
   0  10  -2   87.39    5.20
   0  10  -2   84.09    6.80
   0  10  -2   79.49    5.60
   0  10   2   84.39    4.80
   0  10  -2   93.29    5.80
   0  10  -2   77.99    4.90
   0  10   2   89.69    5.70
   0  10   2   93.59    4.70
   0  10   2   91.09    5.30
   1 -10   2   42.10    3.20
  -1 -10  -2   41.30    3.90
   1 -10   2   41.60    3.40
   1 -10   2   34.90    2.80
  -1 -10  -2   47.00    4.70
  -1  10  -2   40.90    2.80
   1  10   2   44.40    3.10
  -1  10  -2   41.90    3.00
   1  10   2   41.50    3.00
  -1  10  -2   44.90    3.80
  -1  10  -2   42.20    4.70
   1  10   2   38.90    2.70
   1  10   2   40.40    3.00
   1  10   2   41.70    3.40
   1  10   2   41.20    2.80
  -1  10  -2   43.80    3.90
   1  10   2   41.00    3.50
  -1  10  -2   46.30    4.20
   2 -10   2  319.67   13.30
   2 -10   2  346.87   13.90
  -2 -10  -2  347.67   17.60
  -2 -10  -2  340.87   17.10
  -2  10  -2  358.16   20.20
  -2  10  -2  324.17   17.30
  -2  10  -2  347.17   16.80
  -2  10  -2  301.97   12.90
   2  10   2  339.67   13.10
   2  10   2  343.27   13.40
   2  10   2  310.37   14.30
   2  10   2  327.07   13.40
   2  10   2  314.67   13.70
  -3 -10  -2   50.99    5.50
  -3 -10  -2   48.60    4.80
   3 -10   2   47.10    3.40
   3  10   2   50.69    3.10
  -3  10  -2   50.39    3.90
   3  10   2   52.89    3.30
  -3  10  -2   58.19    4.90
  -3  10  -2   47.40    3.10
   3  10   2   50.29    3.00
  -3  10  -2   54.39    4.40
   3  10   2   51.59    3.60
   3  10   2   48.70    3.30
  -3  10  -2   51.39    4.90
  -3  10  -2   48.10    3.70
  -4 -10  -2    7.40    1.90
   4 -10   2    8.30    1.30
   4 -10   2    6.40    1.10
   4  10   2   10.00    1.20
   4  10   2    8.30    0.90
   4  10   2    9.40    1.00
  -4  10  -2    8.30    1.70
   4  10   2    9.30    1.40
  -4  10  -2    9.10    1.30
  -4  10  -2    8.00    1.70
  -4  10  -2    9.70    2.00
  -4  10  -2    9.10    1.20
  -4  10  -2    9.50    1.10
   5  10   2   54.89    2.60
  -5  10  -2   52.59    3.40
   5  10   2   57.39    2.80
  -5  10  -2   48.20    2.40
  -5  10  -2   52.89    3.10
   5  10   2   53.69    2.30
  -5 -11   2    2.30    0.50
   5  11  -2    2.00    0.60
   5  11  -2    2.80    0.40
   4  11  -2   26.10    1.70
   4  11  -2   30.50    2.50
  -4  11   2   28.60    2.50
   4  11  -2   27.10    1.60
  -4  11   2   26.20    2.10
   4  11  -2   28.60    2.20
  -4  11   2   27.20    2.50
  -4  11   2   28.70    2.70
  -4  11   2   25.20    2.00
  -3 -11   2   15.70    2.20
  -3 -11   2   21.00    3.50
  -3 -11   2   13.00    2.30
  -3  11   2   14.90    2.60
   3  11  -2   17.40    2.10
  -3  11   2   15.80    1.90
  -3  11   2   19.20    2.20
   3  11  -2   14.80    1.30
  -3  11   2   14.90    2.40
  -3  11   2   17.30    2.10
   3  11  -2   15.70    1.90
   3  11  -2   15.10    1.40
  -3  11   2   17.20    1.80
  -3  11   2   16.90    2.20
  -2 -11   2  300.47   14.10
   2 -11  -2  245.68   12.00
  -2 -11   2  290.07   12.90
  -2 -11   2  295.97   13.60
   2  11  -2  283.57   12.20
  -2  11   2  273.77   11.40
  -2  11   2  283.17   11.00
   2  11  -2  294.07   10.70
  -2  11   2  279.37   12.90
  -2  11   2  271.97   14.00
   2  11  -2  276.87   12.10
  -2  11   2  278.87   11.70
  -2  11   2  284.07   12.30
  -2  11   2  293.07   12.50
   2  11  -2  283.57   11.70
  -1 -11   2  219.98   11.20
   1 -11  -2  215.38   10.10
  -1 -11   2  204.18   10.00
  -1 -11   2  213.28   10.80
  -1 -11   2  213.58    9.80
  -1  11   2  226.78   10.30
   1  11  -2  200.18    8.00
   1  11  -2  201.08    9.60
  -1  11   2  215.08   11.80
   1  11  -2  206.48    9.10
  -1  11   2  198.18    8.60
  -1  11   2  201.88    9.60
  -1  11   2  216.58    9.60
  -1  11   2  212.98    9.00
  -1  11   2  216.88    8.70
   1  11  -2  212.18    9.70
   1  11  -2  199.28   10.90
   1  11  -2  197.08    9.60
   0 -11   2   23.00    2.50
   0 -11   2   17.50    2.10
   0 -11   2   24.50    2.90
   0 -11  -2   20.90    3.20
   0 -11   2   22.80    2.70
   0 -11  -2   14.00    2.50
   0  11   2   20.40    1.80
   0  11  -2   18.50    2.00
   0  11   2   17.70    1.80
   0  11  -2   19.20    2.30
   0  11   2   19.00    2.30
   0  11   2   19.80    1.70
   0  11   2   19.30    2.00
   0  11   2   23.00    3.60
   0  11  -2   22.10    2.40
   0  11  -2   19.00    2.70
   0  11   2   19.80    2.20
  -1 -11  -2   92.09    9.40
  -1 -11  -2   89.69    6.10
   1 -11   2   89.79    5.10
   1 -11   2  100.49    6.00
   1 -11   2   89.29    6.20
   1  11   2   94.59    5.50
  -1  11  -2   82.79    5.50
   1  11   2   78.99    5.20
  -1  11  -2   84.79    5.60
  -1  11  -2   83.89    6.10
   1  11   2   81.89    4.60
  -1  11  -2   87.89    6.70
   1  11   2   82.59    4.30
  -1  11  -2   78.99    4.40
   1  11   2   89.89    4.40
  -2 -11  -2  105.29    7.80
   2 -11   2  101.69    5.50
  -2 -11  -2  105.29    7.00
  -2  11  -2   98.59    5.80
  -2  11  -2   89.39    4.60
   2  11   2   93.39    4.90
   2  11   2   98.79    5.30
  -2  11  -2   95.39    6.90
  -2  11  -2   96.09    6.20
  -2  11  -2  102.19    6.00
   2  11   2   97.79    4.70
   3 -11   2   38.00    2.80
  -3 -11  -2   45.80    4.30
  -3 -11  -2   37.40    5.00
   3  11   2   39.50    2.60
   3  11   2   39.80    2.50
  -3  11  -2   36.10    2.90
  -3  11  -2   37.10    2.90
  -3  11  -2   37.60    3.80
   3  11   2   40.10    2.40
  -3  11  -2   39.00    3.40
   3  11   2   41.00    2.30
  -3  11  -2   32.50    2.20
  -4  11  -2    2.80    0.90
   4  11   2    3.20    0.70
  -4  11  -2    2.30    0.60
  -4  11  -2    1.10    0.70
  -4  11  -2    2.20    0.50
   4  11   2    3.90    0.50
   4  11   2    3.70    0.80
  -4  11  -2    2.00    0.70
   4  12  -2   33.90    2.00
  -4  12   2   39.70    2.70
  -3 -12   2   11.10    1.90
  -3  12   2    8.70    1.40
   3  12  -2    7.20    1.10
  -3  12   2    7.40    1.20
  -3  12   2    8.30    1.60
  -3  12   2    8.40    1.20
   3  12  -2    7.20    1.10
  -2 -12   2   -0.30    1.20
  -2 -12   2    0.90    1.00
  -2  12   2    1.20    0.80
  -2  12   2    1.00    0.80
  -2  12   2    0.80    1.00
  -2  12   2    0.50    0.60
   2  12  -2    1.10    0.60
  -2  12   2    0.60    0.50
   1 -12  -2   47.80    6.10
  -1 -12   2   63.19    4.80
  -1 -12   2   65.19    4.40
  -1 -12   2   60.69    4.40
  -1  12   2   66.59    5.30
   1  12  -2   56.19    3.60
  -1  12   2   63.29    3.90
  -1  12   2   63.59    4.10
  -1  12   2   63.19    3.80
  -1  12   2   60.19    3.20
   1  12  -2   63.69    4.00
   1  12  -2   62.89    3.80
   0 -12  -2   31.40    3.40
   0 -12   2   35.40    3.20
   0 -12  -2   33.80    3.70
   0 -12   2   35.30    3.00
   0 -12   2   35.00    3.40
   0  12   2   31.80    2.20
   0  12   2   36.00    2.90
   0  12  -2   31.10    2.30
   0  12   2   35.50    2.30
   0  12  -2   33.10    2.80
   0  12  -2   31.40    3.90
   0  12  -2   33.10    2.80
   0  12   2   34.50    2.60
   0  12   2   34.50    2.70
   1 -12   2    1.20    0.70
  -1 -12  -2    1.30    1.60
  -1 -12  -2    1.10    1.10
   1 -12   2    1.30    0.90
   1 -12   2    2.10    1.00
   1  12   2    2.20    0.60
   1  12   2    1.50    0.60
  -1  12  -2    1.30    0.70
  -1  12  -2    1.90    0.80
   1  12   2    4.00    1.50
  -1  12  -2   -0.10    0.90
   1  12   2    0.90    0.50
  -2 -12  -2   26.10    3.00
  -2 -12  -2   32.10    3.80
   2 -12   2   24.30    2.30
   2 -12   2   23.00    2.40
   2  12   2   25.40    1.70
   2  12   2   26.60    2.10
  -2  12  -2   25.20    2.80
  -2  12  -2   29.40    2.40
   2  12   2   23.40    1.80
  -2  12  -2   26.10    2.40
   3  12   2   40.90    2.10
  -3  12  -2   44.20    3.10
   3  12   2   38.50    2.10
  -3  12  -2   38.30    3.40
  -3  12  -2   36.80    2.40
   3  12   2   40.80    2.30
  -3  12  -2   39.20    3.10
  -3  13   2   24.90    2.00
   3  13  -2   21.40    1.50
  -2  13   2   45.70    2.80
   2  13  -2   42.20    2.50
  -2  13   2   50.19    3.30
  -1 -13   2   34.60    3.10
  -1 -13   2   34.30    2.70
   1  13  -2   26.10    1.80
   1  13  -2   27.10    1.80
  -1  13   2   29.30    2.20
  -1  13   2   29.30    2.00
  -1  13   2   28.80    1.70
  -1  13   2   29.40    2.40
   0 -13   2    1.40    0.70
   0 -13  -2   -1.20    1.20
   0 -13   2    0.30    1.00
   0  13  -2    1.60    0.50
   0  13   2    1.60    0.50
   0  13  -2    1.70    0.60
   0  13   2    1.10    0.50
   0  13   2    3.40    1.30
   1 -13   2   61.69    3.40
  -1 -13  -2   64.19    4.90
  -1 -13  -2   56.39    5.00
  -1  13  -2   58.39    3.30
   1  13   2   56.39    3.20
  -1  13  -2   54.89    3.70
   1  13   2   54.49    2.90
  -1  13  -2   55.09    3.20
  -2 -13  -2   22.90    2.40
  -2  13  -2   22.60    1.90
   2  13   2   21.80    1.50
   2  13   2   21.60    1.20
  -2  13  -2   20.60    1.60
  -2  13  -2   20.90    1.60
  -8   0   3   53.99    3.20
  -8   0   3   52.29    3.10
   8   0  -3   44.70    3.00
  -8   0   3   48.90    2.80
   8   0  -3   52.09    2.80
   8   0  -3   55.89    2.90
  -8   0   3   50.39    3.30
   7   0  -3  217.38    9.60
  -7   0   3  213.68   10.00
   7   0  -3  225.38    9.70
   7   0  -3  218.98    9.80
  -7   0   3  201.88   10.30
  -7   0   3  217.88    9.90
  -7   0   3  199.98    9.50
  -7   0   3  226.68   11.10
  -7   0   3  211.48   10.00
  -6   0   3   51.19    4.10
   6   0  -3   46.00    3.70
  -6   0   3   48.60    3.40
  -6   0   3   45.30    3.60
  -6   0   3   49.70    3.90
  -6   0   3   54.99    4.30
  -6   0   3   48.40    3.90
   6   0  -3   45.30    4.00
   6   0  -3   43.70    3.70
  -6   0   3   53.99    4.60
   5   0  -3  324.47   13.60
  -5   0   3  324.47   13.90
  -5   0   3  336.97   14.00
  -5   0   3  335.77   14.10
  -5   0   3  322.87   13.30
  -5   0   3  351.06   14.80
  -5   0   3  328.87   13.90
  -5   0   3  330.37   13.60
  -4   0   3   16.50    1.80
   4   0  -3   18.20    1.80
   3   0  -3  853.91   31.80
  -3   0   3  837.92   29.50
  -3   0   3  844.42   30.30
   2   0  -3 7761.32  264.17
  -2   0   3 8074.99  263.47
  -1   0   3    7.70    1.10
   1   0  -3    7.30    1.20
   0   0  -3  345.97   14.50
  -1   0  -3 2555.54   88.69
  -2   0  -3  107.49    7.10
  -2   0  -3   94.99    6.10
   3   0   3   27.50    2.20
  -3   0  -3   28.90    3.90
  -3   0  -3   27.80    3.40
  -4   0  -3 1143.79   43.20
   4   0   3 1139.29   39.20
  -4   0  -3 1052.49   43.80
  -4   0  -3 1054.39   39.00
   4   0   3 1074.39   39.00
  -4   0  -3 1054.49   44.20
  -4   0  -3 1134.59   39.70
   4   0   3 1160.38   40.20
   5   0   3   45.00    3.90
  -5   0  -3   37.50    5.00
   5   0   3   48.20    3.60
  -5   0  -3   47.20    3.50
  -5   0  -3   45.80    3.70
   5   0   3   43.30    3.40
  -5   0  -3   42.60    3.20
  -6   0  -3   90.39    5.30
  -6   0  -3   94.19    5.10
  -6   0  -3   91.99    6.10
   6   0   3   94.99    5.70
  -6   0  -3   97.59    5.10
  -6   0  -3   91.19    6.30
   6   0   3   94.69    5.00
   6   0   3   93.69    5.00
  -7   0  -3   59.89    3.10
  -7   0  -3   54.09    2.90
  -7   0  -3   58.29    3.50
  -7   0  -3   54.09    3.40
   8  -1  -3   40.00    2.30
  -8  -1   3   32.60    2.50
  -8  -1   3   33.20    2.30
  -8  -1   3   33.10    2.10
   8  -1  -3   34.30    2.20
  -8  -1   3   33.80    2.40
   8   1  -3   30.90    2.10
   8   1  -3   38.30    2.30
  -8   1   3   33.40    2.20
  -8   1   3   37.50    2.70
  -8   1   3   35.60    2.50
   8   1  -3   38.20    2.20
  -8   1   3   36.50    2.70
  -7  -1   3   66.09    4.30
  -7  -1   3   68.29    4.60
  -7  -1   3   69.29    5.10
   7  -1  -3   74.99    4.30
  -7  -1   3   67.69    4.70
   7  -1  -3   69.79    4.30
  -7  -1   3   69.29    4.60
   7  -1  -3   71.69    4.40
  -7  -1   3   70.09    4.50
  -7   1   3   77.19    4.20
  -7   1   3   68.39    5.10
  -7   1   3   69.69    4.70
  -7   1   3   71.09    4.50
  -7   1   3   68.69    4.70
  -7   1   3   63.49    4.30
   7   1  -3   73.19    4.50
   7   1  -3   72.69    4.40
   7   1  -3   66.29    4.50
  -7   1   3   67.89    5.30
   6  -1  -3   16.40    2.00
  -6  -1   3   17.00    2.10
  -6  -1   3   13.30    2.20
  -6  -1   3   15.90    2.10
  -6  -1   3   15.10    1.90
  -6  -1   3   15.70    2.00
   6  -1  -3   18.30    2.30
   6  -1  -3   17.30    2.30
  -6  -1   3   13.20    2.30
  -6  -1   3   19.20    1.90
  -6   1   3   15.20    2.20
  -6   1   3   15.30    1.90
  -6   1   3   16.60    1.70
  -6   1   3   18.20    2.50
   6   1  -3   14.30    2.10
   6   1  -3   18.00    2.10
  -6   1   3   12.80    2.10
  -6   1   3   17.50    2.70
  -6   1   3   16.30    2.10
   6   1  -3   15.50    2.30
  -5  -1   3 1055.69   39.30
  -5  -1   3 1113.89   39.50
  -5  -1   3 1118.49   39.70
  -5  -1   3 1107.09   39.70
   5  -1  -3 1030.10   39.00
  -5  -1   3 1157.58   40.50
  -5  -1   3 1112.49   38.80
  -5   1   3 1111.09   39.10
   5   1  -3 1035.70   39.40
  -5   1   3 1102.09   39.40
   5   1  -3 1120.69   40.60
   5   1  -3 1110.69   39.60
  -5   1   3 1165.68   41.00
  -5   1   3 1070.19   39.80
  -5   1   3 1111.39   38.70
  -5   1   3 1099.99   39.60
  -5   1   3 1101.39   39.60
  -5   1   3 1139.39   39.90
  -5   1   3 1110.99   41.50
  -4  -1   3  176.68    8.70
   4  -1  -3  158.48    7.10
   4   1  -3  161.88    7.50
  -4   1   3  158.88    6.80
  -4   1   3  151.28    8.20
  -3  -1   3  578.84   22.30
   3  -1  -3  582.74   22.20
  -3  -1   3  583.14   20.90
   3   1  -3  557.54   23.20
  -3   1   3  564.34   22.10
   2  -1  -3 5394.46  185.38
  -2  -1   3 5830.32  186.08
   2   1  -3 5404.56  186.38
  -1  -1   3  605.74   24.40
   1  -1  -3  547.85   21.10
   1   1  -3  548.45   21.50
  -1   1   3  558.74   20.20
   0  -1  -3 1741.23   58.69
   0   1  -3 1606.74   59.29
  -1  -1  -3 6910.41  226.08
  -1   1  -3 6539.65  225.98
  -2  -1  -3  115.49    6.70
  -2  -1  -3  121.79    7.70
  -2   1  -3  115.79    7.50
  -2   1  -3  109.59    6.90
  -3  -1  -3  129.69    8.10
   3  -1   3  134.19    6.20
  -3  -1  -3  124.79    9.00
   3   1   3  123.69    6.10
  -3   1  -3  131.69    8.60
  -3   1  -3  138.29    8.30
   4  -1   3  374.76   15.00
   4  -1   3  342.17   14.00
   4  -1   3  360.86   14.20
  -4  -1  -3  330.77   17.90
  -4  -1  -3  372.96   19.10
  -4  -1  -3  343.77   17.10
  -4  -1  -3  342.67   14.00
  -4   1  -3  339.37   15.60
  -4   1  -3  351.26   15.90
  -4   1  -3  357.16   14.60
   4   1   3  373.46   15.10
  -4   1  -3  324.77   18.30
  -4   1  -3  326.27   16.80
   4   1   3  353.16   14.00
  -4   1  -3  342.77   17.00
  -5  -1  -3   30.20    4.60
   5  -1   3   32.50    2.80
  -5  -1  -3   32.60    2.50
   5  -1   3   31.30    3.20
  -5  -1  -3   28.50    2.70
   5  -1   3   28.00    2.80
   5   1   3   28.40    2.70
  -5   1  -3   27.20    2.60
  -5   1  -3   31.30    2.80
  -5   1  -3   31.00    3.40
   5   1   3   26.80    3.00
   5   1   3   29.20    2.60
  -5   1  -3   31.00    2.60
  -5   1  -3   29.90    3.30
  -5   1  -3   24.50    4.20
   5   1   3   25.30    3.10
   6  -1   3  101.19    5.90
   6  -1   3   99.99    5.30
  -6  -1  -3  104.79    7.10
  -6  -1  -3   96.59    6.30
  -6  -1  -3  105.49    5.20
  -6  -1  -3  103.69    5.70
   6  -1   3  106.49    5.40
  -6  -1  -3  102.09    5.30
  -6   1  -3  108.29    7.20
  -6   1  -3  111.29    5.50
  -6   1  -3   94.09    6.20
  -6   1  -3   93.59    5.50
  -6   1  -3   99.09    6.30
   6   1   3  101.09    6.00
   6   1   3   99.19    5.20
   6   1   3  102.89    5.20
  -6   1  -3   95.99    5.30
  -7  -1  -3   88.89    3.80
   7  -1   3   82.89    4.10
  -7  -1  -3   84.59    4.00
  -7  -1  -3   89.59    4.60
  -7   1  -3   82.09    4.40
   7   1   3   91.09    4.50
  -7   1  -3   90.89    4.60
  -7   1  -3   83.89    3.90
  -7   1  -3   89.09    4.00
  -8  -2   3   60.79    3.10
   8  -2  -3   63.19    3.10
  -8  -2   3   59.49    3.30
   8  -2  -3   57.89    3.20
  -8  -2   3   54.19    2.90
   8   2  -3   61.89    3.20
  -8   2   3   56.19    3.70
  -8   2   3   63.29    3.50
  -8   2   3   56.99    3.20
   8   2  -3   64.59    3.50
  -8   2   3   54.89    3.10
  -8   2   3   55.19    3.80
  -7  -2   3   99.09    5.70
  -7  -2   3   97.19    5.50
   7  -2  -3  107.89    5.40
   7  -2  -3  101.29    5.30
  -7  -2   3   96.69    5.50
  -7  -2   3   92.99    5.60
  -7  -2   3  102.79    5.70
  -7   2   3  101.79    5.40
  -7   2   3   97.89    6.20
   7   2  -3  102.39    5.50
   7   2  -3   92.49    5.70
  -7   2   3   95.59    6.80
   7   2  -3  103.49    5.50
  -7   2   3   89.99    6.30
  -7   2   3   99.09    5.90
  -7   2   3   97.69    5.60
  -7   2   3   96.39    5.80
  -6  -2   3  269.97   11.90
  -6  -2   3  271.17   10.90
  -6  -2   3  259.97   12.20
   6  -2  -3  262.57   11.30
  -6  -2   3  279.37   11.80
   6  -2  -3  253.57   11.30
  -6  -2   3  277.17   12.50
  -6  -2   3  271.97   11.90
  -6   2   3  272.27   11.90
  -6   2   3  255.97   11.90
  -6   2   3  262.17   13.50
   6   2  -3  264.27   11.70
   6   2  -3  259.27   11.70
  -6   2   3  255.97   11.60
  -6   2   3  249.68   10.30
  -6   2   3  262.87   12.20
   6   2  -3  254.47   12.40
  -6   2   3  246.28   11.60
  -6   2   3  255.47   12.70
  -6   2   3  258.07   11.90
  -5  -2   3  352.26   14.80
  -5  -2   3  359.26   14.10
  -5  -2   3  349.87   14.20
  -5  -2   3  344.87   14.40
   5  -2  -3  330.87   13.70
  -5  -2   3  321.17   16.10
  -5  -2   3  361.86   15.00
  -5  -2   3  340.57   13.40
  -5   2   3  350.76   13.30
  -5   2   3  345.47   14.90
   5   2  -3  326.37   14.20
  -5   2   3  360.86   15.70
  -5   2   3  337.07   14.30
   5   2  -3  338.27   15.30
  -5   2   3  358.16   14.90
   5   2  -3  325.47   14.20
  -5   2   3  349.17   13.70
  -5   2   3  332.07   14.70
  -5   2   3  348.67   14.20
  -5   2   3  358.86   14.60
  -5   2   3  348.37   14.40
  -4  -2   3   49.70    3.50
  -4  -2   3   51.79    4.70
   4   2  -3   49.80    3.50
  -4   2   3   52.99    4.70
   3  -2  -3  670.83   25.80
  -3  -2   3  711.63   25.40
  -3  -2   3  710.23   27.50
   3   2  -3  706.03   25.30
  -3   2   3  703.03   27.20
  -2  -2   3  988.60   33.90
  -2  -2   3 1006.00   35.90
   2  -2  -3  946.21   34.30
   2   2  -3  959.20   36.00
  -2   2   3  974.40   35.80
   1  -2  -3  985.80   34.90
  -1  -2   3  956.70   35.30
   1   2  -3  989.30   35.70
   0  -2  -3 2450.75   82.29
   0   2  -3 2329.07   82.29
  -1  -2  -3  447.16   18.00
  -1   2  -3  406.66   17.30
  -1   2  -3  395.16   16.70
  -2  -2  -3  174.58   10.50
  -2  -2  -3  174.28    9.20
  -2   2  -3  187.88    9.40
  -2   2  -3  190.98    9.90
   3  -2   3  145.79    6.80
  -3  -2  -3  146.99    8.90
  -3  -2  -3  134.59    8.90
  -3  -2  -3  150.18   10.40
  -3   2  -3  151.08    8.80
   3   2   3  159.88    6.80
  -3   2  -3  145.89   10.50
  -3   2  -3  151.48    8.70
  -4  -2  -3   49.10    5.30
   4  -2   3   55.79    3.80
  -4  -2  -3   65.69    6.80
   4  -2   3   59.39    4.40
  -4   2  -3   55.29    3.90
  -4   2  -3   56.89    5.00
  -4   2  -3   61.19    3.90
   4   2   3   57.79    3.70
  -4   2  -3   55.99    6.50
  -4   2  -3   57.39    4.60
   4   2   3   54.79    4.60
  -4   2  -3   57.49    5.00
  -4   2  -3   61.39    4.10
   4   2   3   56.89    3.70
   4   2   3   55.79    4.30
   5  -2   3  347.67   13.90
  -5  -2  -3  328.97   13.90
  -5  -2  -3  359.36   17.90
   5  -2   3  325.67   13.80
   5  -2   3  351.16   14.80
   5   2   3  349.96   13.80
   5   2   3  314.27   14.80
  -5   2  -3  361.16   15.80
  -5   2  -3  345.67   14.10
  -5   2  -3  337.77   14.40
   5   2   3  341.67   13.60
  -5   2  -3  341.37   15.40
  -5   2  -3  333.37   14.30
   5   2   3  326.57   14.80
  -5   2  -3  341.07   16.20
  -6  -2  -3   76.79    6.30
  -6  -2  -3   78.29    4.30
   6  -2   3   80.29    4.40
  -6  -2  -3   73.29    4.60
   6  -2   3   79.99    4.80
   6  -2   3   79.09    4.40
   6   2   3   75.19    4.10
   6   2   3   75.39    4.00
  -6   2  -3   77.69    4.50
  -6   2  -3   77.09    5.90
   6   2   3   71.69    4.80
  -6   2  -3   81.39    4.40
   6   2   3   73.59    5.00
  -6   2  -3   78.99    4.60
  -6   2  -3   69.09    5.30
  -6   2  -3   74.99    5.10
  -7  -2  -3   47.40    2.60
  -7  -2  -3   51.19    3.20
   7  -2   3   51.19    2.70
  -7  -2  -3   45.80    2.30
  -7   2  -3   50.39    3.10
   7   2   3   48.20    2.90
  -7   2  -3   44.20    3.40
   8  -3  -3   27.10    2.10
  -8  -3   3   24.30    1.70
  -8  -3   3   21.00    1.50
   8   3  -3   23.40    1.70
  -8   3   3   22.10    1.70
  -8   3   3   21.80    2.00
  -8   3   3   20.50    1.80
  -8   3   3   19.60    2.00
  -8   3   3   21.00    1.60
  -7  -3   3  130.59    6.40
  -7  -3   3  130.49    7.70
   7  -3  -3  125.09    6.00
  -7  -3   3  121.99    6.40
  -7  -3   3  121.69    6.20
  -7  -3   3  116.99    6.20
  -7  -3   3  124.19    6.70
   7  -3  -3  127.49    6.00
   7   3  -3  127.59    6.20
  -7   3   3  110.79    6.00
  -7   3   3  120.09    6.70
  -7   3   3  123.89    6.50
  -7   3   3  125.59    6.80
   7   3  -3  134.59    7.00
  -7   3   3  123.39    8.00
  -7   3   3  127.49    6.50
  -7   3   3  132.79    7.70
   7   3  -3  127.79    6.20
  -6  -3   3  107.19    6.00
  -6  -3   3  110.39    6.90
  -6  -3   3  100.39    5.50
  -6  -3   3  103.99    6.10
   6  -3  -3  110.99    5.70
  -6  -3   3  108.09    6.20
   6   3  -3  106.89    6.10
  -6   3   3  104.49    6.70
  -6   3   3  104.49    6.30
  -6   3   3  113.09    7.80
  -6   3   3  113.29    7.40
  -6   3   3  106.89    6.40
  -6   3   3  115.19    6.40
  -6   3   3  112.39    6.50
  -6   3   3   98.79    6.10
  -6   3   3  109.39    5.20
   6   3  -3  101.69    6.70
   6   3  -3  106.69    6.20
  -5  -3   3  240.38   13.90
  -5  -3   3  258.87   12.10
  -5  -3   3  264.67   11.10
  -5  -3   3  252.27   14.20
   5  -3  -3  240.18   10.60
  -5  -3   3  259.17   10.50
  -5   3   3  272.97   12.40
   5   3  -3  252.27   11.40
  -5   3   3  259.67   11.90
   5   3  -3  276.37   12.70
  -5   3   3  253.77   11.50
  -5   3   3  266.87   11.40
   5   3  -3  241.58   11.30
  -5   3   3  260.97   12.70
  -5   3   3  258.77   10.40
  -5   3   3  259.47   11.60
  -5   3   3  257.97   11.80
  -5   3   3  253.87   14.70
  -5   3   3  255.27   11.50
  -5   3   3  255.67   11.70
  -5   3   3  264.37   10.90
  -5   3   3  267.37   11.90
  -4  -3   3  107.29    7.10
  -4  -3   3  108.99    6.20
  -4  -3   3  111.39    7.90
   4   3  -3  109.69    5.80
  -4   3   3  109.09    5.40
  -4   3   3  122.29    5.90
  -4   3   3  110.19    6.50
  -4   3   3  109.19    6.10
   4   3  -3  117.79    7.00
  -4   3   3  116.29    5.90
  -4   3   3  114.09    7.70
  -4   3   3  112.09    6.10
  -4   3   3  115.59    6.20
  -4   3   3  114.29    6.30
   4   3  -3  107.89    5.90
   3  -3  -3 1482.65   55.09
  -3  -3   3 1613.44   55.49
  -3  -3   3 1599.04   61.59
  -3  -3   3 1641.04   56.39
   3   3  -3 1620.84   56.59
  -3   3   3 1640.04   57.89
  -2  -3   3  166.78    9.00
   2  -3  -3  164.98    7.20
  -2  -3   3  168.78    7.30
  -2   3   3  168.28    9.00
   1  -3  -3    7.30    1.50
  -1  -3   3    8.60    1.80
  -1   3   3    7.60    1.80
   0  -3  -3   96.39    5.70
   0   3  -3   91.79    5.60
  -1  -3  -3 2221.68   78.99
  -1   3  -3 2280.17   81.79
  -1   3  -3 2252.57   78.09
   2  -3   3  251.07   10.20
  -2  -3  -3  267.17   13.30
  -2  -3  -3  252.57   13.70
  -2  -3  -3  259.57   12.00
  -2   3  -3  271.57   12.20
  -2   3  -3  262.77   11.90
  -3  -3  -3  591.14   27.20
   3  -3   3  583.94   21.10
  -3  -3  -3  570.54   24.00
  -3  -3  -3  548.75   23.50
  -3  -3  -3  585.14   26.60
  -3   3  -3  566.44   22.30
   3   3   3  566.74   20.70
  -3   3  -3  570.24   26.50
   3   3   3  523.55   21.60
  -3   3  -3  584.14   23.10
  -3   3  -3  577.54   21.10
  -4  -3  -3   83.89    6.20
   4  -3   3   96.69    5.80
   4  -3   3   88.89    5.10
  -4  -3  -3  112.39    9.30
  -4  -3  -3   88.29    7.20
   4  -3   3   86.59    5.10
  -4   3  -3   94.29    5.40
  -4   3  -3   90.09    6.10
   4   3   3   93.49    5.80
  -4   3  -3   93.89    5.70
   4   3   3   89.39    4.90
   4   3   3   87.39    4.70
  -4   3  -3   92.89    9.00
   4   3   3   86.69    5.90
  -4   3  -3   97.29    7.00
  -4   3  -3   87.89    5.90
  -4   3  -3   90.89    5.20
   5  -3   3    2.30    1.00
   5  -3   3    4.00    1.30
  -5  -3  -3    2.50    1.20
  -5   3  -3    2.30    1.50
  -5   3  -3    4.70    1.80
   5   3   3    1.70    0.80
   5   3   3    2.10    1.20
   5   3   3    1.70    0.70
   5   3   3    0.50    0.90
  -5   3  -3    4.30    1.10
  -5   3  -3    2.50    1.20
  -5   3  -3    3.60    1.10
  -5   3  -3    2.00    1.10
  -6  -3  -3   17.60    3.50
   6  -3   3   15.60    1.80
  -6  -3  -3   14.00    1.50
   6  -3   3   12.60    1.70
   6  -3   3   12.50    1.60
  -6  -3  -3   12.00    1.70
   6   3   3   16.90    2.20
   6   3   3   17.10    1.80
   6   3   3   12.00    1.80
  -6   3  -3   12.90    2.20
  -6   3  -3   14.90    1.90
  -6   3  -3   13.10    2.00
  -6   3  -3   12.70    1.50
  -6   3  -3   12.30    1.60
  -6   3  -3   13.60    2.60
  -7  -3  -3  129.09    5.50
   7  -3   3  150.68    5.60
  -7  -3  -3  141.09    6.10
  -7   3  -3  146.49    5.60
  -7   3  -3  139.49    6.10
   7   3   3  124.29    5.80
  -8  -4   3   33.10    1.90
  -8   4   3   32.70    1.90
   8   4  -3   31.00    2.00
  -8   4   3   31.20    2.50
  -8   4   3   33.40    2.20
  -8   4   3   29.30    1.80
  -7  -4   3   18.50    1.80
   7  -4  -3   20.80    1.90
  -7  -4   3   18.90    1.90
   7  -4  -3   21.20    2.60
  -7  -4   3   17.40    1.80
  -7  -4   3   16.80    1.80
  -7  -4   3   15.90    1.90
  -7  -4   3   22.00    3.00
  -7   4   3   12.40    1.80
   7   4  -3   19.40    2.20
  -7   4   3   18.10    2.70
  -7   4   3   18.60    2.60
  -7   4   3   18.40    2.10
  -7   4   3   16.60    1.80
   7   4  -3   17.80    1.70
  -7   4   3   18.80    2.10
  -7   4   3   13.80    1.80
  -7   4   3   13.90    1.40
  -6  -4   3  119.29    6.60
  -6  -4   3  133.59    8.90
  -6  -4   3  128.69    7.30
   6  -4  -3  124.99    6.10
  -6  -4   3  124.49    6.80
  -6   4   3  124.79    8.70
   6   4  -3  119.49    6.40
   6   4  -3  120.19    7.40
  -6   4   3  124.79    7.20
  -6   4   3  124.39    6.90
  -6   4   3  129.99    7.20
  -6   4   3  122.49    7.10
  -6   4   3  127.99    7.00
  -6   4   3  131.89    8.10
  -6   4   3  135.19    7.50
   6   4  -3  118.09    6.50
  -6   4   3  103.19    6.70
   6   4  -3  110.59    7.10
  -5  -4   3  127.79    7.60
  -5  -4   3  131.89    6.00
  -5  -4   3  124.79    9.90
   5   4  -3  109.19    7.90
   5   4  -3  129.09    7.90
   5   4  -3  133.69    9.30
  -5   4   3  144.09    9.40
  -5   4   3  134.59    7.70
   5   4  -3  124.39    6.70
  -5   4   3  123.89    7.70
  -5   4   3  123.99    9.90
  -5   4   3  141.59    9.70
  -5   4   3  124.69    8.30
  -5   4   3  151.58    8.10
  -5   4   3  141.49    9.00
  -5   4   3  121.59    7.10
  -5   4   3  134.29    7.00
  -5   4   3  132.19    6.20
  -5   4   3  119.59    7.30
  -4  -4   3  123.29    7.90
  -4  -4   3  127.19    7.00
  -4  -4   3  121.29    9.30
  -4   4   3  118.59    8.70
  -4   4   3  127.99    6.80
  -4   4   3  130.49    7.00
  -4   4   3  127.79    7.50
   4   4  -3  115.39    6.30
  -4   4   3  119.79    6.40
  -4   4   3  129.49    6.00
   4   4  -3  136.99    7.60
  -4   4   3  128.19    7.60
   4   4  -3  124.29    6.40
  -4   4   3  124.79    6.10
  -4   4   3  124.29    6.00
  -4   4   3  135.79    7.00
  -4   4   3  116.29    6.50
  -4   4   3  124.99    6.60
  -4   4   3  128.89    6.70
  -4   4   3  128.29    6.80
  -3  -4   3   87.19    6.80
  -3  -4   3   81.09    5.40
  -3  -4   3   79.59    4.90
  -3  -4   3   80.29    5.30
  -3   4   3   81.29    6.50
   3   4  -3   80.89    4.50
  -2  -4   3  207.58    9.10
  -2  -4   3  212.78    9.80
  -2   4   3  213.18   11.30
   2   4  -3  212.68   11.30
  -1  -4   3  664.23   24.70
  -1  -4   3  696.03   27.00
   1  -4  -3  653.83   25.20
   1   4  -3  680.13   25.30
  -1   4   3  717.73   27.40
   1   4  -3  704.83   26.00
   1   4  -3  695.33   26.90
   0  -4  -3  577.94   26.30
   0   4  -3  573.54   23.60
   0   4   3  565.74   20.70
   0   4  -3  576.74   22.60
   0   4  -3  577.04   21.60
  -1  -4  -3  439.96   19.70
  -1   4  -3  458.75   18.10
  -1   4  -3  483.75   18.90
  -1   4  -3  490.75   21.30
  -2  -4  -3   36.60    3.60
  -2  -4  -3   33.10    4.30
   2  -4   3   36.40    2.50
  -2  -4  -3   27.30    4.00
  -2   4  -3   40.60    3.20
  -2   4  -3   36.70    4.70
  -2   4  -3   39.90    3.20
  -3  -4  -3  289.67   17.00
  -3  -4  -3  274.17   16.70
  -3  -4  -3  309.47   14.80
  -3  -4  -3  315.87   17.10
  -3   4  -3  305.97   13.20
  -3   4  -3  305.57   15.20
  -3   4  -3  301.67   17.00
   3   4   3  296.47   13.00
  -3   4  -3  310.77   13.30
  -3   4  -3  320.37   13.70
  -3   4  -3  319.67   12.50
  -4  -4  -3 3274.67  105.59
  -4  -4  -3 2690.13  100.89
   4  -4   3 3005.50   97.79
   4  -4   3 2782.62   96.89
  -4  -4  -3 2798.42  105.39
  -4  -4  -3 2731.03   99.09
   4  -4   3 2859.91   96.89
  -4   4  -3 2709.23  104.59
  -4   4  -3 3049.09  106.29
  -4   4  -3 2896.21  101.29
  -4   4  -3 2877.01   98.19
   4   4   3 2758.92   98.49
   4   4   3 2608.04   95.69
  -4   4  -3 2961.70   97.29
  -4   4  -3 2760.82   96.89
  -5  -4  -3  138.89   11.40
   5  -4   3  156.38    9.10
   5  -4   3  141.59    7.10
   5  -4   3  138.79    7.00
  -5   4  -3  144.79    9.50
  -5   4  -3  152.08    8.00
  -5   4  -3  149.59    7.40
  -5   4  -3  149.59    8.40
  -5   4  -3  141.09    7.10
   5   4   3  140.09    7.70
  -5   4  -3  148.59    9.50
   5   4   3  140.69    8.10
  -5   4  -3  151.48    7.60
  -6  -4  -3  129.59    5.80
   6  -4   3  139.39    6.20
  -6  -4  -3  134.19    8.50
  -6  -4  -3  134.29    6.50
   6  -4   3  131.49    5.90
   6   4   3  124.99    5.00
  -6   4  -3  122.69    6.00
   6   4   3  127.79    6.60
  -6   4  -3  120.79    5.90
  -6   4  -3  118.69    6.40
  -6   4  -3  133.99    7.70
  -6   4  -3  128.09    6.90
   6   4   3  123.29    6.70
  -7  -4  -3   89.79    4.30
  -7  -4  -3  102.29    4.70
   7  -4   3  103.09    3.90
  -7   4  -3   95.29    3.90
  -7   4  -3   86.99    4.20
  -7  -5   3   16.50    1.90
  -7  -5   3   20.40    1.80
  -7  -5   3   22.10    1.90
  -7  -5   3   19.30    2.90
   7  -5  -3   26.70    1.80
  -7  -5   3   19.80    1.90
   7   5  -3   25.70    2.40
  -7   5   3   20.40    1.50
  -7   5   3   20.90    2.80
  -7   5   3   21.70    2.10
  -7   5   3   22.30    2.90
  -7   5   3   20.30    2.20
  -7   5   3   21.40    2.20
  -7   5   3   23.20    2.10
  -6  -5   3  114.69    6.30
   6  -5  -3  119.89    5.60
  -6  -5   3  119.09    7.40
  -6  -5   3  122.69    6.40
  -6  -5   3  119.59    5.90
  -6   5   3  113.39    6.80
  -6   5   3  116.39    6.40
   6   5  -3  123.39    6.90
   6   5  -3  109.79    7.00
  -6   5   3  114.89    6.80
  -6   5   3  114.89    8.10
  -6   5   3  115.69    7.10
  -6   5   3  116.59    7.80
   6   5  -3  116.99    5.90
   6   5  -3  115.19    7.00
  -6   5   3  118.49    6.60
  -6   5   3  114.59    5.50
  -6   5   3  123.29    7.20
  -5  -5   3  346.57   19.20
  -5  -5   3  353.86   13.60
  -5  -5   3  363.76   16.10
  -5   5   3  361.56   14.10
  -5   5   3  387.36   15.50
  -5   5   3  367.36   15.60
  -5   5   3  360.36   19.60
  -5   5   3  356.16   15.80
   5   5  -3  359.76   15.80
  -5   5   3  364.46   15.50
  -5   5   3  359.56   15.20
  -5   5   3  364.66   15.60
  -5   5   3  343.37   14.60
   5   5  -3  366.56   16.30
  -5   5   3  368.56   15.90
  -5   5   3  359.36   16.60
  -5   5   3  371.96   14.60
  -5   5   3  373.36   17.20
  -5   5   3  331.37   15.10
   5   5  -3  353.26   14.60
   5   5  -3  325.47   16.40
  -4  -5   3   62.49    6.40
  -4  -5   3   53.09    4.90
  -4  -5   3   53.79    4.30
  -4  -5   3   45.60    4.90
  -4   5   3   52.59    3.50
  -4   5   3   58.39    4.20
  -4   5   3   54.79    4.10
   4   5  -3   49.50    3.60
  -4   5   3   56.59    4.30
  -4   5   3   53.39    4.40
  -4   5   3   51.49    3.50
   4   5  -3   56.09    5.10
  -4   5   3   52.99    4.20
  -4   5   3   56.19    4.30
  -4   5   3   55.19    4.00
   4   5  -3   45.60    3.50
   4   5  -3   56.49    4.50
  -4   5   3   48.00    5.70
  -4   5   3   54.89    3.80
  -4   5   3   56.59    3.40
  -4   5   3   56.89    4.60
  -4   5   3   49.70    3.80
  -4   5   3   50.99    4.00
  -4   5   3   45.80    5.10
  -3  -5   3  301.47   13.30
  -3  -5   3  307.67   14.10
  -3  -5   3  276.37   13.40
  -3  -5   3  345.27   16.90
  -3   5   3  314.67   16.20
   3   5  -3  283.37   12.20
  -3   5   3  315.37   12.50
  -3   5   3  335.47   13.30
  -2  -5   3  187.88    8.80
  -2  -5   3  196.78   11.20
  -2  -5   3  194.18    9.50
  -2  -5   3  191.38    8.80
  -2   5   3  187.68   11.00
  -1  -5   3  213.48    9.20
  -1  -5   3  238.68   11.90
   1  -5  -3  208.98    9.70
  -1  -5   3  218.78    9.40
  -1   5   3  209.08   11.70
   1   5  -3  223.68   11.40
   1   5  -3  223.98   10.50
   0  -5   3  189.08   10.20
   0  -5  -3  183.08    9.50
   0  -5   3  183.68    8.10
   0   5  -3  197.98    9.70
   0   5  -3  202.08   10.60
   0   5  -3  194.68    8.90
  -1  -5  -3 4670.53  155.58
  -1  -5  -3 4333.67  156.88
  -1   5  -3 4715.93  158.18
  -1   5  -3 4725.03  154.38
  -1   5  -3 4487.75  154.58
  -2  -5  -3   92.99    7.60
   2  -5   3   94.79    4.90
  -2  -5  -3  101.79    7.30
  -2  -5  -3  105.19    6.60
  -2   5  -3  103.39    8.10
  -2   5  -3   98.49    5.50
   3  -5   3  256.47   11.20
  -3  -5  -3  260.77   16.10
  -3  -5  -3  261.77   13.80
  -3  -5  -3  268.97   14.90
   3  -5   3  264.77   12.30
  -3  -5  -3  264.07   14.20
  -3   5  -3  300.27   11.60
  -3   5  -3  274.87   14.80
  -3   5  -3  292.27   12.90
  -3   5  -3  271.27   16.60
  -3   5  -3  275.47   12.70
  -3   5  -3  314.57   14.60
  -3   5  -3  258.67   11.40
   3   5   3  288.57   12.20
   3   5   3  276.57   12.60
  -4  -5  -3  174.18   13.70
   4  -5   3  174.88    8.70
  -4  -5  -3  183.38   10.50
   4  -5   3  172.48    8.30
   4  -5   3  190.38    8.90
  -4  -5  -3  172.28   11.10
  -4   5  -3  176.48   13.10
  -4   5  -3  184.78    8.50
  -4   5  -3  188.08    9.30
   4   5   3  171.38    9.40
  -4   5  -3  191.78    9.80
   4   5   3  181.88    9.10
  -4   5  -3  181.18    8.60
  -4   5  -3  175.98    9.40
  -4   5  -3  184.78   11.60
   5  -5   3   30.60    2.60
   5  -5   3   30.30    2.50
  -5  -5  -3   31.50    4.10
  -5   5  -3   29.70    3.80
   5   5   3   32.00    3.00
  -5   5  -3   34.40    2.70
  -5   5  -3   29.10    2.90
  -5   5  -3   30.10    2.70
  -5   5  -3   31.40    2.60
  -5   5  -3   29.00    3.10
   5   5   3   31.80    3.10
  -5   5  -3   30.40    4.10
  -6  -5  -3   37.80    2.20
  -6  -5  -3   41.30    2.80
   6  -5   3   36.20    2.40
   6  -5   3   29.00    2.40
  -6  -5  -3   37.70    4.40
   6  -5   3   39.10    2.60
  -6   5  -3   37.50    3.00
   6   5   3   38.10    3.00
   6   5   3   38.00    1.80
  -6   5  -3   39.70    2.50
  -6   5  -3   37.00    3.50
  -6   5  -3   36.30    2.80
   6   5   3   32.00    2.60
  -6   5  -3   33.50    2.30
  -7  -6   3    7.00    1.00
  -7  -6   3    9.00    1.10
  -7  -6   3    9.40    1.10
  -7   6   3   10.20    1.40
  -7   6   3    9.20    1.20
   7   6  -3   14.20    2.70
  -7   6   3    8.70    1.40
  -7   6   3    8.70    2.00
  -7   6   3   10.60    1.40
   7   6  -3    9.00    1.30
  -7   6   3    9.70    1.00
  -7   6   3   10.50    2.20
  -6  -6   3   56.59    3.80
  -6  -6   3   68.59    5.00
  -6  -6   3   61.19    3.90
  -6  -6   3   60.19    3.40
  -6   6   3   58.09    3.90
  -6   6   3   60.99    3.40
   6   6  -3   58.79    4.60
   6   6  -3   62.39    4.50
  -6   6   3   58.59    4.30
  -6   6   3   60.49    4.80
  -6   6   3   60.59    4.50
  -6   6   3   58.09    4.30
  -6   6   3   63.09    5.40
  -6   6   3   72.59    5.10
  -6   6   3   54.49    5.20
   6   6  -3   55.29    3.00
  -5  -6   3   16.20    1.60
  -5  -6   3   12.80    2.70
   5   6  -3   15.40    2.20
  -5   6   3   14.30    2.20
  -5   6   3   15.50    2.10
   5   6  -3   11.60    1.60
  -5   6   3   15.00    2.40
  -5   6   3   15.00    2.60
  -5   6   3   16.10    1.70
  -5   6   3   13.60    2.80
  -5   6   3   13.00    2.70
   5   6  -3   16.40    2.60
  -5   6   3   14.40    2.60
   5   6  -3    9.70    2.00
  -5   6   3   17.60    3.30
  -5   6   3   14.30    2.60
  -5   6   3   10.20    2.20
  -5   6   3   13.40    2.10
  -5   6   3   19.60    2.60
  -4  -6   3  207.88   13.90
  -4  -6   3  208.88   10.50
  -4  -6   3  197.98   10.70
  -4  -6   3  223.28   12.00
  -4   6   3  223.88   14.10
   4   6  -3  227.48   11.20
  -4   6   3  203.58    9.60
   4   6  -3  210.38    9.30
  -4   6   3  214.48   10.20
  -4   6   3  227.88   10.80
  -4   6   3  199.68    9.90
  -4   6   3  209.88    9.70
  -4   6   3  220.38   11.00
  -4   6   3  228.28   10.50
  -4   6   3  221.78   10.70
  -4   6   3  221.68    9.60
   4   6  -3  208.08    9.20
  -4   6   3  221.08   11.40
  -4   6   3  220.08    9.30
  -4   6   3  224.98   11.60
  -4   6   3  220.78    9.40
  -4   6   3  219.48   11.20
  -4   6   3  216.08   10.40
  -4   6   3  235.58   11.00
  -4   6   3  232.88   10.50
  -3  -6   3   30.90    2.90
  -3  -6   3   28.20    4.50
  -3  -6   3   32.20    3.50
  -3  -6   3   30.80    3.80
  -3  -6   3   34.00    3.10
  -3  -6   3   41.70    3.40
  -3   6   3   37.60    3.30
  -3   6   3   32.90    3.10
  -3   6   3   29.50    2.20
  -3   6   3   28.90    2.70
  -3   6   3   33.70    2.50
  -3   6   3   34.20    3.20
  -3   6   3   29.00    2.50
  -3   6   3   31.60    2.70
  -3   6   3   33.10    2.90
   3   6  -3   28.00    3.80
  -3   6   3   29.60    2.80
   3   6  -3   33.40    3.20
  -3   6   3   25.40    3.10
  -3   6   3   30.80    3.30
  -3   6   3   33.20    3.00
  -3   6   3   31.50    2.40
  -3   6   3   30.80    3.50
   3   6  -3   29.10    2.60
  -3   6   3   31.00    3.60
  -3   6   3   30.60    2.80
  -3   6   3   32.90    4.20
  -2  -6   3  214.98   10.60
  -2  -6   3  229.28   11.10
  -2  -6   3  217.78   12.90
  -2  -6   3  215.18   10.20
  -2   6   3  228.28   13.20
  -1  -6   3   28.70    2.60
  -1  -6   3   35.60    4.20
  -1  -6   3   33.00    2.70
   1   6  -3   37.80    3.30
  -1   6   3   28.90    3.80
   0  -6   3  576.54   21.20
   0  -6   3  573.44   24.30
   0  -6  -3  557.04   23.40
   0  -6  -3  578.64   21.80
   0   6  -3  570.74   24.40
  -1  -6  -3   43.60    5.00
  -1  -6  -3   43.10    4.00
   1  -6   3   40.90    2.90
   1  -6   3   45.50    4.50
  -1   6  -3   44.70    4.90
  -2  -6  -3   39.40    4.50
  -2  -6  -3   31.20    3.60
  -2  -6  -3   22.20    3.60
  -2  -6  -3   28.40    4.00
  -2   6  -3   32.40    2.50
  -2   6  -3   32.90    2.30
  -2   6  -3   25.00    4.90
  -2   6  -3   34.50    3.00
  -2   6  -3   27.40    3.00
  -2   6  -3   30.00    4.10
   2   6   3   29.30    3.00
  -2   6  -3   31.70    3.60
   2   6   3   21.40    2.70
   2   6   3   31.80    2.50
   3  -6   3  282.47   12.80
  -3  -6  -3  306.27   18.10
  -3  -6  -3  305.17   16.90
  -3  -6  -3  302.57   15.70
   3  -6   3  293.57   12.40
   3  -6   3  264.67   12.20
  -3  -6  -3  327.17   16.80
   3   6   3  305.67   13.80
   3   6   3  291.67   12.30
   3   6   3  318.17   13.00
  -3   6  -3  313.27   18.10
  -3   6  -3  317.07   14.30
  -3   6  -3  320.37   15.80
  -3   6  -3  317.47   14.20
  -3   6  -3  324.67   13.50
  -3   6  -3  316.17   12.50
  -3   6  -3  296.87   13.50
  -3   6  -3  309.77   12.90
  -3   6  -3  320.87   16.80
  -3   6  -3  322.67   14.00
  -4  -6  -3 2188.98   77.99
   4  -6   3 2002.90   74.09
  -4  -6  -3 2117.59   78.89
   4  -6   3 2103.59   74.39
   4  -6   3 2188.58   74.79
  -4   6  -3 2323.37   80.59
  -4   6  -3 2239.78   76.49
   4   6   3 2097.99   75.99
  -4   6  -3 2258.57   76.69
  -4   6  -3 2141.69   74.29
  -4   6  -3 2186.98   74.79
  -4   6  -3 2224.38   75.79
  -4   6  -3 2151.88   78.49
   4   6   3 2207.28   75.09
   5  -6   3   73.39    4.80
   5  -6   3   66.59    4.00
   5  -6   3   64.29    3.90
  -5  -6  -3   67.89    6.40
   5   6   3   62.89    3.30
  -5   6  -3   63.09    4.00
   5   6   3   67.09    4.70
  -5   6  -3   66.49    5.60
  -5   6  -3   67.79    4.00
  -5   6  -3   63.59    6.00
  -5   6  -3   68.39    4.80
  -5   6  -3   64.89    4.70
   5   6   3   62.69    4.10
  -5   6  -3   69.19    4.00
  -6  -6  -3   14.80    1.50
   6  -6   3   15.10    1.50
  -6  -6  -3   17.00    3.00
  -6  -6  -3   11.30    1.20
   6  -6   3   13.10    1.30
   6   6   3   14.00    1.00
   6   6   3   13.90    0.90
  -6   6  -3   16.00    1.60
   6   6   3   13.60    1.60
  -6   6  -3   15.10    1.90
  -6   6  -3   14.10    1.30
  -6   6  -3   12.50    1.60
   6   6   3    9.90    1.10
  -7  -7   3   31.00    1.80
  -7  -7   3   33.20    1.90
  -7   7   3   30.40    2.70
  -7   7   3   33.80    2.40
  -7   7   3   27.20    2.00
  -7   7   3   31.20    2.10
   7   7  -3   26.80    1.90
  -6  -7   3   33.10    2.40
  -6  -7   3   43.30    4.40
  -6  -7   3   34.50    2.50
  -6   7   3   36.10    3.30
  -6   7   3   30.40    3.60
  -6   7   3   32.20    2.80
   6   7  -3   31.90    2.80
  -6   7   3   32.90    3.50
  -6   7   3   29.70    2.50
  -6   7   3   31.30    3.10
   6   7  -3   32.50    3.20
  -6   7   3   30.60    3.60
  -6   7   3   33.40    2.30
  -6   7   3   29.10    2.90
  -5  -7   3   63.39    3.50
  -5  -7   3   62.49    5.20
  -5   7   3   69.69    4.80
  -5   7   3   57.69    4.70
  -5   7   3   66.79    5.70
  -5   7   3   61.29    4.60
  -5   7   3   61.29    5.90
  -5   7   3   81.19    8.80
  -5   7   3   66.89    5.40
  -5   7   3   55.79    5.30
   5   7  -3   67.59    6.40
  -5   7   3   62.29    5.40
   5   7  -3   64.99    5.50
  -5   7   3   59.59    5.10
  -5   7   3   57.79    4.70
  -5   7   3   63.39    4.70
  -5   7   3   55.79    4.20
  -5   7   3   61.69    4.10
  -4  -7   3  135.59    8.20
  -4  -7   3  151.58   11.30
  -4  -7   3  139.39    9.10
  -4  -7   3  120.89   12.30
  -4  -7   3  141.89    8.00
  -4   7   3  143.59    8.20
  -4   7   3  142.79   11.20
   4   7  -3  135.39    9.00
   4   7  -3  142.19    8.00
  -4   7   3  144.89    8.50
  -4   7   3  138.39    8.20
  -4   7   3  132.89    8.00
  -4   7   3  147.99    7.90
  -4   7   3  136.69    7.10
  -4   7   3  143.19    7.80
  -4   7   3  142.19    7.60
  -4   7   3  127.39    7.10
  -4   7   3  136.89    7.70
  -4   7   3  137.99    8.90
  -4   7   3  133.69    7.80
  -4   7   3  129.39    6.80
  -4   7   3  151.18    6.90
  -4   7   3  140.79    7.00
  -4   7   3  136.79    8.50
  -4   7   3  140.39    6.80
  -3  -7   3  117.99    7.10
  -3  -7   3  131.29    8.50
  -3  -7   3  118.49    7.60
  -3  -7   3  125.19    7.10
  -3  -7   3  110.49    6.80
  -3  -7   3  118.09    9.60
  -3   7   3  126.49    8.10
  -3   7   3  117.59    7.40
  -3   7   3  120.69    6.60
  -3   7   3  122.29    6.00
  -3   7   3  113.89    6.00
  -3   7   3  124.09    6.00
  -3   7   3  128.39    8.00
  -3   7   3  116.09    6.90
  -3   7   3  118.69    6.70
   3   7  -3  109.69    6.30
   3   7  -3  110.89    6.80
  -3   7   3  127.09    7.30
  -3   7   3  120.79    7.00
  -3   7   3  127.19    7.10
  -3   7   3  112.99    6.30
  -3   7   3  116.89    9.70
  -3   7   3  114.59    5.70
  -3   7   3  122.89    7.20
  -3   7   3  120.39    6.50
   3   7  -3  118.49    8.10
  -3   7   3  123.59    7.50
  -2  -7   3   87.49    5.70
  -2  -7   3   95.59    6.50
  -2  -7   3   79.19    7.70
  -2  -7   3   85.19    5.40
  -2  -7   3   91.29    5.90
  -2  -7   3   86.39    5.60
   2   7  -3   81.59    6.40
  -2   7   3   97.79    9.70
  -2   7   3   88.69    4.70
   2   7  -3   91.39    5.50
  -2   7   3   95.89    6.20
  -2   7   3   93.29    5.70
  -2   7   3   91.19    5.20
  -2   7   3   94.09    6.10
  -2   7   3   93.39    5.60
  -2   7   3   92.89    5.60
  -2   7   3   95.19    5.40
  -2   7   3   92.89    5.00
  -2   7   3   95.99    5.80
  -2   7   3   92.19    5.10
  -2   7   3   99.49    6.90
  -2   7   3   93.39    4.70
  -1  -7   3  367.76   15.90
  -1  -7   3  425.86   17.90
  -1  -7   3  366.16   18.90
  -1  -7   3  350.56   15.30
  -1  -7   3  374.26   15.80
  -1   7   3  380.46   15.30
   1   7  -3  356.76   17.40
   1   7  -3  381.06   19.10
  -1   7   3  376.26   14.90
  -1   7   3  411.46   16.90
  -1   7   3  408.16   15.60
   1   7  -3  350.46   16.20
  -1   7   3  401.76   15.90
  -1   7   3  373.66   19.40
  -1   7   3  413.96   16.30
  -1   7   3  397.46   14.50
  -1   7   3  412.06   15.10
  -1   7   3  387.96   15.60
  -1   7   3  397.96   17.70
   0  -7  -3  130.89    8.60
   0  -7   3  128.09    6.80
   0  -7   3  133.79    9.20
   0  -7  -3  138.59    7.40
   0   7  -3  129.49    7.40
   0   7  -3  128.29    7.30
   0   7  -3  129.69   10.10
   0   7   3  134.39    7.00
   0   7  -3  131.99    9.40
   0   7  -3  144.49    7.30
   0   7  -3  129.19    8.30
   0   7   3  139.59    6.90
   0   7   3  136.59    6.50
   0   7   3  134.79    8.30
   0   7   3  132.49    6.60
   0   7   3  137.09    6.00
   1  -7   3  143.09    7.50
  -1  -7  -3  178.88    9.70
  -1  -7  -3  156.58    8.80
   1  -7   3  170.38    7.80
  -1  -7  -3  159.58   10.50
   1  -7   3  173.08   11.00
   1  -7   3  162.88    8.30
  -1   7  -3  169.68   11.30
   1   7   3  167.88    7.20
  -1   7  -3  191.68    9.20
   1   7   3  173.48    8.50
  -1   7  -3  175.18    9.30
  -1   7  -3  172.08    9.00
  -1   7  -3  181.28   10.10
  -1   7  -3  183.68    8.90
   1   7   3  168.68    7.90
   1   7   3  173.48    8.10
   1   7   3  164.28    8.00
  -1   7  -3  164.98    9.60
  -2  -7  -3  261.17   15.80
  -2  -7  -3  253.17   13.20
   2  -7   3  251.27   14.70
   2  -7   3  237.38   11.50
   2  -7   3  253.67   11.00
  -2  -7  -3  274.07   13.70
   2  -7   3  238.88   10.80
  -2  -7  -3  265.57   14.50
   2   7   3  283.27   10.60
  -2   7  -3  240.28   12.30
   2   7   3  257.57   11.70
  -2   7  -3  276.97   12.40
   2   7   3  271.17   12.00
   2   7   3  266.17   11.10
  -2   7  -3  271.07   12.40
  -2   7  -3  249.68   11.30
  -2   7  -3  273.37   12.60
   2   7   3  271.17   11.40
  -2   7  -3  271.17   16.10
  -2   7  -3  275.07   14.10
  -2   7  -3  287.37   13.20
  -2   7  -3  267.57   10.90
   3  -7   3  391.46   17.50
   3  -7   3  435.26   17.20
  -3  -7  -3  465.35   22.10
   3  -7   3  409.96   17.00
  -3  -7  -3  438.46   20.50
  -3  -7  -3  435.76   23.80
  -3  -7  -3  434.96   20.70
  -3   7  -3  442.36   20.70
  -3   7  -3  429.26   23.70
  -3   7  -3  456.05   22.50
  -3   7  -3  469.15   19.20
  -3   7  -3  446.66   17.10
   3   7   3  474.65   18.80
   3   7   3  458.15   16.50
  -3   7  -3  494.35   19.00
  -3   7  -3  475.85   18.40
   3   7   3  439.96   17.20
  -3   7  -3  450.35   19.40
  -3   7  -3  420.36   17.50
  -3   7  -3  411.96   17.40
   4  -7   3   91.09    5.00
   4  -7   3   90.99    5.00
   4  -7   3   86.09    4.90
  -4  -7  -3   91.39    7.40
  -4  -7  -3   76.49    7.20
   4   7   3   90.59    4.60
  -4   7  -3   97.49    5.80
  -4   7  -3   81.29    5.80
  -4   7  -3   89.49    8.00
  -4   7  -3   86.89    7.30
  -4   7  -3   98.39    7.50
   4   7   3   87.09    4.90
  -4   7  -3   90.39    5.00
  -4   7  -3   81.19    4.80
   4   7   3   85.69    6.40
  -5  -7  -3   56.69    5.30
   5  -7   3   48.70    3.30
   5  -7   3   48.30    3.10
  -5   7  -3   50.79    4.50
  -5   7  -3   54.49    3.20
   5   7   3   52.19    3.90
  -5   7  -3   49.60    3.20
  -5   7  -3   48.90    3.10
  -5   7  -3   47.00    3.90
  -5   7  -3   54.19    3.90
   6  -7   3   14.30    1.60
   6  -7   3   17.20    1.30
  -6  -7  -3   16.80    1.30
  -6   7  -3   18.00    1.60
  -6   7  -3   16.20    1.20
  -6   7  -3   18.00    1.40
   6   7   3   18.40    1.60
   6   7   3   17.00    1.20
  -6   7  -3   16.00    1.80
  -6  -8   3   12.30    1.30
  -6  -8   3   13.20    2.20
  -6   8   3   15.50    2.10
   6   8  -3   13.00    1.80
  -6   8   3   12.10    1.80
  -6   8   3   11.10    1.50
   6   8  -3   10.60    1.40
  -6   8   3   13.20    2.30
  -6   8   3   11.30    1.50
  -6   8   3   12.70    1.90
  -6   8   3   11.90    2.50
  -6   8   3   12.50    1.20
  -5  -8   3   76.19    5.80
  -5   8   3   83.99    6.00
   5   8  -3   79.19    4.90
  -5   8   3   79.69    5.60
  -5   8   3   79.59    5.20
  -5   8   3   81.79    5.70
  -5   8   3   75.89    5.30
  -5   8   3   77.09    4.20
  -5   8   3   79.89    5.10
  -5   8   3   72.49    5.90
  -5   8   3   78.39    5.20
   5   8  -3   79.29    5.70
  -5   8   3   64.79    5.00
  -5   8   3   77.29    4.80
  -5   8   3   67.39    5.80
  -4  -8   3   44.00    5.90
  -4  -8   3   46.80    4.40
  -4  -8   3   41.30    4.40
  -4  -8   3   42.30    4.00
  -4   8   3   45.40    3.40
  -4   8   3   49.20    3.30
  -4   8   3   55.49    4.60
  -4   8   3   48.10    4.40
  -4   8   3   46.80    3.50
  -4   8   3   46.30    4.20
   4   8  -3   47.60    4.70
  -4   8   3   45.60    4.40
  -4   8   3   45.60    3.80
   4   8  -3   43.80    3.70
  -4   8   3   35.30    3.60
  -4   8   3   38.80    4.40
  -4   8   3   53.69    3.60
  -4   8   3   47.50    3.80
  -4   8   3   41.00    3.40
  -4   8   3   45.70    3.90
  -4   8   3   50.49    4.30
  -4   8   3   47.80    4.00
  -4   8   3   42.80    4.40
  -3  -8   3    5.30    1.40
  -3  -8   3    5.80    1.90
  -3  -8   3    6.40    3.20
  -3  -8   3    5.40    1.90
  -3  -8   3    4.70    1.50
  -3   8   3    2.90    1.40
  -3   8   3    8.30    3.00
  -3   8   3    9.10    2.90
  -3   8   3    3.00    1.20
  -3   8   3    1.10    2.60
  -3   8   3    3.40    0.90
   3   8  -3    3.10    1.60
  -3   8   3    3.20    1.80
  -3   8   3    7.80    1.70
  -3   8   3    3.30    1.50
  -3   8   3    3.80    1.50
  -3   8   3    4.70    1.10
  -3   8   3    5.90    1.30
  -3   8   3    4.90    1.50
   3   8  -3    4.90    1.10
  -3   8   3    3.40    1.00
  -3   8   3    4.00    1.50
  -3   8   3    4.40    1.40
   3   8  -3    3.20    1.20
  -3   8   3    4.60    1.80
  -3   8   3    5.60    1.40
  -2  -8   3  634.14   25.80
  -2  -8   3  624.54   25.00
  -2  -8   3  616.24   24.50
  -2  -8   3  584.94   28.90
  -2  -8   3  615.64   24.20
  -2  -8   3  598.74   24.60
  -2   8   3  629.64   22.90
  -2   8   3  617.64   22.80
   2   8  -3  589.54   25.80
   2   8  -3  631.84   22.20
  -2   8   3  629.54   24.90
  -2   8   3  614.84   29.50
  -2   8   3  623.64   23.80
  -2   8   3  620.04   24.30
  -2   8   3  646.44   25.50
   2   8  -3  588.04   23.60
  -2   8   3  664.93   24.80
  -2   8   3  646.54   24.30
  -2   8   3  612.34   23.20
  -2   8   3  648.64   23.30
  -2   8   3  644.14   23.80
  -2   8   3  626.74   24.60
  -2   8   3  631.44   24.30
  -2   8   3  641.54   24.80
  -2   8   3  650.03   26.30
   2   8  -3  614.44   24.20
  -1  -8   3   10.30    1.70
  -1  -8   3   10.00    1.70
   1  -8  -3    9.90    2.20
  -1  -8   3   16.00    3.60
  -1  -8   3   12.50    2.30
  -1  -8   3    9.70    2.10
  -1   8   3   11.90    1.40
   1   8  -3    9.80    1.60
  -1   8   3   10.90    1.70
  -1   8   3   12.20    1.90
   1   8  -3   18.30    2.50
   1   8  -3   11.70    2.40
  -1   8   3   11.40    1.80
  -1   8   3   11.80    2.40
  -1   8   3   13.30    3.30
  -1   8   3    9.50    1.50
  -1   8   3   12.60    1.70
   1   8  -3    9.50    2.50
  -1   8   3    9.30    2.70
  -1   8   3   10.10    3.00
  -1   8   3   10.80    2.40
   1   8  -3    9.50    1.60
   0  -8  -3  224.48   11.30
   0  -8   3  228.18   10.80
   0  -8   3  221.38   10.50
   0  -8   3  213.18   10.10
   0   8  -3  234.58   11.60
   0   8   3  240.18   12.60
   0   8   3  241.68   10.30
   0   8   3  244.48    9.50
   0   8   3  217.68    9.30
   0   8   3  238.58   10.50
   0   8  -3  226.38   11.80
   0   8  -3  253.17   11.60
   0   8  -3  243.28   11.20
   0   8   3  235.38   10.00
   0   8   3  238.18    9.60
   0   8   3  251.57   11.10
   0   8   3  235.58   10.50
   0   8  -3  231.18   12.50
  -1  -8  -3  427.06   18.70
   1  -8   3  438.16   21.70
   1  -8   3  423.06   17.10
   1  -8   3  406.66   16.80
   1  -8   3  418.96   17.40
  -1  -8  -3  428.86   19.50
  -1  -8  -3  449.06   22.00
  -1   8  -3  449.95   18.60
  -1   8  -3  427.36   22.00
  -1   8  -3  450.75   20.00
   1   8   3  444.16   16.20
   1   8   3  445.46   16.80
   1   8   3  425.26   17.60
  -1   8  -3  453.25   18.40
   1   8   3  413.96   16.80
  -1   8  -3  411.46   18.20
  -1   8  -3  415.76   16.20
   1   8   3  438.66   17.00
   1   8   3  430.26   17.30
  -1   8  -3  441.86   19.30
  -2  -8  -3    6.40    2.20
   2  -8   3    6.90    1.40
   2  -8   3   10.60    1.60
   2  -8   3    8.00    1.40
   2   8   3    9.30    1.70
  -2   8  -3   10.00    1.30
  -2   8  -3   10.10    1.70
   2   8   3    7.10    2.10
   2   8   3    7.50    1.30
  -2   8  -3    3.00    3.10
  -2   8  -3    8.20    1.90
  -2   8  -3    8.80    1.70
  -2   8  -3    4.30    1.80
  -2   8  -3    8.90    1.60
   2   8   3    9.60    1.30
   2   8   3    8.80    1.20
  -2   8  -3    6.60    2.20
  -2   8  -3    7.70    1.80
  -3  -8  -3   17.60    3.80
   3  -8   3    9.20    1.40
   3  -8   3   14.70    1.60
   3  -8   3    9.30    1.60
  -3  -8  -3   10.90    3.10
  -3  -8  -3    7.50    2.40
  -3   8  -3   10.80    1.60
  -3   8  -3   11.80    1.90
  -3   8  -3   10.50    2.40
  -3   8  -3   10.20    2.10
  -3   8  -3   11.10    1.80
  -3   8  -3   10.40    1.30
  -3   8  -3   11.90    1.90
   3   8   3   11.20    2.00
   3   8   3   10.20    1.40
   3   8   3    8.30    1.10
   3   8   3   10.30    1.40
  -4  -8  -3   73.29    6.60
   4  -8   3   61.19    3.80
  -4  -8  -3   60.19    5.50
   4  -8   3   65.99    4.00
   4   8   3   69.29    4.70
  -4   8  -3   64.29    3.90
  -4   8  -3   62.29    3.70
  -4   8  -3   68.29    5.00
  -4   8  -3   74.49    4.80
   4   8   3   61.19    3.40
  -4   8  -3   62.89    5.50
  -4   8  -3   62.39    4.70
  -4   8  -3   59.49    3.80
   4   8   3   65.49    3.90
   5  -8   3   38.90    2.50
  -5  -8  -3   53.19    4.80
   5  -8   3   43.70    2.70
  -5   8  -3   39.30    2.60
   5   8   3   41.80    2.50
  -5   8  -3   42.30    3.80
   5   8   3   44.40    2.60
  -5   8  -3   39.70    3.20
   5   8   3   43.80    3.20
  -5   8  -3   44.40    3.30
   5   8   3   42.10    2.20
  -5   8  -3   39.80    2.50
  -6  -9   3    9.80    1.00
   6   9  -3   10.30    1.40
   6   9  -3    8.70    0.80
   6   9  -3    9.20    0.70
  -6   9   3    9.80    1.00
  -6   9   3    9.20    1.30
  -5  -9   3   70.69    4.90
  -5   9   3   55.29    4.70
  -5   9   3   67.89    3.60
  -5   9   3   54.99    4.00
  -5   9   3   66.19    4.90
  -5   9   3   66.29    4.30
  -5   9   3   60.39    3.90
   5   9  -3   69.19    4.80
  -5   9   3   71.19    4.80
  -5   9   3   58.09    3.90
   5   9  -3   64.69    3.20
  -5   9   3   55.29    4.60
   5   9  -3   55.49    3.30
  -5   9   3   66.49    4.80
  -4  -9   3  151.88   10.70
  -4  -9   3  169.28    9.00
  -4  -9   3  183.08   10.50
  -4  -9   3  166.68    8.70
  -4   9   3  159.48    7.70
  -4   9   3  156.98    9.00
  -4   9   3  165.68    8.30
  -4   9   3  158.38    9.70
  -4   9   3  170.78    7.40
   4   9  -3  147.39    7.40
  -4   9   3  174.98    7.70
  -4   9   3  163.28    8.50
  -4   9   3  157.58    8.90
  -4   9   3  145.39    7.50
  -4   9   3  176.08    7.90
  -4   9   3  166.58    9.30
  -4   9   3  151.08    9.00
  -4   9   3  168.98    8.60
  -4   9   3  167.08    8.60
  -4   9   3  157.88    9.00
  -4   9   3  169.28    8.50
   4   9  -3  163.68    9.30
  -3  -9   3   65.79    5.60
  -3  -9   3   61.39    4.70
  -3  -9   3   60.99    5.40
  -3  -9   3   59.09    4.80
  -3  -9   3   67.89    5.20
  -3   9   3   64.69    5.00
  -3   9   3   57.39    4.60
  -3   9   3   71.09    4.90
  -3   9   3   69.39    4.60
  -3   9   3   63.69    5.40
  -3   9   3   57.79    4.70
   3   9  -3   67.19    5.60
  -3   9   3   62.49    4.30
  -3   9   3   60.99    3.90
   3   9  -3   53.29    3.90
  -3   9   3   63.89    3.70
   3   9  -3   63.79    3.40
  -3   9   3   60.39    3.80
  -3   9   3   62.99    4.90
  -3   9   3   62.29    5.10
  -3   9   3   61.79    4.00
  -3   9   3   67.79    4.60
  -3   9   3   69.39    5.70
  -2  -9   3  521.15   26.90
  -2  -9   3  554.34   23.70
  -2  -9   3  549.35   22.50
  -2  -9   3  555.94   22.10
  -2  -9   3  540.45   21.70
  -2  -9   3  532.45   22.50
  -2   9   3  529.85   22.60
  -2   9   3  563.24   21.40
  -2   9   3  544.55   27.30
  -2   9   3  522.55   21.00
  -2   9   3  554.54   22.40
  -2   9   3  530.35   20.60
  -2   9   3  538.15   20.90
  -2   9   3  559.64   20.30
  -2   9   3  546.55   22.10
  -2   9   3  575.14   21.70
  -2   9   3  557.14   20.20
  -2   9   3  587.64   22.00
  -2   9   3  577.84   24.10
  -2   9   3  534.25   21.70
   2   9  -3  486.15   20.60
   2   9  -3  530.45   21.50
   2   9  -3  548.05   19.50
   2   9  -3  544.65   23.20
  -1  -9   3  108.09    6.50
  -1  -9   3   99.99    6.10
  -1  -9   3  106.59    7.80
  -1  -9   3  130.69   10.50
  -1  -9   3   92.39    7.60
   1  -9  -3  102.99    6.40
  -1   9   3  105.39    5.70
  -1   9   3  103.49    6.10
  -1   9   3  110.29    5.40
  -1   9   3  109.79    7.80
   1   9  -3  107.99    6.30
   1   9  -3  104.89    7.20
  -1   9   3  117.89    6.70
   1   9  -3  111.69    7.30
   1   9  -3  113.39    6.70
  -1   9   3  110.49    6.30
  -1   9   3  111.89    6.00
  -1   9   3  103.79    5.20
   0  -9   3  132.99   10.60
   0  -9   3  137.49    7.20
   0  -9  -3  143.99    8.20
   0  -9   3  134.99    7.70
   0  -9   3  137.29    7.50
   0   9   3  133.89    6.70
   0   9  -3  128.59    8.80
   0   9  -3  129.49    7.80
   0   9   3  153.58    9.50
   0   9   3  138.39    7.60
   0   9   3  133.59    6.40
   0   9   3  136.39    7.10
   0   9  -3  139.19    7.80
   0   9   3  138.19    7.30
   0   9  -3  132.19    8.00
   0   9  -3  142.09   10.70
   0   9   3  137.79    7.00
   0   9  -3  143.39    8.10
  -1  -9  -3  945.61   38.00
  -1  -9  -3  933.61   36.90
   1  -9   3  944.91   35.10
   1  -9   3  921.01   34.70
   1  -9   3  926.81   35.20
   1   9   3  984.80   34.70
   1   9   3  977.80   35.60
   1   9   3  988.40   33.90
  -1   9  -3  963.80   38.10
   1   9   3  936.91   34.10
   1   9   3 1003.20   35.20
  -1   9  -3 1036.10   36.30
   1   9   3  963.40   34.50
  -1   9  -3  961.80   36.20
  -1   9  -3 1040.60   37.00
  -1   9  -3  927.11   35.00
  -1   9  -3  928.81   41.20
   2  -9   3  126.59    6.80
   2  -9   3  129.09    6.80
   2  -9   3  132.99    6.70
  -2  -9  -3  137.69    8.90
  -2  -9  -3  146.99    9.90
  -2   9  -3  135.59    9.00
   2   9   3  132.59    6.10
   2   9   3  140.09    6.70
  -2   9  -3  137.99    7.70
   2   9   3  130.99    6.90
   2   9   3  133.59    6.90
  -2   9  -3  134.69    7.70
  -2   9  -3  129.89    7.90
   2   9   3  128.49    6.60
  -2   9  -3  136.69    8.60
  -2   9  -3  120.89    6.10
  -3  -9  -3   23.00    3.50
   3  -9   3   23.20    2.60
   3  -9   3   21.30    2.10
  -3  -9  -3   20.00    3.90
  -3   9  -3   23.10    2.70
  -3   9  -3   23.30    3.40
  -3   9  -3   19.20    2.70
   3   9   3   23.70    1.80
  -3   9  -3   19.20    2.30
   3   9   3   22.00    2.10
   3   9   3   22.90    2.40
  -3   9  -3   24.70    2.00
   3   9   3   27.60    2.50
  -3   9  -3   20.40    2.30
   3   9   3   22.30    2.00
  -3   9  -3   16.80    3.10
   4  -9   3   20.20    2.00
   4  -9   3   21.60    1.80
  -4  -9  -3   24.40    4.30
  -4  -9  -3   12.80    3.40
  -4   9  -3   22.30    2.40
   4   9   3   20.30    1.50
  -4   9  -3   17.10    1.70
  -4   9  -3   19.70    2.70
   4   9   3   20.70    2.30
   4   9   3   21.60    1.80
  -4   9  -3   21.60    2.80
  -4   9  -3   18.90    2.30
   4   9   3   20.30    1.80
  -4   9  -3   21.40    1.70
   5  -9   3    6.30    1.10
   5  -9   3    6.30    1.00
  -5   9  -3    6.70    1.30
   5   9   3    7.10    1.00
  -5   9  -3    7.00    1.30
   5   9   3    6.00    0.70
  -5   9  -3    7.00    0.70
   5   9   3    6.50    0.60
   5   9   3    5.60    0.90
   5  10  -3    7.80    1.10
   5  10  -3    7.00    1.40
   5  10  -3    7.50    0.80
  -5  10   3    7.70    1.50
  -5  10   3    7.90    1.10
  -4 -10   3   31.10    3.30
  -4 -10   3   24.40    3.30
  -4 -10   3   28.10    3.00
  -4  10   3   27.90    2.80
  -4  10   3   29.90    2.40
  -4  10   3   33.10    3.00
  -4  10   3   28.40    2.70
   4  10  -3   27.10    2.90
  -4  10   3   30.30    3.60
   4  10  -3   29.20    1.80
  -4  10   3   29.10    2.90
  -4  10   3   27.10    2.30
  -4  10   3   25.50    2.60
  -3 -10   3   89.99    6.50
  -3 -10   3   87.59    5.70
  -3 -10   3   89.69    6.10
  -3 -10   3   80.89    6.70
  -3  10   3   92.09    5.40
  -3  10   3   88.59    6.40
  -3  10   3   76.89    4.40
  -3  10   3   85.29    4.60
  -3  10   3   84.39    5.30
   3  10  -3   95.59    6.30
  -3  10   3   88.49    4.90
  -3  10   3   84.79    5.00
   3  10  -3   88.39    4.10
  -3  10   3   86.79    4.90
  -3  10   3   91.19    5.70
  -3  10   3   89.99    5.60
  -2 -10   3  835.32   32.20
  -2 -10   3  867.41   33.30
  -2 -10   3  842.52   32.20
  -2 -10   3  913.11   34.50
   2  10  -3  867.71   33.10
  -2  10   3  890.91   32.00
  -2  10   3  890.81   32.40
  -2  10   3  842.52   30.20
  -2  10   3  810.52   33.40
  -2  10   3  801.62   30.40
   2  10  -3  807.72   31.40
  -2  10   3  915.21   34.30
  -2  10   3  892.21   32.00
  -2  10   3  834.72   30.40
  -2  10   3  854.71   33.20
   2  10  -3  829.12   29.50
  -1 -10   3  150.68    8.00
  -1 -10   3  155.98    8.20
  -1 -10   3  151.48    9.20
   1 -10  -3  156.88    8.40
  -1 -10   3  159.68    8.70
  -1  10   3  147.99    6.80
  -1  10   3  150.88    8.10
  -1  10   3  141.49    7.30
  -1  10   3  143.09    7.10
   1  10  -3  136.79    8.50
  -1  10   3  148.69    7.70
  -1  10   3  145.79    7.70
  -1  10   3  150.18    9.50
   1  10  -3  141.39    8.20
   1  10  -3  149.49    8.10
   1  10  -3  146.69    7.70
   0 -10   3   13.40    2.30
   0 -10   3   14.00    2.00
   0 -10  -3   17.40    2.60
   0 -10   3   15.90    2.00
   0 -10  -3   16.20    3.20
   0  10  -3   13.40    2.30
   0  10   3   13.00    1.80
   0  10   3   16.70    2.10
   0  10  -3   16.30    2.30
   0  10   3   14.70    1.60
   0  10   3   14.40    1.80
   0  10  -3   10.90    2.00
   0  10  -3   13.40    2.10
   0  10   3   12.20    1.60
   0  10   3   18.30    2.30
   0  10  -3   13.80    1.70
   0  10  -3   14.60    2.00
   1 -10   3  308.97   13.10
  -1 -10  -3  291.67   15.30
   1 -10   3  289.57   12.80
   1  10   3  298.57   12.50
   1  10   3  296.97   12.30
   1  10   3  305.97   11.90
  -1  10  -3  305.07   13.90
  -1  10  -3  285.87   15.40
  -1  10  -3  288.17   13.90
   1  10   3  292.17   12.80
   1  10   3  305.77   13.30
  -1  10  -3  296.97   13.50
   2 -10   3  133.39    6.60
  -2 -10  -3  145.09    9.70
  -2 -10  -3  141.29    8.90
  -2  10  -3  144.09    7.80
   2  10   3  129.69    6.80
   2  10   3  132.79    6.40
   2  10   3  133.29    6.00
   2  10   3  135.19    6.50
   2  10   3  138.29    6.50
  -2  10  -3  120.59    5.90
  -2  10  -3  128.69    8.60
  -2  10  -3  139.89    7.90
  -2  10  -3  142.59    7.60
  -3 -10  -3   26.80    4.30
   3 -10   3   23.40    2.30
  -3 -10  -3   23.80    3.50
   3 -10   3   25.90    2.20
  -3  10  -3   23.30    2.30
  -3  10  -3   23.70    2.60
  -3  10  -3   22.10    2.90
   3  10   3   23.00    1.70
   3  10   3   22.00    1.80
   3  10   3   20.30    1.90
   3  10   3   23.90    2.20
   3  10   3   24.00    2.20
  -3  10  -3   22.20    2.40
  -3  10  -3   23.00    1.70
   4 -10   3   98.69    4.30
   4 -10   3  101.89    4.60
  -4  10  -3   80.89    4.70
  -4  10  -3   87.19    5.00
   4  10   3   94.89    4.00
   4  10   3  102.19    4.60
   4  10   3   94.49    4.30
  -4  10  -3   91.69    5.70
  -4  10  -3   85.19    3.90
  -4  10  -3   92.89    4.70
   4  10   3   88.89    4.00
   5  11  -3   43.80    2.50
   5  11  -3   53.99    2.70
   4  11  -3   39.90    2.10
  -4  11   3   46.70    2.70
  -4  11   3   46.30    2.90
   4  11  -3   48.80    3.10
   4  11  -3   54.09    3.50
  -4  11   3   46.10    3.60
  -4  11   3   54.89    3.70
  -3 -11   3   98.69    5.70
  -3 -11   3   93.29    6.10
  -3 -11   3   90.19    6.40
   3  11  -3   94.79    5.50
   3  11  -3   79.79    3.70
  -3  11   3   93.99    6.90
  -3  11   3  100.89    5.50
  -3  11   3   78.29    4.60
  -3  11   3   90.49    5.10
  -3  11   3   81.79    4.40
  -3  11   3   97.99    5.20
   3  11  -3   96.19    5.20
  -2 -11   3  287.57   12.60
  -2 -11   3  280.37   13.20
  -2 -11   3  288.97   13.50
   2  11  -3  275.17   11.80
  -2  11   3  278.77   10.80
  -2  11   3  282.77   13.50
  -2  11   3  278.97   12.00
  -2  11   3  280.87   12.00
  -2  11   3  273.27   10.80
   2  11  -3  246.68   11.30
   2  11  -3  277.27   12.10
  -2  11   3  272.87   11.70
  -2  11   3  276.67   11.30
  -1 -11   3   71.59    4.80
  -1 -11   3   70.19    4.60
  -1 -11   3   74.49    6.80
  -1 -11   3   70.49    5.60
   1 -11  -3   70.99    5.20
  -1  11   3   64.79    3.80
  -1  11   3   64.79    4.00
   1  11  -3   69.99    5.10
   1  11  -3   70.09    4.40
   1  11  -3   67.19    4.30
  -1  11   3   77.19    6.20
   1  11  -3   70.09    4.30
  -1  11   3   78.39    5.40
  -1  11   3   68.69    4.40
  -1  11   3   69.59    4.50
  -1  11   3   66.79    3.80
   1  11  -3   62.89    4.50
   0 -11   3  177.68    8.50
   0 -11  -3  177.48   10.00
   0 -11   3  177.58    8.50
   0 -11   3  195.18   10.60
   0 -11  -3  170.28    9.30
   0 -11   3  179.48    9.70
   0  11  -3  163.98    9.50
   0  11   3  169.28    7.40
   0  11   3  166.48    8.30
   0  11   3  168.88    7.70
   0  11  -3  172.98    7.60
   0  11  -3  168.88    8.60
   0  11   3  170.98    8.00
   0  11   3  164.68    7.70
   0  11  -3  178.48    8.90
   0  11   3  175.98    8.70
   1 -11   3  272.97   11.50
  -1 -11  -3  291.57   14.30
   1 -11   3  281.27   12.00
  -1 -11  -3  265.47   13.10
  -1  11  -3  255.37   11.80
  -1  11  -3  276.27   12.40
   1  11   3  260.27   10.80
  -1  11  -3  247.18   13.00
   1  11   3  249.08   11.50
  -1  11  -3  272.37   12.50
   1  11   3  267.07   10.50
   1  11   3  270.27   11.50
   1  11   3  262.07   10.70
  -2 -11  -3  144.59    9.20
   2 -11   3  132.89    6.40
  -2 -11  -3  144.69    8.40
   2 -11   3  139.59    6.80
   2  11   3  131.49    6.10
   2  11   3  132.39    5.80
  -2  11  -3  129.49    7.20
  -2  11  -3  118.49    7.70
  -2  11  -3  128.89    6.90
  -2  11  -3  130.59    6.80
   2  11   3  133.49    6.40
   3 -11   3   16.60    1.80
  -3 -11  -3   18.10    3.00
  -3 -11  -3   14.60    2.70
   3  11   3   16.20    1.40
   3  11   3   16.70    1.40
  -3  11  -3   13.40    2.00
   3  11   3   16.90    1.20
  -3  11  -3   18.20    1.90
  -3  11  -3   15.60    1.70
  -3  11  -3   15.90    1.60
  -4  11  -3   25.70    1.90
   4  11   3   26.50    1.50
   4  11   3   26.00    1.30
  -4  11  -3   26.50    2.10
   4  12  -3   34.70    2.00
  -3 -12   3   71.89    4.60
  -3 -12   3   83.29    4.70
   3  12  -3   75.89    4.00
  -3  12   3   65.89    3.90
  -3  12   3   80.39    4.40
  -3  12   3   77.09    4.10
  -2 -12   3  107.29    5.80
  -2 -12   3   98.89    5.90
  -2 -12   3  108.29    6.30
  -2  12   3  104.59    5.40
   2  12  -3  102.49    5.10
  -2  12   3  101.39    4.50
  -2  12   3   98.09    5.00
  -2  12   3  107.19    5.30
   2  12  -3   89.39    4.50
  -1 -12   3   53.39    4.20
   1 -12  -3   46.90    4.60
   1 -12  -3   42.40    4.20
  -1 -12   3   62.39    4.60
   1  12  -3   57.89    3.60
  -1  12   3   68.09    4.50
   1  12  -3   55.99    3.20
  -1  12   3   54.69    3.00
   1  12  -3   53.19    3.20
  -1  12   3   48.00    3.00
  -1  12   3   57.69    3.60
  -1  12   3   61.19    3.60
   0 -12   3  113.39    5.80
   0 -12  -3  116.29    6.50
   0 -12   3  115.29    6.40
   0 -12  -3  111.39    7.10
   0 -12   3   96.49    6.10
   0  12   3   99.89    4.80
   0  12   3   95.99    4.60
   0  12   3   93.89    5.70
   0  12   3  111.09    5.90
   0  12   3  113.79    6.10
   0  12  -3   92.29    4.50
   0  12  -3  104.89    6.00
   0  12  -3  103.69    5.40
   0  12  -3  114.49    5.90
   1 -12   3   33.70    2.60
   1 -12   3   28.20    2.70
  -1 -12  -3   33.30    3.40
   1  12   3   28.10    2.00
  -1  12  -3   31.70    2.60
   1  12   3   31.90    2.00
  -1  12  -3   29.30    2.90
   1  12   3   34.60    2.50
  -1  12  -3   27.90    2.50
  -2 -12  -3   71.39    5.00
   2 -12   3   65.49    4.00
   2 -12   3   72.99    4.10
  -2 -12  -3   72.19    5.50
   2 -12   3   74.99    3.90
  -2  12  -3   61.99    4.30
   2  12   3   58.39    3.40
  -2  12  -3   66.59    3.90
  -2  12  -3   65.09    3.80
   2  12   3   66.69    3.30
   2  12   3   66.29    3.10
  -3  12  -3   47.80    3.00
  -3  12  -3   48.00    2.60
   3  12   3   51.19    2.20
   3  12   3   51.59    2.40
  -3  12  -3   45.10    2.50
  -2 -13   3    3.70    1.00
  -2  13   3    2.50    1.20
   2  13  -3    3.60    0.60
  -2  13   3    5.40    1.40
  -2  13   3    6.50    1.30
  -1 -13   3   22.80    2.10
  -1 -13   3   20.80    2.60
  -1  13   3   20.70    1.60
   1  13  -3   20.40    1.70
  -1  13   3   23.90    2.30
  -1  13   3   20.90    1.40
   0 -13  -3   49.99    6.00
   0  13   3   69.09    3.50
   0  13  -3   59.69    3.10
   0  13  -3   64.39    3.40
   0  13   3   69.69    3.00
  -1 -13  -3   32.30    2.90
   1 -13   3   31.20    2.20
  -1  13  -3   28.00    1.90
  -1  13  -3   26.40    1.80
   1  13   3   28.50    1.60
   1  13   3   28.50    1.90
  -2 -13  -3   87.89    5.40
   2  13   3   70.89    3.20
  -8   0   4  125.79    5.90
   8   0  -4  141.09    5.70
  -8   0   4  128.29    6.00
   8   0  -4  139.19    5.70
  -8   0   4  129.39    6.30
  -7   0   4    6.60    1.60
  -7   0   4    3.30    1.10
  -7   0   4    2.70    1.10
   7   0  -4    4.10    1.20
   7   0  -4    4.60    1.10
  -7   0   4    4.00    1.20
   7   0  -4    4.10    1.10
  -7   0   4    4.30    1.10
  -7   0   4    5.10    1.00
  -6   0   4    0.10    0.40
  -6   0   4   -0.20    0.50
   6   0  -4   -0.10    0.50
   6   0  -4    0.60    0.90
  -6   0   4   -0.40    0.50
   6   0  -4    1.80    0.90
  -6   0   4    1.50    0.80
  -6   0   4   -1.10    0.60
  -6   0   4   -0.80    0.70
  -5   0   4   23.30    2.10
  -5   0   4   21.00    2.20
   5   0  -4   20.90    2.20
  -5   0   4   25.30    2.10
  -5   0   4   21.10    2.30
  -5   0   4   21.50    2.30
  -5   0   4   19.50    2.20
   5   0  -4   20.30    2.50
   5   0  -4   22.50    2.50
  -5   0   4   22.90    2.50
   4   0  -4 2155.28   73.79
  -3   0   4 4411.76  147.29
   3   0  -4 4393.96  150.28
  -3   0   4 4424.06  148.09
  -2   0   4 2390.96   80.49
  -2   0   4 2484.45   81.89
   2   0  -4 2298.67   82.89
  -1   0   4 1304.87   44.40
   1   0  -4 1206.58   45.40
   0   0  -4 1328.17   48.30
  -1   0  -4  170.88    9.50
  -1   0  -4  191.48   10.50
  -2   0  -4 1236.38   48.80
   2   0   4 1360.06   44.70
  -2   0  -4 1236.68   47.50
   3   0   4 2915.61   96.59
   3   0   4 2882.81   96.69
  -3   0  -4 2778.52  102.59
   3   0   4 3027.50   97.99
  -3   0  -4 2663.43  100.59
  -4   0  -4   32.60    5.80
  -4   0  -4   46.60    6.70
  -4   0  -4   47.10    3.50
  -4   0  -4   42.70    5.00
   4   0   4   45.10    3.20
   4   0   4   45.50    3.90
   4   0   4   43.20    4.10
   4   0   4   45.50    3.40
   5   0   4  229.38   10.90
  -5   0  -4  227.58   10.20
  -5   0  -4  218.28   13.00
   5   0   4  222.28    9.80
  -5   0  -4  211.58   10.90
  -5   0  -4  223.68   10.10
   5   0   4  229.58    9.80
  -6   0  -4   72.49    4.10
  -6   0  -4   81.59    4.40
  -6   0  -4   80.69    5.10
   6   0   4   79.29    4.70
   6   0   4   80.59    4.20
  -6   0  -4   78.59    4.90
  -7   0  -4   17.60    1.20
  -7   0  -4   20.20    1.50
  -8  -1   4   25.20    2.00
   8  -1  -4   26.80    1.90
   8  -1  -4   26.50    2.00
  -8  -1   4   23.80    1.90
  -8  -1   4   25.50    1.90
  -8   1   4   22.20    2.70
  -8   1   4   28.00    2.30
   8   1  -4   28.10    1.90
   8   1  -4   24.40    1.70
  -8   1   4   22.70    1.70
  -8   1   4   26.30    2.00
  -8   1   4   18.90    2.00
  -7  -1   4   68.79    4.60
  -7  -1   4   67.79    5.20
   7  -1  -4   71.49    4.30
  -7  -1   4   68.79    4.10
   7  -1  -4   70.79    4.20
   7  -1  -4   67.29    4.20
  -7  -1   4   65.49    4.70
  -7  -1   4   68.89    4.40
  -7  -1   4   68.39    4.70
  -7   1   4   68.59    4.70
   7   1  -4   64.49    4.20
  -7   1   4   67.49    5.00
  -7   1   4   69.19    5.20
  -7   1   4   62.19    4.30
  -7   1   4   62.49    4.10
   7   1  -4   71.19    4.60
  -7   1   4   63.99    4.10
   7   1  -4   69.99    4.20
   6  -1  -4   31.90    2.80
  -6  -1   4   32.70    2.60
  -6  -1   4   33.30    2.80
  -6  -1   4   33.90    2.90
  -6  -1   4   30.60    3.00
  -6  -1   4   35.80    3.30
   6  -1  -4   27.10    2.90
  -6  -1   4   33.80    3.10
  -6  -1   4   30.00    3.00
   6  -1  -4   32.30    3.10
   6   1  -4   33.30    3.10
  -6   1   4   35.20    3.40
   6   1  -4   32.60    2.90
  -6   1   4   32.30    2.80
   6   1  -4   32.70    3.30
  -6   1   4   34.80    3.30
  -6   1   4   29.70    2.80
  -6   1   4   37.10    3.00
  -6   1   4   32.40    2.80
  -6   1   4   30.10    3.40
   5  -1  -4  293.67   13.50
  -5  -1   4  340.87   13.30
  -5  -1   4  323.97   13.70
   5  -1  -4  319.27   13.60
  -5  -1   4  314.07   13.70
  -5  -1   4  343.67   13.80
  -5  -1   4  343.37   14.40
  -5  -1   4  331.67   13.80
  -5   1   4  341.97   13.70
   5   1  -4  327.07   13.90
   5   1  -4  344.97   14.00
  -5   1   4  334.27   13.70
  -5   1   4  336.37   13.60
  -5   1   4  335.87   13.00
  -5   1   4  316.27   14.00
   5   1  -4  344.97   15.00
  -5   1   4  320.47   13.70
  -5   1   4  342.17   14.80
  -4  -1   4  548.85   21.60
  -4  -1   4  536.55   20.40
   4  -1  -4  535.15   20.30
   4   1  -4  534.85   20.50
  -4   1   4  556.74   19.50
  -3  -1   4 1772.72   61.19
   3  -1  -4 1795.82   63.29
  -3  -1   4 1902.21   63.29
   3   1  -4 1743.13   64.19
   3   1  -4 1696.03   61.29
  -3   1   4 1825.22   60.49
   2  -1  -4  276.17   12.30
  -2  -1   4  290.57   12.50
  -2   1   4  289.07   10.50
  -2   1   4  278.17   10.70
  -2   1   4  272.77   11.00
   2   1  -4  262.47   13.00
  -1  -1   4  263.47   11.30
   1  -1  -4  242.68   11.50
   1   1  -4  224.68   11.60
  -1   1   4  255.17   10.40
   0  -1  -4 6003.70  202.88
  -1  -1  -4  848.42   31.60
  -1  -1  -4  851.31   32.70
  -1   1  -4  763.72   31.80
  -1   1  -4  819.82   31.30
  -2  -1  -4   69.59    5.20
  -2  -1  -4   82.29    6.70
  -2  -1  -4   76.49    6.00
   2  -1   4   77.49    4.00
  -2   1  -4   79.89    5.80
  -2   1  -4   75.19    6.20
   2   1   4   68.69    3.80
   3  -1   4  113.69    6.40
  -3  -1  -4  113.29    8.10
  -3  -1  -4  119.09    9.40
   3  -1   4  116.39    5.80
   3   1   4  105.29    5.40
  -3   1  -4  104.39    8.20
   3   1   4  111.59    6.30
  -3   1  -4  100.49    7.50
   3   1   4  107.59    5.50
  -4  -1  -4   28.80    2.80
   4  -1   4   30.50    2.80
  -4  -1  -4   28.70    4.20
   4  -1   4   35.20    3.40
   4  -1   4   28.70    2.90
   4   1   4   38.00    3.50
  -4   1  -4   36.50    3.50
  -4   1  -4   39.40    2.90
   4   1   4   39.30    3.60
   4   1   4   38.10    3.00
   4   1   4   34.20    2.80
  -4   1  -4   28.10    4.10
  -4   1  -4   22.50    5.30
  -5  -1  -4   43.00    4.40
   5  -1   4   47.50    3.40
  -5  -1  -4   45.80    3.50
   5  -1   4   46.90    3.80
   5  -1   4   48.70    3.40
  -5  -1  -4   63.29    7.50
  -5   1  -4   45.90    3.90
   5   1   4   46.90    3.20
   5   1   4   50.39    3.40
  -5   1  -4   48.70    3.60
  -5   1  -4   47.70    4.00
  -5   1  -4   43.00    5.90
   5   1   4   53.29    4.10
   5   1   4   44.60    4.20
  -6  -1  -4  149.99    7.70
  -6  -1  -4  158.58    6.90
   6  -1   4  153.58    6.70
  -6  -1  -4  139.79    6.70
  -6  -1  -4  153.08    8.30
   6  -1   4  155.68    6.60
   6  -1   4  143.09    7.20
  -6   1  -4  152.38    6.80
  -6   1  -4  153.38    8.60
   6   1   4  155.68    7.50
  -6   1  -4  157.78    7.70
  -6   1  -4  142.09    6.60
   7  -1   4    3.50    1.00
   7   1   4    4.50    0.60
   8  -2  -4   68.99    3.30
  -8  -2   4   61.39    3.40
  -8  -2   4   68.39    3.60
   8  -2  -4   69.49    3.10
  -8  -2   4   66.49    3.40
  -8   2   4   61.79    3.50
   8   2  -4   65.89    3.30
  -8   2   4   55.89    3.30
  -8   2   4   66.49    4.10
   8   2  -4   74.99    3.80
  -8   2   4   62.39    4.00
  -8   2   4   66.49    3.60
  -7  -2   4   66.49    4.30
  -7  -2   4   71.09    4.60
  -7  -2   4   69.99    3.70
  -7  -2   4   68.19    4.50
   7  -2  -4   73.39    4.20
  -7  -2   4   68.19    4.20
   7  -2  -4   71.89    4.10
  -7  -2   4   66.79    4.50
   7   2  -4   73.19    4.40
  -7   2   4   71.89    4.30
  -7   2   4   68.19    4.30
  -7   2   4   71.69    5.30
   7   2  -4   70.59    4.30
  -7   2   4   65.99    4.50
   7   2  -4   71.09    4.70
  -7   2   4   72.29    4.70
  -7   2   4   70.89    5.30
  -6  -2   4  137.89    7.20
  -6  -2   4  133.59    7.60
  -6  -2   4  141.69    7.60
  -6  -2   4  150.58    7.90
   6  -2  -4  133.89    7.00
   6  -2  -4  134.99    7.10
  -6  -2   4  144.29    7.60
  -6  -2   4  142.59    6.90
  -6   2   4  137.19    7.50
   6   2  -4  151.18    7.70
  -6   2   4  141.09    7.30
  -6   2   4  151.58    7.60
   6   2  -4  148.29    8.30
   6   2  -4  154.78    7.70
  -6   2   4  149.09    8.00
  -6   2   4  147.19    7.60
  -6   2   4  149.09    8.30
  -6   2   4  147.59    8.80
  -5  -2   4   95.99    5.60
  -5  -2   4   88.79    5.50
  -5  -2   4  102.69    6.10
  -5  -2   4  108.19    6.10
  -5  -2   4  101.99    5.20
   5  -2  -4   91.59    5.40
  -5   2   4  100.89    5.70
   5   2  -4  105.19    6.00
   5   2  -4   97.89    5.80
  -5   2   4  100.59    6.60
  -5   2   4   95.99    5.90
   5   2  -4  106.39    6.60
  -5   2   4  104.19    6.20
  -5   2   4   96.39    6.00
  -5   2   4  101.99    5.70
  -5   2   4   94.99    5.60
  -5   2   4  105.59    5.30
  -5   2   4  100.99    5.80
   4  -2  -4  619.74   25.40
  -4  -2   4  665.23   27.60
  -4  -2   4  675.03   25.50
  -4   2   4  727.23   24.60
  -4   2   4  717.13   25.60
   4   2  -4  656.03   25.40
  -4   2   4  701.83   25.50
  -4   2   4  672.63   25.10
  -4   2   4  700.83   25.20
  -4   2   4  689.03   25.60
  -4   2   4  691.03   25.90
  -3  -2   4 1223.38   42.50
   3  -2  -4 1146.79   43.40
  -3  -2   4 1221.88   44.90
   3   2  -4 1203.38   42.40
   3   2  -4 1258.97   45.90
   2  -2  -4  445.56   17.70
  -2  -2   4  432.26   16.40
  -2  -2   4  451.75   18.50
   2   2  -4  415.76   17.30
   2   2  -4  443.06   19.10
  -1  -2   4  689.53   27.40
   1  -2  -4  723.63   27.50
   1   2  -4  715.23   28.10
  -1   2   4  722.83   25.30
   1   2  -4  728.33   27.10
   0  -2  -4  438.66   19.00
   0   2  -4  450.45   19.20
   0   2  -4  457.75   18.20
  -1  -2  -4  214.68   13.00
  -1  -2  -4  236.28   11.10
  -1  -2  -4  225.38   12.00
  -1   2  -4  211.68   11.50
  -1   2  -4  227.88   11.00
   2  -2   4  359.56   13.50
  -2  -2  -4  339.37   17.70
  -2  -2  -4  359.76   16.20
  -2  -2  -4  342.57   16.20
  -2   2  -4  355.66   16.80
  -2   2  -4  338.07   16.60
   3  -2   4   63.89    3.90
  -3  -2  -4   53.19    5.00
   3  -2   4   63.09    5.30
  -3  -2  -4   57.89    5.10
  -3  -2  -4   79.59    7.10
  -3  -2  -4   56.59    5.50
  -3   2  -4   53.59    5.60
   3   2   4   62.69    4.30
   3   2   4   55.69    3.40
   3   2   4   60.39    4.50
  -3   2  -4   57.69    5.20
  -3   2  -4   58.49    4.40
  -4  -2  -4  129.49    9.50
  -4  -2  -4  141.19   11.10
   4  -2   4  127.39    7.50
   4  -2   4  121.29    6.30
   4  -2   4  126.89    6.30
   4   2   4  109.49    5.80
  -4   2  -4  117.49    6.30
  -4   2  -4  113.69    7.90
   4   2   4  114.29    7.40
  -4   2  -4  119.09    6.30
  -4   2  -4  114.99    6.20
   4   2   4  111.89    6.00
  -4   2  -4  118.99    8.00
   4   2   4  124.49    7.10
  -4   2  -4  117.79   10.50
  -5  -2  -4  121.09    9.00
  -5  -2  -4  113.59    6.20
   5  -2   4  116.59    7.10
   5  -2   4  111.39    5.80
   5  -2   4  112.19    5.90
  -5   2  -4  105.99    5.70
   5   2   4  108.59    5.50
  -5   2  -4  117.59    7.10
   5   2   4  117.19    6.70
  -5   2  -4  111.59    6.00
   5   2   4  108.39    6.60
  -5   2  -4  111.19    6.10
  -5   2  -4  115.09    7.40
  -6  -2  -4   16.10    2.90
   6  -2   4   16.50    1.80
  -6  -2  -4   13.90    1.90
  -6  -2  -4   16.70    1.90
   6  -2   4   14.60    1.70
  -6  -2  -4   16.10    1.60
   6  -2   4   17.00    1.60
   6   2   4   17.80    2.20
  -6   2  -4   15.50    1.40
  -6   2  -4   18.60    3.30
  -6   2  -4   14.90    1.90
  -6   2  -4   15.00    1.60
   6   2   4   15.00    1.80
  -7   2  -4   17.60    1.00
  -8  -3   4    1.30    0.50
   8  -3  -4    2.30    0.80
  -8  -3   4    3.10    0.70
  -8   3   4    2.30    0.70
   8   3  -4    2.90    0.60
  -8   3   4    2.20    0.70
  -8   3   4    2.70    1.00
  -8   3   4    3.60    1.10
   7  -3  -4   17.70    1.80
  -7  -3   4   16.00    1.80
  -7  -3   4   13.20    1.40
  -7  -3   4   17.00    1.90
   7  -3  -4   16.50    1.80
  -7  -3   4   16.20    1.80
   7   3  -4   14.80    1.80
  -7   3   4   17.10    2.40
   7   3  -4   16.40    1.90
  -7   3   4   20.50    1.90
  -7   3   4   16.20    2.10
  -7   3   4   16.50    3.00
   7   3  -4   15.90    1.90
  -7   3   4   16.60    1.90
  -7   3   4   15.20    1.70
   6  -3  -4   41.30    3.10
  -6  -3   4   38.10    3.60
  -6  -3   4   37.40    3.10
  -6  -3   4   43.80    2.90
  -6  -3   4   43.40    4.90
  -6  -3   4   44.80    3.30
  -6  -3   4   39.50    3.30
  -6   3   4   39.10    3.30
  -6   3   4   42.00    4.10
   6   3  -4   41.10    3.90
  -6   3   4   30.00    3.10
  -6   3   4   37.70    3.30
  -6   3   4   38.20    3.80
   6   3  -4   39.50    3.30
  -6   3   4   34.40    3.30
   6   3  -4   37.10    3.20
  -6   3   4   40.60    3.70
  -6   3   4   38.60    3.30
   5  -3  -4  466.05   18.70
  -5  -3   4  453.65   22.60
  -5  -3   4  504.95   19.70
  -5  -3   4  492.05   20.10
  -5  -3   4  505.15   18.70
  -5  -3   4  499.05   19.30
  -5   3   4  509.25   20.10
  -5   3   4  502.05   19.70
  -5   3   4  516.05   19.70
  -5   3   4  478.35   20.30
  -5   3   4  512.55   19.00
  -5   3   4  492.45   18.30
   5   3  -4  514.45   21.10
   5   3  -4  500.25   19.80
   5   3  -4  483.45   19.60
  -5   3   4  513.05   19.90
  -5   3   4  490.75   19.60
  -5   3   4  515.45   19.90
  -5   3   4  510.65   20.20
  -4  -3   4  739.23   27.90
  -4  -3   4  739.83   30.80
  -4  -3   4  748.73   29.30
  -4   3   4  707.73   27.70
  -4   3   4  745.33   27.40
  -4   3   4  762.72   27.60
  -4   3   4  778.72   27.50
  -4   3   4  732.83   30.60
  -4   3   4  766.42   27.80
   4   3  -4  713.43   28.90
   4   3  -4  745.43   27.60
  -4   3   4  739.53   27.60
  -4   3   4  757.52   26.70
  -4   3   4  749.33   27.70
  -4   3   4  726.83   27.70
  -3  -3   4   65.49    4.70
  -3  -3   4   62.39    5.20
   3  -3  -4   76.99    4.50
  -3  -3   4   81.69    6.00
   3   3  -4   68.19    4.20
  -3   3   4   70.89    5.80
   3   3  -4   65.79    6.10
   2  -3  -4   60.29    4.20
  -2  -3   4   54.69    4.70
  -2  -3   4   57.99    3.60
   2   3  -4   56.89    5.00
   2   3  -4   55.89    3.50
  -1  -3   4  853.21   32.80
   1  -3  -4  836.22   32.10
   1   3  -4  852.91   31.50
   1   3  -4  886.71   33.40
   0  -3  -4  422.46   19.00
   0   3  -4  461.25   18.30
   0   3  -4  484.35   19.90
  -1  -3  -4  447.56   20.30
   1  -3   4  435.66   16.30
  -1  -3  -4  416.26   18.50
  -1  -3  -4  437.26   19.20
  -1   3  -4  449.76   19.20
  -1   3  -4  451.95   18.40
  -2  -3  -4 1268.17   48.20
  -2  -3  -4 1293.97   50.29
  -2  -3  -4 1265.47   47.70
   2  -3   4 1270.27   44.40
  -2   3  -4 1296.07   47.00
  -2   3  -4 1303.17   47.70
  -3  -3  -4   53.79    5.60
  -3  -3  -4   59.39    5.30
   3  -3   4   59.79    4.20
  -3  -3  -4   57.89    5.40
   3  -3   4   57.99    3.70
   3  -3   4   56.29    3.60
  -3  -3  -4   70.99    6.80
  -3   3  -4   51.09    5.60
  -3   3  -4   64.69    8.30
   3   3   4   51.79    4.30
  -3   3  -4   59.89    4.20
  -3   3  -4   56.49    3.60
   3   3   4   56.19    4.20
  -3   3  -4   51.49    4.00
  -3   3  -4   56.09    4.60
  -3   3  -4   51.69    5.30
   4  -3   4  141.09    8.30
  -4  -3  -4  142.39   12.00
  -4  -3  -4  131.89    9.80
   4  -3   4  145.29    7.20
   4  -3   4  154.68    8.00
   4   3   4  135.79    8.00
  -4   3  -4  151.28    8.20
   4   3   4  148.49    8.10
  -4   3  -4  151.28    7.70
  -4   3  -4  160.08    7.50
  -4   3  -4  152.28    9.80
  -4   3  -4  149.29    8.40
  -4   3  -4  140.39    7.00
  -4   3  -4  147.19   12.00
   5  -3   4  126.69    6.40
   5  -3   4  133.69    6.90
  -5  -3  -4  123.09    6.50
  -5  -3  -4  125.59    9.30
  -5   3  -4  118.79    6.50
  -5   3  -4  119.89    6.30
  -5   3  -4  117.39    6.00
   5   3   4  126.79    7.10
  -5   3  -4  129.39    8.60
   5   3   4  121.09    7.00
  -5   3  -4  115.59    6.10
  -5   3  -4  120.69    6.40
  -5   3  -4  124.39    7.20
   6  -3   4   68.29    3.50
   6  -3   4   60.69    3.60
  -6  -3  -4   64.29    4.10
  -6  -3  -4   61.59    5.00
  -6  -3  -4   61.59    3.50
  -6  -3  -4   64.29    3.40
   6  -3   4   67.19    3.60
  -6   3  -4   62.39    3.50
  -6   3  -4   60.89    3.90
  -6   3  -4   63.59    4.70
   6   3   4   62.89    3.80
   6   3   4   50.89    3.60
  -6   3  -4   56.19    3.20
  -8  -4   4   42.70    2.20
  -8  -4   4   39.30    2.10
  -8   4   4   36.60    2.90
  -8   4   4   41.60    2.50
   8   4  -4   42.80    2.70
  -8   4   4   40.30    2.80
  -7  -4   4   11.00    1.40
   7  -4  -4   12.10    1.50
  -7  -4   4   14.70    1.40
  -7  -4   4   15.30    1.70
  -7  -4   4   12.00    1.40
  -7  -4   4   14.70    2.70
   7   4  -4   13.40    1.60
  -7   4   4   12.60    1.70
  -7   4   4   12.30    1.90
  -7   4   4   11.70    1.70
   7   4  -4   12.70    1.80
  -7   4   4   13.20    1.50
  -7   4   4   10.40    2.40
  -7   4   4    9.70    2.10
  -6  -4   4  133.59    6.00
  -6  -4   4  123.79    6.50
  -6  -4   4  127.69    7.50
  -6  -4   4  121.89    6.30
   6  -4  -4  132.19    6.20
  -6  -4   4  124.99    8.80
  -6   4   4  123.49    5.60
  -6   4   4  124.89    6.70
  -6   4   4  122.19    6.90
  -6   4   4  125.49    8.10
  -6   4   4  124.29    6.60
  -6   4   4  112.99    8.10
  -6   4   4  124.29    7.30
   6   4  -4  128.79    6.70
  -6   4   4  123.29    9.30
  -5  -4   4  165.38    9.00
  -5  -4   4  155.78   11.60
  -5  -4   4  163.28    8.10
  -5  -4   4  172.68    7.50
  -5   4   4  161.38    8.90
  -5   4   4  178.38    8.50
  -5   4   4  167.98    9.60
  -5   4   4  176.48    8.60
  -5   4   4  166.48    8.40
  -5   4   4  170.18    8.00
  -5   4   4  170.48    9.20
   5   4  -4  163.78    8.30
  -5   4   4  169.28    9.00
  -5   4   4  166.48    8.50
  -5   4   4  166.08    7.40
   5   4  -4  164.48    8.30
   5   4  -4  162.18    9.40
  -5   4   4  175.58    9.00
  -4  -4   4   42.10    3.50
  -4  -4   4   37.10    4.00
  -4   4   4   43.30    2.90
  -4   4   4   47.20    3.40
  -4   4   4   39.80    3.70
  -4   4   4   42.80    3.50
  -4   4   4   39.90    3.50
   4   4  -4   42.20    3.20
  -4   4   4   40.10    3.30
  -4   4   4   41.10    3.30
  -4   4   4   40.80    3.50
  -4   4   4   49.20    5.20
  -4   4   4   42.30    3.50
  -4   4   4   40.60    3.30
  -4   4   4   44.50    3.80
  -4   4   4   36.00    3.60
  -4   4   4   45.80    3.30
   4   4  -4   40.30    4.00
   4   4  -4   38.20    3.30
   4   4  -4   33.20    4.30
  -3  -4   4  654.73   25.40
  -3  -4   4  663.53   27.80
  -3  -4   4  664.03   24.70
  -3  -4   4  651.73   24.80
   3   4  -4  610.64   23.80
  -3   4   4  639.94   27.60
  -2  -4   4   64.89    5.60
  -2  -4   4   59.89    4.00
  -2  -4   4   60.69    4.00
   2  -4  -4   59.99    4.30
  -2  -4   4   64.09    4.40
  -2   4   4   74.09    6.00
   2   4  -4   61.29    5.50
   2   4  -4   58.09    3.90
   2   4  -4   57.49    3.70
   1  -4  -4  692.63   27.40
  -1  -4   4  713.63   25.70
  -1  -4   4  723.43   28.70
  -1  -4   4  692.13   26.00
   1   4  -4  721.73   28.90
   1   4  -4  739.73   27.00
   0  -4  -4  338.27   15.40
   0  -4   4  313.37   12.60
   0   4  -4  337.07   15.30
   0   4  -4  327.77   14.10
  -1  -4  -4    7.50    2.80
   1  -4   4    9.40    1.40
  -1  -4  -4   12.80    3.00
  -1  -4  -4   12.00    2.80
  -1   4  -4    9.40    2.30
  -1   4  -4    8.00    1.80
  -2  -4  -4  277.17   15.80
   2  -4   4  276.77   11.30
  -2  -4  -4  268.97   14.30
  -2  -4  -4  283.97   14.80
  -2  -4  -4  261.17   13.70
  -2   4  -4  269.67   12.80
  -2   4  -4  315.17   16.60
   2   4   4  275.97   12.20
  -2   4  -4  285.47   16.70
  -2   4  -4  292.97   13.50
  -3  -4  -4 2423.76   92.09
   3  -4   4 2596.34   85.29
   3  -4   4 2472.35   84.39
  -3  -4  -4 2349.17   88.19
  -3  -4  -4 2520.35   88.49
  -3  -4  -4 2329.67   88.49
  -3   4  -4 2474.05   85.79
  -3   4  -4 2592.34   89.29
  -3   4  -4 2474.75   86.09
   3   4   4 2454.15   85.79
  -3   4  -4 2462.55   85.59
  -3   4  -4 2414.06   92.19
  -3   4  -4 2473.95   84.29
   3   4   4 2621.04   85.59
  -4  -4  -4    7.40    2.20
  -4  -4  -4    5.30    2.10
   4  -4   4   10.10    2.10
   4  -4   4    6.60    1.60
  -4   4  -4   11.30    2.50
  -4   4  -4    9.10    1.90
  -4   4  -4   11.10    1.80
   4   4   4    6.60    1.80
  -4   4  -4    6.10    1.40
  -4   4  -4    6.00    2.10
  -4   4  -4    3.90    1.70
   4   4   4    6.50    1.80
  -5  -4  -4   39.50    5.00
   5  -4   4   41.70    3.20
   5  -4   4   41.60    3.10
   5  -4   4   39.40    2.90
   5   4   4   38.20    3.30
  -5   4  -4   39.90    2.70
  -5   4  -4   40.00    3.50
  -5   4  -4   42.90    4.50
  -5   4  -4   44.30    3.40
  -5   4  -4   38.30    3.00
   5   4   4   35.10    3.30
  -5   4  -4   39.60    2.90
   6  -4   4   13.30    1.30
  -6  -4  -4   12.60    1.20
  -6  -4  -4   17.00    2.80
  -6  -4  -4   12.20    1.20
   6  -4   4   14.40    1.50
  -6  -4  -4   13.10    1.50
   6  -4   4   11.50    1.30
   6   4   4   11.60    1.40
  -6   4  -4   12.30    1.20
   6   4   4   13.30    1.70
  -6   4  -4   11.30    1.40
  -6   4  -4   11.20    1.80
  -7  -5   4    5.90    1.10
  -7  -5   4    7.20    1.70
  -7  -5   4    6.30    1.10
  -7  -5   4    5.20    1.10
  -7   5   4    9.40    1.30
  -7   5   4    7.20    1.10
   7   5  -4    5.20    1.30
  -7   5   4    5.70    1.20
  -7   5   4    6.20    1.30
  -7   5   4    3.80    1.40
  -7   5   4    6.00    1.80
  -6  -5   4  302.77   12.20
  -6  -5   4  273.27   11.50
  -6  -5   4  266.57   11.30
   6  -5  -4  278.27   11.00
  -6  -5   4  281.67   13.00
   6   5  -4  274.07   12.90
  -6   5   4  262.27   13.20
  -6   5   4  272.07   12.30
  -6   5   4  266.47   10.70
   6   5  -4  273.07   13.10
  -6   5   4  284.97   12.90
  -6   5   4  277.07   11.70
   6   5  -4  280.57   11.50
  -6   5   4  281.07   12.60
  -6   5   4  266.07   11.90
  -6   5   4  275.17   12.80
   6   5  -4  277.27   11.40
  -6   5   4  265.17   13.80
  -5  -5   4   21.10    1.80
  -5  -5   4   17.00    2.60
  -5   5   4   17.60    2.60
  -5   5   4   18.30    2.30
  -5   5   4   18.80    2.30
   5   5  -4   18.20    2.30
  -5   5   4   17.50    2.30
   5   5  -4   20.90    3.20
   5   5  -4   18.50    2.20
  -5   5   4   14.50    3.30
  -5   5   4   21.30    2.60
  -5   5   4   17.80    2.30
  -5   5   4   20.00    2.40
  -5   5   4   18.40    3.00
   5   5  -4   17.50    2.60
  -5   5   4   16.90    2.10
  -5   5   4   18.70    2.80
  -5   5   4   14.80    2.50
  -5   5   4   17.80    1.80
  -5   5   4   15.70    3.00
  -4  -5   4   25.00    4.90
  -4  -5   4   22.20    2.80
  -4  -5   4   23.90    2.60
  -4  -5   4   24.80    3.10
   4   5  -4   26.30    2.50
  -4   5   4   25.20    2.80
  -4   5   4   24.60    2.60
  -4   5   4   26.30    2.80
  -4   5   4   26.00    2.80
  -4   5   4   22.10    2.10
   4   5  -4   22.60    2.30
  -4   5   4   26.00    2.30
  -4   5   4   23.20    2.50
  -4   5   4   20.00    2.90
  -4   5   4   23.90    3.00
  -4   5   4   26.20    2.90
  -4   5   4   25.90    2.90
   4   5  -4   24.80    3.00
  -4   5   4   24.70    2.60
   4   5  -4   30.00    3.80
  -4   5   4   19.00    4.30
  -4   5   4   25.20    2.60
  -4   5   4   24.80    2.80
  -3  -5   4    5.70    2.10
  -3  -5   4    2.90    1.50
  -3  -5   4    4.30    1.40
  -3  -5   4    4.70    1.30
  -3  -5   4    4.90    1.40
  -3  -5   4    2.00    1.00
  -3   5   4    4.30    1.00
   3   5  -4    3.30    1.30
  -3   5   4    7.20    2.70
  -3   5   4    6.60    1.30
  -3   5   4    4.70    1.30
  -3   5   4    4.90    1.40
  -3   5   4    6.80    1.60
   3   5  -4    6.10    2.50
  -3   5   4    6.70    1.60
  -3   5   4    6.10    1.10
  -3   5   4    3.70    1.10
  -3   5   4    4.60    1.10
   3   5  -4    3.30    1.00
  -3   5   4    4.50    1.00
  -3   5   4    6.50    1.10
  -3   5   4    4.10    0.90
  -2  -5   4   74.99    6.60
  -2  -5   4   77.59    4.80
  -2  -5   4   76.29    5.30
  -2  -5   4   78.09    4.80
   2   5  -4   80.29    6.70
   2   5  -4   68.19    4.20
  -2   5   4   84.69    7.00
  -1  -5   4  905.01   33.90
  -1  -5   4  815.62   29.60
   1  -5  -4  697.43   35.10
  -1  -5   4  830.12   30.00
   1   5  -4  824.32   32.80
   1   5  -4  857.91   32.00
   0  -5  -4 2016.50   71.89
   0  -5  -4 1981.40   72.69
   0  -5   4 1990.40   69.09
   0  -5   4 2032.90   73.19
   0   5  -4 2059.69   72.39
   0   5  -4 2047.30   73.59
   0   5  -4 2057.99   70.69
  -1  -5  -4   64.69    6.00
   1  -5   4   63.89    3.90
  -1  -5  -4   70.29    5.70
  -1  -5  -4   67.09    5.90
  -1   5  -4   69.39    4.70
  -1   5  -4   74.09    5.50
  -1   5  -4   78.59    6.90
   2  -5   4 1809.02   61.49
  -2  -5  -4 1759.02   67.59
   2  -5   4 1758.62   60.79
  -2  -5  -4 1673.53   64.19
  -2  -5  -4 1735.83   64.59
  -2  -5  -4 1780.22   65.69
  -2   5  -4 1802.02   61.99
   2   5   4 1887.81   61.29
  -2   5  -4 1703.93   61.59
  -2   5  -4 1741.53   62.29
   2   5   4 1751.32   59.89
  -2   5  -4 1755.62   65.89
  -2   5  -4 1767.02   60.59
  -2   5  -4 1745.93   67.69
   2   5   4 1747.73   61.89
  -2   5  -4 1795.52   62.29
  -2   5  -4 1840.92   64.19
  -2   5  -4 1751.62   61.99
   3  -5   4  125.39    6.90
  -3  -5  -4  141.29   11.40
   3  -5   4  129.49    6.60
   3  -5   4  137.49    6.70
  -3  -5  -4  125.89    8.90
  -3  -5  -4  129.89    9.40
  -3  -5  -4  125.09    9.20
   3   5   4  124.99    7.50
  -3   5  -4  135.89    9.80
  -3   5  -4  138.29    7.20
   3   5   4  131.59    7.10
  -3   5  -4  129.79    7.60
  -3   5  -4  138.19    7.60
  -3   5  -4  140.79    7.20
  -3   5  -4  143.49    6.70
   3   5   4  125.89    5.80
  -3   5  -4  140.19    9.10
  -3   5  -4  135.19   11.10
   4  -5   4   28.70    2.50
  -4  -5  -4   18.60    4.40
  -4  -5  -4   27.30    3.90
   4  -5   4   29.40    2.60
   4  -5   4   32.40    2.90
  -4  -5  -4   30.00    4.00
   4   5   4   30.10    1.90
  -4   5  -4   25.40    2.90
   4   5   4   26.90    2.70
  -4   5  -4   26.40    2.90
  -4   5  -4   24.90    4.70
  -4   5  -4   33.50    4.10
  -4   5  -4   35.20    3.30
  -4   5  -4   30.00    2.50
  -4   5  -4   25.20    2.00
   4   5   4   25.60    3.00
  -5  -5  -4   62.79    6.60
   5  -5   4   71.19    4.30
   5  -5   4   74.99    4.30
   5  -5   4   71.69    4.20
  -5   5  -4   75.59    5.80
  -5   5  -4   73.29    4.10
   5   5   4   74.19    4.90
   5   5   4   67.39    4.30
  -5   5  -4   73.29    5.90
   5   5   4   73.29    3.30
  -5   5  -4   75.89    4.70
  -5   5  -4   75.09    4.90
   6  -5   4  418.66   14.50
  -6  -5  -4  358.06   14.20
   6  -5   4  422.36   14.30
  -6  -5  -4  404.56   15.60
   6  -5   4  334.57   14.00
  -6  -5  -4  399.16   14.00
  -6   5  -4  399.66   14.90
  -6   5  -4  419.86   14.30
  -6   5  -4  419.96   16.00
   6   5   4  343.17   14.00
   6   5   4  406.66   15.00
  -7  -6   4   29.40    2.00
  -7  -6   4   29.60    2.10
  -7   6   4   25.50    2.90
  -7   6   4   24.60    2.30
  -7   6   4   25.60    2.30
  -7   6   4   24.60    1.90
   7   6  -4   24.70    2.10
  -7   6   4   26.60    2.70
  -7   6   4   22.30    2.00
  -6  -6   4   55.19    3.50
  -6  -6   4   66.19    4.30
  -6  -6   4   59.49    3.60
  -6  -6   4   64.79    5.00
  -6   6   4   63.59    4.60
  -6   6   4   58.69    4.20
  -6   6   4   67.09    4.70
  -6   6   4   66.19    4.30
  -6   6   4   62.59    5.10
  -6   6   4   69.09    5.40
  -6   6   4   68.89    3.50
   6   6  -4   62.89    4.70
  -6   6   4   65.49    4.80
   6   6  -4   65.39    4.70
  -5  -6   4  307.87   14.00
  -5  -6   4  298.57   11.50
   5   6  -4  293.77   14.00
  -5   6   4  303.27   12.50
  -5   6   4  291.17   14.30
  -5   6   4  292.27   14.50
  -5   6   4  310.17   14.00
  -5   6   4  279.57   13.00
   5   6  -4  284.47   14.50
  -5   6   4  279.17   12.70
  -5   6   4  310.47   13.60
  -5   6   4  319.67   13.90
  -5   6   4  300.97   13.10
  -5   6   4  293.67   13.10
  -5   6   4  307.97   12.20
   5   6  -4  281.17   11.90
  -5   6   4  275.47   12.40
  -5   6   4  298.47   13.80
  -5   6   4  297.77   11.90
   5   6  -4  281.07   11.90
  -5   6   4  309.27   13.70
  -4  -6   4  276.37   13.40
  -4  -6   4  288.97   17.00
  -4  -6   4  273.17   12.90
  -4  -6   4  282.47   12.50
  -4  -6   4  293.67   14.70
   4   6  -4  280.17   14.90
  -4   6   4  291.57   11.80
  -4   6   4  282.97   12.80
  -4   6   4  294.07   12.90
  -4   6   4  285.37   12.30
  -4   6   4  284.27   13.40
  -4   6   4  293.77   13.30
   4   6  -4  279.77   13.00
   4   6  -4  308.07   14.00
  -4   6   4  276.17   15.70
  -4   6   4  298.67   13.30
  -4   6   4  304.67   12.20
  -4   6   4  304.97   17.20
  -4   6   4  292.37   13.70
  -4   6   4  300.57   12.90
  -4   6   4  305.97   11.90
  -4   6   4  286.57   12.90
  -4   6   4  289.47   12.70
   4   6  -4  274.17   11.70
  -3  -6   4  153.18    8.70
  -3  -6   4  162.28   11.60
  -3  -6   4  165.38    8.70
  -3  -6   4  148.59    8.00
  -3  -6   4  162.58    9.40
  -3  -6   4  167.68    8.60
  -3   6   4  160.08    8.20
  -3   6   4  176.98    9.40
  -3   6   4  164.68    8.30
  -3   6   4  160.18    7.20
  -3   6   4  166.48    7.50
  -3   6   4  166.98    8.80
  -3   6   4  162.08    8.20
   3   6  -4  172.48    9.20
  -3   6   4  161.98    8.10
  -3   6   4  158.68    7.70
  -3   6   4  170.78    8.70
  -3   6   4  150.48    7.80
  -3   6   4  171.18    8.40
  -3   6   4  163.88    7.40
  -3   6   4  168.08   11.70
  -3   6   4  171.68    8.40
   3   6  -4  154.88    7.20
   3   6  -4  163.88   10.10
  -2  -6   4  219.08   11.10
  -2  -6   4  208.78   12.90
  -2  -6   4  213.68   10.10
  -2  -6   4  217.68   13.20
  -2   6   4  202.78   10.80
  -2   6   4  207.58    9.50
   2   6  -4  218.38   10.60
  -2   6   4  211.68    9.80
  -2   6   4  203.68    9.50
  -2   6   4  197.08    9.70
   2   6  -4  204.18   12.90
  -2   6   4  205.28    9.50
  -2   6   4  230.68   10.40
  -2   6   4  206.18    9.20
  -2   6   4  211.68    8.80
  -2   6   4  216.38    9.30
  -2   6   4  226.08    9.90
  -2   6   4  210.68    9.00
  -2   6   4  212.68   13.10
  -1  -6   4  183.98   11.90
  -1  -6   4  209.58    9.50
  -1  -6   4  196.48    9.60
  -1  -6   4  193.08    8.90
  -1  -6   4  177.68    8.50
  -1   6   4  194.38    9.10
  -1   6   4  207.08    8.60
  -1   6   4  200.28    8.50
   1   6  -4  177.48   10.70
   1   6  -4  191.08   11.40
  -1   6   4  199.08    8.00
  -1   6   4  198.68    8.90
   1   6  -4  201.68   10.80
  -1   6   4  186.08    8.70
   0  -6  -4   81.19    6.50
   0  -6   4   52.19    5.50
   0  -6   4   61.19    3.90
   0  -6  -4   58.39    4.90
   0  -6   4   66.79    4.20
   0  -6   4   72.09    5.50
   0  -6   4   60.59    4.30
   0   6  -4   61.99    5.70
   0   6  -4   69.69    5.60
   0   6   4   62.19    3.90
   0   6   4   60.79    3.70
   0   6   4   61.99    3.30
   0   6   4   60.49    3.90
   0   6   4   58.09    4.20
   0   6  -4   69.19    6.20
  -1  -6  -4   65.79    5.70
   1  -6   4   60.09    3.80
  -1  -6  -4   55.99    5.30
   1  -6   4   58.39    4.20
   1  -6   4   60.89    5.80
  -1  -6  -4   56.19    6.30
   1  -6   4   48.90    3.50
   1   6   4   63.79    3.90
  -1   6  -4   61.49    4.60
  -1   6  -4   64.49    4.70
  -1   6  -4   56.19    4.40
   1   6   4   61.79    3.70
  -1   6  -4   64.89    4.30
   1   6   4   58.49    4.50
   1   6   4   59.69    3.80
  -1   6  -4   56.99    4.20
  -1   6  -4   62.99    5.10
   1   6   4   54.89    4.30
  -1   6  -4   61.49    6.50
   1   6   4   60.09    3.20
   2  -6   4   14.00    1.80
   2  -6   4   15.90    1.90
  -2  -6  -4   22.70    3.20
  -2  -6  -4   17.60    3.20
  -2  -6  -4    7.00    3.40
  -2  -6  -4   17.60    3.80
   2  -6   4   12.60    1.90
   2   6   4   15.40    1.50
  -2   6  -4   19.80    3.00
  -2   6  -4   20.00    2.40
  -2   6  -4   19.10    2.50
  -2   6  -4   22.50    4.80
   2   6   4   17.30    1.80
  -2   6  -4   24.30    2.40
   2   6   4   16.70    2.30
  -2   6  -4   21.30    1.70
  -2   6  -4   18.20    2.30
   2   6   4   18.20    1.50
  -3  -6  -4 1903.91   77.79
  -3  -6  -4 1982.00   73.59
   3  -6   4 1943.61   68.89
  -3  -6  -4 1964.00   73.59
   3  -6   4 1966.40   68.99
  -3  -6  -4 2039.40   74.29
   3  -6   4 1981.80   69.39
   3   6   4 1990.40   67.89
  -3   6  -4 2054.19   69.79
  -3   6  -4 1955.30   70.79
   3   6   4 1926.81   70.19
   3   6   4 2137.19   69.19
  -3   6  -4 2056.49   70.59
  -3   6  -4 2050.59   68.69
  -3   6  -4 2132.59   71.19
  -3   6  -4 1869.41   77.19
  -3   6  -4 2105.29   73.39
   4  -6   4  121.99    6.20
  -4  -6  -4  128.49    9.20
   4  -6   4  119.29    6.30
  -4  -6  -4  124.59    7.90
   4  -6   4  128.69    6.50
  -4   6  -4  124.19   10.20
  -4   6  -4  123.99    6.10
  -4   6  -4  128.99    7.30
   4   6   4  118.49    5.40
   4   6   4  122.29    6.30
  -4   6  -4  122.99    7.00
  -4   6  -4  123.29    7.10
   5  -6   4   79.09    4.30
  -5  -6  -4   70.69    6.50
   5  -6   4   70.29    4.00
   5  -6   4   74.89    4.00
  -5   6  -4   74.59    4.70
   5   6   4   78.69    4.80
   5   6   4   66.19    3.90
   5   6   4   75.69    3.70
  -5   6  -4   73.79    4.60
  -5   6  -4   82.39    4.10
  -5   6  -4   72.29    4.10
   5   6   4   76.09    3.30
  -6  -6  -4   50.09    2.60
  -6  -6  -4   43.40    2.40
   6  -6   4   52.39    2.50
  -6   6  -4   48.50    2.70
  -6   6  -4   49.10    2.40
   6   6   4   54.49    2.90
  -6   6  -4   50.39    3.30
   6   6   4   50.19    2.50
  -7  -7   4    2.20    0.50
  -7  -7   4    3.00    0.50
  -7   7   4    2.20    0.90
  -7   7   4    2.20    0.60
  -7   7   4    1.60    0.60
   7   7  -4    2.40    0.60
  -7   7   4    2.20    1.00
  -6  -7   4   74.59    4.20
  -6  -7   4   65.59    4.20
  -6  -7   4   75.29    5.10
  -6   7   4   70.49    3.60
  -6   7   4   72.59    4.80
  -6   7   4   73.29    5.70
   6   7  -4   71.59    4.90
   6   7  -4   67.39    4.50
  -6   7   4   71.79    4.80
  -6   7   4   63.79    4.10
  -6   7   4   66.59    5.20
  -6   7   4   73.39    5.10
  -5  -7   4  193.38    8.10
  -5  -7   4  202.98   10.50
  -5   7   4  194.28    9.20
  -5   7   4  196.68   10.80
  -5   7   4  195.98    8.80
  -5   7   4  208.98    9.80
  -5   7   4  189.18    8.90
  -5   7   4  227.08    8.90
   5   7  -4  192.18   10.10
  -5   7   4  191.58    9.60
  -5   7   4  198.78   10.70
  -5   7   4  215.78   10.30
  -5   7   4  196.38   10.20
   5   7  -4  202.38   10.90
  -5   7   4  205.88   10.50
  -5   7   4  203.78    9.20
  -5   7   4  210.38   10.20
  -5   7   4  187.98   10.80
  -4  -7   4  352.16   16.10
  -4  -7   4  347.27   14.90
  -4  -7   4  359.86   17.40
  -4   7   4  374.66   15.30
  -4   7   4  326.57   14.20
  -4   7   4  368.16   14.30
  -4   7   4  371.96   16.00
  -4   7   4  374.56   15.90
  -4   7   4  340.17   15.70
  -4   7   4  343.77   14.40
   4   7  -4  362.96   15.90
  -4   7   4  364.86   15.80
  -4   7   4  361.86   16.30
  -4   7   4  345.27   14.90
  -4   7   4  366.06   16.50
  -4   7   4  341.97   15.00
  -4   7   4  335.57   14.80
  -4   7   4  365.36   15.30
   4   7  -4  346.17   17.00
  -4   7   4  348.27   14.00
  -4   7   4  348.87   15.30
  -4   7   4  369.56   14.50
  -3  -7   4  395.36   17.30
  -3  -7   4  403.86   17.90
  -3  -7   4  432.66   20.50
  -3  -7   4  420.36   19.00
  -3  -7   4  391.96   17.90
  -3  -7   4  412.36   22.30
  -3   7   4  446.46   18.20
  -3   7   4  416.56   22.20
  -3   7   4  398.86   18.40
  -3   7   4  414.56   17.90
  -3   7   4  437.56   16.40
  -3   7   4  417.66   16.30
  -3   7   4  469.35   16.60
  -3   7   4  423.46   17.80
  -3   7   4  417.46   17.20
  -3   7   4  426.86   17.60
  -3   7   4  389.26   16.40
  -3   7   4  445.96   17.50
  -3   7   4  410.56   16.90
   3   7  -4  421.66   17.90
  -3   7   4  402.96   17.50
  -3   7   4  438.86   17.50
  -3   7   4  401.96   17.10
  -2  -7   4   38.90    3.40
  -2  -7   4   43.40    3.90
  -2  -7   4   41.50    5.30
  -2  -7   4   42.00    4.20
  -2  -7   4   39.30    3.60
  -2  -7   4   46.00    3.80
  -2   7   4   45.10    4.00
  -2   7   4   44.30    3.00
  -2   7   4   44.50    3.20
  -2   7   4   46.90    3.60
  -2   7   4   45.60    3.70
  -2   7   4   45.80    3.90
  -2   7   4   50.09    3.80
  -2   7   4   45.10    3.50
  -2   7   4   46.20    2.90
  -2   7   4   45.00    3.50
   2   7  -4   45.60    4.80
  -2   7   4   46.00    4.50
  -2   7   4   48.00    3.70
   2   7  -4   46.40    3.90
  -2   7   4   46.10    3.30
  -2   7   4   45.40    4.00
   1  -7  -4  141.89    7.50
  -1  -7   4  156.48   11.60
  -1  -7   4  131.89    7.00
  -1  -7   4  128.59    7.20
  -1  -7   4  138.99    7.50
  -1  -7   4  142.79    7.60
  -1   7   4  139.19    7.20
   1   7  -4  131.49    7.40
  -1   7   4  145.39    7.50
  -1   7   4  136.09    7.00
  -1   7   4  138.79    7.20
  -1   7   4  137.79    6.30
  -1   7   4  140.79    8.60
  -1   7   4  142.89    7.10
  -1   7   4  142.69    6.80
   1   7  -4  134.49    7.50
  -1   7   4  141.39    6.30
   1   7  -4  134.49    9.00
   1   7  -4  141.49    7.50
   1   7  -4  151.28    9.30
   0  -7   4   75.29    6.50
   0  -7   4   59.09    4.40
   0  -7   4   64.39    4.30
   0  -7   4   59.69    4.40
   0  -7  -4   66.89    6.90
   0  -7   4   56.19    3.90
   0  -7  -4   58.79    5.10
   0   7   4   65.29    3.50
   0   7  -4   65.39    4.70
   0   7   4   68.29    4.00
   0   7  -4   55.19    5.50
   0   7   4   72.49    4.80
   0   7   4   66.99    3.60
   0   7   4   72.09    4.40
   0   7  -4   60.29    6.00
   0   7  -4   61.29    5.80
   0   7   4   49.40    4.80
   0   7  -4   57.69    4.30
   0   7   4   60.59    4.00
  -1  -7  -4   48.20    5.10
  -1  -7  -4   56.89    5.70
   1  -7   4   44.30    3.40
   1  -7   4   45.90    5.50
   1  -7   4   48.20    3.90
   1  -7   4   48.10    3.50
   1   7   4   50.89    3.00
   1   7   4   51.79    4.30
  -1   7  -4   51.59    4.10
  -1   7  -4   50.69    5.00
  -1   7  -4   53.19    4.40
  -1   7  -4   53.49    4.30
   1   7   4   50.89    2.90
  -1   7  -4   43.10    5.90
  -1   7  -4   52.29    4.30
   1   7   4   49.80    3.40
  -1   7  -4   49.20    4.70
   1   7   4   48.20    3.60
   1   7   4   53.19    3.70
   1   7   4   51.49    3.60
   2  -7   4  113.39    6.20
   2  -7   4  109.49    8.70
  -2  -7  -4  120.19    9.30
   2  -7   4  131.39   10.40
  -2  -7  -4  134.99    8.90
  -2  -7  -4  111.39    8.40
  -2  -7  -4   96.19    9.90
   2  -7   4  115.09    6.20
   2   7   4  119.39    6.30
   2   7   4  115.79    5.50
  -2   7  -4  125.79    7.60
  -2   7  -4  123.59    8.50
  -2   7  -4  112.99    7.70
  -2   7  -4  122.79    7.10
  -2   7  -4  122.59    7.10
  -2   7  -4  123.49    7.40
  -2   7  -4  132.99    6.40
   2   7   4  113.79    6.70
  -2   7  -4  123.19   10.20
   2   7   4  117.49    6.20
  -3  -7  -4  179.38   11.40
   3  -7   4  169.48    8.10
   3  -7   4  183.48    8.70
   3  -7   4  175.48    8.40
  -3  -7  -4  175.58   11.70
  -3  -7  -4  190.38   11.70
   3   7   4  178.98    7.50
  -3   7  -4  192.28    8.10
  -3   7  -4  193.58    9.50
  -3   7  -4  194.28    9.70
  -3   7  -4  168.08   10.70
   3   7   4  177.58    8.30
   3   7   4  169.98    7.90
  -3   7  -4  183.98    9.70
  -3   7  -4  171.28    9.20
   3   7   4  176.78    9.20
  -3   7  -4  175.38    8.80
  -4  -7  -4   35.50    4.70
   4  -7   4   36.80    2.90
  -4  -7  -4   35.70    5.30
  -4  -7  -4   31.60    3.90
   4  -7   4   33.10    2.60
   4  -7   4   34.00    2.70
   4   7   4   32.40    2.10
  -4   7  -4   32.70    2.40
   4   7   4   34.30    2.70
   4   7   4   35.00    3.20
  -4   7  -4   34.50    3.20
  -4   7  -4   35.10    3.10
  -4   7  -4   32.70    2.90
  -4   7  -4   34.60    4.00
  -5  -7  -4   -3.60    1.50
   5  -7   4    0.20    0.30
   5  -7   4    0.70    0.60
   5  -7   4    0.30    0.70
   5   7   4    0.70    0.40
  -5   7  -4    0.80    0.70
  -5   7  -4   -0.70    0.50
  -5   7  -4    0.70    0.70
   5   7   4    1.30    0.30
  -5   7  -4    0.60    0.30
   5   7   4    0.20    0.60
  -5   7  -4    0.70    0.60
   5   7   4   -0.20    0.30
  -6  -8   4   87.49    4.30
  -6  -8   4   94.99    5.50
  -6   8   4   85.89    4.60
  -6   8   4   85.59    3.90
   6   8  -4   81.39    4.40
  -6   8   4   79.89    5.40
   6   8  -4   95.49    5.10
  -6   8   4   81.09    5.40
  -6   8   4   84.09    5.10
  -6   8   4   79.29    5.00
  -5  -8   4  164.38    9.10
  -5  -8   4  172.48    7.10
  -5   8   4  139.79    8.40
  -5   8   4  155.68    9.00
  -5   8   4  165.08    9.30
  -5   8   4  172.58    7.30
  -5   8   4  168.38    8.60
  -5   8   4  176.38    8.00
  -5   8   4  173.68    9.10
  -5   8   4  146.49    7.00
  -5   8   4  182.48    9.30
   5   8  -4  164.98    8.10
  -5   8   4  160.48    8.10
  -5   8   4  160.88    7.40
  -5   8   4  164.98    8.80
  -5   8   4  166.58    8.70
   5   8  -4  167.78    9.20
  -4  -8   4   14.30    3.10
  -4  -8   4   12.60    2.60
  -4  -8   4   17.70    2.50
  -4   8   4   18.10    2.80
  -4   8   4   13.70    1.70
  -4   8   4   17.70    2.50
  -4   8   4   12.50    1.90
  -4   8   4   15.50    3.00
  -4   8   4   13.40    3.00
  -4   8   4   19.10    2.60
  -4   8   4   12.50    2.00
  -4   8   4   15.70    2.10
  -4   8   4   12.50    2.10
  -4   8   4   15.80    2.50
  -4   8   4    9.90    2.10
  -4   8   4   14.60    2.20
   4   8  -4   14.20    2.60
  -4   8   4   11.30    2.30
  -4   8   4   16.30    2.60
  -4   8   4   16.70    1.90
  -3  -8   4  296.37   13.70
  -3  -8   4  299.07   14.60
  -3  -8   4  330.87   14.40
  -3  -8   4  318.07   15.60
  -3  -8   4  316.17   14.60
  -3   8   4  327.07   14.20
  -3   8   4  313.27   12.70
   3   8  -4  308.17   13.80
  -3   8   4  316.97   14.60
  -3   8   4  316.27   14.10
  -3   8   4  306.57   13.50
   3   8  -4  321.57   15.90
  -3   8   4  304.87   13.30
  -3   8   4  298.97   12.90
  -3   8   4  331.37   12.50
  -3   8   4  305.07   14.20
   3   8  -4  295.17   13.30
  -3   8   4  306.97   13.50
  -3   8   4  292.57   13.40
  -3   8   4  298.07   14.80
  -3   8   4  317.67   12.90
  -3   8   4  328.47   14.00
  -2  -8   4  540.95   22.40
  -2  -8   4  536.35   22.40
  -2  -8   4  583.54   23.80
  -2  -8   4  536.25   21.70
  -2  -8   4  530.95   22.10
  -2  -8   4  513.65   26.60
  -2   8   4  534.75   20.90
  -2   8   4  563.94   21.90
  -2   8   4  562.04   22.10
   2   8  -4  560.34   24.20
  -2   8   4  536.65   21.40
   2   8  -4  546.55   22.00
  -2   8   4  567.74   21.00
  -2   8   4  577.84   20.50
  -2   8   4  527.95   20.30
  -2   8   4  547.95   23.40
  -2   8   4  558.74   22.80
  -2   8   4  561.34   21.60
  -2   8   4  543.65   23.60
  -2   8   4  550.84   22.00
  -2   8   4  569.74   21.90
   2   8  -4  553.24   21.50
   1  -8  -4  117.29    7.00
  -1  -8   4  117.79    9.60
  -1  -8   4  115.89    7.00
  -1  -8   4  113.79    6.40
  -1  -8   4  116.69    6.90
  -1  -8   4  119.99    6.90
   1   8  -4  120.29    6.60
   1   8  -4  111.29    7.10
   1   8  -4  114.59    8.30
   1   8  -4  120.49    7.10
  -1   8   4  113.89    6.60
  -1   8   4  113.29    5.60
  -1   8   4  114.89    6.30
  -1   8   4  122.59    8.10
  -1   8   4  119.39    6.50
  -1   8   4  114.69    5.60
  -1   8   4  108.29    6.40
  -1   8   4  116.19    6.00
   0  -8  -4   19.40    3.70
   0  -8   4   23.50    2.60
   0  -8   4   23.90    2.50
   0  -8   4   25.00    2.70
   0  -8   4   18.00    4.90
   0  -8  -4   26.30    3.50
   0   8   4   24.20    2.50
   0   8  -4   26.10    3.30
   0   8   4   24.90    2.80
   0   8  -4   24.50    4.10
   0   8   4   27.30    2.30
   0   8   4   27.80    2.50
   0   8  -4   24.30    3.30
   0   8   4   24.40    2.40
   0   8   4   28.80    3.50
   0   8   4   24.00    1.90
   0   8  -4   27.30    4.90
   0   8  -4   25.40    2.70
   0   8  -4   22.00    2.70
   1  -8   4   73.09    5.10
  -1  -8  -4   79.49    6.50
   1  -8   4   75.59    4.70
  -1  -8  -4   79.79    7.10
  -1  -8  -4   73.59   13.80
   1  -8   4   77.69    5.00
   1  -8   4   73.89    8.70
  -1   8  -4   97.99   11.30
   1   8   4   85.89    5.10
   1   8   4   85.09    4.90
  -1   8  -4   83.69    5.80
  -1   8  -4   88.79    6.00
  -1   8  -4   80.49    5.70
   1   8   4   87.59    5.90
  -1   8  -4   72.89    6.20
   1   8   4   82.59    4.90
  -1   8  -4   79.29    6.20
   1   8   4   84.69    4.30
   1   8   4   81.39    4.80
   2  -8   4  194.38    9.00
   2  -8   4  188.78    9.10
  -2  -8  -4  207.48   13.00
   2  -8   4  182.08    9.40
  -2  -8  -4  207.18   12.10
  -2   8  -4  198.28   10.80
  -2   8  -4  211.28   10.30
  -2   8  -4  205.98   10.20
  -2   8  -4  197.38    8.40
   2   8   4  199.98    9.50
  -2   8  -4  180.98    9.70
   2   8   4  213.18    9.40
  -2   8  -4  203.98   10.50
   2   8   4  186.88    9.00
  -2   8  -4  194.08   11.30
   2   8   4  210.88    8.40
   2   8   4  205.98    9.10
  -3  -8  -4   25.30    4.50
   3  -8   4   27.80    2.50
   3  -8   4   29.50    2.50
  -3  -8  -4   27.90    3.90
  -3  -8  -4   35.80    5.50
   3  -8   4   26.20    2.40
  -3   8  -4   25.80    3.00
   3   8   4   23.00    2.10
  -3   8  -4   27.30    2.60
   3   8   4   24.70    2.30
   3   8   4   22.50    1.80
  -3   8  -4   25.20    3.40
  -3   8  -4   29.00    2.80
   3   8   4   27.30    2.80
   3   8   4   25.50    2.30
  -3   8  -4   27.50    2.90
  -4  -8  -4   48.00    6.50
   4  -8   4   52.29    3.30
  -4  -8  -4   44.30    5.50
   4  -8   4   48.50    3.10
   4  -8   4   46.90    3.20
  -4   8  -4   48.20    3.70
  -4   8  -4   52.09    3.80
  -4   8  -4   49.99    4.60
  -4   8  -4   48.30    3.60
   4   8   4   52.49    3.20
   4   8   4   52.79    3.70
   4   8   4   50.49    3.00
   4   8   4   53.99    3.30
  -4   8  -4   46.90    3.80
   5  -8   4    1.00    0.40
   5  -8   4    0.80    0.60
  -5   8  -4    1.10    0.70
  -5   8  -4    0.90    0.70
  -5   8  -4    1.30    0.40
   5   8   4    1.00    0.60
   5   8   4    1.30    0.40
   5   8   4    2.00    0.50
  -6  -9   4    6.80    0.80
   6   9  -4    6.50    1.10
   6   9  -4    6.50    0.70
  -5  -9   4  142.19    7.60
   5   9  -4  135.39    5.30
  -5   9   4  137.19    6.70
  -5   9   4  105.79    6.80
  -5   9   4  140.39    7.50
  -5   9   4  136.39    6.00
  -5   9   4  105.99    6.70
  -5   9   4  145.29    7.40
   5   9  -4  110.09    5.60
   5   9  -4  148.49    7.50
  -5   9   4  132.49    7.40
  -4  -9   4   74.89    5.90
  -4  -9   4   64.59    4.90
  -4   9   4   64.19    4.10
  -4   9   4   67.49    4.90
  -4   9   4   61.09    4.40
   4   9  -4   65.19    5.30
  -4   9   4   71.09    5.00
  -4   9   4   61.59    4.00
  -4   9   4   59.29    4.60
  -4   9   4   60.39    4.10
  -4   9   4   66.29    4.00
  -4   9   4   65.69    5.00
   4   9  -4   61.59    3.10
  -4   9   4   65.29    4.10
  -4   9   4   64.59    4.90
  -4   9   4   59.49    4.40
   4   9  -4   61.09    3.90
  -4   9   4   65.39    4.10
  -4   9   4   61.59    4.90
  -3  -9   4  246.38   12.50
  -3  -9   4  252.07   11.80
  -3  -9   4  259.37   13.60
  -3  -9   4  235.08   12.00
  -3  -9   4  244.08   11.50
  -3   9   4  248.48   10.20
  -3   9   4  249.68   14.00
  -3   9   4  260.47   12.50
   3   9  -4  249.18    9.40
  -3   9   4  271.27   12.60
   3   9  -4  253.57   13.10
  -3   9   4  214.28   10.60
   3   9  -4  232.68   10.60
  -3   9   4  261.57   12.00
  -3   9   4  245.98   11.40
  -3   9   4  251.37   10.80
  -3   9   4  251.27   11.30
  -3   9   4  247.48   13.10
  -3   9   4  253.67   11.80
   3   9  -4  246.48   11.00
  -3   9   4  249.28   12.80
  -3   9   4  207.08   13.70
  -3   9   4  254.07   10.70
  -2  -9   4  117.19    6.90
  -2  -9   4  119.59    7.90
  -2  -9   4  111.19    6.50
  -2  -9   4  108.19    6.90
  -2  -9   4  120.19    7.10
   2   9  -4  114.99    7.80
  -2   9   4  101.49    5.80
  -2   9   4  107.99    6.20
  -2   9   4  106.09    5.50
   2   9  -4  111.19    6.70
  -2   9   4   99.29    6.40
  -2   9   4  108.69    6.50
  -2   9   4  112.09    7.60
  -2   9   4  111.29    6.40
  -2   9   4  109.59    7.00
  -2   9   4  109.39    6.30
  -2   9   4  109.69    5.50
  -1  -9   4  123.79    8.20
   1  -9  -4  130.89    7.70
  -1  -9   4  124.99    7.50
  -1  -9   4  119.59    7.50
  -1  -9   4  123.99    6.90
  -1  -9   4  127.89    7.40
   1   9  -4  125.09    8.20
   1   9  -4  122.49    7.50
  -1   9   4  128.19    6.50
  -1   9   4  124.09    7.00
  -1   9   4  131.19    7.40
   1   9  -4  129.69    7.60
   1   9  -4  122.69    6.90
  -1   9   4  128.29    7.00
  -1   9   4  123.79    5.80
  -1   9   4  126.09    6.00
  -1   9   4  125.39    6.80
  -1   9   4  135.59    8.90
   0  -9   4  737.73   28.50
   0  -9   4  744.73   28.50
   0  -9  -4  738.43   29.80
   0  -9  -4  783.62   30.90
   0  -9   4  745.93   28.00
   0   9  -4  744.43   29.00
   0   9   4  753.42   26.90
   0   9   4  765.32   27.50
   0   9   4  747.63   27.80
   0   9  -4  756.62   29.30
   0   9   4  765.22   26.50
   0   9   4  770.22   28.20
   0   9  -4  734.63   29.60
   0   9  -4  678.13   29.70
   0   9   4  768.42   27.90
   0   9   4  767.42   28.70
   0   9  -4  733.93   28.70
  -1  -9  -4   11.10    3.10
   1  -9   4   10.00    1.60
   1  -9   4   10.30    1.80
  -1  -9  -4    9.40    2.60
   1  -9   4   10.70    2.10
   1   9   4   10.00    1.50
   1   9   4    9.30    1.50
   1   9   4    9.50    1.20
   1   9   4   10.80    2.60
  -1   9  -4    9.50    2.00
   1   9   4   10.20    1.60
   1   9   4   10.00    1.40
  -1   9  -4    9.50    2.10
  -1   9  -4    9.80    1.90
  -1   9  -4    7.30    2.00
  -1   9  -4   10.10    1.80
  -2  -9  -4    4.90    1.70
   2  -9   4    6.30    1.30
  -2  -9  -4    4.00    2.10
   2  -9   4    5.30    1.20
   2  -9   4    8.20    1.40
  -2   9  -4    8.40    1.70
   2   9   4    6.70    1.10
   2   9   4    7.30    1.00
  -2   9  -4    6.80    0.90
   2   9   4    5.20    1.30
   2   9   4    5.20    0.80
   2   9   4    4.50    1.10
  -2   9  -4    4.60    1.50
  -2   9  -4    5.20    1.50
  -2   9  -4    5.50    1.70
  -3  -9  -4   12.20    2.70
   3  -9   4   12.90    1.80
  -3  -9  -4    9.00    2.90
   3  -9   4   12.50    1.50
   3  -9   4   10.50    1.50
   3   9   4   13.60    1.80
  -3   9  -4   13.10    1.90
   3   9   4   12.00    1.60
  -3   9  -4   12.40    2.40
   3   9   4   13.30    1.50
  -3   9  -4   14.90    1.90
   3   9   4   13.40    1.50
   3   9   4   12.00    1.20
  -3   9  -4   12.50    2.20
  -3   9  -4   11.90    1.60
   4  -9   4   12.90    1.40
  -4  -9  -4   12.40    2.00
   4  -9   4   13.20    1.60
   4   9   4   15.30    1.10
   4   9   4   15.80    1.40
  -4   9  -4   16.70    2.20
  -4   9  -4   16.20    1.70
   4   9   4   17.10    1.70
  -4   9  -4   14.10    1.20
  -4   9  -4   16.80    1.70
   4   9   4   14.20    1.40
   5   9   4   36.40    1.80
  -5   9  -4   29.30    2.40
   5  10  -4   45.20    3.20
  -4 -10   4  151.28    8.40
  -4 -10   4  148.59    8.00
  -4  10   4  133.79    7.20
  -4  10   4  155.48    7.70
  -4  10   4  152.18    6.80
  -4  10   4  134.69    6.50
   4  10  -4  125.29    6.00
   4  10  -4  157.88    8.10
  -4  10   4  157.48    6.60
  -4  10   4  152.08    7.80
  -4  10   4  128.49    6.50
  -3 -10   4  314.47   13.70
  -3 -10   4  327.57   16.50
  -3 -10   4  336.97   15.30
  -3 -10   4  322.57   14.60
  -3  10   4  335.67   13.40
  -3  10   4  333.97   14.00
  -3  10   4  317.47   12.50
  -3  10   4  311.17   12.50
  -3  10   4  298.47   12.50
   3  10  -4  307.37   14.00
  -3  10   4  319.27   13.90
  -3  10   4  322.67   14.60
  -3  10   4  326.97   13.30
   3  10  -4  317.27   14.80
  -3  10   4  327.67   13.50
  -2 -10   4  132.39    8.40
  -2 -10   4  129.39    7.20
  -2 -10   4  131.19    8.00
  -2 -10   4  128.19    7.40
  -2 -10   4  134.29    7.80
  -2  10   4  124.89    7.10
  -2  10   4  126.59    6.30
  -2  10   4  121.39    7.00
  -2  10   4  131.89    6.10
   2  10  -4  116.79    6.90
  -2  10   4  131.19    6.70
   2  10  -4  133.49    8.00
  -2  10   4  124.79    6.80
  -2  10   4  134.19    8.40
  -2  10   4  139.79    7.40
  -2  10   4  126.69    6.00
   1 -10  -4   33.70    4.20
  -1 -10   4   25.40    2.60
  -1 -10   4   24.20    3.00
  -1 -10   4   26.50    3.40
  -1 -10   4   26.80    4.30
  -1  10   4   27.10    2.80
  -1  10   4   27.30    2.80
  -1  10   4   20.30    2.00
  -1  10   4   28.50    4.00
   1  10  -4   22.40    2.60
  -1  10   4   23.40    3.30
   1  10  -4   23.40    3.00
   1  10  -4   20.40    2.30
   1  10  -4   20.80    2.40
  -1  10   4   20.90    2.10
  -1  10   4   21.40    2.30
   0 -10   4   11.50    1.90
   0 -10   4   12.20    1.90
   0 -10   4   15.00    2.20
   0 -10  -4   11.00    2.50
   0 -10  -4   12.50    2.90
   0  10  -4   13.10    1.90
   0  10  -4   14.20    2.20
   0  10   4   15.60    2.10
   0  10   4   15.30    1.80
   0  10   4   13.90    1.70
   0  10  -4   12.40    2.10
   0  10   4   10.90    2.10
   0  10   4   17.30    2.70
   0  10   4   12.90    1.40
   0  10  -4   10.70    1.60
   0  10  -4   10.40    2.00
   1 -10   4   14.00    2.00
   1 -10   4   12.90    1.70
   1 -10   4   12.40    1.80
  -1 -10  -4   11.40    2.70
  -1 -10  -4   10.60    2.90
  -1  10  -4   12.90    2.00
  -1  10  -4   14.60    2.10
   1  10   4   10.30    1.50
   1  10   4   11.70    1.70
  -1  10  -4   15.20    2.20
   1  10   4   12.40    1.50
  -1  10  -4   13.80    2.00
   1  10   4   12.90    1.40
   2 -10   4  247.58   10.50
   2 -10   4  253.87   10.90
  -2 -10  -4  257.67   14.00
  -2 -10  -4  260.87   13.40
   2  10   4  246.58    9.80
   2  10   4  245.68   10.50
   2  10   4  244.18    9.70
  -2  10  -4  250.37   12.40
  -2  10  -4  264.57   11.70
   2  10   4  257.77   10.40
   2  10   4  256.17   10.40
  -2  10  -4  235.58   11.20
  -2  10  -4  242.78   11.20
  -3 -10  -4  100.79    6.90
  -3 -10  -4  105.79    6.80
   3 -10   4  101.59    4.90
   3 -10   4  106.99    5.60
   3  10   4   98.79    4.90
  -3  10  -4   97.29    5.00
   3  10   4  101.49    4.60
   3  10   4   88.99    4.40
  -3  10  -4  101.69    5.50
  -3  10  -4   92.99    5.30
   3  10   4   99.99    4.40
   3  10   4  102.09    4.70
  -3  10  -4   95.79    6.20
   4 -10   4    4.30    0.80
   4  10   4    3.80    0.60
   4  10   4    5.50    0.50
  -4  10  -4    4.10    0.80
  -4  10  -4    3.30    0.70
  -4  10  -4    3.20    0.90
   4  10   4    4.90    0.60
  -5 -11   4   27.10    1.50
   5  11  -4   28.50    1.70
   5  11  -4   25.20    1.50
   4  11  -4   51.89    3.10
   4  11  -4   52.59    3.50
  -4  11   4   51.49    3.80
  -4  11   4   48.30    2.80
  -3 -11   4    4.60    2.00
  -3 -11   4    6.80    1.60
  -3 -11   4    4.30    1.20
  -3  11   4    8.70    1.90
  -3  11   4    6.40    1.60
  -3  11   4    8.00    1.50
   3  11  -4    5.40    1.50
  -3  11   4    4.80    1.40
  -2 -11   4   17.20    2.40
  -2 -11   4   16.60    2.60
  -2 -11   4   15.10    2.10
  -2 -11   4   12.80    1.80
  -2  11   4   14.90    1.80
  -2  11   4   19.10    2.40
  -2  11   4   14.00    1.80
  -2  11   4   14.40    1.50
   2  11  -4   13.20    1.60
  -2  11   4   11.40    1.40
   2  11  -4   16.00    2.10
  -2  11   4    8.20    1.80
  -2  11   4   17.70    2.50
   2  11  -4   13.70    2.10
  -1 -11   4  100.49    5.70
   1 -11  -4   96.09    6.80
  -1 -11   4  103.99    6.20
   1 -11  -4  100.49    8.00
  -1 -11   4  101.29    6.70
  -1 -11   4   96.89    5.80
   1  11  -4   93.59    5.70
  -1  11   4  102.09    6.00
  -1  11   4   96.19    5.00
  -1  11   4   93.69    5.50
   1  11  -4   95.79    5.00
   1  11  -4   95.79    5.40
  -1  11   4   99.29    5.60
  -1  11   4   91.29    5.00
  -1  11   4   93.29    4.70
   0 -11   4  165.88    8.10
   0 -11   4  149.19    8.50
   0 -11  -4  162.48    9.40
   0 -11   4  155.78    7.60
   0 -11   4  155.68    7.50
   0  11   4  148.69    6.90
   0  11   4  158.88    7.60
   0  11   4  150.28    6.60
   0  11  -4  150.88    7.80
   0  11   4  130.69    7.00
   0  11   4  152.58    7.00
   0  11   4  152.08    7.90
   0  11  -4  141.09    7.50
   0  11  -4  148.09    8.10
   1 -11   4   20.60    1.90
  -1 -11  -4   21.20    3.10
   1 -11   4   22.00    2.30
   1 -11   4   20.50    2.10
  -1 -11  -4   17.40    3.50
   1 -11   4   20.40    2.50
   1  11   4   21.80    2.10
  -1  11  -4   20.50    2.50
   1  11   4   19.80    1.60
   1  11   4   18.50    1.70
  -1  11  -4   19.80    2.10
  -1  11  -4   18.90    2.20
   1  11   4   20.90    1.80
  -2 -11  -4   30.20    3.60
  -2 -11  -4   26.80    6.00
   2 -11   4   30.50    2.30
   2 -11   4   29.20    3.10
   2  11   4   29.90    2.00
  -2  11  -4   29.90    2.40
   2  11   4   30.90    1.90
   2  11   4   28.60    2.10
  -2  11  -4   30.60    2.60
  -2  11  -4   30.30    2.50
   2  11   4   27.40    2.10
  -2  11  -4   27.30    2.80
   3 -11   4   21.30    1.60
   3 -11   4   24.20    1.90
   3  11   4   23.10    1.50
  -3  11  -4   23.30    2.00
  -3  11  -4   18.50    2.00
  -3  11  -4   20.80    1.60
   3  11   4   21.90    1.30
  -3  11  -4   19.00    1.50
   4  12  -4   92.69    3.80
  -3 -12   4   19.90    2.00
  -3  12   4   18.60    2.40
   3  12  -4   13.60    1.20
   3  12  -4   13.60    1.30
  -3  12   4   14.00    1.50
  -2 -12   4   30.60    2.80
  -2 -12   4   32.40    3.30
  -2 -12   4   34.60    2.60
  -2  12   4   25.00    2.30
   2  12  -4   27.30    1.90
  -2  12   4   31.30    2.30
   2  12  -4   30.30    2.10
  -2  12   4   36.40    3.00
  -2  12   4   32.10    2.10
  -2  12   4   33.60    3.00
   1 -12  -4  120.89    7.30
  -1 -12   4  163.58    7.70
  -1 -12   4  144.49    7.50
  -1  12   4  151.08    5.90
   1  12  -4  122.19    5.70
  -1  12   4  157.78    7.00
  -1  12   4  122.29    6.60
   1  12  -4  147.49    6.60
  -1  12   4  142.99    6.10
   1  12  -4  131.29    5.70
  -1  12   4  139.69    6.50
  -1  12   4  144.59    6.50
   0 -12  -4   15.80    2.90
   0 -12   4   20.30    2.30
   0 -12   4   22.90    2.30
   0 -12  -4   19.90    2.80
   0 -12   4   21.70    1.80
   0 -12   4   22.40    2.10
   0  12  -4   21.50    2.00
   0  12   4   21.00    1.50
   0  12  -4   18.10    1.60
   0  12   4   20.30    1.60
   0  12   4   19.40    1.80
   0  12   4   18.20    1.50
  -1 -12  -4    9.00    2.10
   1 -12   4    9.20    1.60
   1 -12   4    4.60    1.30
   1 -12   4    8.70    1.70
  -1 -12  -4    8.10    2.20
   1 -12   4    9.40    1.40
  -1  12  -4    6.20    1.10
   1  12   4    6.00    1.10
   1  12   4    7.60    1.00
  -1  12  -4    8.50    1.20
   1  12   4    7.80    0.90
   1  12   4    8.30    0.90
  -1  12  -4    7.80    1.10
   2 -12   4    5.10    1.00
   2 -12   4    4.10    1.40
  -2 -12  -4    3.10    1.30
  -2  12  -4    4.90    1.20
   2  12   4    4.80    0.60
  -2  12  -4    4.00    0.70
  -2  12  -4    4.50    0.80
   2  12   4    5.80    0.60
   2  12   4    5.50    0.70
  -2  13   4   23.10    1.60
  -1  13   4   22.40    1.60
  -1  13   4   25.60    1.50
   0 -13   4   90.19    3.90
   0  13   4   74.59    3.20
   0  13  -4   71.59    3.50
   0  13   4   75.49    3.60
   1 -13   4    0.70    0.60
  -1  13  -4    0.30    0.30
   1  13   4    0.40    0.20
   1  13   4    0.50    0.40
  -8   0   5   14.50    1.40
  -8   0   5   18.00    1.70
   8   0  -5   18.10    1.40
  -8   0   5   15.70    1.50
   8   0  -5   18.90    1.50
   7   0  -5   13.00    1.60
  -7   0   5   11.30    1.70
  -7   0   5    8.40    1.70
  -7   0   5   12.90    1.90
   7   0  -5    9.70    1.50
  -7   0   5    8.60    1.60
  -7   0   5    9.80    1.40
   7   0  -5   10.10    1.60
  -7   0   5    8.80    1.30
  -6   0   5  309.77   13.00
  -6   0   5  264.87   11.70
  -6   0   5  273.87   12.40
   6   0  -5  272.07   12.20
  -6   0   5  256.17   11.30
  -6   0   5  264.87   11.60
   6   0  -5  286.27   12.70
   6   0  -5  263.47   11.90
  -6   0   5  283.87   13.20
  -6   0   5  278.07   11.90
   5   0  -5   36.80    3.60
  -5   0   5   35.80    2.90
   5   0  -5   36.50    3.00
  -5   0   5   37.80    2.70
   5   0  -5   28.70    3.10
  -5   0   5   35.40    3.40
  -5   0   5   34.60    2.80
  -5   0   5   36.80    3.10
  -5   0   5   35.50    3.00
  -5   0   5   36.50    2.90
  -4   0   5 1040.10   39.60
  -4   0   5  929.01   38.60
   4   0  -5 1040.70   37.40
   4   0  -5 1072.39   41.50
  -4   0   5 1054.69   36.60
  -4   0   5 1058.99   36.80
  -4   0   5 1087.39   37.60
  -4   0   5 1039.60   36.90
  -3   0   5   55.39    3.30
   3   0  -5   60.09    5.10
   3   0  -5   56.29    3.90
  -3   0   5   54.39    3.90
   2   0  -5  258.87   11.10
   2   0  -5  257.57   13.00
  -2   0   5  260.47   11.80
  -2   0   5  265.17   10.50
  -1   0   5  356.16   15.00
   1   0  -5  341.27   16.20
   0   0  -5 3524.35  118.09
   0   0  -5 3379.66  116.39
   0   0  -5 3270.67  115.19
  -1   0  -5   15.90    3.10
  -1   0  -5   14.20    3.30
   1   0   5   15.30    1.60
  -2   0  -5  741.83   30.10
   2   0   5  747.23   26.50
  -2   0  -5  736.43   31.70
   2   0   5  727.03   26.00
   2   0   5  747.33   27.20
  -2   0  -5  662.13   26.70
   3   0   5  184.88    7.90
  -3   0  -5  180.88   12.50
   3   0   5  188.98    8.20
   3   0   5  179.28    9.30
  -3   0  -5  162.58   11.10
   3   0   5  169.78    8.90
   4   0   5  753.92   26.50
   4   0   5  741.63   26.60
  -4   0  -5  720.63   31.10
   4   0   5  715.53   28.10
  -4   0  -5  716.33   29.20
   4   0   5  775.42   28.10
  -4   0  -5  730.13   28.00
  -4   0  -5  671.83   26.50
   5   0   5    1.00    0.80
   5   0   5    0.90    0.70
   5   0   5    2.30    0.70
  -5   0  -5    3.80    0.80
  -5   0  -5    1.70    0.60
  -5   0  -5    0.00    0.70
   5   0   5    3.40    1.10
  -5   0  -5    3.40    1.50
  -6   0  -5  153.88    7.90
   6   0   5  151.98    6.80
  -6   0  -5  154.78    6.40
  -6   0  -5  138.99    6.50
  -8  -1   5   53.19    3.10
  -8  -1   5   49.10    2.90
   8  -1  -5   52.69    2.80
   8  -1  -5   55.49    2.70
  -8  -1   5   49.80    2.70
  -8   1   5   44.40    2.70
  -8   1   5   49.80    2.90
   8   1  -5   54.19    2.70
  -8   1   5   48.80    3.30
   8   1  -5   53.39    3.70
  -7  -1   5   77.59    5.00
  -7  -1   5   74.89    4.90
  -7  -1   5   72.49    6.20
  -7  -1   5   78.29    4.60
   7  -1  -5   81.59    4.50
  -7  -1   5   63.39    3.80
   7  -1  -5   76.39    4.30
  -7  -1   5   77.49    5.00
   7  -1  -5   75.59    4.40
   7   1  -5   79.59    4.60
  -7   1   5   69.99    5.10
  -7   1   5   76.49    5.40
  -7   1   5   80.69    5.00
  -7   1   5   82.49    4.60
   7   1  -5   83.09    4.60
   7   1  -5   76.89    4.70
  -7   1   5   78.89    4.50
  -7   1   5   68.99    4.00
   6  -1  -5   34.80    3.10
  -6  -1   5   37.00    2.90
  -6  -1   5   42.50    3.70
  -6  -1   5   36.00    3.20
   6  -1  -5   36.50    3.30
  -6  -1   5   37.60    3.00
   6  -1  -5   36.50    3.20
  -6  -1   5   39.90    3.00
  -6  -1   5   39.40    3.40
  -6   1   5   37.80    3.50
  -6   1   5   35.70    3.00
  -6   1   5   38.50    3.50
   6   1  -5   41.50    3.30
   6   1  -5   41.20    3.50
  -6   1   5   39.60    3.10
  -6   1   5   37.00    3.90
   6   1  -5   42.90    3.70
  -6   1   5   36.60    3.10
  -6   1   5   39.10    3.10
   5  -1  -5  453.65   18.80
   5  -1  -5  472.55   18.70
  -5  -1   5  472.15   18.40
   5  -1  -5  452.85   19.40
  -5  -1   5  485.05   18.40
  -5  -1   5  479.45   18.60
  -5  -1   5  482.75   18.90
  -5  -1   5  465.25   18.70
  -5  -1   5  496.25   19.50
  -5   1   5  483.65   18.40
  -5   1   5  479.65   18.50
  -5   1   5  509.45   20.00
  -5   1   5  471.85   17.90
  -5   1   5  474.95   18.70
   5   1  -5  465.15   19.10
  -5   1   5  506.55   19.40
  -5   1   5  479.75   19.10
   5   1  -5  476.75   20.20
   5   1  -5  448.56   19.00
  -5   1   5  490.85   18.80
  -5   1   5  486.25   19.20
   4  -1  -5    9.20    1.80
  -4  -1   5   13.10    1.80
  -4  -1   5   14.80    1.60
  -4  -1   5   15.80    2.70
  -4  -1   5   15.90    2.20
  -4  -1   5   10.10    1.40
  -4  -1   5   12.60    1.60
  -4  -1   5   10.90    1.50
   4  -1  -5   12.50    2.40
  -4   1   5   14.80    2.10
  -4   1   5   11.50    1.40
  -4   1   5   12.60    1.70
   4   1  -5   11.70    2.30
  -4   1   5    7.00    2.30
   4   1  -5   14.60    1.90
   4   1  -5   11.70    2.30
   4   1  -5   12.60    3.00
  -4   1   5    9.70    1.90
  -4   1   5   11.50    1.70
  -4   1   5   16.10    2.00
  -4   1   5   11.80    1.60
  -3  -1   5 1655.33   57.69
   3  -1  -5 1556.44   58.39
   3  -1  -5 1483.85   56.39
  -3   1   5 1664.63   54.79
   3   1  -5 1674.03   59.59
   3   1  -5 1614.24   55.89
  -2  -1   5  343.77   13.40
   2  -1  -5  345.47   15.50
  -2  -1   5  351.86   15.30
   2   1  -5  324.07   13.70
   2   1  -5  325.67   14.40
  -2   1   5  352.96   13.60
   2   1  -5  339.97   16.20
  -2   1   5  354.46   13.00
   1  -1  -5  352.66   16.70
  -1  -1   5  381.56   16.30
   1   1  -5  380.26   14.90
   1   1  -5  343.87   15.30
   1   1  -5  379.46   17.30
  -1   1   5  377.86   15.30
   0  -1  -5  208.18   10.50
   0  -1  -5  228.28   12.10
   0  -1  -5  212.48   10.90
   0   1  -5  213.78   11.80
   0   1  -5  229.68    9.80
   0   1  -5  202.88   10.50
  -1  -1  -5  111.59    6.80
  -1  -1  -5  114.69    7.40
  -1  -1  -5  123.59    8.60
  -1   1  -5  105.39    8.00
  -1   1  -5   99.09    5.60
  -1   1  -5  104.69    7.10
   2  -1   5  644.54   23.10
  -2  -1  -5  653.53   27.30
  -2  -1  -5  638.24   24.90
  -2  -1  -5  619.94   25.30
   2  -1   5  606.04   22.90
  -2  -1  -5  688.23   29.40
   2   1   5  629.74   24.00
  -2   1  -5  623.14   28.00
  -2   1  -5  648.84   26.90
   2   1   5  607.64   22.80
  -3  -1  -5  121.49   10.00
   3  -1   5  127.99    6.20
  -3  -1  -5  117.49    6.60
   3  -1   5  131.69    7.00
   3  -1   5  111.49    7.00
   3  -1   5  118.79    5.90
  -3  -1  -5  131.69    9.20
   3   1   5  125.39    6.90
  -3   1  -5  114.19    7.90
  -3   1  -5  113.49    6.60
  -3   1  -5   96.39    9.00
  -3   1  -5  114.29    8.60
   3   1   5  118.99    5.70
   3   1   5  119.99    7.10
   3   1   5  111.99    5.70
   4  -1   5   47.50    3.80
   4  -1   5   47.70    3.30
  -4  -1  -5   41.40    3.10
  -4  -1  -5   41.70    5.30
   4  -1   5   47.80    3.90
   4  -1   5   48.00    3.40
   4   1   5   46.50    3.00
   4   1   5   47.30    3.80
  -4   1  -5   36.90    4.70
   4   1   5   44.50    3.90
   4   1   5   44.10    3.10
  -4   1  -5   35.80    4.10
  -4   1  -5   39.30    3.70
   5  -1   5  105.69    5.20
   5  -1   5  107.79    5.30
  -5  -1  -5  101.29    7.60
  -5  -1  -5   94.89    5.00
  -5  -1  -5  103.69    6.00
  -5  -1  -5  109.09    5.70
   5  -1   5   94.69    5.70
   5   1   5  101.99    6.10
   5   1   5   92.19    5.70
  -5   1  -5  106.59    6.80
  -5   1  -5  102.99    5.50
  -5   1  -5   91.79    5.70
  -6  -1  -5   19.30    1.60
   6  -1   5   21.90    1.50
  -6  -1  -5   21.70    2.30
  -6   1  -5   20.30    1.80
  -6   1  -5   20.20    1.60
   6   1   5   21.70    1.90
  -6   1  -5   18.80    2.20
  -8  -2   5  104.19    4.70
  -8  -2   5   84.39    4.80
  -8  -2   5  105.39    4.50
   8  -2  -5  110.19    4.50
  -8   2   5   98.69    5.10
  -8   2   5   99.39    4.80
   8   2  -5   96.19    5.10
   8   2  -5  116.69    4.40
  -8   2   5   98.69    4.70
  -8   2   5  101.59    5.20
  -7  -2   5   11.20    1.80
  -7  -2   5   10.40    1.90
  -7  -2   5   12.10    1.60
  -7  -2   5   10.70    1.20
   7  -2  -5    9.50    1.50
  -7  -2   5   12.20    1.50
   7  -2  -5   13.40    1.60
  -7   2   5    8.90    1.90
   7   2  -5   13.90    1.70
   7   2  -5   10.40    1.60
  -7   2   5   11.10    2.00
  -7   2   5   13.30    2.00
   7   2  -5    9.90    1.50
  -7   2   5   11.90    1.60
  -7   2   5   10.30    1.40
  -7   2   5    8.50    1.70
  -7   2   5   11.70    1.90
  -6  -2   5  132.89    7.00
   6  -2  -5  121.09    6.60
  -6  -2   5  122.99    7.10
  -6  -2   5  123.89    6.30
  -6  -2   5  122.89    6.20
  -6  -2   5  123.69    6.50
  -6  -2   5  125.49    6.90
   6   2  -5  128.99    7.60
  -6   2   5  129.49    7.60
  -6   2   5  126.19    6.90
   6   2  -5  130.09    7.00
  -6   2   5  125.39    6.70
   6   2  -5  117.49    6.70
  -6   2   5  134.09    7.20
  -6   2   5  136.59    7.10
  -6   2   5  125.89    7.90
  -6   2   5  116.89    6.50
  -6   2   5  120.19    7.40
  -5  -2   5  731.23   26.90
   5  -2  -5  651.93   25.90
  -5  -2   5  693.33   26.50
  -5  -2   5  690.13   26.30
  -5  -2   5  654.63   27.10
  -5   2   5  706.33   26.10
  -5   2   5  686.13   26.00
  -5   2   5  709.83   26.30
  -5   2   5  741.33   28.30
  -5   2   5  699.43   26.70
   5   2  -5  698.03   26.70
   5   2  -5  725.73   31.00
  -5   2   5  738.83   27.80
  -5   2   5  721.53   26.90
  -5   2   5  676.33   26.70
  -5   2   5  708.73   25.60
  -5   2   5  716.73   26.70
   4  -2  -5  172.78    8.40
  -4  -2   5  178.88   10.50
  -4  -2   5  181.68    8.70
   4   2  -5  184.18    8.90
  -4   2   5  181.68    8.60
  -4   2   5  175.68    9.20
   4   2  -5  179.98    9.80
   4   2  -5  172.38    8.70
  -4   2   5  178.78    7.90
  -4   2   5  186.68    8.80
  -4   2   5  187.28    8.50
  -4   2   5  181.68    8.60
  -4   2   5  196.58    9.10
   4   2  -5  172.98   11.80
  -4   2   5  188.88    8.90
  -4   2   5  187.58    8.40
  -4   2   5  189.58    7.90
   3  -2  -5  768.42   30.30
  -3  -2   5  869.91   31.10
  -3  -2   5  886.41   33.10
   3  -2  -5  768.72   31.70
  -3  -2   5  843.52   30.20
   3   2  -5  874.81   34.40
   3   2  -5  821.62   30.30
  -2  -2   5 2324.77   80.19
   2  -2  -5 2274.47   79.59
  -2  -2   5 2323.37   77.29
   2   2  -5 2184.38   77.29
   2   2  -5 2462.25   85.89
   2   2  -5 2072.39   78.29
  -2   2   5 2225.08   76.09
  -1  -2   5  670.53   27.00
   1  -2  -5  678.23   27.20
   1   2  -5  691.93   28.10
   1   2  -5  664.43   24.80
   1   2  -5  649.04   25.90
  -1   2   5  691.23   24.80
   0  -2  -5  549.65   23.80
   0  -2   5  611.94   21.50
   0  -2  -5  596.44   25.50
   0   2  -5  578.14   22.00
   0   2  -5  602.64   23.70
   0   2  -5  628.34   25.60
   1  -2   5   49.50    3.20
  -1  -2  -5   41.60    4.40
  -1  -2  -5   58.39    6.00
  -1  -2  -5   52.09    4.80
  -1   2  -5   53.79    5.10
  -2  -2  -5  254.57   13.30
  -2  -2  -5  259.37   13.00
  -2  -2  -5  258.37   14.10
  -2  -2  -5  278.97   16.00
   2  -2   5  262.37   10.80
   2  -2   5  263.47   11.50
   2  -2   5  259.77   10.70
   2   2   5  241.58   11.60
   2   2   5  263.27   11.40
  -2   2  -5  272.37   14.50
  -2   2  -5  258.97   13.50
  -2   2  -5  258.97   13.00
  -3  -2  -5  281.67   12.90
   3  -2   5  274.87   12.90
   3  -2   5  294.47   11.80
  -3  -2  -5  298.67   17.80
  -3  -2  -5  285.17   15.70
   3  -2   5  298.57   11.90
  -3  -2  -5  285.87   13.30
   3  -2   5  308.87   13.00
  -3   2  -5  271.77   13.40
   3   2   5  278.17   12.60
   3   2   5  266.67   12.80
  -3   2  -5  281.87   14.80
   3   2   5  268.57   11.00
  -3   2  -5  266.67   15.30
  -3   2  -5  279.17   12.60
   4  -2   5  490.45   18.60
   4  -2   5  468.05   17.40
  -4  -2  -5  427.66   17.40
   4  -2   5  443.86   17.40
  -4  -2  -5  461.45   22.30
  -4   2  -5  443.66   20.10
  -4   2  -5  449.16   17.60
   4   2   5  419.86   18.60
  -4   2  -5  439.36   18.40
   4   2   5  434.06   18.30
   5  -2   5   12.70    1.60
  -5  -2  -5   12.10    1.90
   5  -2   5   14.30    1.60
  -5  -2  -5   14.30    1.50
  -5  -2  -5    7.50    2.40
  -5  -2  -5   12.40    2.30
   5  -2   5   12.30    1.80
  -5   2  -5   13.30    2.40
   5   2   5   14.80    1.90
  -5   2  -5   11.50    1.50
   5   2   5   11.90    1.70
  -5   2  -5   12.00    1.70
   6  -2   5   13.20    1.20
  -6  -2  -5   15.80    1.40
  -6  -2  -5   12.40    1.20
   6  -2   5   15.50    1.50
  -6   2  -5   14.40    1.20
   6   2   5   20.20    2.90
  -6   2  -5   13.20    1.20
  -6   2  -5   13.70    1.90
   6   2   5   12.30    1.40
  -8  -3   5   99.89    4.20
  -8  -3   5   94.29    4.20
  -8   3   5   88.19    4.70
  -8   3   5   95.39    5.70
   8   3  -5   92.79    4.10
  -8   3   5   95.09    4.30
   7  -3  -5   79.39    4.60
  -7  -3   5   78.99    4.70
  -7  -3   5   76.89    3.80
   7  -3  -5   85.09    4.40
  -7  -3   5   81.19    4.40
  -7  -3   5   83.49    4.80
  -7   3   5   81.89    5.70
   7   3  -5   77.19    6.00
  -7   3   5   80.19    4.80
   7   3  -5   82.19    4.50
   7   3  -5   85.89    4.50
  -7   3   5   69.39    4.40
  -7   3   5   83.79    5.80
  -7   3   5   72.39    4.10
  -7   3   5   71.39    5.20
  -7   3   5   66.29    4.30
  -6  -3   5  473.55   19.60
  -6  -3   5  394.86   16.50
  -6  -3   5  378.56   16.30
  -6  -3   5  440.26   20.40
  -6  -3   5  395.26   15.50
   6  -3  -5  380.06   15.70
   6   3  -5  424.66   20.00
  -6   3   5  386.66   15.50
  -6   3   5  453.55   20.40
  -6   3   5  376.06   16.10
  -6   3   5  374.16   15.80
   6   3  -5  384.76   16.20
  -6   3   5  384.16   16.60
  -5  -3   5  410.76   16.90
  -5  -3   5  418.56   16.00
  -5  -3   5  415.46   17.20
   5  -3  -5  397.16   16.10
  -5   3   5  429.56   17.20
   5   3  -5  410.46   17.00
  -5   3   5  418.86   17.10
   5   3  -5  412.36   18.30
  -5   3   5  402.26   16.40
  -5   3   5  429.86   18.30
  -5   3   5  407.56   17.00
  -5   3   5  426.26   17.30
  -5   3   5  406.26   17.40
  -5   3   5  400.76   16.50
  -5   3   5  416.66   17.20
  -5   3   5  415.66   16.10
  -4  -3   5   82.69    5.80
  -4  -3   5   78.09    7.20
  -4  -3   5   80.49    4.80
  -4  -3   5   81.99    5.30
   4  -3  -5   78.99    4.60
  -4   3   5   82.39    5.10
   4   3  -5   81.09    5.10
  -4   3   5   89.49    5.60
  -4   3   5   82.89    5.20
  -4   3   5   83.79    4.90
   4   3  -5   83.99    5.30
  -4   3   5   78.49    4.90
  -4   3   5   85.29    5.00
  -4   3   5   81.79    5.10
  -4   3   5   78.39    5.50
  -4   3   5   83.79    4.60
  -4   3   5   80.99    4.40
  -4   3   5   90.39    5.20
  -4   3   5   84.89    5.10
   4   3  -5   85.89    6.10
  -3  -3   5  410.16   16.90
  -3  -3   5  411.56   16.40
  -3  -3   5  430.36   19.50
   3   3  -5  379.76   16.20
  -3   3   5  392.96   16.60
  -3   3   5  407.26   16.70
  -3   3   5  391.96   15.80
   3   3  -5  395.86   16.10
   3   3  -5  404.86   20.00
   3   3  -5  445.26   18.40
  -3   3   5  409.86   15.90
  -2  -3   5  214.78   10.00
  -2  -3   5  222.98    9.80
  -2  -3   5  224.68   12.10
   2  -3  -5  208.18   10.90
   2   3  -5  227.28   12.60
   2   3  -5  213.08    9.50
  -1  -3   5  454.15   20.00
   1  -3  -5  461.35   19.80
  -1  -3   5  438.66   16.70
   1   3  -5  412.16   16.80
   1   3  -5  459.35   18.60
   1   3  -5  446.66   20.50
   0  -3  -5  180.88   10.60
   0  -3  -5  164.88    9.90
   0  -3   5  176.78    7.60
   0  -3  -5  160.58   10.80
   0   3  -5  182.18    9.30
   0   3  -5  174.98   10.50
  -1  -3  -5  729.73   29.60
   1  -3   5  755.92   26.20
  -1  -3  -5  726.23   31.10
  -1  -3  -5  656.13   29.20
  -1   3  -5  725.53   30.00
  -1   3  -5  745.53   28.60
  -2  -3  -5   25.00    3.90
  -2  -3  -5   20.10    4.30
   2  -3   5   27.70    2.40
   2  -3   5   25.70    2.30
   2  -3   5   26.10    2.60
  -2  -3  -5   24.70    4.30
  -2  -3  -5   30.20    4.00
   2   3   5   30.90    2.40
   2   3   5   28.80    2.80
  -2   3  -5   26.90    3.30
  -2   3  -5   29.10    3.50
  -2   3  -5   18.10    3.60
  -2   3  -5   27.10    2.20
  -3  -3  -5  777.82   33.40
  -3  -3  -5  791.92   30.80
  -3  -3  -5  803.22   36.30
  -3  -3  -5  746.43   31.00
   3  -3   5  793.92   28.70
   3  -3   5  782.22   28.50
   3  -3   5  815.12   29.50
   3   3   5  754.62   29.90
  -3   3  -5  807.42   31.50
  -3   3  -5  748.93   31.80
   3   3   5  830.82   29.60
  -3   3  -5  798.52   36.90
  -3   3  -5  786.52   29.70
  -3   3  -5  807.82   28.60
   3   3   5  744.33   27.80
   4  -3   5   84.19    5.30
  -4  -3  -5   87.69    7.40
   4  -3   5   79.49    4.70
   4  -3   5   78.59    4.60
  -4   3  -5   84.79    4.90
   4   3   5   74.99    5.50
  -4   3  -5   80.69    5.20
   4   3   5   72.79    5.00
  -4   3  -5   79.09    5.70
   5  -3   5   27.00    2.20
   5  -3   5   26.10    2.50
  -5  -3  -5   30.90    3.90
  -5  -3  -5   20.20    2.70
  -5  -3  -5   27.20    2.80
   5  -3   5   27.90    2.30
   5   3   5   25.30    2.50
  -5   3  -5   27.70    2.20
  -5   3  -5   24.40    2.20
  -5   3  -5   26.60    3.30
   5   3   5   26.50    2.70
  -5   3  -5   24.00    2.50
  -6  -3  -5  143.39    5.70
   6  -3   5  115.29    6.60
  -6  -3  -5  130.59    5.80
   6  -3   5  156.28    5.70
  -6   3  -5  141.59    7.00
   6   3   5  149.79    6.20
   6   3   5  127.09    6.90
  -6   3  -5  128.99    5.80
  -6   3  -5  147.79    5.70
  -7  -4   5    5.00    0.90
   7  -4  -5    3.80    0.80
  -7  -4   5    3.00    0.90
   7  -4  -5    4.30    1.00
  -7  -4   5    4.90    1.00
  -7   4   5    4.50    1.40
  -7   4   5    2.80    1.00
  -7   4   5    2.90    1.00
  -7   4   5    4.20    1.10
  -7   4   5    4.50    0.90
   7   4  -5    5.30    1.10
  -7   4   5    3.80    1.10
  -7   4   5    3.40    0.90
   7   4  -5    5.60    1.30
  -6  -4   5   61.69    3.50
   6  -4  -5   60.99    3.80
  -6  -4   5   60.99    4.00
  -6  -4   5   57.89    4.10
  -6  -4   5   57.69    4.40
  -6   4   5   54.09    4.30
   6   4  -5   61.49    4.10
  -6   4   5   54.29    3.90
   6   4  -5   57.39    4.00
  -6   4   5   56.09    4.30
  -6   4   5   61.49    5.20
   6   4  -5   53.29    4.60
  -6   4   5   55.29    4.30
  -6   4   5   57.69    4.70
  -6   4   5   54.29    3.90
  -6   4   5   58.79    3.90
  -5  -4   5  274.97   12.00
   5  -4  -5  266.07   11.20
  -5  -4   5  269.67   11.30
  -5  -4   5  275.17   12.80
  -5  -4   5  255.07   16.80
   5   4  -5  245.98   13.60
  -5   4   5  269.67   13.40
  -5   4   5  290.77   11.70
  -5   4   5  286.57   12.80
   5   4  -5  274.77   12.20
  -5   4   5  277.57   12.40
  -5   4   5  293.17   12.80
  -5   4   5  259.47   12.80
  -5   4   5  283.27   12.70
  -5   4   5  299.27   12.30
   5   4  -5  298.27   13.90
  -5   4   5  291.97   12.70
   5   4  -5  277.47   12.30
  -5   4   5  272.17   11.00
  -5   4   5  282.17   12.10
  -4  -4   5  122.49    8.00
  -4  -4   5  131.69    9.80
  -4  -4   5  132.69    7.10
  -4  -4   5  135.99    6.70
  -4  -4   5  136.59    7.70
   4   4  -5  130.09    7.10
   4   4  -5  121.69    8.50
   4   4  -5  130.89    8.20
  -4   4   5  138.29    6.20
  -4   4   5  140.19    7.40
  -4   4   5  136.59    8.00
  -4   4   5  127.09    7.00
  -4   4   5  141.39    7.20
  -4   4   5  131.09    6.40
  -4   4   5  135.99    7.60
  -4   4   5  131.89    7.30
  -4   4   5  139.19    7.00
  -4   4   5  134.39    7.20
  -4   4   5  142.99    6.60
  -4   4   5  138.29    7.70
  -4   4   5  135.99    7.20
   4   4  -5  124.09    6.90
  -3  -4   5  334.77   14.60
  -3  -4   5  328.97   14.00
  -3  -4   5  327.47   13.70
  -3  -4   5  311.67   16.80
  -3   4   5  337.07   14.00
   3   4  -5  289.97   13.70
   3   4  -5  331.87   17.90
  -3   4   5  327.07   13.20
  -3   4   5  322.17   15.80
  -3   4   5  328.97   12.40
  -3   4   5  321.57   13.20
   3   4  -5  285.67   16.30
  -3   4   5  297.07   16.30
  -3   4   5  329.97   13.70
  -3   4   5  325.27   13.70
   3   4  -5  342.87   17.40
   2  -4  -5 1347.17   51.99
  -2  -4   5 1516.85   51.69
  -2  -4   5 1472.25   50.89
  -2  -4   5 1459.55   50.49
  -2  -4   5 1519.75   54.89
   2   4  -5 1447.46   55.19
   2   4  -5 1436.96   50.29
   2   4  -5 1359.06   51.79
  -1  -4   5  110.69    5.60
  -1  -4   5  107.59    7.80
   1  -4  -5  112.79    7.90
   1   4  -5  109.09    8.10
   1   4  -5  105.89    5.50
   1   4  -5  116.29    7.00
   0  -4  -5  762.02   30.00
   0  -4   5  751.42   26.80
   0  -4  -5  703.93   30.50
   0   4  -5  719.53   28.50
   0   4  -5  742.03   30.70
   1  -4   5  111.39    5.70
   1  -4   5  108.49    5.50
  -1  -4  -5  111.79    8.70
   1  -4   5  110.49    6.00
  -1  -4  -5  108.29    8.00
  -1  -4  -5  118.19    8.40
  -1  -4  -5  111.69    8.70
   1   4   5  113.09    6.20
  -1   4  -5  114.79    7.10
  -1   4  -5  107.99    7.90
   2  -4   5  247.68   10.70
   2  -4   5  241.38   10.50
  -2  -4  -5  261.97   14.00
  -2  -4  -5  253.27   15.70
   2  -4   5  268.17   11.30
  -2  -4  -5  250.67   13.80
  -2  -4  -5  246.08   13.80
   2   4   5  246.98   11.50
  -2   4  -5  241.68   11.10
  -2   4  -5  258.57   16.50
   2   4   5  235.68    9.50
   2   4   5  252.47   10.30
  -2   4  -5  249.58   10.30
  -2   4  -5  259.47   13.40
  -2   4  -5  236.48   11.30
   2   4   5  258.67   11.00
  -2   4  -5  261.57   12.50
  -3  -4  -5  184.38   10.90
  -3  -4  -5  181.08   10.60
   3  -4   5  179.08    8.90
  -3  -4  -5  177.48   11.40
  -3  -4  -5  195.38   17.70
   3  -4   5  177.98    8.40
   3  -4   5  174.98    8.40
   3   4   5  195.88    9.00
  -3   4  -5  187.78    8.30
   3   4   5  171.68    7.80
  -3   4  -5  172.28    9.20
  -3   4  -5  178.58    9.10
   3   4   5  175.28    9.30
  -3   4  -5  190.88    9.90
   4  -4   5  136.49    6.80
  -4  -4  -5  141.09    9.90
   4  -4   5  135.19    6.70
   4  -4   5  138.99    7.10
  -4   4  -5  139.39    8.10
   4   4   5  125.89    5.90
   4   4   5  131.29    7.10
  -4   4  -5  124.19    6.80
  -4   4  -5  132.49    7.10
   4   4   5  132.69    7.60
  -4   4  -5  130.19    8.80
  -4   4  -5  132.99    6.50
   5  -4   5   93.59    5.00
   5  -4   5   92.49    4.60
   5  -4   5   94.69    4.90
  -5  -4  -5   83.19    4.50
   5   4   5   85.99    5.30
  -5   4  -5   98.89    4.70
   5   4   5   86.29    4.90
  -5   4  -5   94.39    6.60
  -5   4  -5   84.79    4.70
   6  -4   5  265.27    9.10
   6  -4   5  217.48    9.20
  -6  -4  -5  240.58    9.00
  -6   4  -5  249.28    9.10
   6   4   5  253.47    9.20
  -6   4  -5  249.97   10.40
  -7  -5   5  105.79    5.00
  -7  -5   5  109.89    4.90
  -7  -5   5   97.89    4.60
  -7   5   5   97.19    5.30
  -7   5   5  101.99    5.90
   7   5  -5  105.89    5.40
  -7   5   5   96.19    5.20
  -7   5   5   81.39    4.50
  -7   5   5   97.19    6.10
  -7   5   5   97.89    5.30
  -7   5   5   95.99    4.60
  -6  -5   5   98.39    5.30
  -6  -5   5   99.49    6.10
  -6  -5   5  101.29    5.60
  -6  -5   5   98.19    4.80
  -6   5   5   93.69    6.40
   6   5  -5  100.29    5.20
  -6   5   5   95.79    5.90
   6   5  -5   95.09    6.20
  -6   5   5   98.29    6.80
  -6   5   5  104.69    5.60
  -6   5   5   88.89    5.20
  -6   5   5  102.39    6.40
  -6   5   5  102.99    6.20
  -6   5   5   97.79    4.50
  -6   5   5   94.19    5.30
   6   5  -5   98.19    5.20
  -5  -5   5   60.39    4.60
  -5  -5   5   53.09    3.30
   5   5  -5   62.39    5.00
  -5   5   5   47.30    3.80
  -5   5   5   53.59    4.20
  -5   5   5   61.29    4.60
  -5   5   5   49.20    4.10
  -5   5   5   52.19    4.80
  -5   5   5   52.59    4.30
  -5   5   5   49.40    3.20
  -5   5   5   51.79    4.50
   5   5  -5   47.80    4.80
  -5   5   5   52.49    4.00
  -5   5   5   57.19    5.20
   5   5  -5   49.20    3.80
  -5   5   5   54.49    4.00
   5   5  -5   50.09    3.70
  -5   5   5   55.09    3.70
  -5   5   5   50.39    4.50
  -4  -5   5   55.99    6.40
  -4  -5   5   60.49    5.30
  -4  -5   5   59.39    4.50
  -4  -5   5   56.49    4.70
  -4   5   5   67.99    5.60
   4   5  -5   59.99    4.20
  -4   5   5   53.89    4.90
  -4   5   5   56.99    4.50
  -4   5   5   55.79    3.50
  -4   5   5   55.89    4.40
  -4   5   5   60.99    4.10
  -4   5   5   59.79    4.60
   4   5  -5   65.89    5.40
  -4   5   5   57.69    4.50
  -4   5   5   59.09    3.80
  -4   5   5   60.59    5.00
   4   5  -5   52.99    5.30
  -4   5   5   62.89    8.10
  -4   5   5   54.39    5.40
  -4   5   5   59.99    4.10
  -3  -5   5  184.38   12.00
  -3  -5   5  193.78    9.10
  -3  -5   5  167.28    8.20
  -3  -5   5  172.98    9.10
  -3  -5   5  186.28    9.80
  -3   5   5  180.28    8.40
  -3   5   5  185.28    8.90
  -3   5   5  181.08    8.80
   3   5  -5  191.58   10.10
  -3   5   5  167.88    7.50
   3   5  -5  169.28    8.20
  -3   5   5  176.88    9.80
   3   5  -5  163.28   10.50
  -3   5   5  184.18    8.60
  -3   5   5  174.18    8.50
   3   5  -5  169.88    8.20
  -3   5   5  180.88    7.90
  -3   5   5  180.78    8.90
  -3   5   5  170.98    8.50
  -3   5   5  175.28    7.80
  -3   5   5  169.78    8.90
  -3   5   5  183.18    8.60
  -2  -5   5  475.55   18.90
  -2  -5   5  492.35   19.80
  -2  -5   5  481.45   19.60
  -2  -5   5  494.45   19.40
  -2  -5   5  497.85   20.40
  -2  -5   5  541.85   24.00
   2   5  -5  503.95   20.80
  -2   5   5  493.25   19.20
  -2   5   5  487.55   18.80
   2   5  -5  476.75   22.30
  -2   5   5  514.95   18.10
  -2   5   5  497.05   19.00
  -2   5   5  537.05   19.70
   2   5  -5  510.15   23.80
  -2   5   5  504.25   18.50
  -2   5   5  492.95   19.50
   2   5  -5  475.75   18.60
  -2   5   5  530.05   18.50
   2   5  -5  419.86   18.30
  -1  -5   5  824.82   29.80
  -1  -5   5  845.62   34.40
   1  -5  -5  793.62   32.90
   1  -5  -5  778.92   31.50
  -1  -5   5  773.52   30.20
  -1  -5   5  779.12   29.30
  -1   5   5  831.72   29.80
   1   5  -5  916.21   34.60
  -1   5   5  828.22   29.60
  -1   5   5  813.12   30.10
  -1   5   5  838.12   28.80
  -1   5   5  828.42   29.30
   1   5  -5  838.62   33.20
   1   5  -5  835.02   34.10
   1   5  -5  757.12   33.20
   1   5  -5  810.92   31.40
   0  -5   5  217.58   10.10
   0  -5  -5  199.98   11.50
   0  -5   5  218.98    9.60
   0  -5  -5  219.78   12.50
   0  -5   5  204.68    9.30
   0  -5   5  206.18   12.60
   0   5  -5  208.88   12.20
   0   5   5  220.78    9.70
   0   5  -5  216.38   13.40
   0   5   5  233.28    9.80
   0   5   5  223.78    9.30
   0   5   5  218.38    9.50
   0   5   5  220.58   10.10
   0   5  -5  222.08   11.00
   0   5   5  222.38    8.80
  -1  -5  -5  982.00   41.30
  -1  -5  -5 1040.20   43.50
  -1  -5  -5  989.80   39.60
   1  -5   5 1028.80   36.70
  -1  -5  -5  998.70   40.30
   1  -5   5 1017.30   36.10
   1  -5   5  958.60   35.70
  -1   5  -5 1016.60   38.00
  -1   5  -5 1015.80   42.80
  -1   5  -5 1070.39   38.80
   1   5   5  995.90   34.90
  -1   5  -5  935.11   37.10
   1   5   5 1028.70   36.00
  -1   5  -5 1015.70   39.40
   1   5   5 1037.70   36.00
   1   5   5 1062.79   35.80
   1   5   5  980.90   36.40
   1   5   5 1025.30   34.90
  -2  -5  -5  271.47   16.60
  -2  -5  -5  279.27   15.50
  -2  -5  -5  274.57   15.30
  -2  -5  -5  282.77   15.10
   2  -5   5  285.87   12.00
   2  -5   5  293.87   12.40
   2  -5   5  280.67   11.70
  -2   5  -5  310.17   14.60
  -2   5  -5  284.47   17.80
  -2   5  -5  298.77   12.80
  -2   5  -5  276.67   11.30
   2   5   5  280.37   11.50
   2   5   5  272.57   11.60
   2   5   5  268.77   10.70
   2   5   5  265.37   12.50
  -2   5  -5  272.47   12.70
  -2   5  -5  295.67   13.40
  -2   5  -5  276.17   12.40
   3  -5   5 1292.47   47.50
  -3  -5  -5 1339.57   52.89
  -3  -5  -5 1389.26   51.79
   3  -5   5 1360.46   48.30
   3  -5   5 1358.26   48.00
  -3  -5  -5 1372.86   51.49
   3   5   5 1400.56   47.90
   3   5   5 1347.57   46.40
   3   5   5 1367.86   49.10
   3   5   5 1340.47   47.20
  -3   5  -5 1379.96   48.80
  -3   5  -5 1221.18   48.60
  -3   5  -5 1460.65   47.50
  -3   5  -5 1404.36   48.90
  -3   5  -5 1366.06   51.39
   4  -5   5   54.99    3.60
  -4  -5  -5   56.69    4.40
   4  -5   5   55.09    3.90
   4  -5   5   59.69    3.90
  -4  -5  -5   57.39    6.60
   4   5   5   57.29    2.90
   4   5   5   53.89    3.20
  -4   5  -5   58.59    4.10
  -4   5  -5   61.09    4.50
  -4   5  -5   56.69    3.60
   4   5   5   51.69    3.70
   4   5   5   55.39    4.40
  -4   5  -5   54.59    3.90
  -4   5  -5   59.09    5.50
   5  -5   5   97.19    4.90
   5  -5   5  100.29    4.90
  -5  -5  -5   94.29    7.10
  -5  -5  -5   93.79    4.60
  -5   5  -5   91.69    5.10
   5   5   5   97.89    5.50
  -5   5  -5   87.99    4.70
  -5   5  -5  100.59    4.70
   6  -5   5   96.49    3.90
  -6   5  -5   93.09    3.80
   6   5   5  102.39    4.00
  -6   5  -5   91.69    4.70
  -7  -6   5   15.50    1.40
  -7  -6   5   14.70    1.20
  -7   6   5   14.80    1.70
  -7   6   5   13.20    1.70
  -7   6   5   15.10    2.30
  -7   6   5   12.20    1.20
  -7   6   5   12.80    1.50
   7   6  -5   15.60    1.50
  -6  -6   5   13.20    1.20
  -6  -6   5    9.70    1.50
  -6  -6   5   11.30    2.40
  -6  -6   5    9.20    2.20
  -6   6   5   11.30    2.10
  -6   6   5   10.60    1.50
  -6   6   5    9.90    1.20
  -6   6   5    9.00    1.40
  -6   6   5    9.20    1.80
   6   6  -5   12.20    1.90
  -6   6   5   10.50    2.20
  -6   6   5    8.80    1.90
   6   6  -5   10.50    2.10
  -6   6   5   10.10    1.80
  -6   6   5   18.80    2.60
  -5  -6   5    9.50    2.00
  -5  -6   5    9.70    1.20
  -5   6   5   12.30    2.10
  -5   6   5   10.30    2.00
  -5   6   5   11.10    3.10
  -5   6   5    8.30    1.80
  -5   6   5   12.70    1.80
  -5   6   5   13.10    1.90
  -5   6   5   11.30    2.90
   5   6  -5   11.60    2.50
   5   6  -5    9.90    1.50
  -5   6   5   10.70    2.50
  -5   6   5   10.10    2.60
  -5   6   5    8.50    1.20
  -5   6   5    8.10    1.70
  -5   6   5   10.40    2.30
   5   6  -5   10.20    3.20
  -5   6   5   12.10    2.40
  -4  -6   5   67.19    8.00
  -4  -6   5   74.69    6.10
  -4  -6   5   73.29    5.00
  -4  -6   5   76.39    5.50
  -4   6   5   78.79    6.10
  -4   6   5   76.49    5.20
  -4   6   5   76.49    4.90
  -4   6   5   76.69    4.90
   4   6  -5   73.39    5.70
  -4   6   5   74.29    4.20
  -4   6   5   73.39    5.40
   4   6  -5   62.89    4.50
  -4   6   5   78.09    4.60
  -4   6   5   73.09    4.50
   4   6  -5   66.69    6.00
  -4   6   5   71.29    5.30
  -4   6   5   75.39    5.30
   4   6  -5   68.49    4.20
  -4   6   5   77.69    5.20
  -4   6   5   72.89    5.10
  -4   6   5   70.39    5.10
  -3  -6   5  236.68   15.00
  -3  -6   5  249.88   12.50
  -3  -6   5  236.48   10.80
  -3  -6   5  234.48   11.70
  -3  -6   5  239.28   11.60
  -3  -6   5  236.08   11.40
   3   6  -5  233.18   13.30
  -3   6   5  245.28   11.20
  -3   6   5  251.07   10.80
   3   6  -5  250.47   12.40
  -3   6   5  249.28   10.30
  -3   6   5  228.58   11.30
  -3   6   5  242.58   11.20
  -3   6   5  248.58   10.30
  -3   6   5  245.48   11.00
  -3   6   5  250.17   10.00
  -3   6   5  250.57   11.10
  -3   6   5  242.08   11.40
  -3   6   5  235.78   10.80
  -3   6   5  243.78   11.20
   3   6  -5  229.18    9.90
  -3   6   5  246.48   11.20
  -2  -6   5  436.66   18.70
  -2  -6   5  467.05   18.70
  -2  -6   5  454.45   19.60
  -2  -6   5  452.45   18.50
  -2  -6   5  429.36   17.80
  -2  -6   5  428.46   22.70
  -2   6   5  457.85   18.10
  -2   6   5  454.25   18.20
  -2   6   5  466.75   17.00
  -2   6   5  472.75   18.10
  -2   6   5  483.05   18.30
  -2   6   5  457.15   18.20
  -2   6   5  440.16   19.60
   2   6  -5  467.95   19.50
  -2   6   5  463.25   17.20
  -2   6   5  466.95   17.50
  -2   6   5  467.85   17.80
   2   6  -5  436.06   21.20
  -2   6   5  455.85   18.40
  -2   6   5  470.55   18.40
  -1  -6   5   35.90    8.20
  -1  -6   5   29.20    2.90
  -1  -6   5   32.30    3.10
  -1  -6   5   31.20    2.60
  -1  -6   5   30.20    2.80
   1  -6  -5   24.90    4.10
  -1   6   5   35.20    3.30
  -1   6   5   29.80    3.10
   1   6  -5   34.70    4.90
  -1   6   5   35.60    3.00
   1   6  -5   30.10    3.30
  -1   6   5   31.80    2.60
   1   6  -5   31.50    4.20
   1   6  -5   36.20    3.00
  -1   6   5   34.30    2.80
  -1   6   5   39.20    2.50
   1   6  -5   31.30    4.30
  -1   6   5   32.70    2.80
  -1   6   5   34.90    2.30
   0  -6   5  545.45   21.30
   0  -6  -5  545.35   24.20
   0  -6   5  619.94   22.60
   0  -6  -5  574.44   26.50
   0  -6   5  547.85   22.40
   0  -6   5  574.44   21.80
   0  -6  -5  569.74   24.60
   0   6  -5  570.04   25.00
   0   6   5  585.64   20.60
   0   6  -5  557.74   23.10
   0   6   5  559.94   21.30
   0   6   5  613.94   21.50
   0   6  -5  558.24   22.50
   0   6   5  584.24   22.50
   0   6  -5  569.64   23.40
   0   6   5  586.24   20.70
   0   6  -5  575.64   26.60
   0   6   5  603.34   21.80
   0   6   5  562.24   21.90
   0   6   5  568.24   21.70
   0   6  -5  538.95   25.10
   1  -6   5  202.88    9.60
   1  -6   5  172.28   11.90
  -1  -6  -5  192.18   11.30
  -1  -6  -5  192.18   11.70
   1  -6   5  179.68    8.50
   1  -6   5  191.08    8.80
  -1  -6  -5  193.58   12.60
  -1   6  -5  193.98   10.70
   1   6   5  189.28    8.50
  -1   6  -5  177.88   13.00
   1   6   5  195.58    7.80
  -1   6  -5  180.18   10.30
   1   6   5  183.48    8.90
  -1   6  -5  182.18    9.80
  -1   6  -5  182.88    9.10
   1   6   5  195.78    8.70
   1   6   5  193.88    8.70
   1   6   5  183.98    7.70
  -2  -6  -5  138.89   11.30
   2  -6   5  129.29    7.00
   2  -6   5  123.39    6.40
  -2  -6  -5  118.79    9.30
  -2  -6  -5  127.69    9.40
   2  -6   5  124.29    6.60
  -2  -6  -5  125.69    9.20
  -2   6  -5  127.89    7.20
  -2   6  -5  135.89   16.90
   2   6   5  124.79    5.50
   2   6   5  121.99    5.60
   2   6   5  120.39    7.00
  -2   6  -5  131.89    8.50
  -2   6  -5  116.79    6.90
  -2   6  -5  127.29    7.40
   2   6   5  124.59    6.40
   2   6   5  122.29    8.10
  -2   6  -5  128.59    7.10
  -2   6  -5  125.29    7.00
   2   6   5  125.79    6.30
  -3  -6  -5   20.80    3.70
   3  -6   5   21.40    2.20
   3  -6   5   21.80    2.30
   3  -6   5   23.60    2.40
  -3  -6  -5   25.60    4.70
  -3  -6  -5   24.30    4.20
  -3   6  -5   22.40    3.30
  -3   6  -5   26.40    2.50
   3   6   5   23.10    2.10
  -3   6  -5   21.60    2.30
  -3   6  -5   22.80    3.80
   3   6   5   19.40    1.70
   3   6   5   23.20    1.60
  -3   6  -5   22.40    2.80
  -3   6  -5   20.50    2.70
  -3   6  -5   25.30    2.00
   3   6   5   25.70    2.90
   4  -6   5   90.79    5.00
  -4  -6  -5   86.59    5.50
   4  -6   5   87.09    4.80
  -4  -6  -5   95.69    7.50
   4  -6   5   82.79    5.00
  -4   6  -5   94.79    5.60
   4   6   5   80.69    4.50
  -4   6  -5   89.59    5.40
  -4   6  -5   87.69    5.30
  -4   6  -5   94.49    4.60
   4   6   5   87.69    4.40
   4   6   5   91.89    5.70
   4   6   5   82.19    4.00
   5  -6   5   95.49    4.50
  -5  -6  -5   81.69    4.10
  -5  -6  -5  105.69    6.60
   5  -6   5   76.59    4.80
   5  -6   5   94.39    4.30
   5   6   5   90.19    4.90
  -5   6  -5   82.89    4.10
  -5   6  -5   86.99    4.50
  -5   6  -5   90.89    4.10
  -5   6  -5   94.19    5.70
   5   6   5   94.99    4.40
  -7  -7   5   61.89    2.80
  -7  -7   5   57.39    2.70
   7   7  -5   54.99    2.70
  -7   7   5   52.59    3.00
  -7   7   5   53.29    3.10
  -6  -7   5    8.30    1.20
  -6  -7   5    8.70    1.90
  -6  -7   5    9.40    1.00
   6   7  -5    5.90    1.30
   6   7  -5    9.00    1.80
  -6   7   5    6.20    1.70
  -6   7   5    5.10    1.50
  -6   7   5    7.30    1.10
  -6   7   5    6.40    1.80
  -6   7   5    6.90    1.40
  -6   7   5    5.10    1.30
  -5  -7   5  125.79    5.70
  -5  -7   5  135.49    7.70
   5   7  -5  128.09    8.00
  -5   7   5  117.19    7.30
  -5   7   5  131.89    6.80
  -5   7   5  127.49    6.70
  -5   7   5  134.69    6.10
  -5   7   5  138.39    6.50
  -5   7   5  126.79    7.30
  -5   7   5  116.39    7.60
  -5   7   5  126.39    7.40
  -5   7   5  130.29    6.40
  -5   7   5  120.19    7.20
   5   7  -5  128.79    7.40
  -5   7   5  118.59    6.90
  -4  -7   5  120.89    7.00
  -4  -7   5  127.19    7.60
  -4  -7   5  105.59    7.60
  -4   7   5  116.99    6.90
   4   7  -5  111.69    6.30
  -4   7   5  120.99    6.10
  -4   7   5  115.19    6.50
  -4   7   5  114.19    6.50
  -4   7   5  111.89    7.00
  -4   7   5  118.19    7.10
  -4   7   5  120.89    7.70
  -4   7   5  108.29    6.80
   4   7  -5  121.89    8.40
  -4   7   5  122.69    6.10
   4   7  -5  118.39    7.30
  -4   7   5  107.89    7.40
  -4   7   5  124.49    6.00
  -4   7   5  115.89    7.00
  -4   7   5  118.89    7.40
  -3  -7   5    3.80    1.60
  -3  -7   5    3.80    1.20
  -3  -7   5    3.50    1.20
  -3  -7   5    1.50    1.20
  -3  -7   5    5.10    1.70
  -3   7   5    2.80    1.10
  -3   7   5    5.00    1.40
  -3   7   5    2.40    0.90
  -3   7   5    2.50    0.90
  -3   7   5    1.70    1.20
  -3   7   5    4.10    1.00
  -3   7   5    3.00    1.00
  -3   7   5    2.30    1.30
  -3   7   5    2.20    0.90
  -3   7   5    1.70    1.60
   3   7  -5    3.40    1.30
  -3   7   5    3.00    1.20
  -3   7   5    4.90    1.70
   3   7  -5    2.90    2.00
  -3   7   5    2.90    0.90
  -3   7   5    4.00    1.80
  -2  -7   5  503.55   21.00
  -2  -7   5  503.75   20.80
  -2  -7   5  529.35   25.80
  -2  -7   5  499.15   21.60
  -2  -7   5  509.55   21.80
  -2  -7   5  516.85   21.80
  -2   7   5  516.85   18.90
   2   7  -5  518.75   21.10
  -2   7   5  519.65   20.10
  -2   7   5  509.15   20.20
  -2   7   5  515.55   19.80
  -2   7   5  501.25   21.70
   2   7  -5  534.65   27.10
  -2   7   5  509.25   19.10
  -2   7   5  513.15   20.40
  -2   7   5  484.05   20.20
  -2   7   5  531.55   20.70
  -2   7   5  494.75   20.50
  -2   7   5  493.95   20.60
   1  -7  -5  200.08   10.70
  -1  -7   5  204.98   10.00
  -1  -7   5  191.48    9.20
  -1  -7   5  198.68    9.60
  -1  -7   5  190.48   12.90
  -1  -7   5  201.28    9.90
  -1   7   5  195.88    9.30
  -1   7   5  201.18    9.60
  -1   7   5  198.98    9.20
   1   7  -5  194.28    9.80
  -1   7   5  200.28    8.40
  -1   7   5  200.78    9.80
  -1   7   5  197.18    9.50
   1   7  -5  189.38   11.80
   1   7  -5  179.68    9.40
  -1   7   5  211.48    9.10
  -1   7   5  204.78    8.50
   0  -7   5  104.09    5.70
   0  -7   5  116.89    9.30
   0  -7  -5  116.49    8.20
   0  -7  -5  101.79    7.70
   0  -7   5  100.89    6.30
   0  -7   5  105.69    6.10
   0  -7   5  112.29    6.50
   0   7   5  110.69    6.10
   0   7   5  108.69    5.10
   0   7  -5   94.29    6.00
   0   7   5  115.89    5.90
   0   7   5   93.39    6.10
   0   7  -5   97.09    6.70
   0   7   5  106.09    6.60
   0   7  -5  112.99    6.70
   0   7  -5  110.29    8.20
   0   7  -5  108.89    9.10
   0   7   5  101.89    5.00
   0   7   5   99.59    5.20
   0   7   5  107.19    5.90
   1  -7   5  135.79    7.10
  -1  -7  -5  164.98   11.70
   1  -7   5  132.99    6.90
   1  -7   5  143.49    7.70
  -1  -7  -5  138.19    9.40
   1  -7   5  157.58   11.30
  -1  -7  -5  131.09    9.80
   1   7   5  139.09    7.10
   1   7   5  135.29    7.00
  -1   7  -5  135.49    8.00
  -1   7  -5  145.29   11.50
   1   7   5  136.69    6.80
  -1   7  -5  143.89    8.80
  -1   7  -5  141.89    8.20
   1   7   5  130.79    6.10
   1   7   5  137.39    6.10
  -1   7  -5  138.59    9.40
   1   7   5  133.39    7.00
   2  -7   5  378.46   15.60
  -2  -7  -5  374.56   19.30
   2  -7   5  360.96   15.10
  -2  -7  -5  357.96   18.50
   2  -7   5  362.36   14.70
  -2   7  -5  366.26   16.40
   2   7   5  359.66   13.60
   2   7   5  367.46   14.90
  -2   7  -5  379.76   17.50
   2   7   5  366.06   13.80
  -2   7  -5  362.06   17.40
   2   7   5  357.96   14.70
  -2   7  -5  353.86   13.90
   2   7   5  366.26   15.40
  -2   7  -5  388.96   16.00
  -2   7  -5  361.66   16.30
  -2   7  -5  368.06   15.70
   2   7   5  384.56   14.80
   3  -7   5  114.39    6.00
   3  -7   5  109.69    5.70
  -3  -7  -5  117.29    8.20
  -3  -7  -5  112.99    8.40
   3  -7   5  108.79    6.10
  -3  -7  -5  112.59    9.00
  -3   7  -5  104.79    6.60
  -3   7  -5  106.59    6.60
   3   7   5  110.09    6.40
   3   7   5  107.29    5.50
   3   7   5  113.99    5.90
  -3   7  -5  102.09    7.50
   3   7   5  110.79    4.90
  -3   7  -5  112.99    6.40
  -3   7  -5  104.19    5.80
  -3   7  -5  107.39    6.70
  -3   7  -5  112.79    5.30
  -4  -7  -5   -1.40    1.90
   4  -7   5    1.40    0.70
   4  -7   5    1.80    0.80
   4  -7   5    0.90    0.50
  -4   7  -5   -0.10    1.00
  -4   7  -5   -0.10    0.50
   4   7   5    2.00    0.50
  -4   7  -5    1.30    0.90
  -4   7  -5    1.40    0.70
   4   7   5    1.20    0.60
   4   7   5    1.10    0.60
  -4   7  -5    0.70    0.50
   4   7   5    1.90    0.50
   5  -7   5   95.69    4.50
  -5  -7  -5   82.09    3.80
  -5   7  -5   90.29    5.20
  -5   7  -5   82.09    3.60
   5   7   5   92.79    4.50
   5   7   5   92.69    4.30
  -6  -8   5   95.19    7.20
  -6  -8   5  101.59    4.40
  -6   8   5   86.29    5.10
  -6   8   5   91.99    4.90
  -6   8   5   87.09    4.20
   6   8  -5   81.79    4.20
   6   8  -5   77.69    3.40
  -6   8   5   89.19    5.10
  -6   8   5   80.59    4.90
   6   8  -5   93.69    4.90
  -5  -8   5  100.39    4.60
  -5  -8   5  128.39    9.20
   5   8  -5  108.09    5.80
  -5   8   5   97.19    5.30
  -5   8   5  101.89    6.10
  -5   8   5   97.69    6.00
  -5   8   5  108.39    6.40
  -5   8   5  102.39    6.40
  -5   8   5  103.09    5.40
   5   8  -5  113.49    6.80
  -5   8   5   86.29    5.90
  -5   8   5  103.69    5.00
  -5   8   5   90.99    6.10
  -5   8   5  102.59    5.50
  -5   8   5  105.99    5.60
  -4  -8   5   84.89    5.80
  -4  -8   5   86.39    6.40
   4   8  -5   79.79    6.40
  -4   8   5   94.89    5.00
  -4   8   5   81.99    5.50
  -4   8   5   89.79    6.40
  -4   8   5   78.99    5.20
  -4   8   5   84.79    4.70
  -4   8   5   74.69    5.30
  -4   8   5   74.49    5.40
  -4   8   5   94.89    5.80
  -4   8   5   72.09    4.90
   4   8  -5   83.09    5.40
  -4   8   5   83.39    5.00
  -4   8   5   85.19    4.80
  -4   8   5   89.19    5.70
   4   8  -5   74.09    4.70
  -4   8   5   79.59    5.60
  -3  -8   5  470.55   19.90
  -3  -8   5  474.15   21.00
  -3  -8   5  472.55   19.00
  -3  -8   5  498.15   20.30
  -3  -8   5  523.75   20.20
  -3   8   5  500.95   18.00
  -3   8   5  465.95   19.80
  -3   8   5  479.65   19.00
  -3   8   5  484.45   18.70
  -3   8   5  465.65   19.10
  -3   8   5  502.85   19.80
   3   8  -5  466.65   19.40
  -3   8   5  488.55   18.30
  -3   8   5  469.65   19.10
  -3   8   5  459.55   20.00
  -3   8   5  466.75   19.30
  -3   8   5  443.26   19.30
  -3   8   5  490.25   18.40
   3   8  -5  474.25   21.70
   3   8  -5  431.66   19.10
  -3   8   5  476.95   19.50
  -2  -8   5  454.15   19.40
  -2  -8   5  476.45   19.30
  -2  -8   5  465.35   18.50
  -2  -8   5  467.25   20.20
  -2  -8   5  459.05   19.10
  -2   8   5  431.86   18.30
  -2   8   5  459.75   18.60
  -2   8   5  447.16   18.30
  -2   8   5  454.95   18.50
  -2   8   5  442.46   20.00
  -2   8   5  470.25   18.80
   2   8  -5  455.55   21.20
  -2   8   5  466.65   18.60
  -2   8   5  433.56   17.30
   2   8  -5  437.96   18.30
  -2   8   5  459.05   18.00
  -2   8   5  466.45   17.30
   2   8  -5  458.75   19.20
  -1  -8   5    1.50    0.80
  -1  -8   5    0.40    0.70
  -1  -8   5    0.70    0.80
  -1  -8   5    3.90    3.10
  -1  -8   5    3.20    1.10
  -1  -8   5    3.70    1.30
  -1   8   5    3.90    1.20
  -1   8   5    2.00    1.60
  -1   8   5    2.70    1.30
   1   8  -5    1.40    0.90
   1   8  -5    0.50    1.20
  -1   8   5    1.50    0.60
  -1   8   5    0.50    0.50
   1   8  -5    1.10    0.90
  -1   8   5    2.40    0.90
  -1   8   5    1.50    0.80
   0  -8  -5   33.20    4.30
   0  -8   5   31.50    3.20
   0  -8   5   29.70    3.00
   0  -8   5   31.10    3.00
   0  -8   5   36.60    6.10
   0  -8   5   29.80    2.80
   0  -8  -5   29.60    4.20
   0   8   5   30.10    2.30
   0   8  -5   33.50    3.50
   0   8  -5   32.80    3.50
   0   8  -5   30.20    3.30
   0   8  -5   27.90    4.00
   0   8   5   32.50    2.90
   0   8   5   30.80    2.70
   0   8   5   33.20    2.40
   0   8   5   33.20    3.90
   0   8   5   28.00    2.70
   0   8  -5   33.30    3.00
  -1  -8  -5  110.29    8.10
  -1  -8  -5   98.69    8.30
   1  -8   5  101.59    5.70
   1  -8   5  102.09    6.00
   1  -8   5  106.69    6.30
  -1   8  -5  106.89    6.70
   1   8   5  104.39    5.00
   1   8   5  100.89    4.80
   1   8   5  104.19    5.70
  -1   8  -5  100.59    6.00
   1   8   5  102.99    5.80
   1   8   5  103.19    5.80
   1   8   5  107.09    5.50
  -1   8  -5  107.39    6.80
  -1   8  -5   96.79    7.10
  -1   8  -5  107.59    7.50
   2  -8   5   79.59    4.90
  -2  -8  -5   86.49    7.70
   2  -8   5   82.39    5.20
  -2   8  -5   85.99    6.20
  -2   8  -5   82.69    5.40
  -2   8  -5   76.69    6.20
  -2   8  -5   76.59    5.20
   2   8   5   82.39    5.30
   2   8   5   80.49    4.10
  -2   8  -5   77.99    5.60
   2   8   5   78.29    6.10
   2   8   5   76.39    4.60
   2   8   5   81.69    5.40
  -3  -8  -5   12.40    2.80
   3  -8   5   15.10    1.70
   3  -8   5   14.50    1.90
  -3  -8  -5   16.30    3.00
   3  -8   5   14.00    1.60
   3   8   5   13.70    1.50
   3   8   5   14.10    1.60
  -3   8  -5   12.10    1.50
  -3   8  -5   15.40    1.50
   3   8   5   13.20    1.80
  -3   8  -5   12.10    1.70
  -3   8  -5   12.80    1.90
  -3   8  -5   13.20    2.30
   3   8   5   13.30    1.20
   4  -8   5    4.20    0.90
   4  -8   5    3.20    0.90
   4  -8   5    6.00    0.90
  -4   8  -5    3.40    1.00
   4   8   5    4.00    0.80
  -4   8  -5    4.40    1.10
   4   8   5    5.60    0.70
  -4   8  -5    3.90    1.20
  -4   8  -5    3.40    0.60
   4   8   5    4.40    1.20
   4   8   5    5.20    0.60
   5  -8   5    5.70    0.90
   5   8   5    4.70    1.00
   5   8   5    6.10    0.90
  -5   8  -5    4.80    1.00
  -6  -9   5   60.19    2.70
   6   9  -5   50.89    2.50
   6   9  -5   59.99    3.10
  -5  -9   5  126.89    7.00
   5   9  -5  134.69    7.10
  -5   9   5  130.89    6.80
  -5   9   5  117.69    6.50
  -5   9   5  133.99    6.20
  -5   9   5  128.99    6.90
  -4  -9   5    4.70    1.60
  -4  -9   5    4.50    1.40
  -4   9   5    4.20    1.10
  -4   9   5    6.10    2.00
  -4   9   5    4.30    1.90
  -4   9   5    4.50    1.10
  -4   9   5    3.40    1.30
  -4   9   5    3.40    1.20
   4   9  -5    4.60    1.70
  -4   9   5    6.20    1.60
   4   9  -5    2.00    1.10
  -4   9   5    6.40    2.50
  -4   9   5    5.90    2.00
  -3  -9   5  183.18    8.90
  -3  -9   5  195.18    9.60
  -3  -9   5  192.08   10.00
  -3  -9   5  185.28   10.50
  -3  -9   5  184.28    9.60
  -3   9   5  184.48    8.60
  -3   9   5  189.48    9.40
   3   9  -5  179.48    8.90
  -3   9   5  185.78    8.40
  -3   9   5  187.38    9.10
   3   9  -5  189.38   10.80
  -3   9   5  187.78    9.10
   3   9  -5  173.78    8.30
  -3   9   5  198.38    9.90
  -3   9   5  196.58    9.70
  -3   9   5  191.08    9.10
  -3   9   5  194.28    8.20
  -2  -9   5   42.70    3.70
  -2  -9   5   34.20    3.50
  -2  -9   5   37.50    3.70
  -2  -9   5   37.90    3.30
  -2  -9   5   37.30    4.20
  -2   9   5   37.90    3.30
  -2   9   5   37.40    2.70
  -2   9   5   39.40    3.80
   2   9  -5   32.40    4.00
  -2   9   5   37.80    3.20
  -2   9   5   38.90    3.10
  -2   9   5   39.40    3.80
  -2   9   5   35.70    3.20
   2   9  -5   37.00    3.40
  -1  -9   5  480.05   20.50
  -1  -9   5  483.45   19.40
  -1  -9   5  495.45   20.10
   1  -9  -5  481.85   21.60
  -1  -9   5  523.45   21.90
  -1  -9   5  504.35   20.20
   1   9  -5  462.25   20.20
   1   9  -5  482.25   21.50
  -1   9   5  501.85   18.20
  -1   9   5  560.24   20.30
  -1   9   5  497.75   19.00
  -1   9   5  492.15   19.50
  -1   9   5  462.75   18.10
   1   9  -5  434.46   19.20
  -1   9   5  515.65   20.20
  -1   9   5  466.95   19.20
   0  -9  -5  213.38   12.50
   0  -9   5  220.08   10.30
   0  -9   5  216.78    9.80
   0  -9   5  223.78   10.40
   0   9   5  211.28   10.50
   0   9  -5  214.78   10.80
   0   9  -5  206.28   11.30
   0   9   5  193.78    9.70
   0   9   5  216.28    9.80
   0   9   5  196.88    9.80
   0   9   5  209.68    8.60
   0   9   5  203.88    8.70
   0   9  -5  210.98   10.40
   0   9   5  212.98    9.40
   1  -9   5  103.89    5.80
  -1  -9  -5   97.39    7.40
   1  -9   5  100.29    5.50
   1  -9   5  103.99    5.90
  -1  -9  -5   97.79    8.20
   1   9   5   97.59    5.50
   1   9   5   98.49    4.70
  -1   9  -5   95.09    6.20
  -1   9  -5   96.69    6.20
   1   9   5  103.99    5.70
  -1   9  -5   85.49    6.40
  -1   9  -5   95.19    5.70
   1   9   5   96.99    5.30
   1   9   5   90.19    4.40
  -1   9  -5   98.59    6.30
   2  -9   5   41.20    3.00
   2  -9   5   47.40    3.40
   2  -9   5   42.30    3.30
  -2  -9  -5   34.10    4.90
  -2  -9  -5   43.50    5.00
   2   9   5   45.10    3.00
   2   9   5   42.90    2.60
  -2   9  -5   46.20    3.80
   2   9   5   45.10    3.10
  -2   9  -5   36.20    3.80
   2   9   5   44.50    3.00
  -2   9  -5   41.10    3.30
   2   9   5   45.90    3.10
  -2   9  -5   47.20    3.60
   3  -9   5   20.50    1.90
   3  -9   5   20.80    2.10
   3  -9   5   19.00    1.70
  -3   9  -5   17.00    1.70
   3   9   5   19.90    1.70
   3   9   5   17.70    1.30
   3   9   5   20.00    1.80
  -3   9  -5   15.80    2.30
   3   9   5   19.80    1.80
  -3   9  -5   17.90    1.70
  -3   9  -5   18.60    3.00
   4  -9   5   46.80    3.30
   4  -9   5   51.39    2.60
   4   9   5   49.30    2.50
  -4   9  -5   45.40    2.70
  -4   9  -5   45.10    3.30
   4   9   5   45.40    2.30
   4   9   5   45.90    2.40
   5  10  -5   80.09    4.40
  -4 -10   5  166.28    6.50
  -4 -10   5  177.18    9.20
  -4 -10   5  193.28   10.40
  -4  10   5  178.88    7.20
   4  10  -5  178.88    8.60
  -4  10   5  190.18    8.10
  -4  10   5  154.68    7.30
  -4  10   5  143.69    6.80
  -4  10   5  159.28    7.20
  -3 -10   5   30.80    3.40
  -3 -10   5   37.00    3.70
  -3 -10   5   37.20    3.00
  -3 -10   5   31.50    4.40
  -3  10   5   40.80    3.50
  -3  10   5   35.30    3.20
  -3  10   5   42.80    2.90
   3  10  -5   32.30    2.60
  -3  10   5   38.80    2.70
   3  10  -5   38.40    3.70
  -3  10   5   38.40    3.10
  -3  10   5   36.50    3.00
  -3  10   5   38.30    3.20
   2 -10  -5   58.99    6.70
  -2 -10   5   52.19    4.20
  -2 -10   5   56.89    4.80
  -2 -10   5   55.39    4.90
  -2 -10   5   52.49    4.30
  -2 -10   5   53.09    3.90
  -2  10   5   51.89    3.20
  -2  10   5   59.89    4.40
   2  10  -5   51.59    3.90
   2  10  -5   50.29    4.50
  -2  10   5   53.59    3.10
  -2  10   5   54.79    4.00
  -2  10   5   48.40    3.60
  -2  10   5   54.59    4.60
  -2  10   5   49.30    3.40
  -1 -10   5   78.59    5.30
   1 -10  -5   72.49    6.60
  -1 -10   5   72.19    4.90
   1 -10  -5   80.59    6.20
  -1 -10   5   72.89    4.70
  -1 -10   5   72.49    6.80
  -1  10   5   73.29    4.30
   1  10  -5   75.49    5.10
  -1  10   5   72.19    5.10
  -1  10   5   68.39    4.40
  -1  10   5   75.29    4.00
  -1  10   5   78.49    4.90
  -1  10   5   74.29    5.40
   1  10  -5   61.49    4.10
   1  10  -5   73.39    5.30
  -1  10   5   71.99    3.80
   0 -10   5   82.29    5.20
   0 -10   5   73.89    4.90
   0 -10  -5   80.09    6.70
   0 -10   5   77.99    5.90
   0 -10   5   73.09    4.60
   0 -10  -5   73.39    6.10
   0  10   5   76.49    4.40
   0  10  -5   80.49    5.50
   0  10  -5   70.59    4.90
   0  10   5   70.29    4.40
   0  10  -5   75.99    5.10
   0  10  -5   65.79    4.60
   0  10   5   77.79    4.00
   0  10   5   68.39    4.60
  -1 -10  -5   96.49    7.20
   1 -10   5   97.59    5.50
   1 -10   5   95.79    5.50
  -1 -10  -5  103.19    7.90
   1 -10   5   97.69    5.20
  -1  10  -5   76.09    5.60
   1  10   5   88.89    4.90
  -1  10  -5   93.79    5.80
  -1  10  -5   90.79    5.70
   1  10   5   98.29    4.50
   1  10   5   93.69    5.10
   1  10   5   98.39    5.20
   2 -10   5  101.29    5.30
  -2 -10  -5  110.69    7.40
  -2 -10  -5  101.69    8.60
   2 -10   5   95.69    4.90
   2 -10   5   94.19    4.90
   2  10   5  101.59    4.90
  -2  10  -5   87.19    5.00
  -2  10  -5   98.89    5.30
   2  10   5   96.79    4.80
   2  10   5   97.29    4.30
  -2  10  -5   99.89    6.00
   2  10   5   98.39    4.80
  -2  10  -5   82.89    5.60
   3 -10   5    2.50    0.70
   3 -10   5    2.00    0.60
  -3  10  -5    1.70    0.80
   3  10   5    1.70    0.40
  -3  10  -5    1.30    0.60
   3  10   5    1.20    0.40
   3  10   5    2.00    0.70
  -3  10  -5    1.00    0.70
  -3  10  -5    3.60    0.80
  -4  11   5    5.30    1.20
   4  11  -5    4.40    0.70
   4  11  -5    5.40    1.20
  -3 -11   5  150.08    7.90
   3  11  -5  168.68    7.40
  -3  11   5  130.69    6.00
  -3  11   5  148.79    6.20
  -3  11   5  153.28    6.80
  -3  11   5  143.39    6.10
   3  11  -5  157.78    6.70
  -3  11   5  141.19    6.70
  -2 -11   5  172.28    8.80
  -2 -11   5  180.28    7.90
  -2 -11   5  169.18    8.40
  -2 -11   5  181.08    8.20
   2  11  -5  159.88    7.60
   2  11  -5  174.58    7.40
  -2  11   5  149.69    6.70
   2  11  -5  175.08    8.30
  -2  11   5  166.18    7.20
  -2  11   5  167.98    7.80
  -2  11   5  177.58    8.30
  -2  11   5  180.88    7.80
  -2  11   5  169.38    8.10
  -2  11   5  172.18    7.60
  -1 -11   5  102.89    7.50
  -1 -11   5  102.59    5.40
   1 -11  -5   94.29    6.60
  -1 -11   5   90.49    6.20
   1 -11  -5  105.89    6.70
  -1 -11   5  100.39    5.80
  -1  11   5   95.79    4.50
   1  11  -5   97.29    5.20
  -1  11   5  102.09    5.40
  -1  11   5   94.59    5.00
  -1  11   5   96.79    4.80
   1  11  -5   81.39    4.50
   1  11  -5   83.39    4.30
   1  11  -5   96.99    5.80
   0 -11   5   31.70    2.60
   0 -11   5   31.10    2.80
   0 -11   5   33.00    3.00
   0 -11   5   28.20    2.90
   0 -11  -5   29.00    3.60
   0 -11  -5   27.90    4.20
   0  11   5   31.70    2.60
   0  11  -5   30.20    2.70
   0  11   5   28.80    2.40
   0  11   5   33.10    2.20
   0  11  -5   28.90    2.40
   0  11   5   31.80    2.40
   1 -11   5    1.30    0.60
   1 -11   5    3.10    1.10
  -1 -11  -5    2.90    2.10
   1  11   5    0.30    0.40
   1  11   5    0.20    0.30
   1  11   5    0.40    0.30
  -1  11  -5    2.10    0.90
  -1  11  -5    1.20    0.60
   1  11   5    0.50    0.40
   2 -11   5    4.40    0.80
   2 -11   5    3.60    0.80
  -2 -11  -5    3.70    1.40
   2 -11   5    3.60    0.90
  -2  11  -5    4.20    1.10
   2  11   5    4.40    0.70
   2  11   5    3.40    0.70
   2  11   5    5.10    0.60
  -2  11  -5    2.40    0.70
   2  11   5    4.20    0.70
  -2  11  -5    4.00    0.90
   3 -11   5   19.40    1.30
   3  11   5   16.30    1.10
   3  12  -5    7.00    0.70
  -3  12   5    6.00    1.10
  -2 -12   5   93.99    5.80
   2  12  -5   88.49    4.30
  -2  12   5   89.49    4.10
   2  12  -5   86.19    4.00
  -2  12   5   96.99    4.00
  -2  12   5   92.99    4.40
  -1 -12   5   80.69    4.00
  -1 -12   5   72.49    4.30
  -1 -12   5   70.89    4.30
  -1  12   5   68.39    3.40
  -1  12   5   72.69    3.80
  -1  12   5   76.19    3.40
   1  12  -5   72.09    3.90
  -1  12   5   69.09    3.40
   0 -12  -5   50.99    3.90
   0 -12  -5   56.99    4.30
   0 -12   5   56.59    4.00
   0 -12   5   56.89    3.20
   0 -12   5   48.30    3.40
   0 -12   5   50.79    2.80
   0  12   5   48.10    2.60
   0  12   5   51.89    2.50
   0  12  -5   51.89    3.10
   0  12  -5   42.20    2.50
   0  12   5   47.60    2.60
   0  12   5   51.39    3.00
  -1 -12  -5   78.49    4.70
   1 -12   5   80.49    3.70
   1  12   5   69.59    3.40
  -1  12  -5   73.49    3.70
  -1  12  -5   66.09    3.40
   1  12   5   70.29    3.30
   1  12   5   76.89    3.10
   8   0  -6   60.69    2.80
  -8   0   6   54.39    2.90
  -8   0   6   52.59    3.10
   7   0  -6   18.70    1.90
  -7   0   6   17.00    1.80
  -7   0   6   18.50    2.30
  -7   0   6   15.90    1.90
  -7   0   6   18.90    1.80
  -7   0   6   18.30    2.20
   7   0  -6   20.30    2.10
  -6   0   6  117.49    6.40
  -6   0   6  108.49    5.80
  -6   0   6  104.59    5.70
   6   0  -6  107.99    6.40
  -6   0   6  105.09    6.70
   6   0  -6  115.69    6.30
  -6   0   6  101.69    8.00
   6   0  -6  105.59    6.00
  -6   0   6  108.89    6.50
  -5   0   6  457.35   17.90
  -5   0   6  473.75   18.50
  -5   0   6  482.55   18.90
   5   0  -6  473.45   19.90
  -5   0   6  491.45   19.60
  -5   0   6  479.85   18.70
   5   0  -6  444.56   18.90
  -5   0   6  476.55   18.50
   4   0  -6  589.94   24.70
  -4   0   6  625.34   23.00
   4   0  -6  568.64   23.70
  -4   0   6  624.54   22.90
  -4   0   6  631.04   23.20
  -4   0   6  648.44   23.80
  -4   0   6  626.54   22.80
   4   0  -6  576.84   27.60
  -4   0   6  608.94   22.20
   4   0  -6  635.74   23.90
  -4   0   6  653.53   23.70
  -3   0   6  119.49    6.60
   3   0  -6  126.79    8.90
  -3   0   6  126.39    6.40
  -3   0   6  124.89    6.00
  -3   0   6  125.89    6.50
  -3   0   6  119.99    6.00
  -3   0   6  124.69    5.80
   3   0  -6  116.49    6.60
  -2   0   6 1136.69   40.40
   2   0  -6  936.21   38.80
   2   0  -6 1061.09   41.60
  -2   0   6 1103.39   37.50
   2   0  -6 1069.09   38.40
   1   0  -6 2523.65   91.19
   1   0  -6 2503.95   87.79
  -1   0   6 2639.84   89.39
   0   0  -6   44.70    3.80
   0   0  -6   47.40    4.80
   0   0  -6   43.60    4.10
  -1   0  -6  127.29    8.60
  -1   0  -6  129.49    7.10
   1   0   6  132.19    6.60
  -1   0  -6  126.19    7.50
  -1   0  -6  138.49    9.70
   1   0   6  131.49    6.90
   1   0   6  129.09    6.00
  -1   0  -6  120.59    8.30
  -2   0  -6  380.76   16.10
   2   0   6  400.56   16.40
  -2   0  -6  354.66   20.00
   2   0   6  393.36   15.70
  -2   0  -6  367.46   15.50
   2   0   6  382.56   14.40
  -2   0  -6  375.66   18.20
  -2   0  -6  367.86   18.50
   2   0   6  377.86   14.60
   3   0   6   75.59    4.20
  -3   0  -6   65.59    6.50
  -3   0  -6   69.99    6.20
   3   0   6   75.99    5.10
   3   0   6   72.69    4.30
  -3   0  -6   75.19    8.20
   3   0   6   79.39    5.40
  -4   0  -6    1.90    1.80
   4   0   6    2.10    1.00
  -4   0  -6    4.30    1.20
   4   0   6    3.60    0.90
   4   0   6    4.20    1.40
   4   0   6    5.10    1.40
  -4   0  -6    4.40    1.70
  -5   0  -6   47.60    4.10
  -5   0  -6   45.80    3.00
   5   0   6   50.59    3.60
   5   0   6   45.90    3.30
  -5   0  -6   44.00    2.90
  -6   0  -6    0.00    0.20
   6   0   6    0.40    0.30
  -6   0  -6    0.20    0.40
  -8  -1   6  109.29    5.20
  -8  -1   6  114.49    5.00
   8  -1  -6  135.19    6.00
  -8   1   6  113.69    5.00
  -8   1   6  105.09    5.30
   8   1  -6  125.69    4.80
  -7  -1   6   28.70    2.20
   7  -1  -6   29.30    2.40
  -7  -1   6   29.20    2.30
   7  -1  -6   29.70    2.50
  -7  -1   6   28.70    2.80
  -7  -1   6   31.20    2.80
  -7  -1   6   32.50    2.60
  -7   1   6   30.60    2.50
  -7   1   6   28.20    2.80
   7   1  -6   33.80    2.70
   7   1  -6   32.30    2.70
   7   1  -6   31.90    2.70
  -7   1   6   30.20    3.70
  -7   1   6   32.70    2.80
  -7   1   6   26.60    2.20
  -6  -1   6  116.59    6.90
  -6  -1   6  114.49    6.10
   6  -1  -6  117.29    6.20
   6  -1  -6  104.39    5.90
  -6  -1   6  114.29    6.50
   6  -1  -6  110.79    6.40
  -6  -1   6  109.99    5.80
  -6  -1   6  108.49    6.20
  -6   1   6  117.79    6.50
  -6   1   6  112.69    7.10
   6   1  -6  115.19    6.40
  -6   1   6  112.19    6.60
  -6   1   6  109.69    6.20
  -6   1   6  110.99    5.80
   6   1  -6  110.49    6.70
   6   1  -6  109.89    6.40
  -6   1   6  111.79    6.20
   5  -1  -6  324.97   15.10
  -5  -1   6  339.77   14.10
   5  -1  -6  332.27   14.60
  -5  -1   6  339.47   14.00
  -5  -1   6  350.06   14.60
  -5  -1   6  355.26   14.40
  -5  -1   6  359.56   15.10
  -5  -1   6  337.57   13.90
  -5   1   6  361.26   14.50
  -5   1   6  342.17   14.80
  -5   1   6  356.36   15.00
  -5   1   6  336.67   13.90
   5   1  -6  342.77   15.00
  -5   1   6  337.07   13.40
  -5   1   6  355.46   14.50
   5   1  -6  341.17   14.80
  -5   1   6  348.47   14.70
   5   1  -6  383.06   16.30
  -5   1   6  369.86   15.60
   4  -1  -6  113.49    8.60
   4  -1  -6   95.19    6.30
  -4  -1   6  101.29    5.80
  -4  -1   6  102.79    5.70
  -4  -1   6   94.69    5.40
  -4  -1   6   94.89    5.10
   4  -1  -6   84.89    5.80
  -4  -1   6   99.39    5.20
  -4  -1   6   85.69    5.10
   4  -1  -6   94.69    5.60
   4   1  -6   88.09    5.80
  -4   1   6   96.99    5.90
   4   1  -6   95.69    5.90
  -4   1   6   97.99    5.40
   4   1  -6  102.59    6.70
  -4   1   6  102.59    4.90
  -4   1   6  100.09    5.50
  -4   1   6   91.29    5.20
  -4   1   6  101.29    5.80
  -4   1   6   93.39    5.60
   4   1  -6   94.99   11.30
  -4   1   6   92.69    5.20
  -3  -1   6  129.59    6.40
   3  -1  -6  115.09    6.60
  -3  -1   6  129.19    6.00
  -3  -1   6  134.59    6.60
  -3  -1   6  123.99    7.60
   3  -1  -6  126.49    8.80
   3   1  -6  118.69    9.00
  -3   1   6  128.49    6.20
  -3   1   6  121.09    5.80
   3   1  -6  123.09    7.60
  -3   1   6  123.59    5.90
   3   1  -6  137.59    7.20
   3   1  -6  112.59    6.80
  -3   1   6  115.39    6.80
  -3   1   6  130.89    6.40
   2  -1  -6  297.97   16.20
  -2  -1   6  318.87   14.70
  -2  -1   6  296.27   12.40
   2  -1  -6  300.67   13.20
   2   1  -6  305.77   15.70
   2   1  -6  300.37   12.80
  -2   1   6  297.87   12.60
  -2   1   6  297.67   11.90
  -1  -1   6 1233.88   46.60
   1  -1  -6 1286.77   48.00
   1  -1  -6 1186.78   45.60
   1  -1  -6 1251.37   45.40
   1   1  -6 1298.37   48.40
   1   1  -6 1244.38   44.40
   0  -1  -6  675.33   28.20
   0  -1  -6  709.63   30.10
   0  -1   6  760.92   27.60
   0  -1  -6  729.33   27.70
   0   1  -6  683.93   29.80
   0   1  -6  669.33   26.20
   0   1  -6  683.13   28.20
   1  -1   6  480.45   17.80
  -1  -1  -6  493.75   20.70
  -1  -1  -6  525.85   20.40
   1  -1   6  497.25   18.00
   1  -1   6  465.85   19.30
  -1  -1  -6  504.45   21.90
   1  -1   6  505.55   18.80
  -1  -1  -6  493.05   23.70
  -1   1  -6  432.16   18.40
  -1   1  -6  483.45   23.00
   1   1   6  489.55   18.60
  -1   1  -6  493.85   21.30
   1   1   6  490.75   19.30
  -1   1  -6  449.95   21.00
  -1   1  -6  430.06   18.70
  -2  -1  -6  582.04   25.40
  -2  -1  -6  563.24   22.70
  -2  -1  -6  558.14   22.20
   2  -1   6  587.34   20.80
  -2  -1  -6  597.34   27.60
   2  -1   6  537.75   22.30
   2  -1   6  549.54   20.80
   2  -1   6  595.74   22.10
   2   1   6  556.54   22.30
   2   1   6  554.24   21.80
  -2   1  -6  555.44   26.40
  -2   1  -6  570.64   24.40
   2   1   6  524.85   20.10
  -2   1  -6  547.75   24.70
   3  -1   6  272.57   10.80
   3  -1   6  263.17   11.80
  -3  -1  -6  261.97   14.90
   3  -1   6  248.98   12.20
  -3  -1  -6  288.67   16.80
  -3   1  -6  257.77   13.20
   3   1   6  257.07   10.20
  -3   1  -6  232.68   15.20
   3   1   6  258.07   12.20
   3   1   6  271.47   11.90
  -3   1  -6  225.48   12.00
  -3   1  -6  260.97   14.30
   4  -1   6  134.19    7.60
  -4  -1  -6  138.39    8.70
  -4  -1  -6  155.28   10.00
   4  -1   6  147.19    6.80
   4  -1   6  146.89    9.20
   4  -1   6  146.29    6.70
  -4  -1  -6  135.79    7.10
   4   1   6  143.19    7.80
   4   1   6  142.69    8.30
   4   1   6  147.79    6.10
  -4   1  -6  135.89    6.90
  -4   1  -6  133.29    7.00
  -4   1  -6  137.49    9.00
   5  -1   6  201.58    7.60
   5  -1   6  196.98    8.60
   5  -1   6  187.78    7.90
  -5  -1  -6  197.98    8.30
  -5  -1  -6  175.88    8.00
  -5  -1  -6  220.38   10.50
   5   1   6  199.38    8.80
  -5   1  -6  204.88    8.30
  -5   1  -6  179.98    8.20
  -5   1  -6  196.18    9.20
   5   1   6  195.58    8.60
  -5   1  -6  159.08    9.30
  -6  -1  -6   87.09    3.70
  -6  -1  -6   87.89    4.40
  -6   1  -6   85.99    3.60
  -6   1  -6   89.49    4.50
   6   1   6   86.49    3.70
  -8   2   6   33.70    2.20
   8   2  -6   45.50    1.90
  -8   2   6   38.00    2.60
  -7  -2   6   11.00    1.50
  -7  -2   6    8.80    1.50
  -7  -2   6   11.30    1.30
  -7  -2   6   10.70    1.20
   7  -2  -6   11.30    1.60
   7  -2  -6   11.00    1.50
  -7  -2   6   13.10    1.70
  -7   2   6    9.80    1.40
  -7   2   6   10.10    2.10
  -7   2   6    9.10    1.40
   7   2  -6   11.10    1.60
  -7   2   6   11.10    1.90
  -7   2   6   11.00    1.60
   7   2  -6   11.80    1.50
  -7   2   6    7.60    1.80
  -6  -2   6   61.69    4.20
   6  -2  -6   56.39    4.00
  -6  -2   6   64.29    4.00
  -6  -2   6   64.79    3.80
  -6  -2   6   63.79    4.00
   6  -2  -6   62.29    4.10
  -6  -2   6   58.99    4.30
  -6  -2   6   69.09    4.70
  -6   2   6   62.59    4.40
   6   2  -6   64.59    4.30
  -6   2   6   60.39    3.90
   6   2  -6   65.69    4.40
  -6   2   6   62.09    5.10
  -6   2   6   62.49    4.30
  -6   2   6   55.89    3.60
   6   2  -6   60.49    4.70
  -6   2   6   64.19    4.80
  -6   2   6   54.69    4.10
  -5  -2   6   85.09    5.20
  -5  -2   6   84.89    4.80
   5  -2  -6   77.39    4.90
   5  -2  -6   73.79    5.00
  -5  -2   6   84.29    5.30
  -5  -2   6   76.59    4.90
  -5  -2   6   78.49    4.40
  -5   2   6   83.59    5.50
  -5   2   6   88.89    5.40
  -5   2   6   81.09    5.80
   5   2  -6   86.19    5.50
  -5   2   6   81.39    5.20
  -5   2   6   83.99    5.10
  -5   2   6   82.79    5.10
  -5   2   6   80.19    4.70
  -5   2   6   83.09    4.60
   5   2  -6   85.49    6.20
   5   2  -6   81.19    5.30
  -5   2   6   82.39    5.20
  -4  -2   6   21.90    2.50
  -4  -2   6   32.00    4.70
  -4  -2   6   21.40    2.10
   4  -2  -6   21.10    2.50
  -4  -2   6   19.70    2.20
  -4  -2   6   24.10    2.10
  -4   2   6   19.70    2.20
   4   2  -6   21.10    3.00
  -4   2   6   21.70    1.90
   4   2  -6   30.70    4.60
   4   2  -6   18.60    2.60
  -4   2   6   22.80    2.70
  -4   2   6   27.20    2.80
   4   2  -6   20.10    2.40
  -4   2   6   20.10    2.50
  -4   2   6   23.60    2.10
  -4   2   6   20.50    2.20
  -4   2   6   21.90    2.20
  -4   2   6   21.60    3.20
  -3  -2   6   17.60    3.60
  -3  -2   6   25.70    1.90
  -3  -2   6   20.10    3.40
  -3  -2   6   23.10    2.40
   3  -2  -6   21.50    2.60
   3  -2  -6   21.70    3.80
  -3   2   6   22.20    1.90
  -3   2   6   22.00    2.20
  -3   2   6   15.80    2.80
  -3   2   6   23.50    2.00
   3   2  -6   24.90    2.50
  -3   2   6   22.20    3.20
   3   2  -6   29.10    4.40
   3   2  -6   22.00    2.90
  -3   2   6   19.60    2.70
   2  -2  -6  215.28   11.80
  -2  -2   6  234.28   12.40
   2  -2  -6  212.78   10.60
  -2  -2   6  222.98    9.90
   2   2  -6  215.78   12.90
   2   2  -6  215.48   11.40
   2   2  -6  230.48   10.10
  -2   2   6  229.08    9.60
   1  -2  -6  315.57   15.90
   1  -2  -6  304.57   14.40
  -1  -2   6  309.47   15.60
   1   2  -6  317.27   16.40
   1   2  -6  316.57   13.10
  -1   2   6  312.67   13.30
   0  -2  -6   54.59    4.90
   0  -2   6   55.69    3.50
   0  -2  -6   48.40    5.70
   0  -2  -6   58.79    5.30
   0   2  -6   57.99    4.80
   0   2  -6   53.19    3.80
   0   2  -6   54.39    5.50
  -1  -2  -6  170.38   10.80
   1  -2   6  182.38    8.90
  -1  -2  -6  184.78   12.40
  -1  -2  -6  186.28   10.30
   1  -2   6  168.58    8.80
   1  -2   6  178.68    7.90
  -1   2  -6  168.88    8.10
  -1   2  -6  201.08   11.90
  -1   2  -6  179.38   10.20
  -1   2  -6  173.88   10.20
   1   2   6  173.88    8.20
   2  -2   6   67.89    4.50
  -2  -2  -6   61.49    5.40
  -2  -2  -6   65.59    5.60
   2  -2   6   66.49    3.90
   2  -2   6   62.09    3.90
  -2  -2  -6   61.29    5.80
  -2  -2  -6   54.39    7.60
   2  -2   6   64.89    4.70
   2   2   6   71.49    4.90
  -2   2  -6   64.39    5.30
  -2   2  -6   65.99    6.70
   2   2   6   55.79    4.10
   3  -2   6   30.90    3.10
  -3  -2  -6   47.10    7.30
   3  -2   6   28.40    2.60
  -3  -2  -6   34.30    3.50
   3  -2   6   29.60    3.00
  -3  -2  -6   31.50    4.60
   3  -2   6   32.10    2.60
  -3   2  -6   24.70    5.60
   3   2   6   31.00    3.20
  -3   2  -6   29.80    2.50
  -3   2  -6   36.40    5.70
  -3   2  -6   28.80    3.60
   3   2   6   30.50    2.90
  -3   2  -6   30.80    3.50
  -3   2  -6   24.90    2.40
  -4  -2  -6   -0.50    1.60
   4  -2   6    1.80    0.70
  -4  -2  -6    4.30    1.10
   4  -2   6    1.60    0.80
  -4  -2  -6    3.30    1.50
   4  -2   6    4.60    1.30
   4  -2   6    2.30    1.00
   4   2   6    3.40    1.20
  -4   2  -6    3.20    0.90
  -4   2  -6    1.00    1.40
   4   2   6    2.20    1.00
  -4   2  -6    3.10    0.90
  -5  -2  -6    2.40    1.90
  -5  -2  -6    1.50    0.60
  -5  -2  -6    3.50    1.00
   5  -2   6    2.00    0.60
   5  -2   6    1.40    0.80
  -5   2  -6    1.90    1.00
  -5   2  -6    2.50    1.50
  -5   2  -6    0.90    0.90
   5   2   6    1.80    0.70
  -5   2  -6    2.10    0.50
   5   2   6    2.70    0.90
  -6  -2  -6   23.70    2.10
  -6  -2  -6   28.90    1.50
  -6   2  -6   31.50    1.70
  -6   2  -6   29.90    2.10
  -7  -3   6    4.20    0.90
  -7  -3   6    6.20    0.90
  -7  -3   6    5.10    1.10
  -7  -3   6    5.40    1.10
   7  -3  -6    3.60    1.00
   7   3  -6    4.50    1.10
   7   3  -6    4.70    1.10
  -7   3   6    4.70    1.20
   7   3  -6    5.30    1.10
  -7   3   6    5.00    1.10
  -7   3   6    4.10    1.30
  -7   3   6    4.90    1.10
  -7   3   6    5.70    1.10
  -6  -3   6   26.90    2.80
  -6  -3   6   27.90    2.40
  -6  -3   6   32.70    2.80
   6  -3  -6   35.90    2.70
  -6  -3   6   33.10    3.00
   6  -3  -6   30.40    2.80
  -6  -3   6   30.00    2.70
   6   3  -6   26.30    2.60
  -6   3   6   29.80    3.30
  -6   3   6   24.20    2.50
  -6   3   6   29.50    2.40
   6   3  -6   26.70    3.00
  -6   3   6   29.60    3.10
  -6   3   6   30.70    2.90
  -6   3   6   27.10    2.70
  -6   3   6   30.00    2.90
  -6   3   6   27.90    2.50
   6   3  -6   28.70    2.80
  -5  -3   6  166.98    7.60
  -5  -3   6  162.78    8.20
  -5  -3   6  161.98    7.90
  -5  -3   6  166.38    8.50
   5  -3  -6  148.09    7.60
  -5   3   6  169.48    9.20
  -5   3   6  157.38    8.20
  -5   3   6  169.58    8.60
   5   3  -6  163.48    8.40
   5   3  -6  170.58    9.60
  -5   3   6  152.08    8.30
  -5   3   6  163.18    8.30
  -5   3   6  161.68    8.30
   5   3  -6  161.38    8.40
  -5   3   6  157.68    8.20
  -5   3   6  156.98    7.40
  -5   3   6  153.88    7.60
  -5   3   6  159.68    8.30
  -4  -3   6    2.60    1.10
  -4  -3   6    2.40    1.00
  -4  -3   6    3.20    1.30
  -4  -3   6    7.10    3.10
   4  -3  -6    2.40    1.10
  -4   3   6    0.00    1.00
  -4   3   6    2.10    1.20
  -4   3   6    4.00    1.00
  -4   3   6    2.60    1.00
  -4   3   6    2.30    1.10
  -4   3   6    3.70    1.00
  -4   3   6    0.90    1.70
   4   3  -6    1.50    1.10
  -4   3   6    4.40    1.00
  -4   3   6    3.10    0.70
  -4   3   6    2.70    1.00
   4   3  -6    2.70    1.10
   4   3  -6    1.10    1.80
   4   3  -6    1.70    1.10
  -3  -3   6  202.88    9.80
   3  -3  -6  187.18    9.60
  -3  -3   6  201.18   11.90
  -3  -3   6  199.38    9.50
   3   3  -6  185.68    9.30
  -3   3   6  200.78    9.70
  -3   3   6  209.08    9.40
   3   3  -6  200.28   10.90
  -3   3   6  205.88    9.00
  -3   3   6  205.38    9.40
  -3   3   6  202.88    8.40
   3   3  -6  187.08    9.20
  -3   3   6  196.68    8.90
  -3   3   6  201.38    9.00
   3   3  -6  203.68   13.00
  -3   3   6  203.48    8.90
   3   3  -6  167.18   11.20
  -3   3   6  195.08    8.10
  -3   3   6  202.58    9.10
  -2  -3   6   15.30    1.90
   2  -3  -6   19.00    3.50
  -2  -3   6   12.30    3.10
  -2  -3   6   16.60    2.20
  -2  -3   6   15.30    1.90
  -2  -3   6   15.40    2.10
   2  -3  -6   11.50    2.70
   2   3  -6   18.50    2.60
  -2   3   6   12.50    1.90
   2   3  -6   10.30    2.30
  -2   3   6   15.80    1.40
  -2   3   6   16.90    1.70
   2   3  -6   13.70    2.20
  -2   3   6   15.80    1.50
   2   3  -6   14.40    1.90
  -2   3   6   14.40    1.40
   2   3  -6   12.60    2.80
  -1  -3   6    9.10    1.40
  -1  -3   6    8.60    1.60
  -1  -3   6   11.70    2.80
   1  -3  -6    6.50    2.10
   1  -3  -6    9.80    2.60
   1   3  -6    6.30    1.60
   1   3  -6   10.00    2.40
   1   3  -6    7.30    1.50
   1   3  -6    8.00    2.20
   1   3  -6    9.40    3.10
   0  -3   6  472.85   17.60
   0  -3   6  510.65   18.70
   0  -3  -6  480.15   22.80
   0  -3  -6  427.06   20.60
   0  -3  -6  476.35   21.00
   0  -3   6  479.55   17.90
   0   3  -6  486.85   20.30
   0   3  -6  475.85   20.20
   0   3   6  444.86   18.30
   0   3  -6  470.25   22.40
   0   3  -6  454.85   17.70
  -1  -3  -6   48.00    5.20
  -1  -3  -6   45.30    6.00
   1  -3   6   47.20    3.80
   1  -3   6   49.10    3.30
  -1  -3  -6   45.70    4.90
  -1  -3  -6   47.00    5.10
   1  -3   6   49.50    3.40
   1  -3   6   49.70    3.70
   1   3   6   48.60    3.30
   1   3   6   48.00    3.00
  -1   3  -6   55.69    5.60
  -1   3  -6   58.29    4.70
   1   3   6   46.80    3.80
  -1   3  -6   53.69    4.60
  -2  -3  -6 1265.77   46.90
  -2  -3  -6 1323.97   50.39
   2  -3   6 1324.97   44.70
   2  -3   6 1242.98   43.60
  -2  -3  -6 1191.88   51.49
   2  -3   6 1275.67   43.90
  -2  -3  -6 1254.97   47.30
   2  -3   6 1149.58   45.10
  -2   3  -6 1248.28   43.40
   2   3   6 1246.08   44.00
  -2   3  -6 1234.48   48.80
   2   3   6 1274.77   45.30
  -2   3  -6 1252.37   46.80
  -2   3  -6 1227.68   45.70
   2   3   6 1145.19   42.90
   3  -3   6   29.60    2.70
   3  -3   6   30.50    2.60
  -3  -3  -6   31.30    3.70
  -3  -3  -6   29.10    3.80
   3  -3   6   36.80    3.40
   3  -3   6   30.70    3.00
  -3  -3  -6   35.50    4.90
   3   3   6   30.70    3.30
   3   3   6   32.20    2.90
  -3   3  -6   33.80    2.80
  -3   3  -6   34.10    2.60
  -3   3  -6   29.40    3.70
   4  -3   6  206.18    9.00
  -4  -3  -6  215.98   12.60
   4  -3   6  221.88   10.10
   4  -3   6  211.28    9.70
  -4  -3  -6  212.88    9.60
  -4   3  -6  212.08   10.30
   4   3   6  204.98   10.10
  -4   3  -6  209.58    9.50
   4   3   6  212.48    9.60
  -4   3  -6  204.68   11.70
  -4   3  -6  203.68    9.00
   5  -3   6  110.89    4.70
   5  -3   6  107.49    4.80
  -5  -3  -6  110.69    6.80
  -5  -3  -6   93.59    4.60
   5  -3   6  111.39    5.30
  -5   3  -6   96.19    6.30
  -5   3  -6   94.69    4.70
   5   3   6  107.69    5.50
  -5   3  -6  107.29    4.80
   5   3   6   99.59    4.90
  -5   3  -6   88.19    4.60
  -7  -4   6   29.70    2.30
   7  -4  -6   36.70    2.20
  -7  -4   6   29.50    2.10
  -7  -4   6   31.20    2.30
  -7  -4   6   28.00    2.00
  -7   4   6   26.10    2.40
  -7   4   6   30.10    2.40
   7   4  -6   23.10    3.30
   7   4  -6   32.30    2.10
  -7   4   6   27.30    2.70
  -7   4   6   27.80    2.30
   7   4  -6   29.40    2.50
  -7   4   6   31.60    3.00
  -6  -4   6  157.78    7.40
   6  -4  -6  149.19    6.80
  -6  -4   6  151.38    7.40
  -6  -4   6  150.58    7.60
  -6  -4   6  151.18    6.80
  -6   4   6  158.38    7.70
  -6   4   6  149.79    7.00
  -6   4   6  144.39    8.60
   6   4  -6  147.19    8.30
  -6   4   6  147.99    8.20
  -6   4   6  126.49    6.70
  -6   4   6  150.38    7.90
   6   4  -6  150.68    7.30
  -6   4   6  139.59    8.80
   6   4  -6  160.48    7.40
  -6   4   6  162.38    8.00
  -5  -4   6    4.40    1.20
   5  -4  -6    4.70    1.20
  -5  -4   6    4.40    0.90
  -5  -4   6    4.00    0.90
  -5  -4   6    2.40    0.90
   5   4  -6    3.00    1.50
  -5   4   6    5.00    1.00
  -5   4   6    6.80    1.50
  -5   4   6    2.40    1.30
  -5   4   6    6.90    2.10
  -5   4   6    4.30    1.30
   5   4  -6    2.80    1.10
   5   4  -6    3.30    1.30
  -5   4   6    4.70    2.20
  -5   4   6    4.10    1.40
   5   4  -6    4.40    1.30
  -5   4   6    4.70    1.40
  -5   4   6    3.50    1.30
  -4  -4   6  365.46   20.00
  -4  -4   6  402.56   19.30
   4  -4  -6  379.56   15.80
  -4  -4   6  392.46   17.10
  -4  -4   6  404.76   17.80
  -4   4   6  414.16   15.70
   4   4  -6  380.66   16.30
  -4   4   6  394.46   17.10
   4   4  -6  403.56   18.40
  -4   4   6  402.86   16.40
  -4   4   6  424.76   15.50
  -4   4   6  407.96   16.70
  -4   4   6  421.36   17.20
  -4   4   6  410.76   16.40
  -4   4   6  437.36   16.70
  -4   4   6  402.36   18.60
  -4   4   6  422.46   18.80
  -4   4   6  393.76   15.90
   4   4  -6  368.96   18.90
   4   4  -6  380.16   16.30
  -3  -4   6  207.18    9.70
  -3  -4   6  203.98   10.10
  -3  -4   6  205.58   12.70
   3  -4  -6  164.58   12.10
  -3  -4   6  204.48    9.80
  -3   4   6  198.78    9.20
  -3   4   6  195.58    8.50
   3   4  -6  207.68   13.70
  -3   4   6  200.58    9.20
   3   4  -6  185.38    9.20
  -3   4   6  193.28    9.70
  -3   4   6  199.98    9.30
  -3   4   6  205.18    8.30
   3   4  -6  195.38    9.30
   3   4  -6  173.78   11.50
  -3   4   6  207.28    9.60
  -3   4   6  204.78    9.20
   3   4  -6  194.38   10.80
  -3   4   6  197.28    9.10
  -2  -4   6   42.10    3.60
   2  -4  -6   37.90    4.20
  -2  -4   6   39.50    3.30
  -2  -4   6   37.10    2.90
  -2  -4   6   42.90    3.80
  -2  -4   6   41.30    4.90
  -2  -4   6   40.50    3.30
  -2  -4   6   38.50    3.50
  -2   4   6   42.30    3.10
   2   4  -6   34.10    4.80
   2   4  -6   35.60    3.80
  -2   4   6   39.50    2.50
  -2   4   6   39.80    2.90
  -2   4   6   42.90    3.10
  -2   4   6   39.50    3.00
  -2   4   6   37.00    3.00
  -2   4   6   41.00    3.40
  -2   4   6   40.00    2.70
   2   4  -6   32.70    4.50
   2   4  -6   34.80    3.00
   2   4  -6   35.20    3.70
  -1  -4   6  150.78    7.30
  -1  -4   6  175.38    8.20
   1  -4  -6  171.38   10.80
  -1  -4   6  149.39    7.90
  -1  -4   6  145.19    8.40
  -1  -4   6  159.18   10.30
   1   4  -6  142.09    8.70
   1   4  -6  154.38    7.20
  -1   4   6  148.49    6.60
  -1   4   6  137.09    7.10
   1   4  -6  171.18   11.10
  -1   4   6  169.38    7.90
  -1   4   6  156.48    7.30
  -1   4   6  156.58    7.20
   1   4  -6  145.19    7.20
  -1   4   6  156.98    7.10
   0  -4  -6   23.60    4.40
   0  -4   6   27.20    2.90
   0  -4  -6   21.30    3.70
   0  -4   6   25.30    2.40
   0  -4  -6   21.80    4.00
   0  -4   6   30.90    2.80
   0  -4   6   25.80    2.20
   0  -4   6   29.20    4.10
   0   4  -6   33.00    3.40
   0   4  -6   25.40    3.30
   0   4   6   25.20    2.50
   0   4  -6   30.00    4.20
   0   4   6   23.80    2.10
   0   4   6   25.50    1.90
   0   4   6   27.50    2.30
   0   4   6   25.90    2.40
  -1  -4  -6  103.19    8.30
   1  -4   6  107.39    6.80
  -1  -4  -6  104.09    8.10
   1  -4   6  117.39    6.40
  -1  -4  -6  107.39    8.20
   1  -4   6  110.99    5.70
   1  -4   6  109.39    5.90
  -1  -4  -6  111.39    9.80
   1   4   6  106.19    6.10
  -1   4  -6  112.19    8.80
  -1   4  -6  120.59    7.30
   1   4   6  109.79    5.70
  -1   4  -6  120.49    7.50
   1   4   6  114.99    5.60
   1   4   6  117.99    6.60
  -1   4  -6  123.09    7.60
   2  -4   6  615.34   30.00
   2  -4   6  740.23   26.80
  -2  -4  -6  710.53   29.70
  -2  -4  -6  681.73   30.40
   2  -4   6  731.63   26.30
  -2  -4  -6  671.23   33.10
   2  -4   6  711.83   25.90
  -2  -4  -6  713.23   29.90
  -2   4  -6  714.03   28.40
  -2   4  -6  714.33   25.50
  -2   4  -6  669.03   29.90
  -2   4  -6  713.33   34.40
  -2   4  -6  727.73   29.10
   2   4   6  734.43   26.00
  -2   4  -6  697.13   27.00
   2   4   6  682.93   25.40
  -2   4  -6  735.73   26.80
   2   4   6  699.03   27.20
   3  -4   6  140.19    7.20
  -3  -4  -6  150.48    8.90
   3  -4   6  153.18    7.70
  -3  -4  -6  140.49   10.50
   3  -4   6  145.59    7.00
  -3  -4  -6  149.88    8.40
  -3   4  -6  138.09    7.10
   3   4   6  137.59    6.30
   3   4   6  140.39    7.00
  -3   4  -6  146.89    8.50
   3   4   6  143.99    8.10
  -3   4  -6  149.88    9.40
  -3   4  -6  141.69    6.70
   4  -4   6   10.90    1.40
   4  -4   6   11.80    1.60
  -4  -4  -6   12.60    3.20
   4  -4   6   10.60    1.60
  -4   4  -6   10.90    2.20
  -4   4  -6   14.20    1.40
  -4   4  -6   16.10    1.80
   4   4   6   11.40    1.80
   4   4   6   10.80    1.50
  -4   4  -6   14.90    2.10
   5  -4   6  480.45   15.90
   5  -4   6  408.46   16.20
  -5  -4  -6  484.35   20.20
  -5  -4  -6  394.26   16.70
   5  -4   6  460.55   16.10
  -5   4  -6  394.16   15.70
   5   4   6  437.46   16.00
   5   4   6  442.56   16.80
  -5   4  -6  446.56   18.00
  -5   4  -6  452.75   15.80
  -7  -5   6   18.90    1.60
  -7  -5   6   20.30    1.70
  -7  -5   6   18.40    1.60
  -7   5   6   19.80    2.20
  -7   5   6   19.60    1.90
  -7   5   6   18.90    1.90
  -7   5   6   20.00    2.00
   7   5  -6   20.40    1.90
  -7   5   6   21.10    1.90
  -6  -5   6   61.49    3.80
  -6  -5   6   59.59    3.70
  -6  -5   6   53.59    3.40
   6  -5  -6   63.89    3.40
  -6   5   6   62.69    3.90
  -6   5   6   60.79    4.30
   6   5  -6   56.99    3.40
  -6   5   6   54.59    3.40
   6   5  -6   56.89    5.50
   6   5  -6   56.29    4.40
  -6   5   6   58.99    4.30
  -6   5   6   50.19    4.00
  -6   5   6   54.79    4.60
  -6   5   6   58.99    4.10
  -5  -5   6  145.49    7.80
  -5  -5   6  139.59    7.90
   5   5  -6  113.69    8.00
  -5   5   6  134.99    7.70
   5   5  -6  141.19    6.80
  -5   5   6  127.69    6.70
  -5   5   6  121.89    7.30
  -5   5   6  137.29    7.60
  -5   5   6  136.99    9.10
  -5   5   6  148.99    8.80
  -5   5   6  127.69    7.20
  -5   5   6  125.79    6.80
   5   5  -6  134.49    8.40
  -4  -5   6   70.49    4.80
  -4  -5   6   69.49    5.10
  -4  -5   6   71.79    4.30
  -4  -5   6   60.09    7.30
  -4  -5   6   74.39    5.70
  -4   5   6   71.29    4.90
  -4   5   6   73.19    5.00
  -4   5   6   70.39    4.90
  -4   5   6   72.59    5.60
  -4   5   6   73.29    4.30
  -4   5   6   73.99    5.00
  -4   5   6   77.39    5.40
   4   5  -6   71.69    4.50
  -4   5   6   68.49    4.60
  -4   5   6   75.39    4.60
   4   5  -6   73.19    6.50
   4   5  -6   73.59    5.90
  -4   5   6   69.59    4.90
  -4   5   6   68.99    4.40
   4   5  -6   69.09    4.50
  -3  -5   6  329.87   15.00
  -3  -5   6  351.46   15.50
  -3  -5   6  349.77   18.80
   3  -5  -6  309.77   14.80
  -3  -5   6  335.77   14.50
  -3   5   6  327.27   14.40
   3   5  -6  310.47   13.60
  -3   5   6  329.97   14.00
  -3   5   6  334.57   13.40
  -3   5   6  342.47   14.10
  -3   5   6  333.97   13.90
   3   5  -6  346.17   19.70
   3   5  -6  347.47   16.00
  -3   5   6  339.87   14.10
   3   5  -6  317.77   17.10
  -3   5   6  343.07   14.10
  -3   5   6  356.56   14.30
   3   5  -6  330.67   13.80
  -3   5   6  351.96   13.10
  -3   5   6  344.67   14.60
  -2  -5   6   42.40    3.60
  -2  -5   6   44.30    3.80
  -2  -5   6   38.00    3.00
  -2  -5   6   41.90    3.50
  -2  -5   6   41.60    5.50
   2  -5  -6   49.00    4.40
  -2  -5   6   38.10    3.50
  -2   5   6   38.50    3.10
  -2   5   6   41.90    3.10
  -2   5   6   39.00    3.20
  -2   5   6   35.60    4.30
  -2   5   6   40.00    3.20
  -2   5   6   40.00    3.50
  -2   5   6   42.00    3.20
  -2   5   6   39.30    2.50
   2   5  -6   36.90    2.90
   2   5  -6   37.50    5.10
   2   5  -6   42.10    4.10
  -2   5   6   36.50    2.70
   2   5  -6   33.50    4.50
   1  -5  -6  557.64   24.50
  -1  -5   6  589.24   22.40
  -1  -5   6  535.35   23.00
  -1  -5   6  550.84   22.40
  -1  -5   6  559.74   26.50
  -1  -5   6  563.14   21.30
  -1  -5   6  559.24   21.70
   1  -5  -6  582.64   25.80
  -1   5   6  604.24   22.00
  -1   5   6  608.94   21.40
   1   5  -6  572.34   26.60
  -1   5   6  563.04   20.40
  -1   5   6  570.24   21.20
   1   5  -6  560.94   26.10
  -1   5   6  581.14   20.70
   1   5  -6  546.85   25.60
   1   5  -6  554.74   23.70
   1   5  -6  601.54   23.80
  -1   5   6  524.55   20.80
  -1   5   6  575.44   21.60
   0  -5   6   33.60    2.70
   0  -5   6   36.50    3.30
   0  -5  -6   31.20    6.60
   0  -5   6   31.70    4.70
   0  -5   6   38.60    3.50
   0  -5  -6   31.40    5.20
   0  -5   6   36.20    3.00
   0  -5  -6   33.50    4.70
   0   5  -6   38.10    3.70
   0   5   6   38.50    3.00
   0   5  -6   31.10    5.10
   0   5  -6   39.60    3.70
   0   5   6   36.90    2.20
   0   5  -6   27.10    4.60
   0   5   6   31.10    2.90
   0   5   6   32.40    2.30
   0   5   6   31.20    2.70
   0   5   6   37.00    2.70
   1  -5   6  369.76   15.20
  -1  -5  -6  346.67   20.20
   1  -5   6  365.66   14.70
   1  -5   6  355.36   14.30
  -1  -5  -6  353.76   18.00
   1  -5   6  333.77   15.70
  -1  -5  -6  345.97   17.90
  -1  -5  -6  360.76   17.60
  -1   5  -6  364.46   16.50
   1   5   6  358.56   13.40
   1   5   6  350.56   15.00
  -1   5  -6  346.67   17.90
   1   5   6  363.36   14.40
   1   5   6  344.27   14.00
  -1   5  -6  378.56   15.60
  -1   5  -6  377.76   16.60
  -1   5  -6  384.96   21.10
   1   5   6  348.37   13.20
   1   5   6  338.77   14.20
  -2  -5  -6 2247.48   79.09
   2  -5   6 2076.39   74.39
  -2  -5  -6 2139.59   78.79
  -2  -5  -6 2062.99   82.99
   2  -5   6 2083.59   74.99
  -2  -5  -6 2158.98  112.79
   2  -5   6 2131.49   74.19
  -2   5  -6 2147.39   83.59
   2   5   6 2160.58   73.79
   2   5   6 2257.07   74.29
  -2   5  -6 2210.28   77.49
  -2   5  -6 2229.08   75.29
  -2   5  -6 2237.58   76.49
   2   5   6 2222.58   75.59
   2   5   6 2170.98   73.09
  -2   5  -6 2084.99   73.39
  -3  -5  -6  250.17   14.50
   3  -5   6  246.78   10.50
  -3  -5  -6  265.97   15.80
   3  -5   6  250.97   10.80
   3  -5   6  247.28   11.80
  -3  -5  -6  251.67   12.40
   3   5   6  242.78    9.90
   3   5   6  232.08    9.40
  -3   5  -6  228.58   13.30
  -3   5  -6  239.38   10.00
  -3   5  -6  258.17   11.40
  -3   5  -6  229.18   10.50
   3   5   6  241.18   11.50
   4  -5   6   27.40    2.50
  -4  -5  -6   28.90    4.30
   4  -5   6   28.60    2.20
   4  -5   6   30.30    2.40
  -4  -5  -6   28.30    2.00
   4   5   6   28.90    2.30
  -4   5  -6   28.30    2.70
   4   5   6   25.20    1.90
  -4   5  -6   25.00    2.30
   4   5   6   29.20    2.70
  -4   5  -6   28.80    3.30
   4   5   6   28.10    1.70
  -4   5  -6   26.80    2.00
   5  -5   6  582.24   19.40
   5  -5   6  462.15   19.70
  -5  -5  -6  479.35   19.80
   5  -5   6  586.24   19.10
  -5   5  -6  528.15   18.90
   5   5   6  581.54   19.30
   5   5   6  576.04   20.00
  -5   5  -6  553.94   20.90
  -7  -6   6   21.80    1.50
  -7  -6   6   21.20    1.40
  -7   6   6   21.50    2.00
  -7   6   6   23.20    1.80
   7   6  -6   24.60    1.70
  -7   6   6   21.90    1.60
  -6  -6   6   96.59    4.70
  -6  -6   6   88.79    4.20
  -6  -6   6   96.99    4.90
  -6  -6   6   93.29    5.40
  -6   6   6   91.59    5.20
  -6   6   6   79.29    4.40
  -6   6   6   91.19    5.80
  -6   6   6  103.19    5.10
  -6   6   6   86.69    5.40
  -6   6   6   89.09    6.00
   6   6  -6   94.09    5.50
  -5  -6   6   52.19    4.20
  -5  -6   6   52.79    3.10
  -5   6   6   53.69    4.20
   5   6  -6   49.50    4.60
   5   6  -6   53.99    3.10
  -5   6   6   54.19    4.00
  -5   6   6   56.79    4.60
  -5   6   6   58.99    5.00
  -5   6   6   46.60    3.30
  -5   6   6   50.49    4.00
   5   6  -6   52.99    4.50
  -5   6   6   54.09    4.30
  -5   6   6   52.59    3.60
  -5   6   6   48.80    4.00
  -4  -6   6  613.14   23.10
  -4  -6   6  604.44   24.70
  -4  -6   6  597.44   24.00
  -4   6   6  584.04   23.00
   4   6  -6  569.34   21.70
   4   6  -6  573.84   25.50
  -4   6   6  580.04   22.20
  -4   6   6  571.54   23.70
  -4   6   6  580.34   23.30
  -4   6   6  570.04   22.50
   4   6  -6  617.24   24.70
  -4   6   6  597.84   23.20
  -4   6   6  583.24   22.80
  -4   6   6  598.94   23.10
  -4   6   6  630.44   24.20
  -4   6   6  595.24   23.50
  -4   6   6  609.64   21.90
  -3  -6   6   16.90    2.30
  -3  -6   6   16.50    5.30
  -3  -6   6   18.70    4.20
  -3  -6   6   12.70    2.10
  -3  -6   6   14.80    2.20
  -3   6   6   12.30    2.10
  -3   6   6   11.50    1.60
  -3   6   6   13.40    2.40
  -3   6   6   14.30    2.10
  -3   6   6   11.40    2.10
  -3   6   6   14.00    1.90
   3   6  -6   13.30    2.70
   3   6  -6   13.20    1.80
  -3   6   6   12.40    1.80
  -3   6   6   13.20    2.00
  -3   6   6   15.60    1.70
   3   6  -6   15.50    3.00
  -3   6   6   16.00    3.70
  -3   6   6   11.70    1.80
  -2  -6   6   68.29    4.80
   2  -6  -6   69.19    5.70
  -2  -6   6   68.29    4.50
  -2  -6   6   63.19    7.00
  -2  -6   6   64.79    4.90
  -2  -6   6   68.39    5.30
   2   6  -6   62.99    5.20
  -2   6   6   64.79    3.70
  -2   6   6   63.69    5.00
  -2   6   6   70.49    4.70
  -2   6   6   73.89    4.60
   2   6  -6   61.29    6.90
  -2   6   6   65.59    5.00
  -2   6   6   65.59    4.40
  -2   6   6   67.69    5.70
  -2   6   6   62.79    5.30
   2   6  -6   66.29    7.30
  -2   6   6   70.69    5.60
  -1  -6   6  533.05   20.70
  -1  -6   6  528.95   21.00
  -1  -6   6  522.95   25.60
  -1  -6   6  483.75   20.90
   1  -6  -6  511.85   23.20
  -1  -6   6  525.75   20.10
   1   6  -6  500.95   24.20
  -1   6   6  519.35   19.90
  -1   6   6  534.15   19.40
   1   6  -6  513.95   25.00
  -1   6   6  532.45   20.40
  -1   6   6  565.04   20.70
   1   6  -6  516.55   21.60
  -1   6   6  536.45   19.10
   1   6  -6  475.45   24.90
  -1   6   6  551.24   20.10
   0  -6   6  266.17   15.60
   0  -6   6  245.38   12.60
   0  -6  -6  256.17   14.40
   0  -6   6  253.87   11.40
   0  -6  -6  246.28   14.20
   0  -6   6  261.57   13.40
   0  -6   6  267.17   12.20
   0  -6  -6  260.47   16.80
   0   6  -6  248.18   15.40
   0   6   6  263.67   10.40
   0   6   6  261.37   11.40
   0   6   6  276.57   11.90
   0   6  -6  265.17   12.10
   0   6  -6  250.37   14.60
   0   6   6  250.47   10.90
   0   6   6  271.57   11.10
   0   6   6  253.97   10.10
   0   6  -6  254.77   12.80
  -1  -6  -6  111.99    9.80
  -1  -6  -6  112.69    8.70
   1  -6   6  118.69    9.60
   1  -6   6  116.19    6.20
  -1  -6  -6  129.29   12.40
   1  -6   6  121.79    6.90
   1  -6   6  117.39    6.80
   1   6   6  113.79    6.40
   1   6   6  111.49    6.10
   1   6   6  109.59    5.20
   1   6   6  117.99    6.00
   1   6   6  117.59    5.40
  -1   6  -6  127.99    7.30
  -1   6  -6  113.49    7.20
  -1   6  -6  130.59   10.50
  -1   6  -6  120.59    7.60
   1   6   6  121.69    6.40
   2  -6   6  250.87   10.90
  -2  -6  -6  251.97   14.80
  -2  -6  -6  255.57   14.20
   2  -6   6  250.77   11.20
  -2  -6  -6  262.97   14.30
   2  -6   6  262.47   11.80
   2   6   6  260.67   11.00
   2   6   6  245.98    9.70
  -2   6  -6  234.98   10.80
   2   6   6  257.27   11.70
  -2   6  -6  256.17   11.60
   2   6   6  257.57   10.60
  -2   6  -6  249.78   13.10
   2   6   6  248.98    9.90
  -2   6  -6  253.67   11.90
  -3  -6  -6  115.49    7.80
  -3  -6  -6  119.09    7.90
   3  -6   6  119.79    6.20
  -3  -6  -6  124.59    9.30
   3  -6   6  111.29    6.30
   3  -6   6  113.29    5.90
   3   6   6  117.59    6.10
   3   6   6  119.69    5.10
  -3   6  -6  118.19    5.40
  -3   6  -6  116.09    6.20
   3   6   6  120.69    5.60
  -3   6  -6  117.49    7.10
  -3   6  -6  108.69    7.50
   3   6   6  129.99    7.00
  -4  -6  -6   11.50    1.10
   4  -6   6    9.30    1.30
   4  -6   6    9.10    1.50
   4  -6   6   14.00    1.50
  -4  -6  -6   11.20    3.10
  -4   6  -6    9.40    1.50
  -4   6  -6   12.90    1.70
   4   6   6   10.80    1.00
  -4   6  -6   10.80    1.90
  -4   6  -6   11.10    1.10
   4   6   6   10.50    1.30
   4   6   6    9.80    1.80
  -5  -6  -6  239.48    8.80
   5  -6   6  253.17    8.80
   5   6   6  255.37    9.40
  -5   6  -6  218.68    9.80
   5   6   6  231.58    8.90
  -6  -7   6  145.19    7.00
  -6  -7   6  153.28    7.30
  -6  -7   6  153.88    6.50
  -6   7   6  150.68    7.20
  -6   7   6  133.19    7.30
   6   7  -6  157.88    7.30
   6   7  -6  146.39    6.90
  -6   7   6  153.58    6.60
  -6   7   6  145.99    7.30
  -6   7   6  143.39    6.80
  -5  -7   6   68.29    3.60
  -5  -7   6   77.69    5.20
   5   7  -6   71.39    4.90
  -5   7   6   63.69    4.70
  -5   7   6   65.19    4.40
  -5   7   6   69.29    4.90
  -5   7   6   63.69    4.50
  -5   7   6   71.19    4.70
  -5   7   6   67.89    4.60
  -5   7   6   70.39    4.20
   5   7  -6   72.39    5.50
  -5   7   6   61.79    5.10
  -5   7   6   76.39    5.40
  -4  -7   6  348.07   16.10
  -4  -7   6  350.26   15.50
  -4  -7   6  359.36   14.80
   4   7  -6  358.66   15.70
   4   7  -6  336.47   16.70
  -4   7   6  345.97   14.40
  -4   7   6  333.17   15.10
  -4   7   6  328.87   14.20
  -4   7   6  348.37   14.90
  -4   7   6  316.97   14.50
  -4   7   6  347.27   13.60
  -4   7   6  359.66   14.00
  -4   7   6  362.56   15.00
  -4   7   6  354.96   15.20
  -4   7   6  342.27   14.60
  -3  -7   6   84.09    6.20
  -3  -7   6   83.69    6.00
  -3  -7   6   75.09    4.70
  -3  -7   6   88.69    5.80
  -3   7   6   89.59    6.80
  -3   7   6   91.69    5.30
  -3   7   6   84.69    6.10
  -3   7   6   78.99    5.40
   3   7  -6   78.09    5.90
  -3   7   6   88.19    5.50
   3   7  -6   76.19    6.70
  -3   7   6   84.89    4.60
  -3   7   6   85.79    4.80
  -3   7   6   91.39    5.70
  -3   7   6   83.29    5.70
  -3   7   6   84.39    5.30
  -3   7   6   85.59    5.50
  -2  -7   6   20.60    2.90
  -2  -7   6   21.70    2.60
  -2  -7   6   17.50    2.40
   2  -7  -6   16.70    3.50
  -2  -7   6   25.40    5.50
  -2  -7   6   18.30    2.40
  -2  -7   6   17.50    2.20
  -2   7   6   16.70    1.70
  -2   7   6   19.40    3.70
  -2   7   6   15.60    2.00
  -2   7   6   20.80    3.30
   2   7  -6   16.00    3.30
  -2   7   6   17.40    2.10
   2   7  -6   18.30    2.70
  -2   7   6   17.30    2.20
  -2   7   6   17.90    1.70
  -2   7   6   17.70    2.10
  -1  -7   6  353.76   15.20
  -1  -7   6  332.67   15.20
  -1  -7   6  299.57   18.80
  -1  -7   6  344.27   14.20
  -1  -7   6  335.87   14.60
  -1   7   6  342.47   15.10
   1   7  -6  330.77   14.60
  -1   7   6  374.16   14.80
  -1   7   6  345.77   13.40
  -1   7   6  346.57   14.10
   1   7  -6  336.87   14.90
  -1   7   6  359.36   13.20
  -1   7   6  343.77   14.00
   1   7  -6  323.97   17.50
  -1   7   6  349.77   14.40
   0  -7   6  248.68   11.30
   0  -7   6  240.98   10.90
   0  -7   6  244.28   15.20
   0  -7  -6  219.68   13.10
   0  -7  -6  230.78   13.50
   0  -7   6  243.48   11.60
   0  -7   6  232.48   10.30
   0   7   6  234.18    9.40
   0   7   6  232.88   10.20
   0   7   6  213.18    9.50
   0   7   6  236.68   10.70
   0   7   6  221.08    9.50
   0   7  -6  244.08   13.90
   0   7  -6  246.38   11.60
   0   7  -6  227.18   14.50
   0   7   6  231.08   10.60
   1  -7   6  227.98   10.80
   1  -7   6  229.68    9.90
   1  -7   6  214.58   10.70
   1  -7   6  216.68   10.20
  -1  -7  -6  229.68   13.60
  -1  -7  -6  221.78   13.00
   1   7   6  217.08    9.90
  -1   7  -6  246.98   11.30
   1   7   6  214.18    9.80
   1   7   6  215.78    9.00
   1   7   6  208.18    9.80
  -1   7  -6  200.38   11.00
  -1   7  -6  227.28   11.30
   1   7   6  220.68    8.90
   1   7   6  233.58    9.80
  -1   7  -6  230.18   12.90
  -2  -7  -6  431.56   20.10
   2  -7   6  431.26   16.50
   2  -7   6  410.86   16.10
   2  -7   6  428.36   16.90
  -2  -7  -6  408.56   19.70
  -2   7  -6  387.56   16.70
  -2   7  -6  374.26   17.90
   2   7   6  401.36   16.10
   2   7   6  413.06   14.90
   2   7   6  423.16   15.90
   2   7   6  400.96   14.90
   2   7   6  430.06   15.80
  -2   7  -6  415.06   18.80
  -2   7  -6  362.96   15.90
   2   7   6  400.56   16.40
  -3  -7  -6  184.88    9.80
  -3  -7  -6  188.28    9.80
   3  -7   6  184.38    8.30
   3  -7   6  180.58    7.90
   3  -7   6  168.18    8.30
  -3  -7  -6  191.38   11.70
   3   7   6  177.18    6.80
   3   7   6  183.68    8.10
  -3   7  -6  166.88    7.00
  -3   7  -6  181.28    8.90
   3   7   6  173.28    8.40
  -3   7  -6  183.28    9.00
   3   7   6  177.48    7.60
  -3   7  -6  179.78    9.70
  -3   7  -6  161.08    7.90
   4  -7   6   80.29    4.00
   4  -7   6   69.09    3.90
   4  -7   6   79.29    3.80
  -4   7  -6   69.49    3.40
   4   7   6   76.59    3.80
   4   7   6   79.39    4.30
   4   7   6   73.89    3.30
  -4   7  -6   70.09    4.70
  -4   7  -6   75.09    4.20
  -6  -8   6    6.60    0.80
  -6   8   6    8.10    1.50
  -6   8   6    8.70    1.30
   6   8  -6    7.30    1.00
  -5  -8   6   28.40    1.80
  -5  -8   6   29.60    3.00
  -5   8   6   28.30    2.60
  -5   8   6   28.00    2.70
  -5   8   6   29.60    2.60
   5   8  -6   29.50    3.10
  -5   8   6   21.10    2.70
  -5   8   6   31.00    2.70
  -5   8   6   33.20    3.60
  -5   8   6   28.90    2.70
   5   8  -6   26.50    2.40
  -4  -8   6   66.19    5.20
  -4  -8   6   60.89    4.70
   4   8  -6   60.09    4.10
  -4   8   6   62.99    3.90
  -4   8   6   55.19    4.30
  -4   8   6   61.29    4.30
  -4   8   6   65.69    4.20
  -4   8   6   64.99    4.90
  -4   8   6   53.99    4.10
   4   8  -6   62.29    4.40
  -4   8   6   59.19    4.20
   4   8  -6   66.49    5.40
  -4   8   6   65.19    4.70
  -3  -8   6    9.30    1.90
  -3  -8   6    6.70    1.60
  -3  -8   6    9.80    2.20
  -3  -8   6    7.30    2.00
  -3   8   6   10.50    1.60
  -3   8   6   10.90    1.60
  -3   8   6   11.40    1.70
  -3   8   6    9.30    2.00
   3   8  -6    9.60    1.60
   3   8  -6   10.60    3.00
  -3   8   6   10.00    1.90
   3   8  -6   10.30    1.70
  -3   8   6    9.10    1.60
  -3   8   6   10.60    1.70
  -3   8   6    9.90    3.10
   2  -8  -6   63.59    6.40
  -2  -8   6   71.19    5.60
  -2  -8   6   70.59    6.80
  -2  -8   6   70.29    5.00
  -2  -8   6   72.19    5.00
  -2  -8   6   64.99    4.40
  -2   8   6   63.99    3.70
  -2   8   6   66.39    3.90
   2   8  -6   61.99    6.00
  -2   8   6   71.59    5.50
  -2   8   6   69.49    4.90
  -2   8   6   61.79    4.40
  -2   8   6   74.79    6.00
  -2   8   6   66.29    4.30
  -2   8   6   68.99    4.60
  -1  -8   6   10.00    1.90
  -1  -8   6   12.00    2.40
  -1  -8   6   15.40    2.20
   1  -8  -6   22.10    4.40
  -1  -8   6   14.80    2.30
  -1  -8   6   13.60    1.90
   1  -8  -6   11.60    2.70
  -1   8   6   12.50    1.70
  -1   8   6   13.00    1.50
   1   8  -6   11.90    3.00
   1   8  -6   14.20    1.90
  -1   8   6   11.70    1.40
  -1   8   6   11.70    1.80
   1   8  -6   17.50    2.40
  -1   8   6   12.60    1.70
   0  -8   6  124.29    6.60
   0  -8  -6  125.09    9.20
   0  -8   6  128.99    7.40
   0  -8   6  127.09    7.20
   0  -8  -6  116.29    8.70
   0  -8   6  132.39    7.10
   0   8   6  131.69    6.90
   0   8  -6  129.39    7.30
   0   8   6  114.99    5.70
   0   8  -6  130.19    7.70
   0   8  -6  127.99    8.80
   0   8   6  125.69    6.50
   0   8   6  123.39    5.80
   0   8   6  127.69    6.70
  -1  -8  -6   76.89    6.90
   1  -8   6   82.49    5.20
   1  -8   6   80.99    5.10
  -1  -8  -6   82.19    7.30
   1  -8   6   80.99    4.80
   1   8   6   78.69    4.60
   1   8   6   81.09    4.80
   1   8   6   80.09    4.00
   1   8   6   74.79    4.20
  -1   8  -6   83.09    5.50
  -1   8  -6   89.49    5.70
   1   8   6   81.29    4.00
   1   8   6   76.99    4.70
  -1   8  -6   85.79    6.40
  -1   8  -6   72.69    5.50
  -2  -8  -6   16.60    3.50
  -2  -8  -6   19.80    3.40
   2  -8   6   18.50    2.10
   2  -8   6   19.00    1.90
   2  -8   6   15.00    1.90
   2   8   6   15.60    1.80
  -2   8  -6   18.40    2.00
  -2   8  -6   18.30    2.50
  -2   8  -6   16.50    2.20
   2   8   6   19.00    1.80
  -2   8  -6   20.60    2.20
   2   8   6   18.50    1.40
   2   8   6   18.00    1.80
  -2   8  -6   22.40    2.70
   2   8   6   17.70    1.90
   3  -8   6    6.80    1.10
  -3  -8  -6    5.90    1.90
   3  -8   6    5.70    1.20
  -3  -8  -6    3.90    2.00
   3  -8   6    5.20    1.30
  -3   8  -6    6.20    1.60
   3   8   6    7.30    1.10
   3   8   6    6.40    0.70
   3   8   6    5.40    0.90
   3   8   6    6.80    1.20
  -3   8  -6    5.80    1.30
   4  -8   6   24.80    1.60
   4  -8   6   24.00    2.00
  -4   8  -6   23.40    1.70
   4   8   6   23.10    1.60
   4   8   6   24.80    1.60
  -4   8  -6   18.00    1.90
  -5  -9   6  110.59    4.90
  -5  -9   6   95.79    4.70
  -5   9   6  115.39    5.20
  -5   9   6  109.69    5.70
   5   9  -6  122.69    6.20
  -4  -9   6  250.97   12.00
  -4  -9   6  248.68   11.60
  -4   9   6  241.38   10.90
  -4   9   6  248.88   11.10
  -4   9   6  253.17   10.90
  -4   9   6  261.37   10.90
   4   9  -6  269.07   13.40
  -4   9   6  249.28   10.40
  -4   9   6  259.87   10.10
  -4   9   6  272.67   11.20
  -3  -9   6   33.90    3.10
  -3  -9   6   31.20    3.60
  -3  -9   6   33.50    3.40
  -3  -9   6   29.80    3.30
  -3   9   6   39.20    2.80
  -3   9   6   34.10    3.00
   3   9  -6   32.60    2.90
  -3   9   6   33.80    2.80
  -3   9   6   31.80    3.20
   3   9  -6   32.40    3.70
  -3   9   6   34.90    2.50
  -3   9   6   34.80    3.00
  -2  -9   6   74.79    5.10
  -2  -9   6   78.89    5.30
   2  -9  -6   86.39    6.10
  -2  -9   6   77.69    4.60
  -2  -9   6   71.59    5.30
   2   9  -6   72.09    5.10
  -2   9   6   66.59    4.50
  -2   9   6   73.09    4.50
  -2   9   6   75.19    4.00
   2   9  -6   70.09    6.00
  -2   9   6   74.59    4.70
  -2   9   6   80.19    5.00
  -2   9   6   72.39    4.10
  -1  -9   6   29.80    3.70
  -1  -9   6   25.80    2.80
  -1  -9   6   32.00    2.80
   1  -9  -6   25.00    4.90
   1  -9  -6   33.10    4.60
  -1  -9   6   31.40    3.40
  -1  -9   6   27.40    3.20
  -1   9   6   28.60    2.60
  -1   9   6   26.30    2.80
   1   9  -6   32.40    3.30
   1   9  -6   28.70    3.70
  -1   9   6   28.50    2.10
  -1   9   6   28.20    2.20
  -1   9   6   28.30    2.60
   1   9  -6   29.70    2.60
   0  -9  -6  108.49    7.90
   0  -9  -6   98.59    9.80
   0  -9   6  106.89    5.80
   0  -9   6  106.59    8.60
   0  -9   6   99.59    6.10
   0   9  -6  105.99    7.10
   0   9   6  102.79    4.90
   0   9   6  104.79    5.90
   0   9  -6  108.49    6.20
   0   9   6  103.79    4.90
   0   9   6  108.99    5.70
   0   9   6  108.29    5.80
   0   9  -6  112.79    6.70
  -1  -9  -6   45.90    5.20
   1  -9   6   49.99    3.40
  -1  -9  -6   51.89    5.30
   1  -9   6   45.50    3.50
   1  -9   6   50.39    3.60
  -1   9  -6   46.40    3.70
  -1   9  -6   47.20    3.80
   1   9   6   43.90    3.20
  -1   9  -6   49.10    4.00
   1   9   6   42.00    3.20
   1   9   6   47.90    3.30
  -1   9  -6   37.80    4.50
   1   9   6   48.40    2.70
   2  -9   6   28.10    2.40
   2  -9   6   29.60    2.60
  -2  -9  -6   32.50    4.20
   2  -9   6   31.60    2.40
  -2  -9  -6   27.60    3.60
   2   9   6   30.30    2.30
  -2   9  -6   30.70    2.50
   2   9   6   29.10    2.10
   2   9   6   29.70    1.80
  -2   9  -6   23.60    2.60
   2   9   6   29.00    1.90
  -2   9  -6   33.00    2.80
   2   9   6   32.20    2.30
  -3  -9  -6   22.70    2.70
   3  -9   6   27.70    2.10
   3  -9   6   23.10    1.70
   3  -9   6   26.90    1.90
  -3   9  -6   23.30    2.10
  -3   9  -6   28.20    2.20
   3   9   6   26.40    1.70
   3   9   6   25.50    1.80
   3   9   6   25.20    1.50
  -5 -10   6    3.30    0.80
   5  10  -6    2.70    0.50
   5  10  -6    3.70    1.10
  -4 -10   6   25.70    1.50
  -4  10   6   28.80    2.30
  -4  10   6   26.40    2.50
   4  10  -6   29.00    2.70
  -4  10   6   31.40    2.90
  -4  10   6   27.40    2.10
  -4  10   6   24.20    1.90
  -3 -10   6   27.10    3.30
  -3 -10   6   25.70    2.70
  -3  10   6   24.90    2.00
   3  10  -6   22.30    1.90
  -3  10   6   27.00    2.30
  -3  10   6   23.10    2.70
   3  10  -6   24.90    2.90
  -3  10   6   23.60    2.10
  -3  10   6   27.00    2.50
   2 -10  -6   87.69    6.30
  -2 -10   6   89.79    5.50
  -2 -10   6   79.19    4.90
  -2 -10   6   71.59    5.20
  -2 -10   6   70.99    5.10
  -2 -10   6   77.49    4.70
   2  10  -6   73.99    4.70
  -2  10   6   81.29    4.40
  -2  10   6   77.49    4.80
   2  10  -6   78.69    5.50
  -2  10   6   75.49    3.90
  -2  10   6   79.69    3.90
  -2  10   6   78.59    4.60
  -1 -10   6  112.19    5.70
   1 -10  -6  114.69    7.40
   1 -10  -6  100.39    7.10
  -1 -10   6  110.89    6.10
  -1 -10   6  106.19    6.60
  -1 -10   6  104.69    6.00
  -1  10   6  101.49    4.70
   1  10  -6  101.19    5.30
   1  10  -6  111.29    6.60
  -1  10   6  106.79    4.90
  -1  10   6  104.69    5.60
   1  10  -6  105.29    6.20
  -1  10   6   99.99    5.30
  -1  10   6  108.89    5.90
   0 -10   6   33.70    3.30
   0 -10  -6   33.80    4.10
   0 -10   6   33.80    2.70
   0 -10  -6   33.10    4.50
   0 -10   6   35.60    2.90
   0 -10   6   30.90    2.90
   0  10   6   35.60    2.60
   0  10   6   33.80    2.80
   0  10   6   33.30    2.10
   0  10  -6   33.90    3.10
   0  10  -6   33.90    2.80
   0  10  -6   35.50    3.90
   0  10   6   32.50    2.60
  -1 -10  -6   29.40    3.90
  -1 -10  -6   23.50    3.40
   1 -10   6   29.20    2.30
   1 -10   6   29.30    2.50
   1 -10   6   29.40    2.40
   1 -10   6   27.20    2.70
  -1  10  -6   28.20    2.50
   1  10   6   26.10    2.10
   1  10   6   25.90    2.10
  -1  10  -6   27.30    2.50
   1  10   6   25.60    1.70
   1  10   6   26.90    2.20
   2 -10   6   44.90    2.70
  -2 -10  -6   41.40    3.90
   2 -10   6   43.40    2.70
   2 -10   6   46.10    2.90
  -2 -10  -6   52.99    4.10
  -2  10  -6   39.60    2.80
   2  10   6   44.70    2.50
  -2  10  -6   43.10    3.00
   2  10   6   42.60    2.00
   2  10   6   44.20    2.60
  -2  10  -6   38.40    2.60
   3 -10   6    3.60    0.60
   3  10   6    4.00    0.50
  -3  10  -6    3.10    0.60
   3  10   6    2.90    0.50
   4  11  -6   58.39    2.70
  -3 -11   6   44.70    3.70
  -3  11   6   50.89    3.20
  -3  11   6   54.39    3.40
  -3  11   6   56.09    4.00
   3  11  -6   52.09    2.70
  -3  11   6   55.69    2.80
  -3  11   6   48.40    2.70
   3  11  -6   57.69    3.60
  -2 -11   6    1.20    0.90
  -2 -11   6    0.10    0.50
  -2 -11   6    0.60    1.00
   2  11  -6    0.10    0.40
  -2  11   6    0.90    1.00
  -2  11   6    1.00    0.60
  -2  11   6    2.60    0.80
   2  11  -6    0.50    0.70
   2  11  -6    0.70    0.40
  -2  11   6    2.70    0.90
   1 -11  -6   73.09    5.40
  -1 -11   6   83.99    4.20
  -1 -11   6   76.19    4.40
  -1 -11   6   77.29    4.90
  -1 -11   6   74.29    4.60
   1 -11  -6   77.09    5.40
  -1  11   6   79.29    3.90
   1  11  -6   79.89    4.10
  -1  11   6   80.39    4.40
  -1  11   6   74.49    4.00
   1  11  -6   76.09    4.40
  -1  11   6   80.39    3.60
   0 -11   6   70.29    4.20
   0 -11   6   83.59    4.00
   0 -11   6   69.09    4.50
   0 -11  -6   83.19    6.00
   0 -11   6   78.39    4.20
   0 -11  -6   72.89    5.20
   0  11  -6   76.19    4.20
   0  11   6   69.79    3.90
   0  11   6   74.39    3.70
   0  11  -6   65.09    3.60
   0  11   6   75.39    3.80
   0  11   6   72.59    3.30
   1 -11   6  166.48    6.50
  -1 -11  -6  154.28    8.00
   1 -11   6  146.49    7.30
   1 -11   6  159.48    7.00
   1 -11   6  148.19    6.40
   1  11   6  155.48    5.80
   1  11   6  151.68    6.30
  -1  11  -6  142.79    6.60
   1  11   6  155.28    6.30
  -1  11  -6  146.29    6.50
   1  11   6  150.38    6.20
  -2 -11  -6    2.60    1.00
   2 -11   6    2.40    0.50
   2  11   6    2.70    0.40
  -2  11  -6    1.90    0.50
  -2  12   6   31.00    1.80
   1  12  -6    9.70    1.00
  -1  12   6    8.90    0.90
  -1  12   6   12.70    1.40
  -1  12   6   11.70    1.00
   0 -12   6    4.40    0.80
   0  12  -6    4.90    0.60
   0  12   6    4.80    0.60
   0  12   6    4.20    0.50
   0  12   6    4.90    1.30
   7   0  -7   49.10    3.00
  -7   0   7   48.10    3.40
   7   0  -7   42.20    2.70
  -7   0   7   40.50    2.90
  -7   0   7   34.50    2.50
  -7   0   7   45.50    3.50
  -7   0   7   46.20    3.00
   7   0  -7   49.90    3.10
  -6   0   7   86.39    5.30
  -6   0   7   92.69    5.00
  -6   0   7   87.79    5.10
  -6   0   7   78.79    5.60
  -6   0   7   82.79    4.40
   6   0  -7   82.49    5.00
  -6   0   7   89.29    5.20
   6   0  -7   86.39    5.40
   6   0  -7   92.29    5.40
  -5   0   7    7.60    1.50
   5   0  -7    7.60    2.00
  -5   0   7    6.50    1.30
   5   0  -7    5.10    1.50
  -5   0   7    6.80    1.70
  -5   0   7    5.70    1.10
  -5   0   7    9.90    1.40
   5   0  -7    5.90    1.70
  -4   0   7  736.83   27.50
  -4   0   7  715.83   26.50
   4   0  -7  721.73   28.70
   4   0  -7  713.53   27.50
  -4   0   7  681.43   26.10
  -4   0   7  786.02   27.70
  -4   0   7  694.93   25.60
  -4   0   7  773.92   28.50
   4   0  -7  696.83   31.90
  -4   0   7  708.13   26.50
  -3   0   7   93.49    5.20
   3   0  -7   88.99    5.90
  -3   0   7   97.09    4.60
   3   0  -7   94.59    6.60
  -3   0   7   91.99    5.50
  -3   0   7   95.69    5.20
  -3   0   7   96.49    5.00
  -3   0   7  104.99    6.10
   3   0  -7   95.19    9.70
   3   0  -7   98.69    6.10
   2   0  -7  194.88   10.10
  -2   0   7  200.88    8.30
  -2   0   7  223.28    9.40
  -2   0   7  206.88    9.10
   2   0  -7  193.68   10.40
   2   0  -7  208.38   12.70
  -2   0   7  205.78   10.00
  -2   0   7  210.88   10.90
   2   0  -7  217.38   10.10
   2   0  -7  208.28   11.20
  -1   0   7  243.38   11.20
   1   0  -7  227.38   11.40
  -1   0   7  242.58   12.80
   1   0  -7  243.88   14.20
   1   0  -7  249.68   13.10
   1   0  -7  247.98   11.40
   0   0  -7  351.76   20.90
   0   0   7  341.27   13.50
   0   0  -7  327.67   16.10
   0   0  -7  292.37   15.30
   0   0  -7  329.37   14.20
   0   0   7  306.67   13.80
   0   0  -7  309.67   14.40
  -1   0  -7  332.67   16.80
  -1   0  -7  319.97   16.50
  -1   0  -7  331.37   14.40
  -1   0  -7  353.36   19.20
  -1   0  -7  332.27   14.70
   1   0   7  343.97   14.00
   1   0   7  346.77   14.90
  -2   0  -7   75.89    8.10
  -2   0  -7   61.79    4.30
   2   0   7   67.19    5.00
  -2   0  -7   62.59    5.80
   2   0   7   66.39    3.50
   2   0   7   65.19    4.40
  -2   0  -7   70.19    6.60
   3   0   7  123.99    6.60
  -3   0  -7  127.09    8.70
  -3   0  -7  114.99    7.90
   3   0   7  116.89    7.00
   4   0   7  187.78    8.90
  -4   0  -7  194.58   10.40
   4   0   7  188.98    8.40
  -4   0  -7  160.08    8.20
  -4   0  -7  180.58    8.00
   5   0   7   17.80    1.50
   5   0   7   17.40    1.80
  -5   0  -7   14.70    1.30
  -5   0  -7   15.30    2.00
   7  -1  -7  106.39    5.10
  -7  -1   7  106.79    5.60
  -7  -1   7   96.29    5.50
   7  -1  -7  110.39    5.10
  -7  -1   7  110.19    5.10
  -7  -1   7  104.89    5.20
  -7  -1   7   87.99    4.50
  -7   1   7   98.49    5.10
   7   1  -7  100.49    5.20
  -7   1   7   99.89    5.60
  -7   1   7  102.89    6.00
   7   1  -7  114.59    5.20
   7   1  -7  112.69    5.30
  -7   1   7  103.09    5.20
   6  -1  -7   86.39    5.10
   6  -1  -7   84.29    5.10
  -6  -1   7   87.89    5.50
  -6  -1   7   83.59    4.90
  -6  -1   7   81.69    5.20
  -6  -1   7   88.19    5.00
  -6  -1   7   89.49    6.10
   6  -1  -7   86.79    5.00
  -6  -1   7   83.79    4.50
  -6   1   7   80.69    5.00
   6   1  -7   84.49    5.10
  -6   1   7   84.29    5.00
  -6   1   7   80.99    4.90
  -6   1   7   87.19    5.30
  -6   1   7   83.59    5.90
   6   1  -7   79.49    5.50
   6   1  -7   88.09    5.30
  -5  -1   7   69.69    4.00
  -5  -1   7   65.89    4.30
   5  -1  -7   69.19    4.70
  -5  -1   7   65.69    4.20
  -5  -1   7   73.79    4.60
   5  -1  -7   65.79    4.90
  -5  -1   7   69.79    3.90
   5  -1  -7   68.49    4.70
  -5  -1   7   67.49    4.40
  -5  -1   7   72.29    5.00
  -5   1   7   66.19    4.40
  -5   1   7   68.39    4.70
  -5   1   7   64.99    4.60
  -5   1   7   73.19    4.60
   5   1  -7   72.09    5.00
   5   1  -7   76.79    5.60
  -5   1   7   72.99    5.30
   5   1  -7   70.99    4.70
  -5   1   7   63.09    4.30
  -5   1   7   67.49    3.70
  -4  -1   7  193.98    9.20
  -4  -1   7  178.28    8.30
  -4  -1   7  185.38    8.70
  -4  -1   7  186.18    8.30
   4  -1  -7  168.38    9.50
   4  -1  -7  184.58    9.00
  -4  -1   7  178.98    8.50
   4  -1  -7  173.48    9.70
   4   1  -7  172.98    9.10
  -4   1   7  187.88    8.70
   4   1  -7  185.98   10.70
  -4   1   7  180.58    8.50
  -4   1   7  190.18    9.30
   4   1  -7  179.98    9.20
   4   1  -7  187.88   12.50
  -4   1   7  183.08    8.70
  -4   1   7  184.88    8.50
  -4   1   7  184.48    7.90
  -4   1   7  187.48    8.90
  -3  -1   7   70.89    4.20
  -3  -1   7   62.89    4.20
  -3  -1   7   65.89    6.10
   3  -1  -7   68.39    5.10
   3  -1  -7   64.29    4.60
  -3  -1   7   65.99    3.90
   3  -1  -7   55.09    4.80
  -3   1   7   66.79    4.20
  -3   1   7   67.09    5.00
   3   1  -7   73.09    6.80
  -3   1   7   60.89    4.30
  -3   1   7   64.99    3.80
  -3   1   7   62.59    3.50
   3   1  -7   67.69    5.40
  -3   1   7   62.59    4.20
   3   1  -7   60.59    4.50
  -3   1   7   61.29    3.60
   3   1  -7   61.59    4.60
  -2  -1   7  998.30   34.30
   2  -1  -7  910.51   38.70
   2  -1  -7  924.01   40.40
  -2  -1   7  946.31   33.00
  -2  -1   7  930.61   37.30
   2  -1  -7  920.61   35.30
  -2  -1   7  947.31   34.60
  -2   1   7  961.00   33.90
  -2   1   7  897.91   34.70
   2   1  -7  947.11   35.30
   2   1  -7 1007.20   37.00
  -2   1   7  960.90   33.20
  -2   1   7  964.00   34.00
  -2   1   7  982.60   33.50
  -2   1   7 1025.10   35.20
   2   1  -7  989.40   35.30
   2   1  -7  951.40   39.60
  -2   1   7  954.60   34.00
   2   1  -7  904.11   36.20
   1  -1  -7   91.39    7.50
  -1  -1   7   86.59    6.60
   1  -1  -7   76.89    5.80
  -1  -1   7   79.39    4.80
  -1  -1   7   74.39    5.20
   1  -1  -7   86.39    5.80
   1  -1  -7   76.49    6.30
   1   1  -7   96.99    5.70
   1   1  -7   81.59    5.80
   1   1  -7   85.99    6.50
   1   1  -7   70.79    5.00
  -1   1   7   74.49    5.00
  -1   1   7   79.29    6.00
  -1   1   7   82.49    4.00
   1   1  -7   83.19    7.70
  -1   1   7   74.39    4.90
   0  -1  -7  112.99   10.00
   0  -1   7  103.19    5.80
   0  -1  -7  110.79    7.00
   0  -1   7   99.89    6.20
   0  -1  -7   92.99    7.10
   0  -1  -7  105.89    7.10
   0   1   7  105.99    6.10
   0   1  -7  105.09    7.40
   0   1  -7   98.69    6.10
   0   1  -7  113.39    8.90
   0   1   7  103.49    5.50
   0   1  -7  100.49    6.00
   1  -1   7  223.78   10.00
   1  -1   7  216.88    8.80
  -1  -1  -7  227.28   10.80
  -1  -1  -7  227.88   12.60
  -1  -1  -7  229.98   14.70
  -1  -1  -7  233.08   12.90
  -1  -1  -7  217.58   11.10
   1  -1   7  211.78   10.50
   1   1   7  211.78    9.60
  -1   1  -7  214.18   12.10
  -1   1  -7  203.28    9.80
  -1   1  -7  200.48    9.70
  -1   1  -7  192.38   13.50
   1   1   7  203.48    8.90
  -1   1  -7  217.58   16.00
   1   1   7  217.38   10.60
  -2  -1  -7   29.30    4.00
   2  -1   7   26.70    2.80
  -2  -1  -7   28.90    3.30
   2  -1   7   24.70    2.30
   2  -1   7   28.00    2.70
  -2  -1  -7   22.90    4.60
  -2  -1  -7   26.70    3.30
  -2  -1  -7   32.90    5.80
   2  -1   7   27.50    3.00
   2   1   7   25.10    2.90
  -2   1  -7   25.80    3.90
   2   1   7   26.10    2.60
  -2   1  -7   26.50    5.00
  -2   1  -7   28.90    3.80
   3  -1   7  518.65   19.00
  -3  -1  -7  551.24   23.10
   3  -1   7  512.75   20.10
   3  -1   7  497.15   20.90
   3  -1   7  519.95   18.80
   3   1   7  518.95   19.90
   3   1   7  494.85   20.60
  -3   1  -7  502.25   22.30
  -3   1  -7  478.75   25.10
  -4  -1  -7  251.47   12.50
  -4  -1  -7  237.88   11.90
   4  -1   7  233.08   10.30
   4  -1   7  243.18   11.00
  -4   1  -7  243.78   11.90
   4   1   7  235.98   10.20
  -4   1  -7  224.08    9.70
   4   1   7  239.28   10.80
   5  -1   7   16.70    1.50
  -5  -1  -7   14.50    1.30
   5   1   7   18.40    1.60
   5   1   7   14.30    1.00
   5   1   7   16.30    1.40
  -5   1  -7   14.60    1.90
  -5   1  -7   15.10    1.20
  -7  -2   7   69.69    3.60
  -7  -2   7   81.49    4.20
  -7  -2   7   69.19    4.10
  -7  -2   7   81.39    3.90
   7  -2  -7   83.39    4.00
  -7  -2   7   77.09    4.40
   7  -2  -7   80.09    4.00
   7   2  -7   84.39    4.40
  -7   2   7   76.99    4.90
  -7   2   7   76.79    4.10
  -7   2   7   77.29    4.30
   7   2  -7   84.19    4.10
  -7   2   7   80.19    4.70
   7   2  -7   85.89    4.20
  -7   2   7   68.39    3.70
  -6  -2   7  103.39    6.00
  -6  -2   7   96.99    5.70
   6  -2  -7  104.19    5.60
   6  -2  -7  101.79    5.50
  -6  -2   7  106.09    5.50
  -6  -2   7  101.49    5.60
  -6  -2   7  105.29    5.10
  -6   2   7  102.89    5.70
  -6   2   7   99.09    6.10
  -6   2   7  101.59    5.80
   6   2  -7  105.39    5.80
  -6   2   7   98.49    5.70
  -6   2   7  108.69    6.60
   6   2  -7  107.99    5.80
   6   2  -7  101.69    6.30
   5  -2  -7   41.60    3.50
  -5  -2   7   48.30    3.10
  -5  -2   7   47.80    3.60
  -5  -2   7   47.40    3.50
  -5  -2   7   48.00    3.80
  -5  -2   7   45.30    3.30
   5  -2  -7   47.30    3.50
  -5   2   7   46.40    3.60
  -5   2   7   42.30    3.80
  -5   2   7   43.90    3.40
   5   2  -7   46.00    3.80
   5   2  -7   49.60    3.90
   5   2  -7   53.59    4.70
  -5   2   7   42.30    3.50
  -5   2   7   44.00    3.60
  -5   2   7   47.60    3.00
  -5   2   7   46.20    4.00
  -4  -2   7  502.85   19.80
  -4  -2   7  532.75   19.00
  -4  -2   7  495.35   18.80
   4  -2  -7  485.75   19.60
  -4  -2   7  515.25   19.70
   4  -2  -7  481.25   22.70
  -4  -2   7  473.85   18.70
  -4   2   7  484.55   19.10
  -4   2   7  504.05   20.20
  -4   2   7  501.35   19.20
  -4   2   7  478.15   19.40
  -4   2   7  496.25   18.50
  -4   2   7  491.75   19.20
  -4   2   7  521.55   19.90
   4   2  -7  503.75   21.50
   4   2  -7  483.95   19.90
   4   2  -7  493.85   19.90
   4   2  -7  478.05   25.50
  -4   2   7  476.35   19.20
   3  -2  -7  880.01   35.40
  -3  -2   7  950.20   33.80
  -3  -2   7  937.31   35.40
   3  -2  -7  874.31   35.00
   3  -2  -7  915.21   34.70
   3  -2  -7  928.01   38.70
  -3  -2   7  908.91   37.40
  -3  -2   7  957.50   33.30
  -3   2   7  978.30   34.30
  -3   2   7  962.20   34.00
  -3   2   7  929.51   33.00
  -3   2   7  949.11   33.60
   3   2  -7  930.31   36.40
  -3   2   7 1004.90   34.10
   3   2  -7  922.21   39.90
  -3   2   7  955.80   33.50
  -3   2   7  939.91   33.40
   3   2  -7  904.21   34.50
  -3   2   7  985.20   35.00
   3   2  -7  914.01   34.50
  -3   2   7  957.20   32.70
  -2  -2   7   13.10    4.80
  -2  -2   7   19.50    2.10
  -2  -2   7   19.60    2.50
  -2  -2   7   19.90    2.30
   2  -2  -7   23.50    2.90
  -2   2   7   16.50    2.10
  -2   2   7   16.60    2.20
  -2   2   7   20.80    2.00
   2   2  -7   20.90    4.50
  -2   2   7   17.80    2.50
  -2   2   7   20.00    2.00
   2   2  -7   20.90    3.00
  -2   2   7   22.00    1.90
   2   2  -7   15.80    2.50
  -2   2   7   21.70    1.70
   2   2  -7   18.10    2.40
  -2   2   7   23.40    2.10
   2   2  -7   20.00    2.40
   2   2  -7   17.30    4.10
   1  -2  -7  168.08   10.90
   1  -2  -7  147.49    9.00
   1  -2  -7  155.28    8.90
   1  -2  -7  154.18    9.40
  -1  -2   7  167.68   13.10
  -1  -2   7  158.88    7.90
  -1  -2   7  144.79    8.10
   1   2  -7  146.49    8.80
   1   2  -7  148.69    7.80
  -1   2   7  157.18    7.00
   1   2  -7  150.18    7.70
  -1   2   7  143.49    8.10
  -1   2   7  155.38    7.00
  -1   2   7  154.28    7.70
   1   2  -7  150.18   13.40
  -1   2   7  151.38    7.00
  -1   2   7  154.38    6.60
  -1   2   7  145.29    7.60
   1   2  -7  154.28    9.10
   0  -2   7    8.20    1.60
   0  -2  -7   11.60    3.30
   0  -2   7   11.80    1.80
   0  -2   7   12.20    1.90
   0  -2  -7   14.60    3.00
   0  -2  -7   11.60    2.70
   0  -2  -7   10.40    2.40
   0  -2  -7    5.40    2.40
   0   2   7   13.40    1.90
   0   2  -7   11.70    2.60
   0   2  -7   13.80    2.10
   0   2   7   13.20    1.40
   0   2  -7   10.00    2.00
   0   2   7   13.80    1.50
   0   2  -7   17.40    2.40
   0   2   7    7.70    2.00
   1  -2   7  122.79    6.60
   1  -2   7  118.29    5.90
   1  -2   7  113.59    7.00
  -1  -2  -7  125.99    8.10
  -1  -2  -7  134.79    9.00
  -1  -2  -7  134.09   10.50
  -1  -2  -7  119.19    7.50
   1  -2   7  124.19    5.80
   1   2   7  110.09    6.70
  -1   2  -7  117.09    9.60
  -1   2  -7  106.39    5.70
   1   2   7  110.69    5.70
   1   2   7  109.09    5.90
  -1   2  -7  116.19    8.00
  -1   2  -7  100.49    7.50
   2  -2   7  180.18    8.80
  -2  -2  -7  178.58    9.60
   2  -2   7  165.98    9.20
  -2  -2  -7  190.88   13.50
  -2  -2  -7  171.28   11.00
   2  -2   7  177.98    7.80
   2  -2   7  171.28    7.90
  -2  -2  -7  170.68    9.10
   2   2   7  171.08    8.20
   2   2   7  162.68    9.00
  -2   2  -7  181.48   12.30
  -2   2  -7  180.48   10.70
  -2   2  -7  168.38    7.80
  -2   2  -7  175.88   10.00
   3  -2   7   84.99    5.20
  -3  -2  -7   76.19    7.00
   3  -2   7   77.99    5.40
   3  -2   7   78.49    4.40
  -3  -2  -7   74.99    7.10
   3   2   7   73.19    5.60
  -3   2  -7   78.59    5.20
   3   2   7   71.89    5.60
  -3   2  -7   75.99    4.30
  -3   2  -7   86.09    6.60
   4  -2   7   31.30    2.90
   4  -2   7   36.40    2.30
   4  -2   7   35.90    3.10
  -4  -2  -7   37.70    4.40
  -4  -2  -7   37.90    3.50
   4  -2   7   34.40    2.80
  -4   2  -7   30.30    3.90
   4   2   7   35.40    2.70
   4   2   7   36.10    3.10
  -4   2  -7   39.40    2.50
  -4   2  -7   35.00    3.70
  -5  -2  -7  114.49    4.70
   5  -2   7  117.99    5.00
   5   2   7  109.19    5.10
   5   2   7  105.49    4.10
  -5   2  -7  111.39    4.50
   5   2   7   96.49    4.40
  -5   2  -7  107.39    5.80
   5   2   7   98.09    4.30
  -7  -3   7    1.70    0.70
  -7  -3   7    1.10    0.70
  -7  -3   7    0.80    0.50
   7  -3  -7    0.00    0.50
   7   3  -7    1.70    0.70
  -7   3   7    1.40    0.60
  -7   3   7    1.10    0.80
  -7   3   7    0.60    0.70
  -7   3   7    1.00    0.70
   7   3  -7    0.40    0.50
  -7   3   7    1.40    0.70
  -6  -3   7   97.29    5.40
  -6  -3   7  106.59    6.00
   6  -3  -7  111.99    5.70
  -6  -3   7  106.99    6.10
  -6  -3   7  108.89    5.70
   6  -3  -7  114.39    5.70
  -6  -3   7  116.19    5.70
  -6  -3   7  108.59    5.20
  -6   3   7  106.49    5.80
  -6   3   7  113.09    6.10
   6   3  -7  113.49    6.70
  -6   3   7  110.29    6.90
   6   3  -7  118.69    6.00
  -6   3   7  114.19    6.10
   6   3  -7  120.69    6.10
  -6   3   7  109.49    5.50
  -6   3   7  111.39    6.30
  -5  -3   7  106.69    5.50
   5  -3  -7   96.89    5.60
   5  -3  -7  100.39    5.70
  -5  -3   7   91.79    5.70
  -5  -3   7  104.39    6.00
  -5  -3   7  105.29    6.00
   5   3  -7  103.99    6.20
  -5   3   7  112.89    7.50
  -5   3   7  102.19    5.90
  -5   3   7   96.29    6.50
  -5   3   7   99.19    6.00
  -5   3   7  103.59    6.30
   5   3  -7  105.89    6.10
  -5   3   7  103.89    5.40
  -5   3   7   91.79    6.40
   5   3  -7  105.09    7.10
  -5   3   7  105.29    8.20
   4  -3  -7   14.30    2.20
  -4  -3   7   15.20    1.90
  -4  -3   7   16.40    1.70
  -4  -3   7   14.40    1.70
  -4  -3   7    8.30    6.00
  -4  -3   7   13.50    2.10
  -4   3   7   10.80    1.90
  -4   3   7   13.00    2.90
  -4   3   7   14.40    1.90
   4   3  -7   16.90    2.20
  -4   3   7   19.80    2.60
  -4   3   7   17.00    2.00
   4   3  -7   19.20    4.50
  -4   3   7   12.80    2.20
   4   3  -7   15.00    2.20
  -4   3   7   14.80    2.10
   4   3  -7   15.60    2.60
  -4   3   7   16.20    1.70
  -4   3   7   13.70    1.90
   3  -3  -7  356.96   18.80
  -3  -3   7  416.86   21.00
  -3  -3   7  442.96   17.90
   3  -3  -7  403.56   17.60
  -3  -3   7  449.76   16.40
  -3  -3   7  439.46   17.30
   3   3  -7  399.86   20.20
   3   3  -7  449.36   22.90
   3   3  -7  453.15   17.60
   3   3  -7  439.76   17.70
  -3   3   7  436.86   17.10
  -3   3   7  437.66   17.50
   3   3  -7  440.36   19.60
  -3   3   7  437.56   16.90
  -3   3   7  450.25   16.90
  -3   3   7  435.76   18.00
  -3   3   7  423.46   17.00
  -3   3   7  435.76   16.40
  -3   3   7  422.86   15.90
   2  -3  -7    7.80    2.40
   2  -3  -7   12.60    2.70
  -2  -3   7    8.50    2.30
   2  -3  -7   12.80    3.80
  -2  -3   7    8.40    1.90
   2  -3  -7    5.70    1.80
  -2  -3   7    9.80    1.50
   2   3  -7   11.00    2.30
   2   3  -7    8.10    1.70
  -2   3   7    8.20    1.60
   2   3  -7   10.40    1.90
  -2   3   7   11.20    1.50
  -2   3   7   11.00    1.50
  -2   3   7    7.40    2.00
   2   3  -7    8.20    2.70
  -2   3   7   14.00    1.50
   2   3  -7    8.90    2.00
  -2   3   7   11.40    1.20
  -2   3   7   10.00    1.60
   2   3  -7    8.10    3.00
   1  -3  -7  877.61   35.20
   1  -3  -7  866.11   34.60
  -1  -3   7  837.82   33.50
  -1  -3   7  939.21   32.90
  -1  -3   7  863.01   31.20
   1  -3  -7  857.71   35.10
   1  -3  -7  912.71   37.30
  -1  -3   7  845.42   36.40
  -1   3   7  937.71   32.60
   1   3  -7  834.02   32.10
  -1   3   7  866.61   32.30
   1   3  -7  871.51   32.10
  -1   3   7  900.71   31.80
   1   3  -7  932.91   34.90
  -1   3   7  935.61   31.80
   1   3  -7  838.32   34.40
  -1   3   7  928.61   31.80
   1   3  -7  890.51   38.10
  -1   3   7  910.61   31.20
   0  -3  -7  329.57   18.20
   0  -3   7  327.47   13.10
   0  -3  -7  280.87   15.40
   0  -3  -7  342.47   16.00
   0  -3   7  352.46   14.20
   0  -3  -7  322.47   16.10
   0  -3   7  319.07   12.70
   0  -3   7  313.87   17.00
   0   3  -7  322.37   15.70
   0   3   7  328.67   13.50
   0   3  -7  325.77   17.70
   0   3   7  320.97   13.00
   0   3   7  329.27   12.40
   0   3  -7  340.07   15.60
   0   3  -7  303.87   12.90
   0   3   7  316.97   14.70
   0   3   7  319.07   13.90
   0   3   7  331.17   12.90
   0   3   7  330.37   12.70
  -1  -3  -7  254.47   13.90
   1  -3   7  245.78   10.70
  -1  -3  -7  250.47   18.20
   1  -3   7  281.07   12.20
   1  -3   7  228.88   11.80
  -1  -3  -7  261.47   16.40
  -1  -3  -7  250.37   13.20
  -1   3  -7  270.57   15.40
  -1   3  -7  248.18   13.20
   1   3   7  235.08   10.40
   1   3   7  243.88   10.10
  -1   3  -7  254.87   12.50
   1   3   7  248.28   13.70
  -1   3  -7  242.38   13.10
   1   3   7  248.88   10.00
   1   3   7  243.48   10.30
   2  -3   7  258.77   10.50
  -2  -3  -7  249.08   12.70
  -2  -3  -7  249.28   12.40
  -2  -3  -7  239.68   14.20
   2  -3   7  225.38   11.60
   2  -3   7  242.18   10.60
   2  -3   7  254.27   11.20
   2   3   7  243.18   10.50
   2   3   7  246.08   11.70
  -2   3  -7  240.18   11.80
   2   3   7  241.18   10.30
  -2   3  -7  246.08   10.10
  -2   3  -7  239.18   12.80
   3  -3   7  187.48    8.20
   3  -3   7  185.98    8.80
   3  -3   7  183.48    7.90
   3  -3   7  174.98    9.10
  -3  -3  -7  188.58    8.30
  -3  -3  -7  182.38   11.70
  -3   3  -7  178.88    9.90
  -3   3  -7  179.48    7.80
   3   3   7  176.88    8.10
  -3   3  -7  176.88   10.30
   3   3   7  173.78    9.20
   4  -3   7   86.29    5.20
  -4  -3  -7   81.69    8.20
  -4  -3  -7  107.29    7.10
   4  -3   7   92.69    4.50
   4  -3   7   90.39    4.90
  -4   3  -7   77.09    5.70
   4   3   7   86.89    5.20
  -4   3  -7   78.89    5.10
  -4   3  -7   84.19    4.20
   4   3   7   85.69    4.40
   4   3   7   96.39    6.00
  -5  -3  -7   12.30    1.10
   5  -3   7   11.60    1.20
  -5   3  -7   12.50    0.90
   5   3   7   13.40    1.30
  -5   3  -7   11.40    1.50
   5   3   7   12.10    0.90
  -7  -4   7  113.59    4.80
  -7  -4   7  117.19    5.10
  -7  -4   7  102.99    4.50
  -7   4   7  111.59    5.80
   7   4  -7  100.59    5.40
  -7   4   7  115.39    5.20
  -7   4   7  100.79    4.70
  -7   4   7   96.49    4.80
  -7   4   7   89.69    5.00
  -6  -4   7   61.79    3.70
  -6  -4   7   64.89    4.00
  -6  -4   7   58.89    3.60
   6  -4  -7   63.89    3.60
  -6  -4   7   63.69    3.50
  -6  -4   7   58.79    3.80
  -6   4   7   56.69    4.10
  -6   4   7   55.39    3.80
   6   4  -7   63.09    3.70
  -6   4   7   59.29    4.10
  -6   4   7   59.69    4.60
  -6   4   7   61.49    3.60
   6   4  -7   54.89    3.70
  -6   4   7   59.49    4.10
   6   4  -7   63.09    4.60
  -5  -4   7   45.30    3.10
  -5  -4   7   39.50    2.90
  -5  -4   7   42.60    3.10
  -5  -4   7   39.40    3.40
  -5   4   7   37.90    3.10
   5   4  -7   43.20    3.30
  -5   4   7   40.30    3.80
  -5   4   7   40.20    3.80
  -5   4   7   35.80    3.20
  -5   4   7   37.00    3.50
  -5   4   7   39.10    2.80
   5   4  -7   40.40    3.30
  -5   4   7   45.60    4.10
  -5   4   7   41.70    3.40
   5   4  -7   37.50    3.90
  -4  -4   7  287.27   12.30
  -4  -4   7  298.87   13.50
  -4  -4   7  281.87   11.60
  -4  -4   7  305.67   12.60
   4  -4  -7  281.87   12.40
  -4   4   7  285.07   12.60
   4   4  -7  307.57   14.80
  -4   4   7  288.27   12.60
  -4   4   7  301.67   11.70
  -4   4   7  307.37   12.20
   4   4  -7  291.67   12.80
  -4   4   7  312.87   13.10
  -4   4   7  289.67   13.60
  -4   4   7  288.87   13.40
   4   4  -7  283.07   15.00
   4   4  -7  302.87   12.80
  -4   4   7  295.97   13.10
  -4   4   7  307.87   12.80
  -4   4   7  284.67   12.50
  -3  -4   7  224.38   10.20
  -3  -4   7  202.48   13.40
  -3  -4   7  205.18   10.40
  -3  -4   7  205.88   10.40
   3  -4  -7  204.88   10.40
  -3   4   7  211.68    9.90
  -3   4   7  209.38    8.80
   3   4  -7  219.08   10.00
  -3   4   7  208.68    9.90
  -3   4   7  218.28    9.70
  -3   4   7  226.98   10.80
   3   4  -7  218.48   14.90
   3   4  -7  218.08   11.80
  -3   4   7  222.58    9.90
   3   4  -7  223.98   10.10
  -3   4   7  211.28    9.20
  -3   4   7  211.68   10.10
  -2  -4   7  769.82   30.60
  -2  -4   7  840.12   30.80
   2  -4  -7  746.53   31.40
  -2  -4   7  764.52   34.70
   2  -4  -7  766.52   32.10
  -2  -4   7  744.53   31.20
  -2  -4   7  845.32   30.50
  -2   4   7  814.92   29.70
  -2   4   7  818.32   29.30
  -2   4   7  825.22   29.60
  -2   4   7  789.92   29.00
  -2   4   7  844.82   30.50
   2   4  -7  794.42   35.90
   2   4  -7  819.72   29.80
  -2   4   7  830.22   29.80
   2   4  -7  789.32   34.20
   2   4  -7  847.92   29.90
  -2   4   7  828.62   29.00
  -2   4   7  877.11   29.80
  -2   4   7  843.32   28.50
   2   4  -7  832.02   32.50
  -1  -4   7   90.89    5.80
   1  -4  -7   86.19    6.70
  -1  -4   7   87.19    4.80
   1  -4  -7   87.59    7.30
  -1  -4   7   91.19    7.80
  -1  -4   7   91.09    5.70
  -1  -4   7   85.99    5.10
  -1  -4   7   83.69    6.00
  -1  -4   7   82.99    5.60
   1  -4  -7  113.09    9.50
   1  -4  -7   88.49    6.80
  -1   4   7   88.19    5.20
   1   4  -7   96.69    8.30
  -1   4   7   98.99    5.20
  -1   4   7   87.19    4.90
   1   4  -7   82.69    5.20
  -1   4   7   99.29    5.70
   1   4  -7   88.19    6.60
   1   4  -7   84.89    6.50
  -1   4   7  101.39    5.20
  -1   4   7   91.59    4.60
  -1   4   7   91.99    5.00
   1   4  -7   87.19    4.90
  -1   4   7   93.89    4.30
   0  -4  -7 1244.48   48.20
   0  -4  -7 1186.88   50.69
   0  -4   7 1167.08   45.90
   0  -4   7 1284.17   45.30
   0  -4   7 1266.17   44.40
   0  -4   7 1255.57   50.09
   0  -4   7 1261.47   44.00
   0  -4  -7 1225.88   48.30
   0   4   7 1252.67   43.40
   0   4  -7 1246.58   50.39
   0   4  -7 1289.67   46.90
   0   4  -7 1274.57   47.30
   0   4   7 1257.67   44.60
   0   4   7 1284.77   44.30
   0   4   7 1301.07   43.90
   0   4   7 1285.77   45.00
   0   4   7 1292.17   44.10
   1  -4   7  686.93   25.40
  -1  -4  -7  676.43   32.80
  -1  -4  -7  701.53   29.50
   1  -4   7  633.54   27.00
  -1  -4  -7  649.74   29.40
   1  -4   7  723.93   26.70
   1  -4   7  730.13   26.70
  -1   4  -7  705.93   28.60
   1   4   7  706.63   24.70
   1   4   7  683.43   25.20
  -1   4  -7  685.63   33.90
  -1   4  -7  691.73   30.90
   1   4   7  710.53   26.70
  -1   4  -7  723.03   27.70
   1   4   7  713.43   25.70
  -1   4  -7  682.93   27.60
   2  -4   7  151.48    7.00
  -2  -4  -7  153.28    9.50
   2  -4   7  147.79    7.80
   2  -4   7  138.29    8.00
  -2  -4  -7  150.08    9.20
   2  -4   7  157.98    7.40
  -2  -4  -7  155.08   10.60
  -2   4  -7  144.69    8.70
   2   4   7  154.08    7.20
  -2   4  -7  140.99    7.70
   2   4   7  139.89    6.50
  -2   4  -7  140.19    6.30
  -2   4  -7  148.29    7.40
   2   4   7  139.69    7.90
  -2   4  -7  152.98    9.00
   3  -4   7   22.90    2.20
  -3  -4  -7   25.70    4.30
   3  -4   7   20.80    2.30
   3  -4   7   22.40    2.00
  -3  -4  -7   25.90    3.20
   3   4   7   21.70    2.00
   3   4   7   23.90    2.60
  -3   4  -7   20.50    1.80
  -3   4  -7   27.00    3.10
   3   4   7   20.50    1.80
  -3   4  -7   19.80    2.80
   4  -4   7  205.48    8.70
   4  -4   7  194.08    7.90
   4  -4   7  196.78    7.80
  -4  -4  -7  207.88   10.50
  -4  -4  -7  188.58    9.90
   4   4   7  188.68    8.00
  -4   4  -7  182.38    7.50
   4   4   7  191.38    8.80
  -4   4  -7  195.98    9.70
  -4   4  -7  194.18    8.80
   4   4   7  183.78    7.20
  -5  -4  -7  162.78    6.10
   5  -4   7  135.49    6.20
   5   4   7  175.38    6.60
   5   4   7  155.48    5.90
  -5   4  -7  162.58    6.90
  -7  -5   7    0.00    0.40
  -7  -5   7    1.10    0.50
   7   5  -7   -0.30    0.30
  -7   5   7   -0.40    0.50
  -7   5   7   -1.10    0.60
  -7   5   7    0.20    0.40
  -6  -5   7   22.40    2.00
  -6  -5   7   21.50    1.70
   6  -5  -7   23.30    2.00
  -6  -5   7   22.40    1.90
  -6   5   7   20.20    2.10
  -6   5   7   24.90    2.20
  -6   5   7   23.60    2.30
   6   5  -7   21.90    1.80
  -6   5   7   18.70    2.20
  -6   5   7   22.80    2.60
   6   5  -7   25.00    2.60
  -6   5   7   22.20    2.20
  -5  -5   7   52.59    3.40
  -5  -5   7   50.99    4.00
  -5  -5   7   55.19    3.30
  -5  -5   7   54.89    3.40
   5  -5  -7   58.09    3.50
   5   5  -7   49.00    4.70
  -5   5   7   47.30    3.30
  -5   5   7   47.70    3.70
  -5   5   7   54.29    4.50
   5   5  -7   48.50    3.30
   5   5  -7   51.89    4.50
  -5   5   7   47.40    3.60
  -5   5   7   57.09    4.40
  -5   5   7   49.30    4.00
   5   5  -7   53.39    3.60
  -5   5   7   53.59    4.40
  -5   5   7   49.20    3.80
  -4  -5   7   25.30    3.00
  -4  -5   7   27.20    2.40
  -4  -5   7   25.50    2.60
  -4  -5   7   32.00    3.30
   4  -5  -7   30.50    2.90
   4   5  -7   29.40    2.80
   4   5  -7   29.50    2.50
  -4   5   7   31.00    3.30
  -4   5   7   29.90    2.90
  -4   5   7   29.00    3.00
  -4   5   7   29.60    2.90
   4   5  -7   33.00    3.80
  -4   5   7   26.50    2.30
   4   5  -7   33.10    3.90
  -4   5   7   31.70    3.00
  -4   5   7   29.90    3.10
  -4   5   7   34.90    4.30
  -4   5   7   27.50    3.00
  -3  -5   7  470.05   19.70
   3  -5  -7  434.66   19.10
  -3  -5   7  478.85   19.00
  -3  -5   7  463.85   19.60
  -3  -5   7  428.56   23.60
  -3  -5   7  458.55   17.40
  -3   5   7  493.45   19.60
   3   5  -7  489.55   27.00
  -3   5   7  487.55   18.80
   3   5  -7  449.46   21.90
   3   5  -7  468.75   20.70
  -3   5   7  480.25   18.80
  -3   5   7  503.05   18.80
  -3   5   7  470.95   17.90
  -3   5   7  470.95   17.40
  -3   5   7  476.15   18.40
   3   5  -7  470.65   18.10
  -3   5   7  452.75   18.80
   3   5  -7  451.25   18.00
  -2  -5   7  177.38   16.90
   2  -5  -7  159.68    9.50
  -2  -5   7  155.68    7.90
  -2  -5   7  182.48    8.90
  -2  -5   7  161.68    8.90
  -2  -5   7  163.28    9.00
  -2   5   7  172.48    7.20
   2   5  -7  161.88    7.50
   2   5  -7  175.48   10.00
  -2   5   7  176.48    8.20
  -2   5   7  175.78    8.20
  -2   5   7  180.28    7.80
  -2   5   7  168.98    8.30
   2   5  -7  162.48   11.00
  -2   5   7  182.48    8.90
   1  -5  -7   79.39    6.70
  -1  -5   7   81.49    5.70
   1  -5  -7   84.49    7.30
  -1  -5   7   82.69    4.70
  -1  -5   7   78.99    8.20
  -1  -5   7   80.39    5.00
  -1  -5   7   86.79    5.50
  -1  -5   7   81.09    5.40
  -1   5   7   86.39    4.10
  -1   5   7   83.79    4.90
  -1   5   7   95.49    6.90
  -1   5   7   79.39    4.40
  -1   5   7   82.59    5.00
   1   5  -7   81.29    8.00
  -1   5   7   85.99    5.40
   1   5  -7   78.49    6.20
   1   5  -7   70.39    7.20
   1   5  -7   85.39    6.30
   1   5  -7   73.29    7.60
   0  -5   7  171.18    8.70
   0  -5   7  147.39    8.90
   0  -5  -7  151.98   10.20
   0  -5   7  166.88    8.10
   0  -5   7  170.08    7.70
   0  -5  -7  140.79   11.50
   0  -5   7  164.58   11.60
   0   5   7  156.48    7.20
   0   5  -7  160.38    9.50
   0   5   7  160.58    7.30
   0   5   7  166.78    8.10
   0   5   7  169.28    8.10
   0   5  -7  150.38   11.70
   0   5  -7  167.38    9.20
   0   5   7  165.38    7.20
   0   5   7  170.28    7.90
   0   5  -7  153.88   16.10
   0   5   7  171.78    7.70
   1  -5   7  689.13   25.50
   1  -5   7  702.23   26.00
  -1  -5  -7  696.23   29.80
   1  -5   7  680.03   26.70
   1  -5   7  671.23   27.50
  -1  -5  -7  690.03   29.60
   1   5   7  731.63   26.00
   1   5   7  712.13   24.90
   1   5   7  650.43   25.50
   1   5   7  705.73   25.40
   1   5   7  714.73   26.50
  -1   5  -7  707.33   27.00
  -1   5  -7  686.53   27.60
  -1   5  -7  736.43   28.50
   2  -5   7    6.20    1.40
   2  -5   7    7.40    1.50
  -2  -5  -7    5.60    2.10
  -2  -5  -7   11.50    2.80
  -2  -5  -7    4.40    1.60
   2  -5   7    5.30    1.30
  -2   5  -7    6.00    1.20
   2   5   7    7.00    1.60
  -2   5  -7   10.80    2.10
   2   5   7    6.60    1.40
   2   5   7    5.70    1.30
  -2   5  -7    4.90    1.70
   2   5   7    6.90    1.00
   3  -5   7  204.68    9.60
   3  -5   7  217.78    9.10
   3  -5   7  210.28    8.80
  -3  -5  -7  219.48    9.80
   3   5   7  212.38    9.90
  -3   5  -7  204.18   10.60
  -3   5  -7  205.98    8.20
  -3   5  -7  203.88    9.50
   3   5   7  208.88    9.00
   3   5   7  211.18    8.10
   3   5   7  200.28    8.20
   4  -5   7  290.07   11.90
   4  -5   7  323.17   11.20
   4  -5   7  313.97   11.50
  -4  -5  -7  297.87   13.30
  -4  -5  -7  311.07   14.10
   4   5   7  289.57   10.50
  -4   5  -7  302.47   12.00
  -4   5  -7  271.77   10.70
  -4   5  -7  306.97   13.00
   4   5   7  295.07   11.40
   4   5   7  307.67   12.20
  -6  -6   7    7.50    1.10
  -6  -6   7    8.00    1.00
  -6  -6   7    8.90    1.60
  -6  -6   7    9.30    0.90
   6   6  -7    8.30    1.40
  -6   6   7    8.90    1.30
  -6   6   7    7.60    1.50
  -6   6   7    9.10    1.60
  -6   6   7    8.80    1.40
  -6   6   7    7.20    1.30
  -5  -6   7   24.90    2.00
  -5  -6   7   26.40    2.80
  -5  -6   7   23.60    2.00
  -5   6   7   24.70    2.50
  -5   6   7   30.40    3.20
  -5   6   7   25.30    2.20
  -5   6   7   30.00    3.00
  -5   6   7   22.60    2.30
  -5   6   7   24.30    2.70
   5   6  -7   25.00    3.70
  -5   6   7   30.70    3.60
   5   6  -7   27.60    3.00
  -4  -6   7   60.59    4.10
  -4  -6   7   55.49    4.40
  -4  -6   7   54.29    4.60
  -4  -6   7   56.49    3.50
   4  -6  -7   56.79    4.00
  -4   6   7   49.80    3.50
  -4   6   7   58.59    4.20
  -4   6   7   48.90    3.90
   4   6  -7   58.39    5.40
   4   6  -7   62.09    5.00
  -4   6   7   58.29    4.00
  -4   6   7   59.19    3.90
  -4   6   7   58.59    4.30
  -4   6   7   52.29    5.00
  -4   6   7   52.09    4.20
   3  -6  -7  266.77   12.30
  -3  -6   7  255.77   12.50
  -3  -6   7  240.58   10.10
  -3  -6   7  268.57   12.70
  -3  -6   7  263.77   12.00
  -3   6   7  275.27   12.40
  -3   6   7  260.47   11.70
   3   6  -7  256.27   13.00
  -3   6   7  251.47   11.70
  -3   6   7  270.07   10.50
  -3   6   7  287.67   11.90
  -3   6   7  260.87   11.60
  -3   6   7  256.27   11.40
   3   6  -7  238.08   13.90
  -3   6   7  246.08   10.90
  -2  -6   7  214.98   10.30
   2  -6  -7  208.88   11.30
  -2  -6   7  197.38   10.40
  -2  -6   7  207.98   10.60
  -2  -6   7  193.18    8.90
  -2   6   7  203.58    9.50
  -2   6   7  215.98    8.60
  -2   6   7  217.48    9.60
  -2   6   7  207.28    9.70
  -2   6   7  209.78   10.30
   2   6  -7  209.58   12.80
  -2   6   7  196.98    8.90
   2   6  -7  214.68   11.10
  -1  -6   7    6.00    1.50
   1  -6  -7    5.60    1.70
  -1  -6   7    8.80    1.90
  -1  -6   7    6.30    1.40
   1  -6  -7   12.40    3.00
  -1  -6   7    7.20    1.60
  -1  -6   7    7.50    1.90
  -1   6   7    7.40    1.20
  -1   6   7   10.80    1.30
  -1   6   7    9.90    1.50
  -1   6   7    7.90    1.80
  -1   6   7   10.80    1.70
   1   6  -7    8.70    3.30
   1   6  -7    8.70    1.50
   1   6  -7    9.10    2.10
  -1   6   7    8.80    1.40
   0  -6  -7 1138.59   45.20
   0  -6  -7 1057.39   44.90
   0  -6   7 1107.89   42.90
   0  -6   7 1165.58   41.00
   0  -6   7 1143.09   41.40
   0  -6   7 1140.99   42.40
   0  -6   7 1219.58   42.40
   0   6   7 1147.39   39.80
   0   6   7 1192.58   41.00
   0   6   7 1177.08   40.30
   0   6  -7 1215.68   43.70
   0   6  -7 1176.48   46.20
   0   6  -7 1182.78   42.30
   0   6   7 1148.79   41.40
   0   6   7 1122.09   40.70
   0   6   7 1203.18   41.40
  -1  -6  -7  328.07   17.00
   1  -6   7  340.67   14.70
   1  -6   7  357.46   17.50
  -1  -6  -7  349.67   17.40
   1  -6   7  335.87   13.60
   1  -6   7  326.37   14.40
   1  -6   7  336.67   14.00
   1   6   7  325.17   13.60
   1   6   7  334.87   13.90
   1   6   7  330.67   12.80
   1   6   7  342.17   13.80
  -1   6  -7  360.36   14.90
  -1   6  -7  355.46   15.60
  -1   6  -7  323.17   17.30
   1   6   7  343.17   13.50
   1   6   7  294.97   12.80
   2  -6   7   28.20    2.30
   2  -6   7   29.70    3.90
   2  -6   7   23.90    2.60
  -2  -6  -7   27.00    4.20
  -2  -6  -7   20.70    3.70
  -2   6  -7   31.50    3.00
  -2   6  -7   27.50    2.50
  -2   6  -7   29.10    3.10
   2   6   7   25.30    2.60
   2   6   7   27.20    2.10
   2   6   7   25.50    1.90
   2   6   7   27.30    2.40
   3  -6   7   76.49    4.50
  -3  -6  -7   62.89    5.30
  -3  -6  -7   77.29    6.00
  -3  -6  -7   93.39    6.80
   3  -6   7   73.29    3.90
   3  -6   7   74.69    4.20
   3   6   7   71.19    3.30
  -3   6  -7   68.29    5.00
   3   6   7   72.99    4.50
  -3   6  -7   74.49    5.30
  -3   6  -7   70.79    4.70
   3   6   7   71.49    3.50
   3   6   7   74.29    4.10
   4  -6   7   62.79    4.10
   4  -6   7   65.99    3.10
  -4  -6  -7   60.19    4.20
   4   6   7   66.49    3.60
  -4   6  -7   63.59    3.40
  -4   6  -7   65.79    4.00
   4   6   7   63.59    3.20
  -6  -7   7   49.60    2.60
  -6  -7   7   51.09    2.60
   6   7  -7   51.39    2.90
  -6   7   7   41.20    3.00
  -6   7   7   50.79    3.00
  -6   7   7   57.69    3.70
  -5  -7   7   64.89    3.40
  -5  -7   7   62.29    3.40
  -5  -7   7   65.19    4.40
  -5   7   7   61.59    4.00
   5   7  -7   65.39    4.30
  -5   7   7   60.89    4.20
  -5   7   7   53.19    3.60
  -5   7   7   68.99    4.80
  -5   7   7   67.19    5.20
  -5   7   7   64.49    4.20
  -5   7   7   65.29    4.30
   5   7  -7   68.19    4.80
  -4  -7   7   49.99    4.20
  -4  -7   7   49.99    4.20
  -4   7   7   46.60    3.70
  -4   7   7   56.59    4.10
  -4   7   7   55.39    4.10
  -4   7   7   43.20    4.50
  -4   7   7   55.99    3.70
   4   7  -7   50.69    4.80
  -4   7   7   49.70    3.70
  -4   7   7   55.79    4.70
  -4   7   7   41.60    3.50
  -4   7   7   51.09    3.40
   4   7  -7   46.80    4.10
  -3  -7   7  285.17   13.90
  -3  -7   7  284.77   11.70
   3  -7  -7  309.67   13.30
  -3  -7   7  306.97   14.00
  -3  -7   7  306.67   13.40
  -3   7   7  288.27   12.50
  -3   7   7  295.97   12.30
  -3   7   7  333.87   13.10
  -3   7   7  298.77   13.50
   3   7  -7  309.77   14.00
  -3   7   7  313.87   11.90
  -3   7   7  286.67   12.90
  -3   7   7  304.47   13.10
  -2  -7   7    8.10    1.80
   2  -7  -7   14.10    2.80
  -2  -7   7   11.20    1.70
  -2  -7   7   13.40    2.70
  -2  -7   7    9.50    1.70
  -2   7   7   10.00    1.20
  -2   7   7    6.20    1.20
  -2   7   7    7.50    1.90
   2   7  -7    6.60    2.60
   2   7  -7   10.30    2.20
  -2   7   7    7.30    1.50
  -2   7   7    8.10    1.40
  -2   7   7    8.50    1.70
   1  -7  -7  142.79    9.80
   1  -7  -7  152.78    9.80
  -1  -7   7  166.88    8.20
  -1  -7   7  157.48    8.80
  -1  -7   7  151.38    9.30
  -1  -7   7  164.78    8.50
  -1  -7   7  156.58    7.60
  -1   7   7  163.58    6.80
  -1   7   7  159.28    7.20
   1   7  -7  155.58    8.60
  -1   7   7  162.38    9.30
  -1   7   7  156.48    7.80
  -1   7   7  166.48    8.30
  -1   7   7  165.78    7.80
   1   7  -7  161.28   10.70
   1   7  -7  150.28    8.00
   0  -7   7  185.58    8.50
   0  -7   7  189.28    9.30
   0  -7  -7  178.38   16.00
   0  -7  -7  178.28   11.10
   0  -7   7  192.18    9.00
   0  -7   7  184.68    9.40
   0   7   7  183.98    8.80
   0   7   7  185.38    7.80
   0   7  -7  192.08    9.80
   0   7   7  181.78    7.50
   0   7   7  180.18    8.40
   0   7   7  179.28    8.60
   0   7  -7  183.58   11.40
   0   7   7  176.58    7.60
   0   7  -7  173.98    9.20
  -1  -7  -7  258.17   13.80
   1  -7   7  261.67   10.80
   1  -7   7  251.77   11.70
   1  -7   7  262.17   11.20
   1  -7   7  255.87   11.60
  -1  -7  -7  250.17   13.70
  -1   7  -7  279.37   12.00
   1   7   7  248.78   10.80
   1   7   7  255.37   10.60
   1   7   7  238.58   10.50
  -1   7  -7  226.78   11.50
  -1   7  -7  257.67   13.70
   1   7   7  258.57    9.60
  -1   7  -7  236.48   11.80
   1   7   7  260.57   10.00
   1   7   7  248.28   10.50
   2  -7   7  194.68    8.60
  -2  -7  -7  206.68   10.90
  -2  -7  -7  202.88   10.50
   2  -7   7  191.38    8.20
   2  -7   7  194.28    9.10
   2   7   7  189.28    8.50
  -2   7  -7  189.48    9.30
   2   7   7  182.58    8.10
  -2   7  -7  174.98    9.90
  -2   7  -7  179.18   10.10
  -2   7  -7  193.08   10.20
   2   7   7  187.38    8.00
   2   7   7  188.88    8.40
   3  -7   7   22.40    1.80
   3  -7   7   26.70    2.10
  -3  -7  -7   23.60    2.70
   3  -7   7   21.10    1.90
   3   7   7   17.80    1.90
  -3   7  -7   19.80    2.20
  -3   7  -7   20.80    2.10
   3   7   7   20.50    1.80
  -3   7  -7   19.30    2.10
   3   7   7   23.00    1.70
   4  -7   7   15.90    1.20
  -4  -7  -7   16.60    1.70
   4  -7   7   15.20    1.10
   4   7   7   18.60    1.30
  -4   7  -7   15.60    1.20
   4   7   7   16.20    1.20
  -5  -8   7   27.90    2.30
  -5  -8   7   25.10    1.80
  -5  -8   7   22.10    1.70
   5   8  -7   16.60    2.10
  -5   8   7   23.70    2.00
  -5   8   7   25.00    2.90
  -5   8   7   20.80    2.20
  -5   8   7   21.10    2.10
   5   8  -7   22.40    2.30
  -5   8   7   20.40    2.30
  -4  -8   7   16.20    2.30
  -4  -8   7   21.30    2.50
   4   8  -7   18.30    3.10
  -4   8   7   23.80    3.40
   4   8  -7   15.60    1.90
  -4   8   7   21.00    2.70
   4   8  -7   16.90    1.70
  -4   8   7   20.20    2.40
  -4   8   7   16.40    1.70
  -4   8   7   22.60    2.50
  -4   8   7   19.90    2.50
  -4   8   7   18.00    2.00
  -3  -8   7   51.19    4.20
  -3  -8   7   49.90    4.10
  -3  -8   7   50.09    3.80
  -3   8   7   50.39    3.70
   3   8  -7   47.40    3.50
   3   8  -7   46.70    3.80
  -3   8   7   51.69    3.20
  -3   8   7   51.09    3.70
  -3   8   7   48.20    3.60
  -3   8   7   51.09    4.40
   3   8  -7   50.79    4.90
  -3   8   7   54.29    3.40
  -2  -8   7   71.39    4.20
   2  -8  -7   65.69    5.60
  -2  -8   7   69.39    5.20
  -2  -8   7   71.59    5.10
  -2  -8   7   73.89    4.90
  -2   8   7   69.69    4.90
  -2   8   7   75.19    4.70
   2   8  -7   65.49    4.20
   2   8  -7   71.19    6.20
  -2   8   7   73.29    4.60
  -2   8   7   70.89    3.70
  -2   8   7   69.79    4.00
   2   8  -7   67.39    5.00
  -1  -8   7   91.39    5.80
  -1  -8   7   91.39    5.10
   1  -8  -7   88.39    7.10
  -1  -8   7   88.29    5.90
  -1  -8   7   95.49    5.60
  -1  -8   7   97.89    7.40
   1   8  -7   91.69    6.70
   1   8  -7   94.29    6.10
  -1   8   7   94.09    4.50
  -1   8   7   92.19    4.70
  -1   8   7  102.79    5.40
   1   8  -7   97.29    7.40
  -1   8   7   98.79    5.70
  -1   8   7   90.59    5.40
   0  -8   7  159.38    7.90
   0  -8   7  163.68    8.40
   0  -8   7  158.98    7.50
   0  -8   7  160.58    8.20
   0  -8   7  169.18    8.90
   0  -8  -7  161.28   10.00
   0  -8  -7  167.18   11.10
   0   8  -7  149.29    8.10
   0   8  -7  167.28    8.70
   0   8   7  152.38    6.80
   0   8   7  151.18    7.60
   0   8   7  164.38    7.60
   0   8  -7  158.68    9.80
   0   8   7  165.18    6.70
   0   8   7  173.68    8.00
   1  -8   7   45.40    3.10
  -1  -8  -7   45.10    4.70
  -1  -8  -7   44.30    4.60
   1  -8   7   43.30    3.40
   1  -8   7   44.00    3.30
  -1   8  -7   41.70    3.50
  -1   8  -7   46.20    4.00
   1   8   7   39.80    3.00
   1   8   7   46.40    2.70
  -1   8  -7   44.30    3.50
   1   8   7   40.50    2.90
   1   8   7   41.50    2.60
   1   8   7   42.50    3.00
  -2  -8  -7   63.49    4.90
   2  -8   7   56.19    3.60
   2  -8   7   55.49    3.50
   2   8   7   59.79    4.20
  -2   8  -7   51.49    4.40
  -2   8  -7   56.19    3.80
   2   8   7   52.19    3.00
  -2   8  -7   46.50    3.10
   2   8   7   48.70    2.80
  -2   8  -7   43.90    3.40
   3  -8   7  284.47   10.10
   3  -8   7  260.97   10.30
   3  -8   7  254.87   10.30
   3   8   7  262.77    9.70
   3   8   7  278.27   10.20
   3   8   7  262.07    9.70
  -3   8  -7  265.37   10.60
  -5   9   7   98.99    4.40
   5   9  -7  110.69    5.00
  -5   9   7   93.29    4.60
  -4  -9   7   17.60    2.00
   4   9  -7   14.90    2.10
  -4   9   7   13.50    1.80
  -4   9   7   13.80    1.50
  -4   9   7   14.50    2.60
  -4   9   7   13.50    2.00
  -4   9   7   11.00    1.60
  -4   9   7   18.80    2.50
  -3  -9   7  131.79    8.00
  -3  -9   7  138.69    7.10
  -3  -9   7  123.59    7.10
  -3   9   7  132.29    5.90
  -3   9   7  119.49    6.10
   3   9  -7  135.59    8.40
   3   9  -7  124.89    6.50
  -3   9   7  135.49    7.00
  -3   9   7  132.89    6.50
  -3   9   7  130.89    6.10
   2  -9  -7  118.39    7.30
  -2  -9   7  110.19    5.40
  -2  -9   7  114.59    6.40
  -2  -9   7  114.59    6.80
  -2  -9   7  126.09    6.90
  -2   9   7  125.59    6.00
   2   9  -7  119.99    7.50
   2   9  -7  112.69    6.40
  -2   9   7  124.19    6.50
  -2   9   7  117.69    5.40
  -2   9   7  116.49    6.10
  -2   9   7  126.79    5.40
   1  -9  -7  165.18    9.40
  -1  -9   7  169.08    8.60
  -1  -9   7  155.48    7.80
  -1  -9   7  157.28    8.60
  -1  -9   7  170.78    8.20
  -1  -9   7  162.88    7.30
   1  -9  -7  168.88    9.40
  -1   9   7  163.58    6.70
  -1   9   7  171.68    8.10
   1   9  -7  164.28    8.50
   1   9  -7  144.89    7.10
  -1   9   7  159.28    7.50
   1   9  -7  170.18    9.40
  -1   9   7  157.28    7.40
  -1   9   7  154.48    6.80
   0  -9   7   28.20    2.90
   0  -9   7   34.60    2.90
   0  -9   7   29.10    2.80
   0  -9  -7   30.40    4.20
   0  -9   7   34.50    2.60
   0  -9  -7   36.90    3.40
   0   9   7   30.90    2.60
   0   9   7   30.80    2.40
   0   9   7   32.90    2.00
   0   9  -7   34.90    3.30
   0   9  -7   32.00    3.00
   0   9   7   31.00    2.00
   0   9  -7   31.20    3.00
   0   9   7   31.20    2.50
   1  -9   7   21.00    1.90
   1  -9   7   22.50    2.30
   1  -9   7   21.10    2.60
  -1  -9  -7   22.50    3.10
   1  -9   7   20.90    2.00
  -1  -9  -7   20.10    3.40
  -1   9  -7   19.20    2.00
  -1   9  -7   21.60    2.10
   1   9   7   19.90    1.90
   1   9   7   22.50    1.30
   1   9   7   19.90    1.90
  -1   9  -7   22.10    2.30
   1   9   7   23.10    1.80
   2  -9   7   53.09    3.30
   2  -9   7   58.29    3.00
   2  -9   7   57.59    3.20
  -2  -9  -7   49.80    4.00
  -2  -9  -7   57.69    4.20
   2   9   7   54.89    3.00
   2   9   7   57.79    2.90
  -2   9  -7   44.60    2.70
  -2   9  -7   54.39    3.40
  -3  -9  -7  133.19    6.10
  -3   9  -7  125.99    5.90
   3   9   7  159.58    5.90
  -4 -10   7    2.30    0.70
  -4  10   7    3.70    1.40
  -4  10   7    2.70    1.00
   4  10  -7    3.90    1.00
  -4  10   7    4.00    1.00
  -3 -10   7   31.20    2.60
  -3  10   7   35.80    2.40
   3  10  -7   37.70    3.10
  -3  10   7   35.50    3.00
  -3  10   7   35.20    2.60
   3  10  -7   28.40    2.10
  -3  10   7   31.80    2.40
  -3  10   7   33.70    2.40
   2 -10  -7   74.89    4.40
  -2 -10   7   57.79    4.10
  -2 -10   7   69.49    4.10
  -2  10   7   65.99    3.30
  -2  10   7   64.79    3.60
   2  10  -7   74.19    4.70
  -2  10   7   61.99    3.20
  -2  10   7   66.09    3.80
   2  10  -7   62.89    3.90
  -2  10   7   75.69    4.50
   2  10  -7   58.49    3.40
  -1 -10   7   49.80    2.90
  -1 -10   7   42.40    3.30
  -1 -10   7   50.19    3.40
   1 -10  -7   44.80    4.00
  -1  10   7   51.39    3.10
  -1  10   7   49.70    2.50
   1  10  -7   50.39    3.70
  -1  10   7   49.40    3.00
  -1  10   7   45.90    2.40
  -1  10   7   52.09    3.40
   1  10  -7   50.79    3.50
   0 -10   7  123.69    6.50
   0 -10   7  119.19    6.10
   0 -10  -7  132.59    7.40
   0 -10   7  122.09    6.50
   0 -10   7  132.99    5.80
   0 -10  -7  139.99    7.30
   0  10   7  132.29    6.00
   0  10  -7  117.39    5.80
   0  10  -7  132.09    6.00
   0  10   7  131.79    5.90
   0  10   7  126.79    5.70
   0  10  -7  136.69    6.50
   0  10   7  129.49    5.10
   1 -10   7  131.89    7.10
  -1 -10  -7  176.88    8.00
  -1 -10  -7  177.58    8.30
   1 -10   7  173.78    6.60
   1  10   7  165.48    6.60
   1  10   7  168.38    6.70
   1  10   7  138.49    5.90
  -1  10  -7  144.59    7.10
  -1  10  -7  161.28    7.40
   2  10   7   24.60    1.50
   2  10   7   23.80    1.30
  -2  10  -7   24.50    1.60
  -3  11   7   25.30    1.90
  -3  11   7   23.00    1.90
  -3  11   7   25.20    1.60
   2  11  -7   71.19    3.50
  -2  11   7   72.29    3.40
  -2  11   7   76.59    3.30
  -2  11   7   75.89    3.60
  -2  11   7   75.69    3.90
   2  11  -7   82.99    3.50
  -1 -11   7    8.00    1.00
   1  11  -7    8.20    1.00
  -1  11   7    9.20    1.60
  -1  11   7    7.50    0.90
  -1  11   7    8.10    1.00
  -1  11   7    7.20    0.90
   0 -11   7   16.90    1.40
   0 -11  -7   16.80    2.30
   0  11   7   17.60    1.70
   0  11  -7   13.20    1.30
   0  11   7   17.90    1.30
   0  11   7   16.00    1.20
  -7   0   8    2.00    0.70
   7   0  -8    2.80    0.60
  -7   0   8    1.70    0.60
  -7   0   8    2.80    0.70
   7   0  -8    3.00    0.70
  -7   0   8    1.60    0.60
  -6   0   8  107.19    6.10
   6   0  -8   96.49    5.60
  -6   0   8  104.89    5.50
   6   0  -8  106.19    5.60
  -6   0   8  101.09    5.50
  -6   0   8   93.29    5.00
   6   0  -8  105.39    5.50
  -6   0   8   96.09    5.10
  -5   0   8   45.90    3.90
   5   0  -8   46.90    3.60
  -5   0   8   39.40    3.10
  -5   0   8   46.50    3.40
   5   0  -8   50.59    4.20
  -5   0   8   45.90    3.50
   5   0  -8   50.59    3.80
  -5   0   8   48.10    3.40
  -4   0   8    2.10    0.80
   4   0  -8    1.90    0.80
   4   0  -8    3.80    1.50
  -4   0   8    3.20    0.90
  -4   0   8    3.80    0.90
  -4   0   8    2.60    0.80
   4   0  -8    0.40    0.70
  -4   0   8    1.40    0.80
  -4   0   8    3.40    1.00
  -3   0   8    1.80    0.80
  -3   0   8    0.80    0.60
  -3   0   8    2.30    0.90
  -2   0   8  217.38    9.80
  -2   0   8  230.08    9.20
   2   0  -8  232.08   11.00
  -2   0   8  243.58   10.40
  -2   0   8  227.38    9.40
  -2   0   8  225.58    9.90
   2   0  -8  223.18   12.00
   2   0  -8  240.28   14.50
   2   0  -8  229.38   11.40
   2   0  -8  217.88   11.70
  -2   0   8  229.48   11.50
  -1   0   8  212.08   10.10
  -1   0   8  184.08   11.60
   1   0  -8  210.08   13.40
   1   0  -8  179.18   13.00
  -1   0   8  193.58    8.10
   1   0  -8  208.78   11.60
  -1   0   8  193.78    8.80
   1   0  -8  195.78   10.10
   1   0  -8  208.98   10.10
   0   0   8 1007.10   36.90
   0   0  -8  942.01   41.70
   0   0  -8  952.80   38.50
   0   0   8  990.00   39.80
   0   0  -8 1011.40   36.80
   0   0  -8  981.30   36.40
   0   0  -8 1031.40   39.20
  -1   0  -8  335.07   14.40
  -1   0  -8  327.57   14.20
   1   0   8  362.36   14.50
   1   0   8  343.47   15.10
  -1   0  -8  362.86   17.40
  -1   0  -8  326.47   17.00
   2   0   8   37.10    3.10
  -2   0  -8   34.60    4.10
   2   0   8   39.40    3.50
  -2   0  -8   39.50    4.70
  -3   0  -8   51.89    3.30
  -3   0  -8   56.39    5.00
  -3   0  -8   52.99    4.30
   3   0   8   54.09    4.10
   3   0   8   54.09    3.60
   4   0   8  186.18    8.20
  -4   0  -8  207.28    9.50
   4   0   8  213.38    8.80
  -4   0  -8  195.18    7.80
  -7  -1   8   69.39    4.20
  -7  -1   8   73.09    4.00
   7  -1  -8   79.29    4.40
  -7  -1   8   78.89    4.10
  -7  -1   8   65.79    3.50
   7  -1  -8   83.89    3.80
   7   1  -8   85.59    3.90
  -7   1   8   81.59    4.00
   7   1  -8   70.29    3.90
  -7   1   8   76.99    4.20
   7   1  -8   86.29    4.50
  -7   1   8   73.09    4.80
   6  -1  -8   13.30    2.00
  -6  -1   8   16.40    1.60
  -6  -1   8   17.20    1.90
   6  -1  -8   12.00    1.70
  -6  -1   8   15.90    1.70
  -6  -1   8   13.80    1.80
   6  -1  -8   16.40    1.90
  -6  -1   8   14.50    1.60
  -6   1   8   17.20    1.80
   6   1  -8   14.50    2.00
  -6   1   8   14.00    1.80
   6   1  -8   15.80    1.90
  -6   1   8   12.80    1.50
  -6   1   8   16.80    1.90
   6   1  -8   15.40    2.00
  -6   1   8   12.80    2.00
  -5  -1   8   98.59    5.20
  -5  -1   8   95.19    5.90
  -5  -1   8   98.59    5.30
   5  -1  -8   86.79    5.80
   5  -1  -8   97.99    5.60
  -5  -1   8   88.29    5.00
   5  -1  -8   94.39    5.60
  -5  -1   8   95.79    5.40
  -5   1   8   97.79    5.50
   5   1  -8   96.59    5.70
  -5   1   8   99.49    6.20
  -5   1   8   91.79    5.40
  -5   1   8   87.09    5.00
   5   1  -8  104.89    6.00
   5   1  -8   98.59    6.40
  -5   1   8   96.89    4.60
  -5   1   8   99.19    5.50
   4  -1  -8   72.09    5.50
  -4  -1   8   75.19    4.40
   4  -1  -8   75.09    5.10
  -4  -1   8   73.09    4.50
  -4  -1   8   75.89    4.60
   4  -1  -8   71.09    4.90
  -4  -1   8   76.19    5.10
  -4   1   8   71.69    4.60
  -4   1   8   72.39    3.90
  -4   1   8   76.79    4.50
   4   1  -8   81.49    5.30
  -4   1   8   69.79    4.40
  -4   1   8   75.39    4.80
   4   1  -8   75.79    5.10
   4   1  -8   75.49    5.80
  -4   1   8   81.19    5.20
  -3  -1   8 1309.07   44.60
  -3  -1   8 1293.87   45.20
  -3  -1   8 1301.47   44.30
   3  -1  -8 1190.68   50.99
  -3  -1   8 1266.47   44.70
   3  -1  -8 1249.18   49.20
   3  -1  -8 1248.58   47.10
   3  -1  -8 1228.28   46.00
   3   1  -8 1276.47   45.80
   3   1  -8 1324.17   47.80
   3   1  -8 1237.68   54.69
  -3   1   8 1269.77   43.90
  -3   1   8 1318.77   45.10
  -3   1   8 1242.08   44.30
  -3   1   8 1270.27   44.10
  -3   1   8 1272.17   44.80
   2  -1  -8  199.78   11.00
  -2  -1   8  197.88    9.40
   2  -1  -8  204.48   13.00
   2  -1  -8  189.38    9.90
   2  -1  -8  192.58   10.60
  -2  -1   8  192.28    7.90
  -2  -1   8  169.68   11.80
   2   1  -8  196.88   10.70
  -2   1   8  192.38    8.70
  -2   1   8  206.88    9.00
   2   1  -8  190.28   13.30
   2   1  -8  190.78    9.70
  -2   1   8  202.58    8.20
  -2   1   8  208.58   13.20
   2   1  -8  191.08   14.20
  -2   1   8  196.78    8.30
   1  -1  -8  492.45   21.80
  -1  -1   8  493.55   18.00
   1  -1  -8  514.95   21.80
  -1  -1   8  489.75   22.80
   1  -1  -8  504.15   24.70
   1  -1  -8  520.85   22.20
   1  -1  -8  525.85   20.80
  -1  -1   8  525.45   21.30
  -1  -1   8  486.55   19.30
  -1   1   8  495.25   20.60
   1   1  -8  480.85   24.70
  -1   1   8  506.35   18.20
  -1   1   8  474.35   21.50
   1   1  -8  510.65   20.10
   1   1  -8  480.75   22.50
   1   1  -8  491.85   22.60
  -1   1   8  486.95   18.60
   1   1  -8  494.65   21.60
   0  -1  -8  273.97   13.00
   0  -1  -8  271.97   12.60
   0  -1  -8  290.27   14.70
   0  -1  -8  249.28   13.50
   0  -1   8  251.37   14.70
   0  -1  -8  271.27   16.20
   0  -1   8  260.57   12.60
   0  -1   8  268.07   11.80
   0   1   8  259.07   14.20
   0   1  -8  266.57   14.00
   0   1  -8  267.67   12.00
   0   1  -8  263.07   16.20
   0   1   8  279.17   12.50
   0   1  -8  255.27   11.70
   0   1  -8  246.58   13.40
   0   1   8  265.27   11.20
  -1  -1  -8   72.39    6.20
  -1  -1  -8   75.29    5.50
  -1  -1  -8   69.79    5.10
   1  -1   8   76.39    4.80
   1  -1   8   73.59    5.40
  -1  -1  -8   70.89    6.30
  -1   1  -8   63.69    6.00
  -1   1  -8   66.99    4.40
  -1   1  -8   75.79    6.30
   1   1   8   66.49    5.10
   1   1   8   64.99    4.30
  -2  -1  -8  115.79    5.90
   2  -1   8  121.89    6.50
  -2  -1  -8  124.49    8.40
  -2  -1  -8  120.89    8.40
   2  -1   8  116.09    7.20
  -2   1  -8  127.09    8.30
   2   1   8  115.99    6.90
  -2   1  -8  111.89    5.60
   2   1   8  109.59    5.40
  -2   1  -8  119.19    7.90
  -3  -1  -8   66.09    5.20
   3  -1   8   67.39    4.20
  -3  -1  -8   72.19    6.00
   3  -1   8   68.89    4.70
  -3   1  -8   75.69    5.50
  -3   1  -8   63.49    4.40
   3   1   8   65.69    3.40
   3   1   8   62.89    3.90
  -3   1  -8   64.89    3.60
   3   1   8   63.49    4.50
   4  -1   8    0.80    0.50
   4  -1   8    0.60    0.60
  -4  -1  -8    2.60    1.20
  -4  -1  -8    0.80    0.30
   4   1   8    0.20    0.40
   4   1   8    1.90    0.70
  -4   1  -8   -0.30    0.50
  -4   1  -8   -2.30    2.10
  -4   1  -8    0.10    0.30
   7  -2  -8   31.20    1.80
  -7  -2   8   24.20    2.30
  -7  -2   8   27.70    1.80
   7  -2  -8   24.20    2.00
  -7  -2   8   23.30    1.60
  -7   2   8   24.90    2.50
  -7   2   8   28.90    2.30
   7   2  -8   28.50    2.20
  -7   2   8   25.10    2.00
   7   2  -8   27.40    1.90
   6  -2  -8   55.19    3.50
  -6  -2   8   55.19    3.40
  -6  -2   8   48.20    3.10
  -6  -2   8   57.49    3.80
   6  -2  -8   50.39    3.40
  -6  -2   8   48.00    3.50
   6   2  -8   55.99    4.30
  -6   2   8   47.70    3.10
   6   2  -8   57.39    3.70
  -6   2   8   55.39    3.60
  -6   2   8   52.89    3.70
   6   2  -8   59.39    3.70
  -6   2   8   58.69    3.80
  -6   2   8   51.59    4.10
  -5  -2   8   12.70    1.70
  -5  -2   8   12.40    1.70
  -5  -2   8   13.00    1.90
  -5  -2   8   11.00    1.70
  -5  -2   8   13.00    1.30
   5  -2  -8   12.60    2.10
  -5  -2   8   14.70    2.00
   5  -2  -8   13.60    2.00
   5  -2  -8   11.50    1.90
  -5   2   8   12.50    1.60
  -5   2   8   13.70    1.80
   5   2  -8   12.20    2.10
  -5   2   8   12.20    1.80
   5   2  -8   15.80    2.10
   5   2  -8   11.70    1.90
  -5   2   8   13.80    1.30
  -5   2   8   11.20    1.80
  -5   2   8   12.10    1.70
  -5   2   8   13.70    2.10
   4  -2  -8  239.88   11.40
   4  -2  -8  246.08   11.40
  -4  -2   8  250.27   11.20
   4  -2  -8  239.38   11.90
  -4  -2   8  248.38   10.50
  -4  -2   8  255.77   11.30
  -4  -2   8  252.77   10.60
  -4   2   8  210.58   10.20
   4   2  -8  260.27   11.60
  -4   2   8  264.47   11.80
  -4   2   8  255.47   10.20
  -4   2   8  256.97   11.20
  -4   2   8  248.58   11.10
  -4   2   8  240.88   10.70
   4   2  -8  256.27   12.80
   4   2  -8  263.67   11.60
  -4   2   8  255.67   10.90
  -3  -2   8  117.49   14.00
  -3  -2   8  109.19    5.70
  -3  -2   8  104.09    6.20
   3  -2  -8   96.89    6.60
   3  -2  -8  103.29    6.40
   3  -2  -8  110.69    7.20
  -3   2   8  107.19    6.00
   3   2  -8  118.69    6.60
  -3   2   8  115.49    6.20
   3   2  -8  112.69    7.70
  -3   2   8  109.29    5.60
  -3   2   8  127.89    7.40
  -3   2   8  114.69    6.40
  -3   2   8  100.09    5.50
   3   2  -8  112.69   10.00
   3   2  -8  114.99    6.60
  -3   2   8  106.49    5.40
  -2  -2   8  165.78    8.60
  -2  -2   8  167.48    8.50
   2  -2  -8  188.98   12.50
   2  -2  -8  169.98    9.20
   2  -2  -8  170.88   10.20
  -2  -2   8  157.58    9.10
  -2  -2   8  166.68   11.60
   2   2  -8  193.58   13.10
  -2   2   8  172.88    7.70
  -2   2   8  184.78    8.80
   2   2  -8  165.88    8.70
   2   2  -8  170.28    8.70
  -2   2   8  179.88    8.10
  -2   2   8  183.88    7.60
   2   2  -8  159.08   11.00
   2   2  -8  166.38    9.80
  -2   2   8  187.68    9.20
  -2   2   8  175.98    7.70
   2   2  -8  176.88   10.30
  -2   2   8  178.28    7.60
   1  -2  -8  163.08    9.70
   1  -2  -8  137.89   11.30
   1  -2  -8  157.18    9.00
  -1  -2   8  170.58   11.20
  -1  -2   8  171.68    6.70
  -1  -2   8  172.28    9.20
  -1   2   8  164.68    7.40
  -1   2   8  151.88    7.20
   1   2  -8  175.68   10.00
   1   2  -8  162.98    9.60
  -1   2   8  146.39    8.00
   1   2  -8  172.48    8.20
  -1   2   8  149.09    8.10
   1   2  -8  157.08   11.70
   1   2  -8  170.78    8.30
  -1   2   8  149.59    7.30
  -1   2   8  168.08    7.10
   0  -2   8  255.17   11.30
   0  -2   8  265.07   14.70
   0  -2   8  247.58   12.00
   0  -2  -8  266.57   18.10
   0  -2  -8  242.98   12.60
   0  -2  -8  240.18   12.90
   0  -2  -8  243.88   13.70
   0   2  -8  248.98   15.50
   0   2  -8  243.88   10.70
   0   2  -8  242.18   13.10
   0   2   8  238.68   11.40
   0   2   8  231.78   10.10
   0   2   8  243.48   10.20
   0   2  -8  255.57   13.10
   0   2  -8  241.38   10.60
   0   2   8  255.27    9.90
  -1  -2  -8  328.37   14.80
  -1  -2  -8  300.57   16.00
   1  -2   8  360.56   14.00
  -1  -2  -8  321.77   16.50
  -1  -2  -8  314.97   14.30
   1  -2   8  309.57   11.90
   1  -2   8  314.67   14.40
   1   2   8  294.97   12.40
   1   2   8  318.27   14.10
   1   2   8  300.67   12.20
  -1   2  -8  326.47   15.50
   1   2   8  306.07   12.80
  -1   2  -8  321.57   15.80
   2  -2   8   88.09    4.20
   2  -2   8   91.39    7.00
  -2  -2  -8   96.79    5.60
   2  -2   8   86.49    5.90
  -2  -2  -8   92.89    7.40
   2   2   8   88.29    4.70
   2   2   8   92.89    5.00
  -2   2  -8   86.39    4.40
  -2   2  -8   94.39    6.30
  -2   2  -8  103.79    7.20
   3  -2   8  115.99    7.30
  -3  -2  -8  119.59    7.80
   3  -2   8  106.49    5.80
  -3  -2  -8  109.59    7.10
  -3   2  -8  103.59    6.70
   3   2   8  106.39    6.20
   3   2   8  107.49    5.30
  -3   2  -8  101.49    5.20
   3   2   8  101.39    5.30
  -3   2  -8  123.69    7.10
   4  -2   8   27.40    2.30
  -4  -2  -8   20.50    1.90
  -4  -2  -8   32.40    3.20
  -4  -2  -8   24.30    1.70
   4  -2   8   22.50    1.90
  -4   2  -8   22.60    2.20
   4   2   8   24.20    2.00
   4   2   8   20.70    1.40
  -4   2  -8   20.00    1.40
   4   2   8   18.40    1.50
  -7  -3   8   95.89    4.70
  -7  -3   8   97.09    4.30
   7   3  -8  111.09    4.80
  -7   3   8  100.99    5.20
   7   3  -8  111.59    4.10
  -7   3   8   97.69    4.70
   6  -3  -8    2.60    0.70
  -6  -3   8    0.50    0.80
  -6  -3   8    1.80    0.70
  -6  -3   8    1.80    0.60
  -6  -3   8    0.30    0.60
   6  -3  -8    0.00    0.60
  -6   3   8    0.90    0.50
   6   3  -8    1.60    0.80
  -6   3   8    1.10    0.90
  -6   3   8    1.30    0.90
   6   3  -8    0.90    0.60
  -6   3   8   -0.50    0.80
  -6   3   8    1.70    0.80
   5  -3  -8   17.20    2.10
  -5  -3   8   13.30    1.70
   5  -3  -8   15.40    2.20
  -5  -3   8   18.00    1.90
  -5  -3   8   14.90    2.20
  -5  -3   8   16.50    1.70
  -5   3   8   14.20    1.90
  -5   3   8   19.70    2.00
   5   3  -8   16.70    2.10
  -5   3   8   16.40    2.20
  -5   3   8   17.50    1.80
  -5   3   8   17.40    1.70
  -5   3   8   18.00    2.10
   5   3  -8   17.70    2.20
   5   3  -8   15.30    2.20
  -5   3   8   14.10    2.10
  -4  -3   8  136.79    6.40
   4  -3  -8  120.19    8.20
  -4  -3   8  132.09    6.80
  -4  -3   8  128.49    6.20
   4  -3  -8  122.09    6.80
  -4  -3   8  117.49    6.00
  -4  -3   8  131.49    7.20
  -4   3   8  124.59    7.00
   4   3  -8  133.69    7.00
  -4   3   8  121.49    6.50
  -4   3   8  130.89    6.10
  -4   3   8  121.69    6.60
  -4   3   8  130.19    7.30
  -4   3   8  119.99    6.40
   4   3  -8  128.39    8.20
  -4   3   8  124.39    6.80
   4   3  -8  137.59    7.20
   3  -3  -8  241.28   11.60
  -3  -3   8  249.18   10.40
   3  -3  -8  236.48   12.00
  -3  -3   8  242.88   11.50
  -3  -3   8  260.27   10.90
   3  -3  -8  220.98   11.60
  -3   3   8  237.88   10.40
  -3   3   8  253.17   10.70
  -3   3   8  253.07   11.20
   3   3  -8  250.67   13.10
  -3   3   8  247.78   12.00
   3   3  -8  240.28   13.60
  -3   3   8  248.38   10.20
   3   3  -8  244.68   11.20
   3   3  -8  263.17   11.40
  -3   3   8  265.97   11.20
  -3   3   8  251.17   11.00
   2  -3  -8  134.99    8.50
  -2  -3   8  149.99    8.70
   2  -3  -8  152.18    9.00
  -2  -3   8  146.99   10.80
  -2  -3   8  145.69    7.60
  -2  -3   8  141.59    7.90
  -2   3   8  158.08    7.50
  -2   3   8  146.89    7.40
   2   3  -8  148.29    9.00
  -2   3   8  162.78    8.40
   2   3  -8  144.09   11.20
  -2   3   8  153.68    7.30
  -2   3   8  145.09    6.80
  -2   3   8  151.88    7.30
   2   3  -8  152.48    7.70
  -2   3   8  153.28    7.20
   2   3  -8  157.08    9.50
   2   3  -8  131.09    9.80
   1  -3  -8  679.13   28.60
   1  -3  -8  679.23   29.10
   1  -3  -8  735.93   33.60
  -1  -3   8  702.23   28.00
  -1  -3   8  730.93   26.80
  -1  -3   8  685.23   31.20
   1   3  -8  712.23   26.10
  -1   3   8  739.03   25.90
   1   3  -8  733.13   29.00
   1   3  -8  697.43   32.50
  -1   3   8  722.43   25.90
   1   3  -8  673.03   28.60
  -1   3   8  704.43   26.60
  -1   3   8  721.23   25.30
  -1   3   8  686.43   25.80
   1   3  -8  701.23   26.10
  -1   3   8  697.13   26.60
   0  -3   8   57.79    3.30
   0  -3  -8   50.19    5.20
   0  -3   8   55.39    4.70
   0  -3   8   57.09    4.30
   0  -3  -8   70.59    8.50
   0  -3  -8   75.79    6.10
   0  -3  -8   54.39    5.10
   0  -3  -8   52.49    5.50
   0  -3   8   57.39    6.80
   0   3  -8   55.99    3.50
   0   3   8   56.59    4.20
   0   3   8   48.80    3.80
   0   3   8   57.59    3.50
   0   3   8   54.49    3.60
   0   3   8   55.79    3.40
   0   3  -8   65.19    5.50
   0   3  -8   60.69    7.80
   0   3   8   53.29    3.20
   0   3  -8   58.19    5.20
  -1  -3  -8  182.38   10.20
  -1  -3  -8  169.68   11.00
   1  -3   8  163.38    9.20
   1  -3   8  195.78    9.20
  -1  -3  -8  179.28   10.90
  -1  -3  -8  185.08   10.00
   1  -3   8  175.98    7.50
  -1   3  -8  177.48   10.40
  -1   3  -8  164.48    8.90
  -1   3  -8  176.98    9.90
   1   3   8  174.38    9.00
   1   3   8  174.28    7.50
   1   3   8  178.78    7.90
   1   3   8  172.48    7.40
   2  -3   8   55.59    3.20
   2  -3   8   56.99    4.10
  -2  -3  -8   56.19    4.60
  -2  -3  -8   65.69    5.70
   2  -3   8   51.89    4.20
  -2  -3  -8   59.39    4.70
  -2  -3  -8   62.09    5.80
   2   3   8   52.89    3.40
  -2   3  -8   51.89    4.40
   2   3   8   54.09    4.30
   2   3   8   50.39    3.30
  -2   3  -8   53.29    4.10
  -2   3  -8   57.39    5.00
  -3  -3  -8  206.98   10.80
   3  -3   8  207.98    9.40
   3  -3   8  200.58    7.50
   3  -3   8  197.58    8.90
  -3  -3  -8  215.38   11.00
   3   3   8  194.48    9.20
   3   3   8  187.28    8.10
  -3   3  -8  182.58    7.60
  -3   3  -8  192.38   11.50
  -3   3  -8  184.48   10.30
  -4  -3  -8   59.19    3.60
   4  -3   8   64.59    3.50
  -4  -3  -8   61.79    3.10
   4   3   8   65.79    2.80
  -4   3  -8   64.49    4.80
  -4   3  -8   62.89    3.40
   4   3   8   64.99    3.70
   4   3   8   58.29    2.80
  -7   4   8    1.90    0.50
   7   4  -8    0.40    0.70
  -7   4   8    2.70    0.90
  -6  -4   8    7.60    1.00
   6  -4  -8   11.40    1.40
  -6  -4   8    6.10    1.00
  -6  -4   8    8.20    1.40
  -6  -4   8   10.00    1.10
  -6   4   8    7.60    1.40
   6   4  -8    6.00    1.10
  -6   4   8    8.20    1.30
   6   4  -8    9.20    1.40
  -6   4   8    7.50    1.40
  -6   4   8    6.40    1.40
  -6   4   8    8.00    1.30
  -5  -4   8   14.40    1.50
   5  -4  -8   12.50    2.00
   5  -4  -8   14.70    2.10
  -5  -4   8   11.60    1.50
  -5  -4   8   13.80    2.00
  -5  -4   8   11.10    1.40
  -5   4   8   14.10    2.30
   5   4  -8   12.40    1.90
  -5   4   8   10.50    1.80
   5   4  -8    9.90    2.10
  -5   4   8   13.50    1.90
   5   4  -8   10.10    1.60
  -5   4   8   10.20    2.00
  -5   4   8   11.10    2.00
  -5   4   8   11.40    1.60
  -5   4   8   11.00    1.70
  -5   4   8   11.30    1.30
  -4  -4   8   18.10    2.00
   4  -4  -8   20.80    2.70
  -4  -4   8   28.10    2.00
  -4  -4   8   26.10    2.80
  -4  -4   8   30.40    2.80
  -4  -4   8   28.10    2.50
   4  -4  -8   20.30    2.60
  -4   4   8   25.60    2.80
  -4   4   8   27.00    3.30
   4   4  -8   24.80    3.40
  -4   4   8   22.90    2.30
  -4   4   8   22.80    2.10
   4   4  -8   25.70    2.50
   4   4  -8   19.80    3.40
   4   4  -8   25.10    2.70
  -4   4   8   26.10    4.90
  -4   4   8   23.40    2.60
  -4   4   8   24.40    2.70
  -3  -4   8   32.90    2.90
   3  -4  -8   30.80    3.20
  -3  -4   8   34.20    2.50
  -3  -4   8   33.30    3.30
  -3   4   8   32.10    2.50
   3   4  -8   35.10    3.80
  -3   4   8   31.00    2.40
  -3   4   8   32.60    2.80
  -3   4   8   34.20    3.00
  -3   4   8   28.80    2.90
  -3   4   8   27.40    2.50
   3   4  -8   33.10    3.00
   3   4  -8   30.50    2.80
   3   4  -8   29.40    4.20
  -3   4   8   32.70    3.90
  -3   4   8   34.20    2.80
  -2  -4   8   76.59    5.30
   2  -4  -8   74.79    5.70
   2  -4  -8   74.29    5.70
   2  -4  -8   66.59    5.90
  -2  -4   8   70.19    5.50
  -2  -4   8   75.39    5.00
   2   4  -8   72.79    4.40
  -2   4   8   80.29    4.70
   2   4  -8   77.29    4.70
  -2   4   8   68.89    4.10
  -2   4   8   82.89    5.60
  -2   4   8   80.69    4.80
  -2   4   8   78.69    4.60
   2   4  -8   80.29    6.30
  -2   4   8   76.99    4.30
  -2   4   8   79.49    4.60
   2   4  -8   71.59    6.70
   1  -4  -8  556.44   23.90
   1  -4  -8  539.85   23.70
  -1  -4   8  567.54   21.80
  -1  -4   8  538.85   22.70
  -1  -4   8  559.44   22.10
   1  -4  -8  512.75   23.20
  -1   4   8  559.34   20.80
   1   4  -8  539.35   25.30
   1   4  -8  551.44   20.20
   1   4  -8  601.34   23.80
  -1   4   8  537.85   19.60
  -1   4   8  531.75   20.90
   1   4  -8  577.04   23.80
  -1   4   8  559.24   20.70
  -1   4   8  532.05   21.50
  -1   4   8  537.85   20.80
  -1   4   8  564.34   20.80
  -1   4   8  583.34   20.40
   0  -4  -8  593.74   25.90
   0  -4   8  593.74   23.40
   0  -4   8  584.54   21.70
   0  -4  -8  595.84   25.30
   0  -4  -8  597.04   25.50
   0  -4   8  584.44   24.20
   0   4  -8  617.64   25.30
   0   4   8  607.84   21.70
   0   4   8  563.84   22.40
   0   4  -8  612.54   24.70
   0   4   8  626.24   22.20
   0   4   8  585.34   22.90
   0   4   8  610.64   22.30
   0   4   8  591.14   21.90
   1  -4   8  147.69    6.60
   1  -4   8  150.38    7.90
  -1  -4  -8  138.49    9.00
   1  -4   8  155.88    9.80
  -1  -4  -8  146.19    9.60
  -1  -4  -8  143.49    8.80
   1  -4   8  140.89    6.90
  -1  -4  -8  138.19    9.50
  -1   4  -8  157.38   12.60
   1   4   8  142.49    6.50
   1   4   8  144.29    6.90
   1   4   8  148.29    7.80
   1   4   8  147.19    6.40
   2  -4   8  202.68   10.00
  -2  -4  -8  205.78    9.70
  -2  -4  -8  208.38   11.50
   2  -4   8  199.88    8.20
   2  -4   8  196.58    8.50
  -2  -4  -8  201.78   11.50
   2  -4   8  199.98    9.50
  -2  -4  -8  197.68    9.90
  -2   4  -8  200.38   10.30
   2   4   8  194.68    8.00
   2   4   8  197.58    9.50
   2   4   8  184.68    8.40
  -2   4  -8  179.58    9.60
  -3  -4  -8   14.60    2.30
  -3  -4  -8   24.00    3.70
   3  -4   8   12.10    1.60
   3  -4   8   13.30    1.30
  -3   4  -8   13.40    2.20
   3   4   8   16.40    1.40
   3   4   8   13.80    1.20
   3   4   8   18.30    1.90
  -3   4  -8   13.20    1.80
   4  -4   8  121.79    6.70
  -4  -4  -8  144.79    6.30
  -4   4  -8  139.19    5.90
   4   4   8  154.58    6.50
  -4   4  -8  139.39    6.40
  -4   4  -8  158.68    6.60
   4   4   8  142.29    5.20
   4   4   8  141.59    5.50
  -6  -5   8   37.10    2.30
  -6  -5   8   45.20    2.50
  -6  -5   8   44.40    2.70
  -6   5   8   42.50    3.10
  -6   5   8   40.00    2.80
  -6   5   8   38.80    2.50
  -6   5   8   46.90    3.10
   6   5  -8   44.90    3.10
  -5  -5   8   77.99    4.20
  -5  -5   8   75.89    4.70
   5  -5  -8   78.29    4.80
  -5  -5   8   72.89    3.90
  -5  -5   8   82.99    4.20
  -5   5   8   76.09    4.80
  -5   5   8   78.49    5.10
  -5   5   8   76.79    5.00
  -5   5   8   77.29    4.10
   5   5  -8   73.99    5.20
  -5   5   8   73.69    5.20
   5   5  -8   80.99    5.70
  -5   5   8   78.39    4.60
  -4  -5   8   71.29    4.20
   4  -5  -8   72.29    4.60
  -4  -5   8   69.99    3.80
  -4  -5   8   71.79    5.00
   4  -5  -8   68.39    5.30
  -4   5   8   71.49    4.60
   4   5  -8   72.79    5.60
  -4   5   8   72.69    4.80
   4   5  -8   72.59    4.00
  -4   5   8   70.99    4.10
   4   5  -8   64.19    5.50
  -4   5   8   72.79    5.80
  -4   5   8   72.59    4.90
  -4   5   8   71.49    4.40
   4   5  -8   71.49    5.80
  -4   5   8   66.59    4.70
  -3  -5   8  102.79    6.50
  -3  -5   8  101.49    5.00
   3  -5  -8  106.29    6.20
   3  -5  -8  101.79    6.30
  -3   5   8   99.09    5.90
  -3   5   8  102.39    5.10
  -3   5   8  113.09    6.00
  -3   5   8  103.19    5.40
   3   5  -8  100.69    7.00
  -3   5   8  109.79    6.90
  -3   5   8   97.09    5.40
  -3   5   8  101.89    5.90
   3   5  -8   96.79    5.70
  -3   5   8  111.09    6.10
   2  -5  -8   79.69    5.50
   2  -5  -8   81.29    5.70
  -2  -5   8   71.49    5.20
   2  -5  -8   74.19    5.70
  -2  -5   8   76.69    5.40
  -2  -5   8   76.99    5.10
  -2   5   8   86.09    5.70
   2   5  -8   73.59    6.80
  -2   5   8   76.09    4.30
   2   5  -8   79.79    6.00
  -2   5   8   69.09    3.90
  -2   5   8   81.99    4.80
  -2   5   8   84.89    4.80
  -2   5   8   76.09    4.70
  -2   5   8   73.19    4.70
   1  -5  -8  366.26   17.60
  -1  -5   8  392.16   15.90
  -1  -5   8  372.46   16.10
  -1  -5   8  365.66   16.60
   1  -5  -8  362.66   17.40
   1  -5  -8  382.66   17.50
  -1  -5   8  359.36   14.10
  -1  -5   8  365.96   15.60
  -1   5   8  379.76   14.90
   1   5  -8  371.26   19.10
  -1   5   8  371.86   14.30
  -1   5   8  377.16   15.00
   1   5  -8  372.86   17.30
  -1   5   8  358.86   14.70
  -1   5   8  353.86   14.40
   1   5  -8  396.56   17.10
  -1   5   8  401.26   15.80
   0  -5   8  414.26   17.80
   0  -5  -8  404.86   18.90
   0  -5   8  403.96   16.00
   0  -5  -8  409.36   19.20
   0  -5   8  417.56   17.10
   0  -5   8  409.06   18.30
   0  -5  -8  420.26   19.20
   0  -5   8  411.16   15.70
   0   5  -8  397.56   20.10
   0   5  -8  428.66   17.80
   0   5   8  408.56   16.20
   0   5   8  414.96   16.40
   0   5   8  391.66   16.20
   0   5   8  410.86   15.90
   0   5   8  394.46   15.50
   0   5   8  425.36   15.60
   0   5  -8  418.16   18.60
   1  -5   8  562.94   21.20
   1  -5   8  541.95   22.50
   1  -5   8  591.94   20.90
  -1  -5  -8  575.24   23.80
   1  -5   8  584.14   22.20
  -1  -5  -8  576.24   24.10
  -1   5  -8  556.14   22.00
  -1   5  -8  534.75   21.50
   1   5   8  570.14   21.80
   1   5   8  563.74   20.40
   1   5   8  559.04   21.10
  -1   5  -8  592.54   23.40
   1   5   8  562.04   20.70
   2  -5   8   27.00    2.60
  -2  -5  -8   21.00    4.50
   2  -5   8   27.70    2.10
  -2  -5  -8   26.00    3.30
  -2  -5  -8   29.00    3.50
   2  -5   8   30.90    2.90
   2  -5   8   23.40    2.60
  -2  -5  -8   23.40    3.40
   2   5   8   26.30    2.20
  -2   5  -8   25.10    2.70
   2   5   8   26.10    1.80
  -2   5  -8   27.60    2.90
   2   5   8   27.90    1.80
   2   5   8   28.00    2.60
   3  -5   8  275.27    9.80
   3  -5   8  250.57   10.80
  -3  -5  -8  275.47   12.60
   3   5   8  278.47   11.10
   3   5   8  273.17   10.30
   3   5   8  266.37    9.70
  -3   5  -8  264.47   11.20
  -3   5  -8  236.48   11.10
  -4  -5  -8   76.79    3.50
  -4  -5  -8   89.19    5.20
   4   5   8   85.59    3.80
  -6  -6   8   52.69    2.80
  -6  -6   8   51.49    2.50
  -6   6   8   55.99    3.20
  -6   6   8   42.40    3.40
  -6   6   8   55.39    3.00
   6   6  -8   61.29    3.20
  -5  -6   8   11.60    1.20
  -5  -6   8   10.00    1.20
  -5  -6   8    9.70    1.50
   5   6  -8   13.50    2.10
  -5   6   8   11.60    1.60
  -5   6   8   11.20    2.20
  -5   6   8   10.40    2.00
   5   6  -8   11.10    1.70
  -5   6   8   10.10    1.40
   5   6  -8    9.70    1.20
  -5   6   8    9.00    1.50
  -5   6   8   13.30    1.40
  -4  -6   8   71.29    4.80
  -4  -6   8   64.09    3.60
  -4  -6   8   68.89    3.90
   4  -6  -8   76.59    4.30
  -4   6   8   70.99    4.50
  -4   6   8   71.89    4.00
   4   6  -8   64.99    5.40
  -4   6   8   71.59    4.70
  -4   6   8   81.99    5.70
   4   6  -8   64.89    5.00
  -4   6   8   67.09    4.10
  -4   6   8   67.39    4.50
  -4   6   8   66.59    5.50
   3  -6  -8   33.90    4.00
  -3  -6   8   36.90    2.30
  -3  -6   8   34.90    3.10
  -3  -6   8   37.20    3.30
   3  -6  -8   36.10    3.30
  -3  -6   8   29.50    3.30
  -3   6   8   33.60    2.80
  -3   6   8   38.40    3.00
  -3   6   8   37.30    3.10
  -3   6   8   34.80    4.10
  -3   6   8   32.80    3.00
  -3   6   8   35.30    2.70
  -3   6   8   33.60    2.90
  -3   6   8   45.10    3.40
   3   6  -8   33.10    4.00
   3   6  -8   35.70    3.60
   2  -6  -8   48.60    4.80
  -2  -6   8   58.89    4.40
  -2  -6   8   52.99    5.90
  -2  -6   8   63.39    4.40
   2  -6  -8   51.69    4.80
  -2   6   8   57.89    4.00
  -2   6   8   62.09    4.00
  -2   6   8   56.09    3.50
  -2   6   8   60.19    4.90
  -2   6   8   59.09    3.40
  -2   6   8   55.79    3.90
   2   6  -8   62.09    4.90
   2   6  -8   56.69    5.70
  -1  -6   8  250.77   11.70
   1  -6  -8  247.88   13.00
   1  -6  -8  257.77   13.20
   1  -6  -8  259.07   12.80
  -1  -6   8  248.88   11.90
  -1  -6   8  251.07   10.30
   1   6  -8  259.17   12.00
   1   6  -8  255.87   11.50
  -1   6   8  251.97    9.80
  -1   6   8  252.87   10.70
  -1   6   8  267.87   11.70
  -1   6   8  264.57   11.60
  -1   6   8  259.17   11.20
   0  -6  -8  455.45   20.30
   0  -6  -8  450.25   20.50
   0  -6   8  445.26   17.50
   0  -6   8  443.56   18.50
   0  -6   8  439.96   19.00
   0  -6   8  493.55   18.60
   0  -6  -8  451.85   20.30
   0  -6   8  468.75   17.20
   0  -6   8  464.45   18.60
   0   6   8  461.35   16.90
   0   6   8  457.25   17.70
   0   6   8  454.55   17.40
   0   6   8  432.76   17.00
   0   6   8  459.05   17.80
   0   6  -8  440.46   17.90
   0   6  -8  470.05   21.70
   1  -6   8    9.00    1.60
   1  -6   8   12.90    2.30
   1  -6   8   11.60    1.40
   1  -6   8   11.70    1.60
   1  -6   8   14.50    2.80
  -1  -6  -8    8.70    2.30
  -1  -6  -8    7.30    2.50
   1   6   8    9.20    1.30
   1   6   8    9.70    1.20
  -1   6  -8   12.20    1.70
   1   6   8    8.80    1.10
  -1   6  -8   10.60    3.00
   1   6   8    8.50    1.50
   2  -6   8  101.09    5.80
  -2  -6  -8   98.69    6.20
   2  -6   8  108.39    5.10
  -2  -6  -8  109.89    7.10
   2  -6   8   89.89    5.40
  -2  -6  -8   99.89    6.10
  -2   6  -8   95.09    5.40
   2   6   8  102.69    5.30
  -2   6  -8  107.29    6.90
   2   6   8   98.09    4.50
  -2   6  -8  106.49    6.10
   2   6   8  103.49    4.50
   2   6   8  105.59    5.10
   3  -6   8   33.30    2.40
   3  -6   8   36.00    1.80
  -3  -6  -8   30.90    3.00
  -3   6  -8   34.20    3.10
  -3   6  -8   31.50    2.40
   3   6   8   31.10    2.00
   3   6   8   33.30    2.30
  -3   6  -8   28.80    2.10
  -6   7   8   41.80    2.30
  -5  -7   8   48.20    2.50
  -5  -7   8   49.99    3.20
  -5   7   8   43.10    3.30
   5   7  -8   49.80    3.50
  -5   7   8   45.40    3.10
  -5   7   8   40.70    3.00
  -5   7   8   46.30    2.70
   5   7  -8   49.40    3.10
  -5   7   8   39.80    2.70
  -4  -7   8   28.90    2.80
  -4   7   8   31.60    3.60
  -4   7   8   25.40    2.20
   4   7  -8   28.50    2.70
  -4   7   8   33.20    3.90
  -4   7   8   28.60    2.20
  -4   7   8   32.40    3.00
   4   7  -8   30.10    3.30
  -4   7   8   31.50    2.90
  -3  -7   8    2.90    1.00
   3  -7  -8    0.10    1.30
  -3  -7   8    1.30    1.40
  -3  -7   8    3.30    0.60
  -3  -7   8    1.60    0.80
  -3   7   8    1.30    0.80
  -3   7   8    1.80    0.70
  -3   7   8    2.00    1.40
  -3   7   8    4.50    2.10
  -3   7   8    0.80    0.70
   3   7  -8    1.60    1.30
  -3   7   8    2.40    0.90
   3   7  -8    1.70    1.00
  -2  -7   8  194.88    9.80
  -2  -7   8  214.28    9.90
   2  -7  -8  227.08   10.90
  -2  -7   8  215.88   10.40
   2  -7  -8  206.48   10.50
  -2   7   8  207.48    9.40
  -2   7   8  215.38    9.30
   2   7  -8  215.08   12.00
  -2   7   8  199.88    9.90
  -2   7   8  213.58    8.90
   2   7  -8  205.98    9.90
  -2   7   8  203.48    9.30
  -2   7   8  211.28    8.40
  -1  -7   8  116.39    5.40
  -1  -7   8  118.39    6.50
   1  -7  -8  115.89    7.80
   1  -7  -8  132.69    7.30
   1  -7  -8  122.39    7.70
  -1  -7   8  114.59    6.70
  -1  -7   8  116.99    6.70
  -1   7   8  119.99    6.60
   1   7  -8  119.59    8.40
  -1   7   8  115.09    5.50
  -1   7   8  117.29    5.90
   1   7  -8  112.79    6.20
  -1   7   8  121.29    5.20
   1   7  -8  107.79    6.00
  -1   7   8  122.39    6.20
   0  -7   8    2.40    1.30
   0  -7   8    1.40    0.80
   0  -7   8    2.00    0.80
   0  -7  -8    1.10    1.20
   0  -7   8    4.70    1.60
   0  -7   8    5.10    1.40
   0  -7  -8    2.60    1.50
   0   7   8    1.50    0.60
   0   7   8    1.60    0.60
   0   7  -8    3.70    1.40
   0   7  -8    2.90    1.00
   0   7   8    1.90    0.70
   0   7   8    0.90    1.30
   0   7  -8    2.10    0.90
  -1  -7  -8  127.79    7.90
  -1  -7  -8  128.19    7.80
   1  -7   8  133.29    6.60
   1  -7   8  129.69    5.80
  -1  -7  -8  126.09    7.80
   1  -7   8  129.19    6.80
   1  -7   8  135.99    7.20
   1   7   8  122.79    6.10
   1   7   8  127.19    6.10
   1   7   8  133.79    6.60
   1   7   8  117.59    5.40
  -1   7  -8  123.19    6.70
  -1   7  -8  128.89    7.10
  -1   7  -8  131.39    8.00
   2  -7   8   28.20    1.90
   2  -7   8   25.50    2.10
  -2  -7  -8   33.00    3.20
  -2  -7  -8   24.60    2.90
   2  -7   8   22.30    2.50
  -2  -7  -8   29.10    3.10
   2   7   8   23.60    1.70
   2   7   8   25.50    1.60
   2   7   8   24.20    1.90
  -2   7  -8   26.20    2.30
  -2   7  -8   28.90    2.90
   2   7   8   24.30    1.80
  -3  -7  -8   26.10    2.30
   3  -7   8   25.30    1.70
   3   7   8   26.90    1.60
  -3   7  -8   25.00    1.80
  -5  -8   8   36.80    1.80
  -5  -8   8   35.20    2.00
   5   8  -8   39.70    2.60
  -5   8   8   39.60    2.30
  -5   8   8   37.20    2.40
  -4  -8   8  155.68    8.40
  -4  -8   8  148.99    5.90
  -4   8   8  147.99    6.10
  -4   8   8  139.99    6.50
   4   8  -8  120.89    5.90
   4   8  -8  151.18    7.60
  -4   8   8  145.49    6.60
  -4   8   8  145.89    7.20
  -4   8   8  146.49    6.60
   4   8  -8  126.99    6.10
   3  -8  -8   38.90    3.30
  -3  -8   8   46.60    3.20
  -3  -8   8   47.50    3.70
  -3  -8   8   39.70    3.30
   3   8  -8   48.70    4.20
  -3   8   8   44.50    3.10
   3   8  -8   40.20    2.90
  -3   8   8   49.30    3.60
   3   8  -8   47.30    3.40
  -3   8   8   52.89    3.50
  -3   8   8   49.60    3.40
  -3   8   8   44.90    2.90
  -3   8   8   50.69    4.40
   2  -8  -8   39.00    3.90
  -2  -8   8   38.30    3.20
  -2  -8   8   44.40    4.20
  -2  -8   8   45.40    2.30
   2  -8  -8   41.30    3.60
  -2  -8   8   44.20    3.70
  -2   8   8   49.70    3.90
  -2   8   8   34.70    2.80
  -2   8   8   45.00    3.10
   2   8  -8   47.80    3.70
   2   8  -8   42.20    4.10
  -2   8   8   40.00    2.60
  -2   8   8   44.10    2.70
  -2   8   8   45.30    3.20
  -1  -8   8   22.50    2.30
   1  -8  -8   20.50    3.10
  -1  -8   8   19.70    2.60
  -1  -8   8   22.00    2.40
   1  -8  -8   23.00    3.20
  -1   8   8   21.70    1.80
   1   8  -8   26.60    3.20
   1   8  -8   25.40    2.00
  -1   8   8   22.70    2.10
  -1   8   8   21.80    1.70
  -1   8   8   21.30    2.10
   1   8  -8   24.60    2.60
  -1   8   8   26.20    2.90
   0  -8   8   51.49    2.90
   0  -8   8   48.80    3.50
   0  -8  -8   52.29    4.00
   0  -8  -8   51.59    6.60
   0  -8   8   59.09    5.00
   0  -8   8   48.10    3.50
   0  -8   8   47.50    4.30
   0  -8  -8   49.70    4.60
   0   8   8   49.80    3.60
   0   8  -8   53.99    3.80
   0   8  -8   56.29    4.60
   0   8   8   42.00    2.70
   0   8  -8   48.70    3.40
   0   8   8   52.49    3.30
   0   8   8   48.10    2.70
   0   8   8   50.79    3.20
   1  -8   8   54.69    3.70
   1  -8   8   60.19    3.60
  -1  -8  -8   59.29    4.60
   1  -8   8   59.09    3.00
  -1  -8  -8   58.69    4.40
  -1  -8  -8   57.19    4.60
   1  -8   8   47.60    3.40
   1   8   8   53.49    2.80
  -1   8  -8   61.19    4.20
   1   8   8   55.99    3.20
   1   8   8   54.59    3.00
  -1   8  -8   53.89    3.40
  -1   8  -8   52.79    3.50
   2  -8   8  224.08    7.70
   2  -8   8  213.88    9.40
  -2  -8  -8  216.68    9.50
  -2  -8  -8  216.88    9.90
   2   8   8  204.58    8.10
  -2   8  -8  200.88    8.60
   2   8   8  177.08    7.80
  -4  -9   8    5.20    0.60
  -4   9   8    5.90    1.50
   4   9  -8    5.50    1.20
  -4   9   8    4.70    0.80
  -4   9   8    3.90    1.10
  -3   9   8   67.89    3.80
  -3   9   8   69.69    3.40
   3   9  -8   73.09    4.70
  -3   9   8   67.29    3.70
  -3   9   8   66.39    4.30
   3   9  -8   63.19    3.70
  -3   9   8   68.09    3.50
   2  -9  -8  101.99    5.50
   2  -9  -8  106.79    5.70
  -2  -9   8  108.29    5.40
  -2  -9   8   88.09    5.60
  -2   9   8  107.99    5.70
  -2   9   8  111.49    5.20
  -2   9   8  104.79    4.50
  -2   9   8  103.89    4.70
   2   9  -8  114.69    6.40
  -2   9   8  112.39    5.20
   2   9  -8  105.09    5.60
  -1  -9   8    9.30    1.30
   1  -9  -8    8.90    1.80
   1  -9  -8    8.00    1.90
  -1  -9   8    9.20    1.50
  -1   9   8    8.70    1.20
  -1   9   8    9.80    1.20
   1   9  -8    8.70    1.30
  -1   9   8   12.80    2.20
   1   9  -8    8.60    1.80
  -1   9   8    7.60    1.70
  -1   9   8    8.60    1.00
   0  -9   8   22.60    2.10
   0  -9  -8   32.10    3.20
   0  -9   8   24.60    2.10
   0  -9  -8   24.10    2.90
   0   9   8   25.90    1.80
   0   9  -8   25.10    2.20
   0   9   8   24.10    1.50
   0   9   8   25.80    1.90
   0   9  -8   26.50    2.50
   0   9   8   24.60    2.70
   0   9  -8   22.50    1.80
  -1  -9  -8   64.19    4.80
   1  -9   8   71.59    4.60
  -1  -9  -8   61.69    5.00
  -1  -9  -8   74.39    4.50
  -1   9  -8   58.49    3.20
   1   9   8   67.39    3.30
   1   9   8   68.79    3.10
  -1   9  -8   62.89    3.40
   2   9   8   69.39    2.90
  -2   9  -8   64.39    3.20
  -3 -10   8   29.20    1.50
   3  10  -8   33.30    2.20
  -3  10   8   28.60    2.40
  -3  10   8   29.80    1.90
  -3  10   8   29.60    2.10
  -2 -10   8  105.29    4.80
  -2  10   8  103.19    5.10
   2  10  -8  122.69    5.40
  -2  10   8  102.49    4.20
  -2  10   8  108.99    4.60
   2  10  -8  106.89    4.90
  -2  10   8  105.79    4.70
  -2  10   8  104.99    4.70
  -1 -10   8   15.50    1.40
   1  10  -8   16.20    1.50
  -1  10   8   18.40    2.00
   1  10  -8   18.70    1.60
  -1  10   8   16.80    1.40
  -1  10   8   16.90    1.40
   0 -10  -8   68.69    3.80
   0 -10   8   62.09    3.20
   0  10   8   64.79    3.00
   0  10   8   63.09    3.10
   0  10  -8   60.19    3.10
  -7   0   9   31.00    1.80
   6   0  -9   40.50    2.70
   6   0  -9   49.60    3.00
  -6   0   9   40.30    2.70
   6   0  -9   46.10    2.90
  -6   0   9   41.80    2.80
  -6   0   9   41.50    2.50
  -6   0   9   39.50    3.10
   5   0  -9    4.60    1.20
   5   0  -9    3.90    1.10
  -5   0   9    4.30    1.40
   5   0  -9    5.20    1.50
  -5   0   9    3.20    0.90
  -5   0   9    4.00    1.00
  -5   0   9    5.40    1.00
   4   0  -9   31.70    3.30
  -4   0   9   27.90    2.40
   4   0  -9   31.40    2.90
  -4   0   9   28.80    2.50
  -4   0   9   28.00    2.40
   4   0  -9   31.70    2.90
  -4   0   9   28.50    2.80
  -3   0   9  183.88    8.40
  -3   0   9  179.88    8.10
  -3   0   9  178.38    7.90
   3   0  -9  177.78    9.10
   3   0  -9  188.88   10.30
  -3   0   9  170.18    7.40
   3   0  -9  181.98    9.10
   2   0  -9   52.59    4.80
  -2   0   9   39.80    2.50
  -2   0   9   42.80    3.80
  -2   0   9   39.30    2.70
  -2   0   9   41.30    3.30
   2   0  -9   46.80    4.30
   2   0  -9   44.10    3.90
   2   0  -9   45.30    3.80
  -2   0   9   42.60    3.10
   1   0  -9  660.83   25.40
   1   0  -9  652.63   27.10
   1   0  -9  612.04   26.60
  -1   0   9  649.54   25.60
   1   0  -9  668.73   25.30
  -1   0   9  657.33   23.20
   0   0  -9  361.96   18.60
   0   0   9  387.26   15.60
   0   0  -9  426.66   16.70
   0   0  -9  399.26   16.40
   0   0  -9  408.26   18.80
   0   0   9  405.46   14.90
   0   0   9  412.46   17.20
   1   0   9  239.78   11.40
  -1   0  -9  234.78   12.50
   1   0   9  251.87   10.40
  -1   0  -9  236.48    9.90
  -1   0  -9  235.58   12.60
   2   0   9    1.00    0.70
  -2   0  -9    1.00    0.90
   2   0   9    1.20    0.90
  -2   0  -9    0.40    1.50
  -2   0  -9    2.60    0.60
  -3   0  -9  348.57   15.20
   3   0   9  385.36   14.40
  -3   0  -9  375.46   15.40
  -3   0  -9  423.06   16.40
   3   0   9  439.06   15.50
  -3   0  -9  367.86   13.80
   4   0   9   42.30    1.80
  -7  -1   9   43.60    2.20
  -7   1   9   48.70    2.30
  -7   1   9   47.10    2.90
  -6  -1   9   44.50    3.00
   6  -1  -9   48.70    3.00
  -6  -1   9   49.00    3.00
   6  -1  -9   49.40    3.10
  -6  -1   9   46.00    3.30
  -6   1   9   46.30    2.90
   6   1  -9   48.60    3.00
   6   1  -9   47.40    3.20
  -6   1   9   46.70    3.40
  -6   1   9   49.99    3.10
  -6   1   9   40.60    2.80
   6   1  -9   51.89    3.20
   5  -1  -9    9.40    1.60
  -5  -1   9    9.20    1.30
   5  -1  -9    9.10    1.70
  -5  -1   9    8.00    1.20
  -5  -1   9    7.40    1.60
  -5  -1   9    9.00    1.30
   5  -1  -9    9.30    1.50
   5   1  -9    7.20    1.60
   5   1  -9    9.40    1.80
   5   1  -9    6.60    1.50
  -5   1   9   10.00    2.10
  -5   1   9    7.30    1.50
  -5   1   9    9.10    1.20
  -5   1   9    8.00    1.20
  -4  -1   9   40.70    3.00
   4  -1  -9   40.10    3.30
  -4  -1   9   41.30    3.40
  -4  -1   9   43.90    3.00
   4  -1  -9   40.30    3.70
  -4  -1   9   42.70    3.00
   4  -1  -9   39.60    3.40
   4   1  -9   45.80    3.70
   4   1  -9   43.60    4.00
  -4   1   9   45.90    2.60
  -4   1   9   37.70    2.90
  -4   1   9   40.30    3.20
  -4   1   9   39.10    2.90
   4   1  -9   48.30    3.70
  -4   1   9   44.80    3.60
  -4   1   9   43.40    3.20
  -3  -1   9    7.50    1.40
  -3  -1   9    8.00    1.10
   3  -1  -9    6.50    1.60
  -3  -1   9   10.50    2.90
   3  -1  -9    7.30    1.90
   3  -1  -9    6.10    1.70
   3   1  -9    9.30    2.30
  -3   1   9    6.70    1.20
  -3   1   9    9.20    1.70
  -3   1   9    9.60    1.60
  -3   1   9   10.00    1.10
   3   1  -9   10.30    1.90
  -3   1   9    8.90    1.70
  -2  -1   9   31.90    2.60
  -2  -1   9   29.90    2.30
  -2  -1   9   34.10    2.90
   2  -1  -9   34.20    3.40
  -2  -1   9   32.40    2.00
  -2  -1   9   29.10    3.20
   2  -1  -9   26.80    3.50
   2  -1  -9   32.70    3.30
   2   1  -9   38.60    4.00
   2   1  -9   34.00    3.00
  -2   1   9   34.40    2.70
  -2   1   9   33.40    2.20
  -2   1   9   30.70    3.00
  -2   1   9   33.70    2.70
   2   1  -9   31.20    3.20
   2   1  -9   33.00    3.70
  -2   1   9   26.90    2.60
  -2   1   9   28.10    2.30
   1  -1  -9   37.10    3.80
   1  -1  -9   40.40    4.50
  -1  -1   9   36.70    3.70
  -1  -1   9   39.20    2.30
   1  -1  -9   35.10    4.10
   1  -1  -9   38.30    3.50
  -1  -1   9   39.00    2.90
   1   1  -9   38.10    3.30
  -1   1   9   37.70    2.50
  -1   1   9   35.50    3.30
   1   1  -9   37.30    4.10
   1   1  -9   34.20    3.20
  -1   1   9   37.10    2.80
   1   1  -9   45.60    4.40
   0  -1   9  147.49    6.30
   0  -1  -9  150.48    7.90
   0  -1   9  138.09    7.20
   0  -1  -9  155.58    9.10
   0  -1  -9  144.89    9.20
   0  -1   9  144.29    8.20
   0  -1  -9  150.48    8.10
   0   1   9  151.98    8.20
   0   1  -9  141.99    7.20
   0   1   9  156.48    6.90
   0   1  -9  150.78    9.20
   0   1  -9  139.19    7.20
   0   1   9  146.99    6.40
   0   1  -9  146.09   10.60
  -1  -1  -9  396.66   17.80
  -1  -1  -9  395.96   15.20
  -1  -1  -9  378.46   14.90
   1  -1   9  388.86   15.20
   1  -1   9  364.26   16.10
  -1  -1  -9  391.46   17.60
   1   1   9  396.96   16.20
   1   1   9  343.17   14.20
  -1   1  -9  352.46   16.90
   1   1   9  342.17   14.00
  -1   1  -9  374.66   17.40
   2  -1   9   64.09    4.00
   2  -1   9   67.59    4.60
  -2  -1  -9   71.99    5.30
  -2  -1  -9   64.99    5.30
  -2   1  -9   63.89    5.30
   2   1   9   58.59    3.50
   2   1   9   66.79    4.50
  -2   1  -9   63.49    4.60
   2   1   9   54.29    3.00
  -2   1  -9   58.29    4.30
  -3  -1  -9   19.40    1.70
   3  -1   9   25.30    2.00
  -3  -1  -9   21.60    2.20
   3  -1   9   25.00    2.20
  -3  -1  -9   26.20    3.20
   3   1   9   24.70    2.20
  -3   1  -9   20.40    2.80
  -3   1  -9   20.00    2.40
   4  -1   9   19.80    1.00
   4   1   9   15.30    0.90
  -6  -2   9   98.69    4.90
   6  -2  -9   96.59    4.60
   6  -2  -9   95.99    4.60
  -6  -2   9   96.49    4.60
  -6  -2   9   92.59    4.70
   6   2  -9   98.29    4.70
   6   2  -9   99.69    4.60
   6   2  -9   95.89    5.00
  -6   2   9   77.49    4.30
  -6   2   9   98.59    5.40
  -6   2   9   93.09    4.70
  -6   2   9   90.99    4.60
  -5  -2   9  104.29    5.40
   5  -2  -9  106.39    5.50
   5  -2  -9  102.19    5.60
  -5  -2   9  107.59    5.30
  -5  -2   9  100.69    5.00
  -5  -2   9  103.89    5.70
   5  -2  -9  105.69    5.50
  -5   2   9  100.09    5.30
  -5   2   9   97.09    5.10
   5   2  -9  104.19    5.50
   5   2  -9   99.39    6.20
   5   2  -9  110.49    5.60
  -5   2   9   98.79    5.50
  -5   2   9  101.39    4.60
  -5   2   9  103.29    6.10
   4  -2  -9   37.80    3.40
  -4  -2   9   35.80    2.90
  -4  -2   9   31.30    2.60
  -4  -2   9   35.80    2.70
  -4  -2   9   38.60    3.20
   4  -2  -9   39.40    3.20
   4  -2  -9   38.90    3.30
  -4   2   9   36.90    3.00
  -4   2   9   37.70    3.20
  -4   2   9   32.80    2.70
   4   2  -9   38.20    3.10
   4   2  -9   34.10    3.60
  -4   2   9   38.70    2.50
  -4   2   9   32.60    2.60
   4   2  -9   39.70    3.30
  -4   2   9   35.50    3.00
  -3  -2   9   43.30    3.40
  -3  -2   9   42.90    3.00
   3  -2  -9   40.30    3.70
  -3  -2   9   43.10    2.80
   3  -2  -9   39.30    3.80
   3  -2  -9   44.00    5.30
  -3   2   9   38.40    3.90
  -3   2   9   47.80    3.10
   3   2  -9   42.10    3.50
   3   2  -9   45.40    3.60
  -3   2   9   41.10    3.40
  -3   2   9   38.40    2.80
  -3   2   9   43.00    3.30
   3   2  -9   41.00    4.20
  -2  -2   9  170.98    8.50
  -2  -2   9  167.38    7.20
  -2  -2   9  173.08    9.10
   2  -2  -9  163.38    8.90
   2  -2  -9  164.18    9.50
   2  -2  -9  164.88    8.80
  -2  -2   9  167.28    7.70
  -2   2   9  160.78    8.30
   2   2  -9  170.48    8.30
   2   2  -9  165.98    8.20
   2   2  -9  152.88   10.50
   2   2  -9  155.58    9.40
  -2   2   9  158.58    8.10
  -2   2   9  168.88    7.30
   2   2  -9  174.28   10.00
  -2   2   9  168.58    7.90
  -2   2   9  163.18    7.70
  -1  -2   9  109.99    7.00
   1  -2  -9  115.49    7.80
  -1  -2   9  111.89    6.50
  -1  -2   9  105.39    5.10
  -1  -2   9  108.29    5.90
   1  -2  -9  122.19    7.20
   1  -2  -9  108.69    7.00
  -1  -2   9  114.39    5.00
  -1   2   9  114.59    6.50
  -1   2   9  100.99    5.40
   1   2  -9  128.89    8.20
  -1   2   9  110.89    5.30
  -1   2   9  114.59    5.80
   1   2  -9  116.89    6.10
   1   2  -9  107.49    7.50
   1   2  -9  112.49    6.00
   0  -2  -9  397.36   19.00
   0  -2   9  382.56   18.70
   0  -2  -9  407.66   18.80
   0  -2   9  394.86   17.50
   0  -2  -9  430.36   17.50
   0  -2  -9  423.16   17.70
   0   2   9  427.06   16.60
   0   2   9  394.46   15.30
   0   2  -9  429.16   18.70
   0   2   9  429.56   17.20
   0   2  -9  402.76   15.50
   0   2  -9  417.56   18.80
  -1  -2  -9  109.59    5.80
   1  -2   9   99.19    6.30
  -1  -2  -9   99.29    7.30
  -1  -2  -9  103.99    6.10
  -1  -2  -9   96.09    7.20
   1  -2   9  104.79    5.70
   1   2   9   98.09    4.70
  -1   2  -9   93.89    6.60
   1   2   9  102.09    6.20
   1   2   9   94.99    4.70
  -1   2  -9   94.69    6.50
   2  -2   9   18.80    2.00
  -2  -2  -9   20.30    2.80
   2  -2   9   17.30    2.20
  -2  -2  -9   22.00    3.00
  -2   2  -9   23.50    2.80
   2   2   9   17.40    1.50
  -2   2  -9   16.00    2.00
   2   2   9   17.50    2.20
  -2   2  -9   16.10    2.30
   3  -2   9   29.00    2.30
   3  -2   9   24.10    1.90
  -3  -2  -9   24.50    2.30
  -3  -2  -9   22.50    1.60
  -3  -2  -9   21.10    3.10
   3   2   9   22.80    1.50
   3   2   9   23.20    2.10
  -3   2  -9   20.70    1.80
  -3   2  -9   22.90    3.10
   6  -3  -9   13.90    1.40
   6  -3  -9   14.90    1.40
  -6  -3   9   11.40    1.20
  -6  -3   9   12.10    1.30
  -6  -3   9   10.10    1.20
  -6   3   9    9.70    1.20
   6   3  -9   13.90    1.50
  -6   3   9   10.60    1.50
  -6   3   9   12.10    1.40
   6   3  -9   14.60    1.30
  -5  -3   9  107.89    5.00
   5  -3  -9  108.59    5.70
  -5  -3   9  111.59    5.60
  -5  -3   9  122.39    5.60
  -5  -3   9  113.29    6.70
   5  -3  -9  113.29    5.70
  -5  -3   9  117.09    6.40
  -5   3   9  118.19    6.40
  -5   3   9  110.69    5.90
  -5   3   9  106.59    5.00
   5   3  -9  121.09    5.70
  -5   3   9  128.19    7.30
   5   3  -9  115.29    6.70
   5   3  -9  119.59    5.70
  -4  -3   9   90.09    5.20
   4  -3  -9  103.69    7.20
  -4  -3   9   93.09    4.80
  -4  -3   9   86.19    4.70
   4  -3  -9   85.89    5.40
  -4  -3   9   91.99    5.30
   4  -3  -9   92.39    5.40
  -4   3   9   95.19    5.60
  -4   3   9   88.99    4.90
   4   3  -9   97.29    5.20
   4   3  -9   96.79    6.40
  -4   3   9   94.09    4.60
   4   3  -9   98.79    5.30
  -4   3   9   87.39    5.50
  -4   3   9   91.59    5.30
   3  -3  -9   88.89    5.80
  -3  -3   9   92.49    5.50
   3  -3  -9   80.69    5.40
  -3  -3   9   83.39    4.60
   3  -3  -9   88.69    5.50
  -3  -3   9   87.19    4.60
   3   3  -9   93.79    5.30
  -3   3   9   89.19    5.20
  -3   3   9   79.39    4.50
  -3   3   9   86.19    5.00
  -3   3   9   73.69    4.40
   3   3  -9   89.09    5.10
  -3   3   9   95.69    5.40
   3   3  -9   85.49    6.50
  -3   3   9   88.19    4.60
   3   3  -9   92.89    6.60
  -2  -3   9  186.68   12.20
   2  -3  -9  172.68    9.10
   2  -3  -9  160.28   12.50
  -2  -3   9  153.58    9.00
   2  -3  -9  168.98    9.00
  -2  -3   9  170.48    8.20
  -2   3   9  176.28    9.00
  -2   3   9  166.98    8.40
   2   3  -9  174.28    9.90
  -2   3   9  163.38    7.40
   2   3  -9  182.28    8.20
  -2   3   9  158.08    7.30
   2   3  -9  174.38    8.00
  -2   3   9  164.68    8.10
  -2   3   9  166.38    7.90
   1  -3  -9  190.58   10.70
   1  -3  -9  188.58   10.10
  -1  -3   9  200.58    9.40
  -1  -3   9  187.88    9.90
   1  -3  -9  192.48   10.30
   1   3  -9  196.48   10.70
   1   3  -9  198.98   13.10
  -1   3   9  197.78    8.70
  -1   3   9  185.48    8.20
  -1   3   9  189.98    9.10
  -1   3   9  184.08    8.70
   1   3  -9  206.78   11.00
  -1   3   9  198.68    8.10
  -1   3   9  186.58    8.50
  -1   3   9  190.08    8.10
  -1   3   9  191.78   12.20
   0  -3   9  328.27   12.40
   0  -3  -9  333.87   16.50
   0  -3  -9  337.87   15.60
   0  -3   9  339.57   14.20
   0  -3  -9  358.26   15.30
   0   3   9  338.57   13.20
   0   3  -9  352.36   16.30
   0   3  -9  346.27   15.80
   0   3   9  352.46   14.50
   0   3   9  332.07   13.00
   0   3   9  328.87   13.20
  -1  -3  -9   37.10    4.20
   1  -3   9   36.20    3.00
  -1  -3  -9   45.50    3.70
   1  -3   9   37.80    3.40
  -1  -3  -9   34.60    4.70
  -1  -3  -9   40.70    4.00
  -1   3  -9   33.50    3.30
  -1   3  -9   35.50    3.80
   1   3   9   37.70    2.50
   1   3   9   38.00    2.50
   1   3   9   38.80    3.30
  -2  -3  -9    8.70    2.10
   2  -3   9    9.90    1.80
   2  -3   9   12.50    1.50
   2   3   9   10.60    1.50
  -2   3  -9    9.40    2.00
   2   3   9    8.90    1.00
   2   3   9   10.70    1.10
   3  -3   9    7.60    1.80
   3  -3   9    6.60    1.00
  -3  -3  -9    5.80    1.40
  -3   3  -9    7.40    1.20
   3   3   9    7.40    0.70
   3   3   9    7.30    1.20
  -6  -4   9   21.70    1.50
  -6   4   9   21.40    2.00
   6   4  -9   22.30    2.10
  -6   4   9   20.70    1.60
  -6   4   9   20.80    1.70
   5  -4  -9   29.70    2.20
  -5  -4   9   26.20    2.20
  -5  -4   9   37.90    3.60
   5  -4  -9   30.20    2.30
  -5  -4   9   28.30    2.20
  -5  -4   9   28.90    2.10
  -5   4   9   23.60    2.40
  -5   4   9   25.10    2.10
  -5   4   9   26.10    1.90
   5   4  -9   28.10    2.80
   5   4  -9   28.70    2.00
  -5   4   9   26.70    2.50
  -5   4   9   27.10    2.50
  -4  -4   9    9.60    1.10
  -4  -4   9    8.10    1.20
   4  -4  -9    5.60    1.50
  -4  -4   9    8.30    1.70
  -4  -4   9    9.30    1.20
   4  -4  -9    6.40    1.60
   4   4  -9    6.40    1.40
   4   4  -9    9.20    1.40
  -4   4   9    8.00    1.30
  -4   4   9    6.00    1.20
  -4   4   9    7.40    1.60
  -4   4   9    4.50    1.60
  -4   4   9    6.60    1.60
   4   4  -9    8.10    2.30
   4   4  -9    6.10    1.60
  -4   4   9    7.40    1.00
  -3  -4   9   15.40    2.10
  -3  -4   9   13.90    1.40
   3  -4  -9   14.10    2.50
  -3  -4   9   13.40    1.80
   3  -4  -9   11.90    2.30
   3  -4  -9   10.80    2.30
   3   4  -9   11.60    2.00
  -3   4   9   14.00    1.70
   3   4  -9   15.60    3.00
   3   4  -9   12.80    2.70
  -3   4   9   13.60    1.70
  -3   4   9   14.70    2.00
   3   4  -9   11.40    1.70
  -3   4   9   14.30    1.70
  -3   4   9   14.50    1.60
  -3   4   9   13.00    2.70
  -3   4   9   14.40    1.80
   2  -4  -9   13.50    2.10
  -2  -4   9   13.90    2.50
   2  -4  -9    9.40    2.10
  -2  -4   9   12.00    1.60
   2  -4  -9   12.90    1.90
   2   4  -9   14.50    2.90
  -2   4   9   13.10    1.70
  -2   4   9   13.70    1.60
  -2   4   9   12.60    2.50
   2   4  -9   12.30    1.50
  -2   4   9   15.70    1.50
  -2   4   9   14.20    1.50
   2   4  -9   14.40    2.40
  -2   4   9   11.70    1.60
  -1  -4   9   58.99    4.00
   1  -4  -9   56.39    4.90
   1  -4  -9   45.80    4.50
  -1  -4   9   60.59    4.40
  -1  -4   9   55.79    4.60
   1  -4  -9   62.59    4.90
  -1   4   9   56.09    3.50
  -1   4   9   51.59    3.60
  -1   4   9   51.69    3.40
   1   4  -9   56.29    4.70
  -1   4   9   53.09    3.40
  -1   4   9   54.29    3.30
   1   4  -9   63.79    5.20
  -1   4   9   50.29    4.10
  -1   4   9   55.89    3.40
   1   4  -9   58.69    5.70
   0  -4  -9   10.30    2.50
   0  -4   9   11.80    1.90
   0  -4  -9   11.00    2.40
   0  -4  -9   15.80    2.60
   0  -4   9   10.40    1.60
   0  -4   9   12.10    2.40
   0   4  -9   13.20    2.10
   0   4   9   13.40    1.40
   0   4   9   15.30    1.90
   0   4   9   12.40    1.30
   0   4   9   14.30    1.50
   0   4   9   12.00    1.50
   0   4  -9   11.80    2.30
  -1  -4  -9   35.30    3.40
  -1  -4  -9   30.90    3.50
  -1  -4  -9   25.50    3.20
   1  -4   9   25.90    2.70
   1  -4   9   25.70    2.50
  -1   4  -9   23.00    2.70
   1   4   9   26.30    2.50
   1   4   9   25.00    2.00
   1   4   9   25.90    1.90
  -1   4  -9   26.70    2.90
  -1   4  -9   21.40    2.10
   2  -4   9   39.50    2.90
  -2  -4  -9   36.20    3.60
   2  -4   9   42.00    3.00
  -2  -4  -9   46.30    4.90
  -2  -4  -9   37.00    2.70
   2   4   9   33.50    2.20
  -2   4  -9   42.10    3.30
   2   4   9   36.10    3.10
   2   4   9   35.80    2.20
  -3  -4  -9  485.75   19.40
   3  -4   9  517.55   19.80
  -3   4  -9  541.85   21.20
   3   4   9  527.15   19.00
   3   4   9  507.95   17.70
  -6  -5   9   48.80    2.60
  -6  -5   9   49.10    2.40
   6   5  -9   55.89    2.90
  -6   5   9   51.19    2.80
  -5  -5   9  100.69    4.70
   5  -5  -9  112.09    5.00
  -5  -5   9  116.89    5.20
  -5  -5   9  126.99    6.70
   5  -5  -9  110.99    5.00
  -5  -5   9  119.59    5.10
  -5   5   9  108.19    4.90
   5   5  -9  108.09    5.90
  -5   5   9  106.29    5.20
  -5   5   9  113.39    5.70
  -5   5   9  103.59    5.50
  -5   5   9  112.79    5.50
  -4  -5   9   24.20    2.10
   4  -5  -9   25.10    2.40
  -4  -5   9   27.50    1.70
  -4  -5   9   27.00    2.40
  -4  -5   9   27.30    2.10
   4  -5  -9   24.90    2.50
   4   5  -9   26.40    3.10
  -4   5   9   21.40    2.50
  -4   5   9   23.90    2.00
  -4   5   9   21.60    2.20
  -4   5   9   28.50    2.70
   4   5  -9   24.80    2.80
  -4   5   9   25.50    1.90
  -4   5   9   27.10    2.40
  -3  -5   9   -0.30    0.60
  -3  -5   9   -0.10    0.80
   3  -5  -9   -0.60    0.70
  -3  -5   9    0.60    0.40
   3  -5  -9   -1.40    0.90
  -3   5   9   -0.40    0.50
  -3   5   9    0.00    1.80
   3   5  -9    0.10    1.00
   3   5  -9    0.40    0.90
  -3   5   9    0.40    0.70
  -3   5   9   -0.50    0.30
  -3   5   9    1.00    0.70
  -3   5   9    1.40    1.10
   2  -5  -9  212.88   10.40
  -2  -5   9  211.58   10.00
   2  -5  -9  212.28   10.30
  -2  -5   9  210.38    9.50
   2  -5  -9  203.58   10.30
   2   5  -9  204.68   11.80
   2   5  -9  207.88   10.50
  -2   5   9  215.48    9.20
  -2   5   9  222.48    9.20
  -2   5   9  205.68    9.90
  -2   5   9  209.68    9.20
  -2   5   9  193.78    8.70
   1  -5  -9  256.27   12.50
  -1  -5   9  258.67   11.40
  -1  -5   9  254.07   11.80
   1  -5  -9  273.37   12.80
   1   5  -9  268.17   12.40
  -1   5   9  264.77   10.50
   1   5  -9  261.07   14.10
  -1   5   9  266.17   10.80
  -1   5   9  271.07   11.50
  -1   5   9  265.97   10.90
  -1   5   9  257.37   10.70
   0  -5  -9  221.18   11.50
   0  -5  -9  215.58   11.10
   0  -5   9  217.28   10.20
   0  -5   9  229.78   10.10
   0  -5   9  216.18   10.60
   0  -5  -9  228.78   11.00
   0   5   9  219.08    8.90
   0   5   9  225.58    9.30
   0   5   9  208.38    9.40
   0   5  -9  241.88   12.90
   0   5   9  220.38    9.30
   0   5   9  215.88    9.00
   0   5  -9  208.18   10.00
   0   5  -9  236.38   11.30
   1  -5   9   35.40    3.20
  -1  -5  -9   40.70    3.90
   1  -5   9   32.50    3.00
  -1  -5  -9   39.00    3.70
   1  -5   9   35.30    2.90
  -1  -5  -9   38.50    3.60
   1   5   9   37.80    2.80
  -1   5  -9   36.20    4.10
  -1   5  -9   37.60    3.40
  -1   5  -9   31.50    2.50
   1   5   9   36.20    2.30
   1   5   9   35.80    2.50
  -2  -5  -9   44.20    2.70
   2  -5   9   43.40    2.90
  -2  -5  -9   40.20    3.60
   2   5   9   40.20    2.70
   2   5   9   39.80    2.20
  -2   5  -9   45.60    4.00
   2   5   9   35.80    2.30
  -2   5  -9   42.90    3.10
  -3  -5  -9   57.29    3.40
  -3   5  -9   62.29    3.20
  -3   5  -9   65.99    3.70
   3   5   9   68.49    3.00
  -5  -6   9   93.99    4.60
  -5  -6   9  102.69    4.50
  -5   6   9  105.29    4.90
   5   6  -9  105.29    5.10
  -5   6   9  105.39    4.70
  -5   6   9  100.79    5.00
  -4  -6   9   81.99    4.10
  -4  -6   9   96.59    4.40
  -4  -6   9   96.69    5.20
   4  -6  -9   89.99    4.60
   4  -6  -9   87.39    4.50
  -4   6   9   91.79    4.80
  -4   6   9   97.69    4.50
   4   6  -9   91.39    5.20
  -4   6   9   88.69    4.90
  -4   6   9   73.09    4.40
   4   6  -9   90.19    5.70
  -4   6   9   93.29    5.00
  -3  -6   9   18.40    1.40
   3  -6  -9   11.00    2.10
  -3  -6   9   14.40    2.20
  -3  -6   9   13.70    1.60
   3  -6  -9   12.80    2.00
  -3  -6   9   16.20    1.60
   3   6  -9   18.10    2.20
  -3   6   9   15.10    1.80
  -3   6   9   18.30    2.00
  -3   6   9   17.40    3.30
  -3   6   9   15.70    1.50
  -3   6   9   18.90    2.10
   2  -6  -9   47.90    3.90
  -2  -6   9   49.50    3.50
   2  -6  -9   47.00    4.10
  -2  -6   9   48.70    3.80
  -2   6   9   50.19    4.30
  -2   6   9   48.80    3.30
   2   6  -9   50.99    5.00
  -2   6   9   48.60    3.20
  -2   6   9   49.90    3.20
  -2   6   9   46.50    3.00
   2   6  -9   47.30    3.80
  -1  -6   9   74.99    4.50
   1  -6  -9   75.19    5.20
   1  -6  -9   68.69    5.20
  -1  -6   9   74.69    4.70
   1  -6  -9   71.89    5.20
   1   6  -9   68.79    4.10
  -1   6   9   76.89    4.80
   1   6  -9   67.29    5.80
  -1   6   9   76.29    4.10
  -1   6   9   72.39    3.80
   1   6  -9   77.99    6.30
  -1   6   9   65.59    3.70
  -1   6   9   77.19    4.20
   0  -6   9    2.80    0.90
   0  -6   9    6.00    1.70
   0  -6  -9    2.60    1.50
   0  -6  -9    0.90    1.20
   0  -6  -9    3.20    1.40
   0   6  -9    3.00    1.30
   0   6   9    1.50    1.20
   0   6  -9    3.60    1.60
   0   6   9    3.80    0.70
   0   6  -9    2.90    0.80
   0   6   9    1.70    0.60
   1  -6   9    5.40    1.30
  -1  -6  -9    7.40    1.80
   1  -6   9    5.10    1.20
  -1  -6  -9    6.60    1.80
  -1   6  -9    4.10    1.00
   1   6   9    5.30    0.80
   1   6   9    6.30    0.80
   1   6   9    6.20    0.80
  -1   6  -9    5.90    1.80
  -1   6  -9    5.70    1.00
   1   6   9    5.70    1.00
  -2  -6  -9   65.19    4.30
   2  -6   9   57.19    3.30
   2   6   9   61.79    3.00
  -2   6  -9   64.09    3.60
   2   6   9   59.79    2.70
   2   6   9   63.69    3.00
  -2   6  -9   69.39    4.20
  -5  -7   9    4.90    0.60
  -5  -7   9    5.10    0.60
  -5   7   9    5.80    0.90
  -5   7   9    4.60    0.90
  -4  -7   9   15.40    1.20
  -4  -7   9   15.80    1.80
   4   7  -9   12.90    1.60
  -4   7   9   16.40    1.90
  -4   7   9   15.70    2.50
  -4   7   9   15.50    1.50
   4   7  -9   16.40    2.10
  -4   7   9   14.60    1.30
   4   7  -9   14.00    1.40
  -3  -7   9   32.60    2.30
   3  -7  -9   40.30    3.00
  -3  -7   9   34.40    2.00
   3  -7  -9   37.50    2.80
  -3  -7   9   35.90    2.90
  -3   7   9   41.60    2.90
  -3   7   9   35.50    2.30
  -3   7   9   43.50    4.00
  -3   7   9   35.40    2.60
  -3   7   9   41.40    2.70
   3   7  -9   34.80    2.70
   3   7  -9   37.40    3.60
  -2  -7   9  121.89    5.30
  -2  -7   9  126.59    6.20
   2  -7  -9  134.39    6.70
  -2  -7   9  122.59    6.70
   2  -7  -9  124.89    6.80
  -2   7   9  139.49    6.90
   2   7  -9  111.49    5.80
   2   7  -9  141.09    7.90
  -2   7   9  134.09    6.00
  -2   7   9  132.89    6.10
  -2   7   9  123.19    5.90
   1  -7  -9   55.59    4.20
   1  -7  -9   52.49    4.20
  -1  -7   9   57.59    3.80
  -1  -7   9   55.49    3.70
   1  -7  -9   49.30    4.90
   1   7  -9   45.80    3.00
  -1   7   9   55.79    3.30
  -1   7   9   54.19    3.90
  -1   7   9   53.39    3.00
  -1   7   9   55.09    3.30
   1   7  -9   58.09    4.80
   0  -7  -9  129.29    7.50
   0  -7  -9  115.09    6.60
   0  -7  -9  127.89    7.00
   0  -7   9  135.19    6.50
   0  -7   9  133.79    6.30
   0   7   9  124.89    5.30
   0   7   9  111.19    5.60
   0   7   9  122.89    5.50
   0   7  -9  144.09    7.80
   0   7  -9  130.69    6.10
   0   7  -9  132.69    6.40
   0   7   9  126.69    5.70
   1  -7   9   25.20    2.00
  -1  -7  -9   27.20    2.60
  -1  -7  -9   26.90    2.90
  -1  -7  -9   24.50    2.60
  -1   7  -9   30.10    2.80
   1   7   9   26.40    1.80
   1   7   9   24.00    1.70
  -1   7  -9   21.30    1.60
   1   7   9   26.10    1.70
  -1   7  -9   25.50    2.10
  -2  -7  -9    0.00    0.50
   2  -7   9   -0.30    0.30
  -2   7  -9   -0.30    0.30
  -4  -8   9   85.29    3.60
   4   8  -9  100.59    4.90
  -4   8   9   85.59    3.80
  -4   8   9   87.29    4.00
  -4   8   9   81.59    4.30
   3   8  -9   28.90    2.20
  -3   8   9   34.90    2.40
  -3   8   9   30.40    1.90
   3   8  -9   29.60    2.80
  -3   8   9   32.50    3.20
   2  -8  -9   75.29    4.10
  -2  -8   9   69.49    3.90
   2  -8  -9   74.69    4.20
  -2   8   9   76.59    3.90
   2   8  -9   82.49    5.20
  -2   8   9   75.89    4.60
  -2   8   9   72.69    3.50
  -2   8   9   79.19    3.90
   2   8  -9   73.99    4.30
   1  -8  -9   74.99    4.50
   1  -8  -9   77.59    4.40
  -1  -8   9   67.59    3.90
  -1   8   9   70.99    4.10
   1   8  -9   71.29    4.20
   1   8  -9   78.39    5.00
  -1   8   9   69.59    3.40
  -1   8   9   73.09    3.70
  -1   8   9   72.69    3.70
   0  -8  -9   96.59    5.10
   0  -8  -9   91.19    4.70
   0  -8   9   87.19    4.30
   0  -8  -9   78.59    4.30
   0   8   9   82.79    3.80
   0   8   9   84.19    4.00
   0   8  -9   83.89    4.70
   0   8  -9   90.79    5.10
   0   8  -9   70.29    3.70
   0   8   9   82.29    3.60
   1  -8   9   56.69    3.00
  -1  -8  -9   65.79    3.40
  -1  -8  -9   61.19    4.20
  -1   8  -9   53.59    2.90
   1   8   9   59.49    2.80
  -3  -9   9   82.99    3.40
  -3   9   9   81.49    3.50
  -3   9   9   86.19    3.80
  -3   9   9   87.99    3.80
   3   9  -9   94.29    4.50
  -2  -9   9   13.20    1.10
  -2   9   9   12.90    1.30
  -2   9   9   11.80    1.90
  -2   9   9   12.40    0.90
   2   9  -9   12.90    1.60
   2   9  -9   12.00    1.20
  -2   9   9   12.70    1.20
   1  -9  -9   49.00    2.90
  -1  -9   9   43.40    2.50
  -1   9   9   46.20    2.40
  -1   9   9   44.90    2.60
  -1   9   9   45.20    2.40
   1   9  -9   42.60    2.60
   1   9  -9   52.29    3.00
   0  -9  -9   18.90    1.90
   0  -9   9   17.70    1.30
   0   9   9   18.60    1.40
   6   0 -10    1.60    0.50
  -6   0  10    1.40    0.60
  -6   0  10    0.90    0.40
   5   0 -10   75.89    4.00
  -5   0  10   64.69    3.70
   5   0 -10   67.39    4.10
  -5   0  10   69.49    3.70
  -5   0  10   73.39    4.30
   5   0 -10   72.79    4.00
  -4   0  10    4.40    0.90
   4   0 -10    4.20    0.90
   4   0 -10    3.70    1.00
   4   0 -10    3.10    1.10
  -4   0  10    2.10    0.90
  -4   0  10    4.20    1.00
  -4   0  10    4.30    1.20
   3   0 -10   97.19    5.60
  -3   0  10   95.09    4.50
  -3   0  10   97.99    5.20
   3   0 -10  100.79    6.50
   3   0 -10  105.79    5.70
  -3   0  10   99.09    5.50
  -3   0  10   91.69    4.70
  -2   0  10    1.90    0.60
  -2   0  10    2.20    1.00
  -2   0  10    0.90    0.40
   2   0 -10    1.20    0.80
  -2   0  10    1.30    0.70
   2   0 -10    2.70    1.00
   2   0 -10    3.60    1.20
   1   0 -10  216.18    9.80
   1   0 -10  228.38   11.50
  -1   0  10  217.58    8.70
   1   0 -10  222.78   10.00
   1   0 -10  226.18   11.60
  -1   0  10  226.68   10.70
  -1   0  10  212.68    9.30
  -1   0  10  229.88    9.90
   0   0  10   11.50    1.30
   0   0 -10   12.40    3.40
   0   0  10    9.70    1.00
   0   0 -10   10.60    1.60
   0   0 -10    8.00    2.00
   0   0  10   10.50    1.70
  -1   0 -10    7.20    1.60
   1   0  10    9.10    1.60
   1   0  10    7.10    1.00
  -1   0 -10   13.40    2.50
   1   0  10    8.40    0.90
   2   0  10  353.36   12.90
  -2   0 -10  343.37   14.10
  -2   0 -10  378.86   15.20
   2   0  10  376.76   14.30
   3   0  10    0.50    0.20
  -6  -1  10   49.40    2.50
   6  -1 -10   50.09    2.50
  -6  -1  10   47.40    2.80
   6   1 -10   50.99    2.50
  -6   1  10   44.90    2.50
  -6   1  10   46.90    2.90
   5  -1 -10   21.00    2.00
   5  -1 -10   21.60    1.90
  -5  -1  10   18.50    1.90
   5  -1 -10   20.60    1.80
  -5  -1  10   17.00    1.50
  -5  -1  10   19.90    1.70
  -5  -1  10   18.20    1.50
   5   1 -10   21.20    1.90
  -5   1  10   20.10    1.80
  -5   1  10   19.90    2.00
  -5   1  10   19.30    1.60
   5   1 -10   19.20    2.00
   5   1 -10   21.30    1.90
  -4  -1  10   20.00    2.10
   4  -1 -10   19.20    2.10
  -4  -1  10   17.10    1.70
  -4  -1  10   16.20    1.50
   4  -1 -10   22.00    2.10
  -4  -1  10   21.00    1.80
   4  -1 -10   17.80    2.20
  -4   1  10   16.60    1.60
   4   1 -10   21.40    2.40
  -4   1  10   19.40    2.10
   4   1 -10   22.20    2.20
   4   1 -10   20.90    2.10
  -4   1  10   20.20    1.80
  -4   1  10   18.20    1.80
  -3  -1  10   36.50    2.70
  -3  -1  10   31.20    2.30
   3  -1 -10   37.30    3.20
  -3  -1  10   39.70    3.10
   3  -1 -10   33.90    3.40
   3  -1 -10   35.70    3.20
  -3  -1  10   33.40    2.40
  -3  -1  10   38.60    2.80
   3   1 -10   35.90    3.60
   3   1 -10   39.20    3.10
  -3   1  10   32.90    2.80
  -3   1  10   35.80    2.90
  -3   1  10   37.50    2.90
  -3   1  10   38.50    2.30
   3   1 -10   37.30    3.10
  -2  -1  10   33.40    2.80
   2  -1 -10   28.60    3.40
  -2  -1  10   31.60    3.00
   2  -1 -10   32.30    3.10
  -2  -1  10   31.10    2.10
  -2  -1  10   33.30    2.60
  -2  -1  10   33.40    2.00
   2  -1 -10   36.70    3.30
   2   1 -10   30.10    3.40
   2   1 -10   34.30    2.80
  -2   1  10   34.50    2.50
   2   1 -10   31.90    2.80
  -2   1  10   30.50    2.80
   2   1 -10   28.50    3.60
  -2   1  10   30.10    2.10
  -2   1  10   31.70    2.60
  -1  -1  10   14.10    1.20
   1  -1 -10   15.60    2.40
   1  -1 -10    6.70    2.70
  -1  -1  10   17.40    2.10
  -1  -1  10   13.00    1.50
   1  -1 -10   14.10    2.30
   1  -1 -10    9.00    2.10
  -1  -1  10   15.80    1.90
  -1   1  10   14.90    2.00
   1   1 -10   17.50    2.50
   1   1 -10   23.00    3.60
   1   1 -10   18.40    3.40
  -1   1  10   13.60    1.60
  -1   1  10   13.40    1.70
   1   1 -10   14.00    2.30
  -1   1  10   13.10    1.30
   1   1 -10   16.90    2.00
   0  -1 -10   30.00    2.70
   0  -1  10   26.80    2.80
   0  -1 -10   32.40    3.90
   0  -1 -10   23.20    2.60
   0  -1 -10   25.60    3.00
   0  -1  10   27.20    1.80
   0   1  10   26.00    2.60
   0   1  10   29.50    2.00
   0   1 -10   29.60    3.30
   0   1  10   28.00    2.10
   0   1 -10   27.30    3.30
  -1  -1 -10  100.49    6.20
   1  -1  10   85.09    4.40
  -1  -1 -10  102.89    6.40
   1  -1  10   95.79    4.50
   1  -1  10  101.99    5.70
   1  -1  10  101.99    4.20
  -1   1 -10   86.89    7.40
   1   1  10  100.49    5.60
  -1   1 -10  101.39    6.20
   1   1  10   97.99    4.40
   1   1  10   86.09    4.20
   2  -1  10  141.99    5.40
   2  -1  10  154.38    6.80
   2  -1  10  125.99    5.30
  -2  -1 -10  146.49    6.90
   2   1  10  142.09    5.60
   2   1  10  147.09    6.70
  -2   1 -10  117.89    6.00
  -2   1 -10  142.29    7.20
   3  -1  10   61.39    2.50
  -6  -2  10   27.70    2.20
  -6  -2  10   24.10    1.50
   6  -2 -10   24.40    1.60
  -6  -2  10   19.40    1.50
  -6   2  10   22.10    1.60
  -6   2  10   23.20    1.80
   6   2 -10   20.50    1.50
   5  -2 -10    5.20    1.10
   5  -2 -10    3.90    0.90
  -5  -2  10    5.10    0.90
  -5  -2  10    4.20    0.80
  -5  -2  10    5.30    0.70
  -5  -2  10    4.50    1.00
  -5   2  10    5.10    0.90
   5   2 -10    4.50    1.20
   5   2 -10    5.50    1.10
  -5   2  10    4.90    1.00
   5   2 -10    4.80    1.10
  -5   2  10    5.50    1.20
  -4  -2  10   66.19    4.10
   4  -2 -10   61.59    4.00
  -4  -2  10   66.49    3.80
   4  -2 -10   69.29    4.20
  -4  -2  10   71.09    4.10
  -4  -2  10   59.89    3.50
   4  -2 -10   65.59    4.40
   4   2 -10   66.29    4.60
  -4   2  10   63.19    4.10
  -4   2  10   65.49    3.20
   4   2 -10   64.49    3.80
  -4   2  10   60.49    3.40
  -4   2  10   62.59    3.90
   4   2 -10   68.29    3.90
  -3  -2  10   28.90    2.60
  -3  -2  10   28.90    2.20
   3  -2 -10   32.70    2.90
  -3  -2  10   27.60    2.10
   3  -2 -10   29.90    3.00
   3  -2 -10   32.10    2.90
  -3   2  10   25.70    2.20
  -3   2  10   31.30    2.70
   3   2 -10   31.20    2.50
   3   2 -10   28.80    2.70
  -3   2  10   30.80    2.40
  -3   2  10   32.10    2.60
  -3   2  10   26.60    2.00
   3   2 -10   29.40    3.20
  -2  -2  10  261.77   10.50
   2  -2 -10  254.47   11.30
   2  -2 -10  261.57   11.50
  -2  -2  10  246.08    9.70
  -2  -2  10  263.17   11.00
   2  -2 -10  228.98   11.90
   2   2 -10  250.87   12.30
  -2   2  10  236.18   10.90
  -2   2  10  252.67   10.60
   2   2 -10  256.17   10.50
   2   2 -10  252.17   10.40
  -2   2  10  246.88   10.40
  -2   2  10  253.47   10.60
  -2   2  10  240.48    9.80
   1  -2 -10   39.00    3.80
  -1  -2  10   42.30    3.30
   1  -2 -10   43.00    3.50
  -1  -2  10   38.80    3.50
  -1  -2  10   41.90    2.80
   1  -2 -10   39.80    3.70
  -1  -2  10   34.20    2.90
   1   2 -10   39.50    2.70
   1   2 -10   38.60    4.40
  -1   2  10   39.40    3.20
  -1   2  10   40.70    2.50
   1   2 -10   38.10    3.90
  -1   2  10   43.50    3.20
   1   2 -10   42.10    4.00
  -1   2  10   37.80    2.70
  -1   2  10   34.50    2.70
   0  -2  10   17.80    2.40
   0  -2  10   15.20    1.70
   0  -2 -10   24.80    3.70
   0  -2  10   20.30    1.50
   0  -2 -10   22.70    2.50
   0  -2 -10   22.00    2.60
   0  -2  10   17.20    2.00
   0  -2 -10   19.40    2.70
   0   2  10   18.90    2.10
   0   2 -10   15.20    2.20
   0   2 -10   21.00    2.80
   0   2  10   16.60    1.50
   0   2  10   18.00    1.60
   1  -2  10   84.69    3.70
  -1  -2 -10   88.59    6.40
   1  -2  10   85.09    5.20
   1  -2  10   79.29    4.20
   1   2  10   88.09    5.60
  -1   2 -10   83.79    5.60
   1   2  10   89.69    4.30
  -1   2 -10   83.69    5.10
   2  -2  10   18.90    1.20
   2  -2  10   15.00    1.30
  -2  -2 -10   17.20    1.90
   2  -2  10   18.10    1.30
  -2   2 -10   19.90    2.50
   2   2  10   19.20    1.30
   2   2  10   20.20    1.90
  -6  -3  10    3.30    0.60
   6   3 -10    2.40    0.60
  -6   3  10    2.80    0.70
  -5  -3  10   30.70    2.00
  -5  -3  10   30.80    2.20
   5  -3 -10   32.60    2.70
   5  -3 -10   31.10    2.30
  -5  -3  10   31.70    2.10
  -5   3  10   30.90    2.00
  -5   3  10   31.70    2.30
   5   3 -10   36.00    2.40
  -5   3  10   30.50    2.40
   5   3 -10   32.70    2.70
  -4  -3  10    0.00    0.50
   4  -3 -10    1.70    0.80
  -4  -3  10    0.90    0.60
  -4  -3  10    1.80    1.00
  -4  -3  10    0.90    0.50
   4  -3 -10    1.20    0.70
   4  -3 -10    2.00    1.10
  -4   3  10    1.20    0.80
  -4   3  10    1.90    0.70
   4   3 -10    1.80    1.10
  -4   3  10    1.50    0.50
   4   3 -10    0.70    0.60
  -4   3  10    0.90    0.60
   4   3 -10    2.00    1.30
   3  -3 -10  129.59    6.80
   3  -3 -10  133.09    6.80
  -3  -3  10  136.39    5.90
  -3  -3  10  133.39    6.10
   3  -3 -10  127.19    6.90
  -3  -3  10  141.79    8.30
  -3   3  10  135.39    6.40
  -3   3  10  132.19    6.40
   3   3 -10  135.79    6.00
   3   3 -10  136.79    7.60
  -3   3  10  120.49    6.60
   3   3 -10  123.49    8.10
   3   3 -10  123.49    6.10
  -3   3  10  133.89    5.80
  -2  -3  10   41.70    2.40
  -2  -3  10   39.90    2.70
   2  -3 -10   39.90    3.50
   2  -3 -10   40.70    3.60
  -2  -3  10   41.70    3.20
   2  -3 -10   43.60    3.80
   2   3 -10   41.10    2.60
  -2   3  10   38.60    2.80
  -2   3  10   40.70    2.60
  -2   3  10   39.30    3.50
   2   3 -10   38.10    3.70
  -2   3  10   36.00    2.70
   1  -3 -10  168.28    8.50
   1  -3 -10  174.88    8.50
   1  -3 -10  173.78    9.30
  -1  -3  10  169.08    7.90
  -1  -3  10  181.48    8.50
  -1  -3  10  175.98    8.90
   1   3 -10  178.58   10.40
   1   3 -10  168.18    9.20
  -1   3  10  179.98    7.90
  -1   3  10  155.78    7.20
  -1   3  10  175.78    7.50
  -1   3  10  180.88    7.30
   1   3 -10  162.18    9.10
   0  -3  10   98.89    4.10
   0  -3  10   98.79    5.10
   0  -3 -10  104.59    5.80
   0  -3 -10  104.99    6.70
   0  -3 -10  106.69    5.70
   0  -3  10  102.39    6.90
   0  -3  10  103.59    6.00
   0   3  10   99.99    5.30
   0   3 -10   99.29    6.30
   0   3  10  103.79    4.70
   0   3  10  103.19    4.60
   0   3  10   96.59    4.60
   0   3 -10  100.89    7.20
   0   3 -10   97.09    6.00
   1  -3  10   75.09    4.50
   1  -3  10   71.19    3.10
   1  -3  10   74.89    4.30
  -1  -3 -10   76.59    5.10
   1  -3  10   73.09    3.90
  -1  -3 -10   77.29    3.80
   1   3  10   74.99    4.20
  -1   3 -10   61.79    3.90
   1   3  10   71.89    3.50
  -1   3 -10   70.79    4.80
  -2  -3 -10   11.30    1.50
   2  -3  10   10.40    0.70
   2  -3  10    8.40    1.00
   2  -3  10   11.50    1.40
   2   3  10    9.60    0.90
   2   3  10   11.40    1.30
  -2   3 -10   10.70    1.90
  -5  -4  10   16.90    1.30
  -5  -4  10   16.60    1.40
  -5  -4  10   18.10    1.40
   5  -4 -10   17.10    1.60
   5  -4 -10   17.20    1.50
  -5   4  10   14.30    1.40
  -5   4  10   14.80    1.40
   5   4 -10   19.20    1.80
  -5   4  10   20.70    1.60
  -4  -4  10   28.20    2.10
   4  -4 -10   28.00    2.30
  -4  -4  10   26.10    2.10
  -4  -4  10   27.00    2.50
  -4  -4  10   27.00    1.90
   4  -4 -10   26.90    2.20
  -4   4  10   27.70    2.20
  -4   4  10   24.00    1.70
   4   4 -10   26.70    2.60
  -4   4  10   24.80    2.10
  -4   4  10   22.20    2.00
   3  -4 -10   19.20    2.00
  -3  -4  10   19.80    1.60
  -3  -4  10   22.10    2.00
  -3  -4  10   23.60    2.30
   3  -4 -10   19.10    2.30
  -3  -4  10   20.80    1.70
   3  -4 -10   17.70    2.20
   3   4 -10   23.90    2.60
  -3   4  10   15.70    1.70
  -3   4  10   20.60    2.00
  -3   4  10   16.70    1.90
  -3   4  10   17.90    1.80
   3   4 -10   18.70    3.10
   2  -4 -10  191.48    8.80
  -2  -4  10  186.98    9.30
   2  -4 -10  184.78    8.80
  -2  -4  10  188.38    7.80
   2  -4 -10  177.78    8.90
  -2  -4  10  183.18    7.40
   2   4 -10  189.58   10.30
  -2   4  10  157.98    7.50
  -2   4  10  182.18    7.80
   2   4 -10  190.88    9.40
  -2   4  10  190.88    7.70
  -2   4  10  192.08    8.00
   1  -4 -10   10.10    2.40
  -1  -4  10   10.80    2.20
   1  -4 -10   14.10    2.30
  -1  -4  10    8.70    1.00
   1  -4 -10   12.00    2.20
  -1   4  10   10.80    1.20
   1   4 -10   11.50    1.70
   1   4 -10   14.70    5.00
  -1   4  10    8.70    1.20
  -1   4  10    8.00    1.40
  -1   4  10    9.30    1.20
   0  -4 -10  126.49    6.90
   0  -4  10  120.49    6.20
   0  -4  10  111.59    5.60
   0  -4  10  120.39    6.60
   0  -4 -10  123.49    6.30
   0  -4 -10  125.09    7.20
   0   4 -10  117.49    6.20
   0   4 -10  122.59    7.90
   0   4 -10  114.09    6.90
   0   4  10  123.39    5.70
   0   4  10  125.19    5.30
   1  -4  10   51.39    3.50
  -1  -4 -10   47.60    3.70
   1  -4  10   49.30    2.90
  -1  -4 -10   53.19    3.10
   1  -4  10   51.39    3.20
  -1   4 -10   46.30    3.70
   1   4  10   46.80    2.90
   1   4  10   46.60    2.50
  -1   4 -10   48.80    4.30
   2  -4  10  157.38    6.60
  -2  -4 -10  173.28    7.60
  -2   4 -10  186.08    8.20
   2   4  10  175.78    6.80
   2   4  10  168.18    6.30
  -2   4 -10  168.48    7.10
  -5  -5  10   58.69    2.70
  -5  -5  10   55.29    2.70
   5   5 -10   56.99    3.10
  -5   5  10   55.09    3.00
   4  -5 -10    0.20    0.60
  -4  -5  10   -0.40    0.30
  -4  -5  10   -0.10    0.40
   4  -5 -10    1.60    0.70
  -4   5  10   -0.40    0.60
  -4   5  10   -1.00    0.90
   4   5 -10   -0.50    0.50
  -4   5  10   -0.20    0.30
   4   5 -10    0.10    1.20
  -3  -5  10  203.58    8.80
  -3  -5  10  193.68    8.10
   3  -5 -10  199.38    8.60
  -3  -5  10  200.18    7.80
  -3  -5  10  190.78    7.70
   3  -5 -10  204.58    8.70
  -3   5  10  196.18    8.30
   3   5 -10  194.88    9.70
  -3   5  10  204.78    8.00
   3   5 -10  198.48    9.20
  -3   5  10  190.48    8.20
  -2  -5  10  168.48    7.80
  -2  -5  10  200.58    9.10
  -2  -5  10  197.68    7.80
   2  -5 -10  204.78    9.10
   2  -5 -10  203.58    9.10
   2  -5 -10  208.68    9.10
  -2  -5  10  202.98    8.00
  -2   5  10  193.98    8.20
  -2   5  10  197.98    8.50
  -2   5  10  199.88    8.30
  -2   5  10  202.68    8.40
   2   5 -10  198.28    9.30
   2   5 -10  214.08   10.60
   1  -5 -10  127.19    6.40
  -1  -5  10  115.19    5.60
  -1  -5  10  120.59    6.20
  -1  -5  10  114.39    4.90
   1  -5 -10  134.39    6.70
   1  -5 -10  117.59    6.50
  -1   5  10  121.39    5.40
  -1   5  10  125.09    5.40
   1   5 -10  119.19    6.10
  -1   5  10  113.19    5.10
   1   5 -10  119.19    6.50
  -1   5  10  116.59    5.30
   1   5 -10  129.79    7.80
   0  -5 -10   12.00    1.90
   0  -5  10   13.10    1.40
   0  -5 -10   18.80    2.30
   0  -5 -10   13.60    2.20
   0  -5  10   13.50    1.80
   0   5 -10   14.10    2.40
   0   5  10   14.80    1.20
   0   5 -10   11.80    1.40
   0   5  10   12.80    1.10
   0   5 -10   13.20    1.40
  -1  -5 -10   35.80    2.40
   1  -5  10   30.50    2.60
  -1  -5 -10   32.30    2.70
  -1   5 -10   39.10    3.40
   1   5  10   34.00    1.80
  -1   5 -10   30.20    2.30
  -2  -5 -10  173.18    7.70
  -2   5 -10  154.28    7.20
  -2   5 -10  128.79    6.10
  -4  -6  10    7.50    0.80
   4   6 -10    5.90    0.90
  -4   6  10    6.40    0.90
  -4   6  10    7.50    0.80
   4   6 -10    6.20    0.80
  -4   6  10    7.30    1.10
   3  -6 -10   97.39    4.70
   3  -6 -10   97.09    4.60
  -3  -6  10   87.79    4.30
  -3  -6  10   86.59    4.00
  -3  -6  10   99.89    4.80
  -3  -6  10   85.39    4.10
   3   6 -10   90.59    5.10
  -3   6  10   90.79    4.40
  -3   6  10   90.19    4.50
   3   6 -10  103.89    5.70
  -3   6  10   97.09    4.20
  -2  -6  10   45.00    2.40
  -2  -6  10   44.60    3.40
   2  -6 -10   52.89    3.40
  -2  -6  10   48.60    2.40
   2  -6 -10   48.70    3.30
   2   6 -10   46.40    3.90
  -2   6  10   42.80    2.50
  -2   6  10   49.10    2.60
  -2   6  10   49.80    2.90
  -2   6  10   46.20    2.60
  -1  -6  10   40.60    2.90
  -1  -6  10   35.00    2.40
   1  -6 -10   35.40    2.50
   1  -6 -10   43.90    3.10
   1  -6 -10   38.60    3.10
  -1  -6  10   34.10    1.80
  -1   6  10   39.90    2.20
  -1   6  10   37.70    2.10
   1   6 -10   40.00    3.60
   1   6 -10   40.00    2.80
  -1   6  10   32.40    2.10
   0  -6 -10   71.79    4.00
   0  -6 -10   72.69    4.10
   0  -6  10   65.09    3.50
   0  -6 -10   62.79    3.90
   0   6 -10   76.19    4.90
   0   6  10   64.29    3.00
   0   6 -10   62.89    3.40
   0   6  10   72.59    3.20
   0   6 -10   58.99    3.20
  -1  -6 -10    3.30    0.90
   1  -6  10    1.40    0.50
  -1   6 -10    1.20    0.90
   1   6  10    1.90    0.40
  -1   6 -10    1.50    0.50
  -4  -7  10   13.30    0.90
  -4  -7  10   12.30    0.90
  -4   7  10   12.90    0.90
   3  -7 -10   14.90    1.50
  -3  -7  10   13.70    1.00
   3   7 -10   17.80    1.80
  -3   7  10   14.70    1.10
  -3   7  10   15.00    1.40
   3   7 -10   12.60    1.30
  -2  -7  10  278.67   11.30
   2  -7 -10  326.87   12.20
   2  -7 -10  340.37   12.20
  -2  -7  10  298.67   11.20
  -2   7  10  290.57   12.00
   2   7 -10  319.67   12.30
  -2   7  10  314.97   11.70
   2   7 -10  357.06   13.40
  -2   7  10  336.97   11.60
  -1  -7  10    3.70    0.70
   1  -7 -10    5.40    1.10
   1  -7 -10    4.00    1.50
  -1  -7  10    4.20    0.50
  -1   7  10    3.60    0.90
   1   7 -10    4.30    1.50
  -1   7  10    4.70    0.60
   1   7 -10    4.40    0.80
  -1   7  10    4.40    0.80
   0  -7 -10    2.40    0.80
   0  -7  10    0.70    0.30
   0  -7  10    0.10    0.40
   0   7 -10    0.80    0.80
   0   7  10    0.10    0.30
  -2   8  10   31.80    1.60
   2   8 -10   38.00    2.40
   2   8 -10   32.20    2.30
   1  -8 -10   -0.80    0.60
   1   8 -10   -0.10    0.50
  -5   0  11  194.98    8.10
   5   0 -11  238.48    8.10
  -5   0  11  207.98    8.50
  -4   0  11    1.30    0.70
   4   0 -11    0.80    0.70
   4   0 -11    1.50    0.60
  -4   0  11    1.10    0.50
   4   0 -11    1.10    0.70
  -4   0  11    1.30    0.50
  -3   0  11   10.10    1.10
   3   0 -11   12.10    1.50
   3   0 -11    9.60    1.60
   3   0 -11    9.30    1.60
  -3   0  11    9.50    1.30
  -2   0  11    5.80    0.70
   2   0 -11    4.90    1.00
   2   0 -11    4.30    1.30
   2   0 -11    4.00    1.10
  -2   0  11    3.40    0.90
  -2   0  11    5.80    0.90
  -1   0  11    1.90    0.50
  -1   0  11    2.10    0.50
  -1   0  11    2.90    1.00
   1   0 -11    1.80    1.00
  -1   0  11    1.90    0.90
   1   0 -11    1.90    0.70
   0   0 -11    1.50    3.10
   0   0  11    1.70    0.50
   0   0 -11    4.80    1.20
   0   0  11    2.80    0.40
   1   0  11  161.48    6.00
  -1   0 -11  160.68    7.00
  -5  -1  11  112.69    5.20
   5  -1 -11  127.59    5.00
   5   1 -11  134.69    4.80
  -5   1  11  113.49    5.30
  -5   1  11  112.29    4.90
  -4  -1  11    9.20    1.20
   4  -1 -11   13.70    1.40
   4  -1 -11    9.90    1.30
  -4  -1  11    9.20    1.00
  -4  -1  11    9.10    1.00
   4  -1 -11   11.60    1.40
  -4   1  11    9.60    1.10
   4   1 -11    8.80    1.20
   4   1 -11   12.60    1.60
   4   1 -11    9.40    1.40
  -4   1  11   10.20    1.20
   3  -1 -11  157.48    6.70
   3  -1 -11  150.18    6.70
  -3  -1  11  151.78    6.70
  -3  -1  11  134.09    6.30
   3  -1 -11  149.88    7.30
  -3  -1  11  144.29    6.30
  -3   1  11  137.39    5.50
   3   1 -11  137.19    7.30
   3   1 -11  145.79    6.40
   3   1 -11  155.78    6.40
  -3   1  11  148.09    6.50
  -3   1  11  146.49    6.70
  -2  -1  11    4.50    0.90
   2  -1 -11    5.90    1.20
  -2  -1  11    3.50    1.10
  -2  -1  11    4.70    0.80
   2  -1 -11    6.60    1.40
   2  -1 -11    4.70    1.10
  -2   1  11    5.40    0.90
   2   1 -11    4.20    1.30
  -2   1  11    5.40    0.60
   2   1 -11    3.90    0.90
  -2   1  11    5.00    1.00
  -1  -1  11  102.59    4.90
  -1  -1  11  107.69    4.80
  -1  -1  11  108.89    5.60
  -1  -1  11   97.59    4.00
   1  -1 -11   98.39    5.80
   1  -1 -11  101.99    4.80
   1  -1 -11   97.19    5.00
  -1   1  11   98.29    4.70
  -1   1  11   93.29    4.20
   1   1 -11  110.39    6.30
   1   1 -11  101.89    7.00
   1   1 -11  100.29    5.90
  -1   1  11   88.69    4.50
  -1   1  11   98.89    5.10
   0  -1  11  260.37    9.60
   0  -1  11  254.97   10.10
   0  -1  11  260.77   10.60
   0  -1 -11  260.97   11.20
   0  -1  11  233.58    9.00
   0   1  11  233.28    9.40
   0   1  11  258.47    9.30
   0   1  11  270.27   10.40
   0   1 -11  243.98   10.80
   0   1 -11  256.97   11.70
   1  -1  11   19.90    1.80
   1  -1  11   17.60    1.10
  -1  -1 -11   16.70    1.70
   1  -1  11   16.80    1.00
  -1   1 -11   15.10    1.50
   1   1  11   18.80    1.10
   1   1  11   18.50    1.70
  -1   1 -11   19.90    4.00
   5  -2 -11  107.39    4.20
  -5   2  11   93.19    4.20
  -5   2  11   87.39    4.50
  -4  -2  11   10.00    0.90
   4  -2 -11   11.10    2.00
  -4  -2  11   10.20    1.20
   4  -2 -11   12.20    1.30
  -4  -2  11   10.90    1.00
  -4   2  11   10.90    1.20
  -4   2  11   10.60    1.70
   4   2 -11    9.90    1.10
   4   2 -11    8.80    1.40
   3  -2 -11   74.89    4.00
  -3  -2  11   77.39    4.00
   3  -2 -11   68.69    4.20
  -3  -2  11   61.99    3.20
   3  -2 -11   71.99    4.10
  -3  -2  11   71.69    3.70
   3   2 -11   74.09    4.60
  -3   2  11   76.19    3.20
  -3   2  11   77.29    3.90
  -3   2  11   68.69    3.80
   3   2 -11   78.09    3.70
   2  -2 -11   53.99    3.40
  -2  -2  11   51.19    2.90
   2  -2 -11   52.39    3.30
   2  -2 -11   48.00    3.60
  -2  -2  11   55.39    3.90
  -2   2  11   48.20    2.50
  -2   2  11   42.60    2.80
  -2   2  11   47.60    2.90
   2   2 -11   51.69    3.80
  -1  -2  11   48.40    2.80
   1  -2 -11   49.80    3.60
   1  -2 -11   52.29    3.10
   1  -2 -11   49.90    3.20
  -1  -2  11   46.60    3.00
  -1   2  11   50.69    2.50
   1   2 -11   48.70    3.70
  -1   2  11   51.09    2.90
  -1   2  11   47.50    2.70
  -1   2  11   39.00    2.50
   1   2 -11   46.70    4.20
   0  -2  11  216.08    9.20
   0  -2  11  212.98    8.70
   0  -2 -11  208.08    9.50
   0  -2  11  214.68    8.10
   0   2  11  207.08    7.90
   0   2  11  215.58    8.60
   0   2 -11  200.98    9.00
   0   2 -11  208.38   10.10
   1  -2  11   27.10    2.00
   1  -2  11   21.00    1.40
  -1  -2 -11   21.80    1.90
  -1   2 -11   23.00    2.30
   1   2  11   22.60    1.30
   1   2  11   24.00    1.70
   5   3 -11  160.18    6.90
  -5   3  11  132.49    6.10
   4  -3 -11   22.00    1.60
   4  -3 -11   19.90    1.60
  -4  -3  11   17.80    1.30
  -4  -3  11   19.20    1.50
  -4  -3  11   18.30    1.40
  -4   3  11   16.60    1.40
  -4   3  11   21.30    2.10
   3  -3 -11  184.08    8.30
  -3  -3  11  214.18    8.00
  -3  -3  11  182.28    7.40
   3  -3 -11  213.58    8.40
  -3  -3  11  201.68    8.30
   3  -3 -11  216.68    8.40
  -3   3  11  200.28    7.60
  -3   3  11  213.78    8.20
   3   3 -11  202.68    9.00
  -3   3  11  182.38    7.90
  -2  -3  11   31.00    2.10
   2  -3 -11   27.70    2.50
   2  -3 -11   31.50    2.50
  -2  -3  11   34.20    2.40
   2  -3 -11   31.40    2.60
   2   3 -11   31.30    2.70
  -2   3  11   30.70    1.80
  -2   3  11   30.30    2.10
   2   3 -11   35.60    3.40
   1  -3 -11   55.39    3.90
   1  -3 -11   60.19    3.50
  -1  -3  11   62.79    3.10
  -1  -3  11   61.09    3.40
   1  -3 -11   61.09    3.40
   1   3 -11   55.29    3.70
  -1   3  11   53.69    2.90
  -1   3  11   59.59    2.90
   1   3 -11   61.99    4.30
   0  -3 -11   39.70    3.00
   0  -3  11   37.70    2.10
   0  -3 -11   38.10    2.10
   0   3  11   36.00    2.00
   0   3  11   37.70    2.00
   0   3 -11   31.00    2.30
   0   3 -11   35.50    3.20
  -1  -3 -11   82.99    4.10
   1  -3  11   75.09    3.20
   1   3  11   82.99    3.20
  -1   3 -11   71.89    3.60
  -4  -4  11   63.69    3.40
   4  -4 -11   76.09    3.30
  -4  -4  11   63.29    2.90
   4   4 -11   71.59    3.60
  -4   4  11   72.69    3.40
  -3  -4  11   49.30    2.60
   3  -4 -11   63.39    3.20
  -3  -4  11   55.59    2.70
   3  -4 -11   62.09    3.80
  -3  -4  11   59.79    3.60
  -3   4  11   56.49    2.60
  -3   4  11   55.99    3.00
   3   4 -11   54.49    3.50
   2  -4 -11  165.88    6.80
  -2  -4  11  144.09    6.10
   2  -4 -11  146.99    6.70
   2  -4 -11  161.48    6.70
  -2   4  11  154.18    6.00
   2   4 -11  161.48    7.60
   2   4 -11  137.39    6.80
  -2   4  11  149.09    6.20
   1  -4 -11  123.09    5.40
  -1  -4  11  118.59    4.90
   1  -4 -11  111.59    5.60
   1  -4 -11  112.59    6.70
   1   4 -11   97.29    5.10
  -1   4  11  120.09    4.80
   1   4 -11  119.99    6.40
   0  -4  11  149.69    6.10
   0  -4 -11  156.08    7.10
   0   4  11  164.68    6.10
   0   4 -11  170.48    7.70
  -1  -4 -11  132.99    6.30
   1   4  11  157.18    5.60
   3  -5 -11    3.00    0.70
  -3  -5  11    3.40    0.60
  -3   5  11    3.20    0.90
   3   5 -11    3.60    0.80
  -3   5  11    4.00    0.60
  -2  -5  11   53.29    2.60
   2  -5 -11   60.39    3.10
  -2  -5  11   50.89    2.80
   2  -5 -11   61.99    3.20
  -2   5  11   57.49    2.70
   2   5 -11   64.89    4.60
  -1  -5  11   31.70    1.70
   1  -5 -11   34.40    2.10
   1  -5 -11   28.10    2.10
   1   5 -11   34.80    2.70
  -1   5  11   32.20    1.70
   1   5 -11   25.80    1.90
   0  -5  11   22.10    1.30
   0   5  11   26.20    1.30
   0   5 -11   22.00    3.00
   2  -6 -11  102.59    4.70
   2   6 -11   97.99    4.40
  -2   6  11  117.89    4.40
   1  -6 -11  130.79    4.90
  -1   6  11  119.69    4.70
   3   0 -12    0.70    0.50
  -3   0  12    0.60    0.30
  -3   0  12    0.30    0.40
  -2   0  12   43.60    2.20
  -2   0  12   47.30    2.30
   2   0 -12   45.20    2.80
   1   0 -12   32.10    2.10
  -1   0  12   30.00    1.60
  -3  -1  12    0.20    0.30
  -3  -1  12    0.30    0.30
  -3   1  12   -0.20    0.30
   3   1 -12   -0.20    0.40
  -2  -1  12   49.10    2.50
  -2  -1  12   51.79    2.50
   2  -1 -12   50.39    2.90
   2   1 -12   53.79    3.00
  -2   1  12   48.90    2.40
  -1  -1  12   11.20    1.00
   1  -1 -12   12.80    1.20
   1   1 -12   12.90    1.30
  -3  -2  12   38.40    2.10
  -3  -2  12   46.50    2.70
   3   2 -12   42.70    2.40
  -3   2  12   43.70    2.50
   2  -2 -12   61.09    3.30
  -2  -2  12   71.09    3.00
  -2  -2  12   67.59    3.10
   2   2 -12   69.19    3.40
   1  -2 -12  105.59    4.70
  -1  -2  12  110.39    4.20
  -2  -3  12   35.70    2.20
   0   0   0    0.00    0.00


_computing_structure_solution     'SHELXT 2014/5 (Sheldrick, 2014)'
_computing_structure_solution     'SHELXT 2014/5 (Sheldrick, 2014)'
;
_shelx_hkl_checksum              29357
loop_
_space_group_symop_operation_xyz
'x, y, z'
'-x, y+1/2, -z'
loop_
_atom_site_type_symbol
_atom_site_label
_atom_site_fract_x
_atom_site_fract_y
_atom_site_fract_z
_atom_site_U_iso_or_equiv
_atom_site_adp_type
_atom_site_calc_flag
_atom_site_refinement_flags_adp
_atom_site_refinement_flags_occupancy
_atom_site_refinement_flags_posn
_atom_site_occupancy
_atom_site_disorder_assembly
_atom_site_disorder_group
O O1 -0.08388(19) 0.53693(11) 0.29866(12) 0.0267(3) Uani d . . . 1 . .
C C1 0.2433(3) 0.34281(16) 0.84753(18) 0.0266(4) Uani d . . . 1 . .
H H1A 0.092268 0.328755 0.818748 0.032 Uiso calc U . R 1 . .
H H1B 0.310072 0.271452 0.901234 0.032 Uiso calc U . R 1 . .
C C11 0.6187(3) 0.5148(2) 0.5640(2) 0.0340(4) Uani d . . . 1 . .
H H11A 0.745649 0.552674 0.547563 0.041 Uiso calc U . R 1 . .
H H11B 0.620536 0.427431 0.54225 0.041 Uiso calc U . R 1 . .
C C15 0.5079(2) 0.45213(17) 1.03671(16) 0.0229(3) Uani d . . . 1 . .
C C14 0.1425(3) 0.4767(2) 1.03697(19) 0.0329(4) Uani d . . . 1 . .
H H14A -0.000237 0.475886 0.97946 0.049 Uiso calc U . R 1 . .
H H14B 0.17165 0.554676 1.085681 0.049 Uiso calc U . R 1 . .
H H14C 0.161134 0.411777 1.108124 0.049 Uiso calc U . R 1 . .
C C2 0.2917(2) 0.45721(16) 0.93896(16) 0.0230(3) Uani d . . . 1 . .
O O2 -0.1037(2) 0.33524(12) 0.30698(13) 0.0304(3) Uani d . . . 1 . .
H H2 -0.205(4) 0.3472(4) 0.221(3) 0.046 Uiso calc U . R 1 . .
O O3 0.6119(2) 0.36053(12) 1.06135(14) 0.0313(3) Uani d . . . 1 . .
C C3 0.2737(2) 0.55696(15) 0.82551(16) 0.0221(3) Uani d . . . 1 . .
H H3A 0.126956 0.578449 0.785932 0.026 Uiso calc U . R 1 . .
H H3B 0.349125 0.630269 0.867902 0.026 Uiso calc U . R 1 . .
C C13 -0.0272(2) 0.44048(17) 0.35764(16) 0.0225(3) Uani d . . . 1 . .
C C12 0.4248(3) 0.5755(2) 0.47323(19) 0.0349(4) Uani d . . . 1 . .
H H12A 0.389564 0.542138 0.375043 0.042 Uiso calc U . R 1 . .
H H12B 0.444633 0.663873 0.468107 0.042 Uiso calc U . R 1 . .
C C4 0.3693(2) 0.50556(15) 0.70764(17) 0.0212(3) Uani d . . . 1 . .
O O4 0.5695(2) 0.55606(12) 1.09817(15) 0.0369(3) Uani d . . . 1 . .
H H4 0.699(5) 0.5467(8) 1.160(4) 0.055 Uiso calc U . R 1 . .
C C7 0.1791(3) 0.33809(16) 0.57658(17) 0.0251(3) Uani d . . . 1 . .
H H7 0.122887 0.260069 0.551135 0.03 Uiso calc U . R 1 . .
C C6 0.1318(2) 0.43543(16) 0.49345(16) 0.0231(3) Uani d . . . 1 . .
C C5 0.2545(2) 0.54559(15) 0.55283(17) 0.0231(3) Uani d . . . 1 . .
H H5 0.162597 0.616668 0.554894 0.028 Uiso calc U . R 1 . .
C C8 0.3309(3) 0.36584(15) 0.71461(17) 0.0230(3) Uani d . . . 1 . .
H H8 0.462417 0.319997 0.721963 0.028 Uiso calc U . R 1 . .
C C10 0.6607(3) 0.66508(18) 0.7659(2) 0.0313(4) Uani d . . . 1 . .
H H10A 0.799843 0.682125 0.753755 0.047 Uiso calc U . R 1 . .
H H10B 0.658862 0.674481 0.866806 0.047 Uiso calc U . R 1 . .
H H10C 0.562094 0.721566 0.707869 0.047 Uiso calc U . R 1 . .
C C9 0.6002(2) 0.53559(17) 0.71814(18) 0.0259(3) Uani d . . . 1 . .
H H9 0.69051 0.477135 0.783847 0.031 Uiso calc U . R 1 . .
loop_
_atom_site_aniso_label
_atom_site_aniso_U_11
_atom_site_aniso_U_22
_atom_site_aniso_U_33
_atom_site_aniso_U_12
_atom_site_aniso_U_13
_atom_site_aniso_U_23
O1 0.0275(6) 0.0283(6) 0.0200(5) -0.0009(5) -0.0031(4) 0.0010(5)
C1 0.0291(8) 0.0272(9) 0.0198(7) -0.0057(7) -0.0015(6) 0.0020(7)
C11 0.0281(8) 0.0466(11) 0.0288(9) -0.0069(8) 0.0097(7) -0.0083(8)
C15 0.0249(7) 0.0253(8) 0.0163(7) -0.0013(6) 0.0008(5) 0.0017(6)
C14 0.0280(8) 0.0489(12) 0.0213(8) -0.0012(8) 0.0050(6) 0.0034(7)
C2 0.0225(7) 0.0275(9) 0.0164(7) -0.0009(7) -0.0004(6) 0.0011(6)
O2 0.0324(6) 0.0274(7) 0.0241(6) -0.0005(5) -0.0079(5) -0.0022(5)
O3 0.0310(6) 0.0285(7) 0.0276(6) 0.0029(5) -0.0064(5) -0.0025(5)
C3 0.0213(7) 0.0253(8) 0.0173(7) 0.0028(6) 0.0001(5) 0.0003(6)
C13 0.0214(7) 0.0276(8) 0.0177(7) -0.0003(6) 0.0032(6) -0.0026(6)
C12 0.0355(9) 0.0483(11) 0.0196(8) -0.0112(9) 0.0035(7) 0.0003(7)
C4 0.0197(7) 0.0240(8) 0.0171(7) 0.0014(6) -0.0011(5) -0.0004(6)
O4 0.0379(7) 0.0261(7) 0.0341(7) 0.0008(6) -0.0163(6) -0.0028(5)
C7 0.0271(8) 0.0254(8) 0.0199(7) 0.0006(7) -0.0006(6) -0.0028(7)
C6 0.0222(7) 0.0276(8) 0.0180(7) 0.0013(7) 0.0017(6) -0.0027(6)
C5 0.0233(7) 0.0264(9) 0.0165(7) -0.0001(6) -0.0011(6) -0.0001(6)
C8 0.0240(7) 0.0217(8) 0.0197(8) 0.0014(6) -0.0022(6) -0.0005(6)
C10 0.0259(8) 0.0355(10) 0.0310(9) -0.0067(7) 0.0039(7) -0.0039(8)
C9 0.0206(7) 0.0314(9) 0.0237(7) -0.0004(6) 0.0015(6) -0.0031(7)
loop_
_atom_type_symbol
_atom_type_description
_atom_type_scat_dispersion_real
_atom_type_scat_dispersion_imag
_atom_type_scat_source
C C 0.0181 0.0091 'International Tables Vol C Tables 4.2.6.8 and 6.1.1.4'
H H 0.0000 0.0000 'International Tables Vol C Tables 4.2.6.8 and 6.1.1.4'
O O 0.0492 0.0322 'International Tables Vol C Tables 4.2.6.8 and 6.1.1.4'
loop_
_geom_angle_atom_site_label_1
_geom_angle_atom_site_label_2
_geom_angle_atom_site_label_3
_geom_angle_site_symmetry_1
_geom_angle_site_symmetry_3
_geom_angle
_geom_angle_publ_flag
C2 C1 C8 . . 105.64(13) ?
C2 C1 H1A . . 110.6 ?
C8 C1 H1A . . 110.6 ?
C2 C1 H1B . . 110.6 ?
C8 C1 H1B . . 110.6 ?
H1A C1 H1B . . 108.7 ?
C12 C11 C9 . . 103.61(15) ?
C12 C11 H11A . . 111.0 ?
C9 C11 H11A . . 111.0 ?
C12 C11 H11B . . 111.0 ?
C9 C11 H11B . . 111.0 ?
H11A C11 H11B . . 109.0 ?
O3 C15 O4 . . 122.59(14) ?
O3 C15 C2 . . 124.13(15) ?
O4 C15 C2 . . 113.21(14) ?
C2 C14 H14A . . 109.5 ?
C2 C14 H14B . . 109.5 ?
H14A C14 H14B . . 109.5 ?
C2 C14 H14C . . 109.5 ?
H14A C14 H14C . . 109.5 ?
H14B C14 H14C . . 109.5 ?
C15 C2 C1 . . 111.34(14) ?
C15 C2 C3 . . 111.62(13) ?
C1 C2 C3 . . 102.41(12) ?
C15 C2 C14 . . 106.24(12) ?
C1 C2 C14 . . 112.90(14) ?
C3 C2 C14 . . 112.48(14) ?
C13 O2 H2 . . 109.5 ?
C4 C3 C2 . . 106.43(13) ?
C4 C3 H3A . . 110.4 ?
C2 C3 H3A . . 110.4 ?
C4 C3 H3B . . 110.4 ?
C2 C3 H3B . . 110.4 ?
H3A C3 H3B . . 108.6 ?
O1 C13 O2 . . 123.29(14) ?
O1 C13 C6 . . 121.38(16) ?
O2 C13 C6 . . 115.32(15) ?
C11 C12 C5 . . 103.95(15) ?
C11 C12 H12A . . 111.0 ?
C5 C12 H12A . . 111.0 ?
C11 C12 H12B . . 111.0 ?
C5 C12 H12B . . 111.0 ?
H12A C12 H12B . . 109.0 ?
C3 C4 C9 . . 116.78(13) ?
C3 C4 C5 . . 113.79(13) ?
C9 C4 C5 . . 104.64(13) ?
C3 C4 C8 . . 103.45(13) ?
C9 C4 C8 . . 112.12(13) ?
C5 C4 C8 . . 105.72(13) ?
C15 O4 H4 . . 109.5 ?
C6 C7 C8 . . 112.33(15) ?
C6 C7 H7 . . 123.8 ?
C8 C7 H7 . . 123.8 ?
C7 C6 C13 . . 125.43(16) ?
C7 C6 C5 . . 113.40(14) ?
C13 C6 C5 . . 121.15(15) ?
C6 C5 C12 . . 112.40(14) ?
C6 C5 C4 . . 103.32(14) ?
C12 C5 C4 . . 106.37(13) ?
C6 C5 H5 . . 111.5 ?
C12 C5 H5 . . 111.5 ?
C4 C5 H5 . . 111.5 ?
C7 C8 C1 . . 113.06(14) ?
C7 C8 C4 . . 104.26(13) ?
C1 C8 C4 . . 107.11(13) ?
C7 C8 H8 . . 110.7 ?
C1 C8 H8 . . 110.7 ?
C4 C8 H8 . . 110.7 ?
C9 C10 H10A . . 109.5 ?
C9 C10 H10B . . 109.5 ?
H10A C10 H10B . . 109.5 ?
C9 C10 H10C . . 109.5 ?
H10A C10 H10C . . 109.5 ?
H10B C10 H10C . . 109.5 ?
C10 C9 C11 . . 110.82(16) ?
C10 C9 C4 . . 113.95(14) ?
C11 C9 C4 . . 102.17(13) ?
C10 C9 H9 . . 109.9 ?
C11 C9 H9 . . 109.9 ?
C4 C9 H9 . . 109.9 ?
loop_
_geom_bond_atom_site_label_1
_geom_bond_atom_site_label_2
_geom_bond_site_symmetry_2
_geom_bond_distance
_geom_bond_publ_flag
O1 C13 . 1.226(2) ?
C1 C2 . 1.532(2) ?
C1 C8 . 1.549(2) ?
C1 H1A . 0.99 ?
C1 H1B . 0.99 ?
C11 C12 . 1.532(3) ?
C11 C9 . 1.536(2) ?
C11 H11A . 0.99 ?
C11 H11B . 0.99 ?
C15 O3 . 1.219(2) ?
C15 O4 . 1.314(2) ?
C15 C2 . 1.522(2) ?
C14 C2 . 1.540(2) ?
C14 H14A . 0.98 ?
C14 H14B . 0.98 ?
C14 H14C . 0.98 ?
C2 C3 . 1.538(2) ?
O2 C13 . 1.318(2) ?
O2 H2 . 0.95(3) ?
C3 C4 . 1.537(2) ?
C3 H3A . 0.99 ?
C3 H3B . 0.99 ?
C13 C6 . 1.475(2) ?
C12 C5 . 1.549(2) ?
C12 H12A . 0.99 ?
C12 H12B . 0.99 ?
C4 C9 . 1.553(2) ?
C4 C5 . 1.569(2) ?
C4 C8 . 1.572(2) ?
O4 H4 . 0.93(4) ?
C7 C6 . 1.335(3) ?
C7 C8 . 1.498(2) ?
C7 H7 . 0.95 ?
C6 C5 . 1.503(2) ?
C5 H5 . 1.0 ?
C8 H8 . 1.0 ?
C10 C9 . 1.530(3) ?
C10 H10A . 0.98 ?
C10 H10B . 0.98 ?
C10 H10C . 0.98 ?
C9 H9 . 1.0 ?
loop_
_geom_torsion_atom_site_label_1
_geom_torsion_atom_site_label_2
_geom_torsion_atom_site_label_3
_geom_torsion_atom_site_label_4
_geom_torsion_site_symmetry_1
_geom_torsion_site_symmetry_2
_geom_torsion_site_symmetry_3
_geom_torsion_site_symmetry_4
_geom_torsion
_geom_torsion_publ_flag
O3 C15 C2 C1 . . . . -14.2(2) ?
O4 C15 C2 C1 . . . . 168.73(14) ?
O3 C15 C2 C3 . . . . -127.99(17) ?
O4 C15 C2 C3 . . . . 54.96(18) ?
O3 C15 C2 C14 . . . . 109.07(19) ?
O4 C15 C2 C14 . . . . -67.98(19) ?
C8 C1 C2 C15 . . . . -85.65(16) ?
C8 C1 C2 C3 . . . . 33.76(16) ?
C8 C1 C2 C14 . . . . 154.95(14) ?
C15 C2 C3 C4 . . . . 79.77(16) ?
C1 C2 C3 C4 . . . . -39.44(15) ?
C14 C2 C3 C4 . . . . -160.92(13) ?
C9 C11 C12 C5 . . . . -38.3(2) ?
C2 C3 C4 C9 . . . . -94.76(17) ?
C2 C3 C4 C5 . . . . 143.10(14) ?
C2 C3 C4 C8 . . . . 28.90(16) ?
C8 C7 C6 C13 . . . . -173.81(15) ?
C8 C7 C6 C5 . . . . 4.7(2) ?
O1 C13 C6 C7 . . . . 168.59(17) ?
O2 C13 C6 C7 . . . . -10.5(2) ?
O1 C13 C6 C5 . . . . -9.8(2) ?
O2 C13 C6 C5 . . . . 171.03(14) ?
C7 C6 C5 C12 . . . . 105.16(18) ?
C13 C6 C5 C12 . . . . -76.24(19) ?
C7 C6 C5 C4 . . . . -9.11(19) ?
C13 C6 C5 C4 . . . . 169.50(14) ?
C11 C12 C5 C6 . . . . -94.96(17) ?
C11 C12 C5 C4 . . . . 17.4(2) ?
C3 C4 C5 C6 . . . . -103.31(15) ?
C9 C4 C5 C6 . . . . 128.08(14) ?
C8 C4 C5 C6 . . . . 9.54(16) ?
C3 C4 C5 C12 . . . . 138.15(15) ?
C9 C4 C5 C12 . . . . 9.53(18) ?
C8 C4 C5 C12 . . . . -109.01(16) ?
C6 C7 C8 C1 . . . . 117.88(17) ?
C6 C7 C8 C4 . . . . 1.89(19) ?
C2 C1 C8 C7 . . . . -130.83(15) ?
C2 C1 C8 C4 . . . . -16.55(18) ?
C3 C4 C8 C7 . . . . 112.65(14) ?
C9 C4 C8 C7 . . . . -120.67(14) ?
C5 C4 C8 C7 . . . . -7.23(17) ?
C3 C4 C8 C1 . . . . -7.42(17) ?
C9 C4 C8 C1 . . . . 119.25(14) ?
C5 C4 C8 C1 . . . . -127.30(14) ?
C12 C11 C9 C10 . . . . -77.47(18) ?
C12 C11 C9 C4 . . . . 44.29(19) ?
C3 C4 C9 C10 . . . . -39.9(2) ?
C5 C4 C9 C10 . . . . 86.93(16) ?
C8 C4 C9 C10 . . . . -158.96(15) ?
C3 C4 C9 C11 . . . . -159.44(16) ?
C5 C4 C9 C11 . . . . -32.65(18) ?
C8 C4 C9 C11 . . . . 81.46(18) ?
