#------------------------------------------------------------------------------
#$Date: 2020-04-22 23:50:41 +0300 (Wed, 22 Apr 2020) $
#$Revision: 251056 $
#$URL: file:///home/coder/svn-repositories/cod/cif/1/55/78/1557861.cif $
#------------------------------------------------------------------------------
#
# This file is available in the Crystallography Open Database (COD),
# http://www.crystallography.net/
#
# All data on this site have been placed in the public domain by the
# contributors.
#
data_1557861
loop_
_publ_author_name
'Yuan, Jie'
'Wang, Yongrong'
'Li, Ling'
'Wang, Shuang'
'Tang, Xingxing'
'Wang, Honglei'
'Li, Mingguang'
'Zheng, Chao'
'Chen, Runfeng'
_publ_section_title
;
 Activating Intersystem Crossing and Aggregation Coupling by
 CN-Substitution for Efficient Organic Ultralong Room Temperature
 Phosphorescence
;
_journal_name_full               'The Journal of Physical Chemistry C'
_journal_paper_doi               10.1021/acs.jpcc.0c01762
_journal_year                    2020
_chemical_formula_moiety         'C8 H4 N2'
_chemical_formula_sum            'C8 H4 N2'
_chemical_formula_weight         128.13
_space_group_crystal_system      monoclinic
_space_group_IT_number           7
_space_group_name_Hall           'P -2yac'
_space_group_name_H-M_alt        'P 1 n 1'
_atom_sites_solution_hydrogens   geom
_atom_sites_solution_primary     dual
_audit_creation_date             2018-03-22
_audit_creation_method
;
Olex2 1.2
(compiled 2017.03.02 svn.r3394 for OlexSys, GUI svn.r5324)
;
_cell_angle_alpha                90
_cell_angle_beta                 119.046(17)
_cell_angle_gamma                90
_cell_formula_units_Z            4
_cell_length_a                   14.125(14)
_cell_length_b                   3.844(4)
_cell_length_c                   14.305(15)
_cell_measurement_reflns_used    150
_cell_measurement_temperature    101(2)
_cell_measurement_theta_max      0.992
_cell_measurement_theta_min      0.991
_cell_volume                     679.0(12)
_computing_molecular_graphics    'Olex2 (Dolomanov et al., 2009)'
_computing_publication_material  'Olex2 (Dolomanov et al., 2009)'
_computing_structure_refinement  'ShelXL (Sheldrick, 2015)'
_computing_structure_solution    'ShelXT (Sheldrick, 2015)'
_diffrn_ambient_temperature      100.99
_diffrn_detector                 'Bruker APEX2 area detector'
_diffrn_detector_area_resol_mean 7.9
_diffrn_detector_type            'CCD area detector'
_diffrn_measured_fraction_theta_full 0.993
_diffrn_measured_fraction_theta_max 0.971
_diffrn_measurement_device       'three-circle diffractometer'
_diffrn_measurement_device_type  'Bruker SMART APEX-II CCD'
_diffrn_measurement_method       '\w and \f scans'
_diffrn_radiation_monochromator  'mirror optics'
_diffrn_radiation_probe          x-ray
_diffrn_radiation_type           MoK\a
_diffrn_radiation_wavelength     0.71073
_diffrn_reflns_av_R_equivalents  0.0459
_diffrn_reflns_av_unetI/netI     0.0814
_diffrn_reflns_Laue_measured_fraction_full 0.993
_diffrn_reflns_Laue_measured_fraction_max 0.971
_diffrn_reflns_limit_h_max       16
_diffrn_reflns_limit_h_min       -13
_diffrn_reflns_limit_k_max       4
_diffrn_reflns_limit_k_min       -4
_diffrn_reflns_limit_l_max       16
_diffrn_reflns_limit_l_min       -17
_diffrn_reflns_number            2735
_diffrn_reflns_point_group_measured_fraction_full 0.799
_diffrn_reflns_point_group_measured_fraction_max 0.782
_diffrn_reflns_theta_full        24.992
_diffrn_reflns_theta_max         24.992
_diffrn_reflns_theta_min         1.662
_diffrn_source                   'microfocus sealed X-ray tube'
_diffrn_source_type              'Incoatec I\ms'
_exptl_absorpt_coefficient_mu    0.079
_exptl_crystal_density_diffrn    1.253
_exptl_crystal_description       needle
_exptl_crystal_F_000             264
_exptl_crystal_size_max          1
_exptl_crystal_size_mid          0.1
_exptl_crystal_size_min          0.1
_refine_diff_density_max         0.559
_refine_diff_density_min         -0.536
_refine_diff_density_rms         0.105
_refine_ls_abs_structure_details
;
 Flack x determined using 215 quotients [(I+)-(I-)]/[(I+)+(I-)]
 (Parsons, Flack and Wagner, Acta Cryst. B69 (2013) 249-259).
;
_refine_ls_abs_structure_Flack   -3.0(10)
_refine_ls_extinction_coef       0.26(7)
_refine_ls_extinction_expression Fc^*^=kFc[1+0.001xFc^2^\l^3^/sin(2\q)]^-1/4^
_refine_ls_extinction_method     'SHELXL-2014/7 (Sheldrick 2014'
_refine_ls_goodness_of_fit_ref   1.152
_refine_ls_hydrogen_treatment    constr
_refine_ls_matrix_type           full
_refine_ls_number_parameters     183
_refine_ls_number_reflns         1547
_refine_ls_number_restraints     122
_refine_ls_restrained_S_all      1.161
_refine_ls_R_factor_all          0.1345
_refine_ls_R_factor_gt           0.1100
_refine_ls_shift/su_max          0.003
_refine_ls_shift/su_mean         0.001
_refine_ls_structure_factor_coef Fsqd
_refine_ls_weighting_details
'w=1/[\s^2^(Fo^2^)+(0.1573P)^2^+1.9785P] where P=(Fo^2^+2Fc^2^)/3'
_refine_ls_weighting_scheme      calc
_refine_ls_wR_factor_gt          0.3139
_refine_ls_wR_factor_ref         0.3359
_reflns_Friedel_coverage         0.607
_reflns_Friedel_fraction_full    0.604
_reflns_Friedel_fraction_max     0.592
_reflns_number_gt                1211
_reflns_number_total             1547
_reflns_threshold_expression     'I > 2\s(I)'
_cod_data_source_file            jp0c01762_si_003.cif
_cod_data_source_block           1
_cod_database_code               1557861
_shelx_shelxl_version_number     2014/7
_shelx_space_group_comment
;
The symmetry employed for this shelxl refinement is uniquely defined
by the following loop, which should always be used as a source of
symmetry information in preference to the above space-group names.
They are only intended as comments.
;
_shelx_estimated_absorpt_t_max   0.992
_shelx_estimated_absorpt_t_min   0.925
_olex2_refinement_description
;
1. Twinned data refinement
 Scales: 0.670(7)
 0.330(7)
2. Fixed Uiso
 At 1.2 times of:
  All C(H) groups
3. Uiso/Uaniso restraints and constraints
All non-hydrogen atoms restrained to be isotropic: with sigma of 0.003 and
sigma for terminal atoms of 0.006
4.a Aromatic/amide H refined with riding coordinates:
 C00A(H00A), C00E(H00E), C00F(H00F), C008(H008), C00B(H00B), C00I(H00I),
 C00J(H00J), C009(H009)
;
_shelx_res_file
;
    1.res created by SHELXL-2014/7

TITL 1_a.res in Pn
REM Old TITL 1_a.res in Pn
REM SHELXT solution in Pn
REM R1 0.297, Rweak 0.045, Alpha 0.070, Orientation as input
REM Flack x = -0.367 ( 2.319 ) from Parsons' quotients
REM Formula found by SHELXT: C16 N6
CELL 0.71073 14.1254 3.8437 14.3046 90 119.046 90
ZERR 4 0.0143 0.004 0.0151 0 0.017 0
LATT -1
SYMM 0.5+X,-Y,0.5+Z
SFAC C H N
UNIT 32 16 8
ISOR 0.003 0.006

L.S. 4
PLAN  20
SIZE 0.1 0.1 1
TEMP -172.16
BOND $H
list 4
fmap 2
acta
TWIN -0.025 0 0.975 0 -1 0 1.025 0 0.025 2
OMIT 0 50
REM <olex2.extras>
REM <HklSrc "%.\\1.hkl">
REM </olex2.extras>

WGHT    0.157300    1.978500
EXTI    0.255374
BASF   0.32982
FVAR       2.06005
C00A  1   -0.684010   -0.070540   -0.891653    11.00000    0.05064    0.04673 =
         0.04937   -0.00027    0.02663    0.00328
AFIX  43
H00A  2   -0.723259   -0.088132   -0.967393    11.00000   -1.20000
AFIX   0
C00E  1   -0.736051    0.083682   -0.838706    11.00000    0.05801    0.05859 =
         0.06018    0.00087    0.03241   -0.00041
AFIX  43
H00E  2   -0.804417    0.195591   -0.876289    11.00000   -1.20000
AFIX   0
C00F  1   -0.575953   -0.059877   -0.674019    11.00000    0.04022    0.02998 =
         0.03485    0.00241    0.02067   -0.00051
AFIX  43
H00F  2   -0.539385   -0.058051   -0.598060    11.00000   -1.20000
AFIX   0
C00G  1   -0.414735   -0.305807   -0.670807    11.00000    0.04754    0.04144 =
         0.04325   -0.00374    0.02529    0.00202
C001  1   -0.580110   -0.195807   -0.839593    11.00000    0.04419    0.04087 =
         0.04322    0.00070    0.02637    0.00002
C002  1   -0.526916   -0.341005   -0.896342    11.00000    0.04537    0.03434 =
         0.03793    0.00101    0.02213   -0.00141
C005  1   -0.521734   -0.183482   -0.725797    11.00000    0.03453    0.01966 =
         0.03000    0.00148    0.01814    0.00120
C008  1   -0.679871    0.059546   -0.727691    11.00000    0.03857    0.02890 =
         0.03583   -0.00233    0.02079    0.00328
AFIX  43
H008  2   -0.714828    0.128077   -0.688230    11.00000   -1.20000
AFIX   0
N003  3   -0.486541   -0.461961   -0.943060    11.00000    0.05691    0.04261 =
         0.05485    0.00352    0.03492    0.00330
N007  3   -0.325381   -0.453567   -0.623721    11.00000    0.06587    0.06238 =
         0.06671   -0.00716    0.04051    0.00162

C00B  1   -0.734077   -1.062563   -0.338010    11.00000    0.03614    0.02948 =
         0.04044    0.00083    0.01652    0.00180
AFIX  43
H00B  2   -0.808411   -1.125863   -0.375491    11.00000   -1.20000
AFIX   0
C00C  1   -0.523660   -0.794193   -0.227683    11.00000    0.03581    0.02825 =
         0.03693   -0.00140    0.02061    0.00325
C00D  1   -0.414443   -0.632043   -0.171000    11.00000    0.03467    0.02800 =
         0.02866   -0.00148    0.01857    0.00003
C00H  1   -0.527543   -0.656405   -0.396962    11.00000    0.03962    0.03172 =
         0.03355   -0.00302    0.01894    0.00144
C00I  1   -0.685942   -0.951168   -0.393109    11.00000    0.03488    0.02340 =
         0.03455   -0.00335    0.01338   -0.00135
AFIX  43
H00I  2   -0.722955   -0.972246   -0.468798    11.00000   -1.20000
AFIX   0
C00J  1   -0.679787   -1.087052   -0.230908    11.00000    0.05231    0.05331 =
         0.05608   -0.00146    0.03256    0.00110
AFIX  43
H00J  2   -0.711407   -1.201594   -0.193932    11.00000   -1.20000
AFIX   0
C00K  1   -0.579945   -0.800915   -0.340677    11.00000    0.02954    0.01651 =
         0.02793    0.00136    0.01522   -0.00068
C009  1   -0.571101   -0.935022   -0.171584    11.00000    0.05257    0.05109 =
         0.05289   -0.00142    0.02880   -0.00168
AFIX  43
H009  2   -0.533867   -0.933475   -0.095619    11.00000   -1.20000
AFIX   0
N004  3   -0.327839   -0.534860   -0.125971    11.00000    0.05131    0.02482 =
         0.04174   -0.00342    0.02400   -0.00225
N006  3   -0.487249   -0.549758   -0.444169    11.00000    0.05088    0.04610 =
         0.04784    0.00561    0.03099   -0.00842
HKLF 4

REM  1_a.res in Pn
REM R1 =  0.1100 for    1211 Fo > 4sig(Fo)  and  0.1345 for all    1547 data
REM    183 parameters refined using    122 restraints

END

WGHT      0.1573      1.9785

REM Highest difference peak  0.559,  deepest hole -0.536,  1-sigma level  0.105
Q1    1  -0.5461 -0.7817 -0.2858  11.00000  0.05    0.56
Q2    1  -0.5464 -0.1967 -0.7783  11.00000  0.05    0.47
Q3    1  -0.7176 -1.0736 -0.2878  11.00000  0.05    0.44
Q4    1  -0.6937 -0.4423 -0.8232  11.00000  0.05    0.42
Q5    1  -0.4159 -0.0422 -0.6683  11.00000  0.05    0.40
Q6    1  -0.7141  0.0779 -0.7819  11.00000  0.05    0.37
Q7    1  -0.6857 -1.4175 -0.2259  11.00000  0.05    0.35
Q8    1  -0.6434 -0.4515 -0.7428  11.00000  0.05    0.34
Q9    1  -0.6973 -1.5480 -0.2180  11.00000  0.05    0.34
Q10   1  -0.4260 -0.9498 -0.1259  11.00000  0.05    0.34
Q11   1  -0.4315 -0.0459 -0.4948  11.00000  0.05    0.33
Q12   1  -0.4583 -0.0157 -0.6034  11.00000  0.05    0.33
Q13   1  -0.6983  0.5050 -0.7458  11.00000  0.05    0.32
Q14   1  -0.5208 -0.4977 -0.2283  11.00000  0.05    0.32
Q15   1  -0.6007 -0.4007 -0.7885  11.00000  0.05    0.32
Q16   1  -0.4115 -0.3953 -0.1828  11.00000  0.05    0.31
Q17   1  -0.3864 -1.0253 -0.0520  11.00000  0.05    0.30
Q18   1  -0.4514 -0.2980 -0.7214  11.00000  0.05    0.30
Q19   1  -0.5855 -1.2671 -0.1715  11.00000  0.05    0.29
Q20   1  -0.4657 -1.0186 -0.0810  11.00000  0.05    0.29
;
_shelx_res_checksum              35799
_shelx_hkl_file
;
  -2   0   0 6599.34  544.85
   3   0   0   13.40    1.90
   4   0   0 8332.07  686.73
   5   0   0    4.00    1.50
   6   0   0 3298.27  272.07
   7   0   0    0.40    1.80
   8   0   0  751.52   62.29
   9   0   0   -0.80    2.50
  10   0   0  243.58   20.70
  11   0   0   -0.50    4.00
  12   0   0  470.95   39.70
  13   0   0    4.70    4.20
  14   0   0   64.09    8.10
  15   0   0   -2.80    6.10
  16   0   0   -1.10    6.90
   0  -1   0 2302.07  189.88
   1  -1   0 3493.15  302.07
  -1   1   0 3828.82  302.07
  -2   1   0 6939.71  572.34
   3  -1   0  672.13   51.99
   3  -1   0  600.04   51.69
   3   1   0  602.64   51.89
   4  -1   0  962.50   80.19
   4  -1   0  990.10   80.49
   4   1   0  959.90   80.39
   5  -1   0  691.43   53.69
   5  -1   0  664.43   53.99
   5   1   0  589.04   53.79
   6  -1   0 3443.56  289.57
   6  -1   0 3764.92  289.87
   6   1   0 3326.47  289.67
   7  -1   0    5.60    3.30
   7  -1   0    3.50    2.10
   7   1   0    1.00    2.10
   8  -1   0  401.26   35.10
   8  -1   0  428.46   34.50
   8   1   0  410.26   34.60
   9  -1   0   16.40    5.10
   9  -1   0   18.30    3.40
   9   1   0    8.90    3.50
  10  -1   0  236.18   24.30
  10  -1   0  304.37   23.70
  10   1   0  292.47   23.90
  11  -1   0    4.70    3.70
  11  -1   0   15.70    6.20
  11   1   0    5.50    3.70
  12  -1   0   80.39    9.60
  12   1   0   86.19    8.60
  13  -1   0    7.50    4.90
  14  -1   0   39.50   11.10
  14  -1   0   48.60    8.30
  14   1   0   61.09    7.70
  15  -1   0    0.50    6.20
  15   1   0   -1.50    5.30
  16  -1   0   50.39   10.50
  16   1   0   49.99    9.10
   1  -2   0  258.77   22.10
   2  -2   0 1485.45  126.29
   2   2   0 1567.24  126.29
   3  -2   0  166.98   14.90
   3   2   0  167.58   14.60
   4  -2   0  672.13   54.59
   4   2   0  635.44   54.49
   5  -2   0   14.20    3.80
   5   2   0    5.40    3.10
   6  -2   0  646.54   54.89
   6  -2   0  668.53   55.19
   6   2   0  663.53   55.09
   7  -2   0   61.09    6.70
   7  -2   0   57.49    7.00
   7   2   0   55.79    7.30
   8  -2   0  379.76   35.90
   8  -2   0  414.96   35.50
   8   2   0  469.65   35.70
   9  -2   0    6.00    4.40
   9   2   0    6.10    3.30
  10  -2   0   61.89    9.30
  10  -2   0   59.89    7.60
  11  -2   0    4.80    5.10
  11   2   0    5.20    4.20
  12  -2   0   58.59   11.80
  12  -2   0   62.69    9.90
  13  -2   0   -7.00   10.90
  13  -2   0    8.10    6.50
  13   2   0    0.80    5.60
  14  -2   0   40.70    7.90
  14  -2   0   28.50   14.40
  15  -2   0   27.90   15.50
  15   2   0   14.20    7.50
   1   3   0   16.80    4.10
   2  -3   0   50.49    7.10
   2   3   0   40.20    5.80
   3  -3   0  817.22   64.49
   3   3   0  722.53   64.29
   4  -3   0  559.54   45.20
   4   3   0  509.55   45.10
   5  -3   0   38.60    6.30
   6  -3   0  222.08   20.10
   6   3   0  226.18   19.90
   7  -3   0  363.46   28.30
   7   3   0  283.87   27.90
   8  -3   0  525.15   42.70
   8   3   0  471.05   42.20
   9   3   0  119.89   12.20
  10   3   0  180.88   17.00
  11  -3   0   63.29   13.20
  12  -3   0   32.50   12.80
  12   3   0   29.30    7.70
  13  -3   0   18.50   15.50
  13   3   0   16.30    8.90
   0   4   0   25.10    4.90
   1   4   0   66.99    7.90
  -1   4   0   68.89    8.10
   2   4   0    6.50    4.00
   3  -4   0  113.59   12.50
   3   4   0  116.69   11.50
   4  -4   0   51.89    8.60
   4   4   0   56.69    7.60
   5  -4   0  164.58   15.60
   5   4   0  144.99   14.80
   6  -4   0   56.29   10.00
   6   4   0   67.19    9.10
   7  -4   0   94.09   12.30
   7   4   0   85.79   11.20
   8  -4   0   75.29   12.40
   8   4   0   58.89   10.50
   9   4   0  453.15   39.60
  10  -4   0   52.89   13.40
  10   4   0   29.50    9.90
   0   5   0    0.10    5.80
   1   5   0    6.00    5.60
   1   5   0    0.90   11.10
  -1   5   0    7.10   14.60
  -1   5   0    6.30    5.80
  -2   5   0  121.49   13.00
   2   5   0  106.49   12.60
   3   5   0   35.20    7.00
  16   0  -1    3.60    6.30
  15   0  -1   -1.10    5.30
  14   0  -1    0.90    4.70
  13   0  -1   11.70    4.60
  12   0  -1   11.20    4.80
  11   0  -1    1.60    3.00
  10   0  -1    3.70    2.70
   9   0  -1    0.50    3.00
   9   0  -1    1.70    2.30
   8   0  -1    6.30    2.10
   7   0  -1    2.90    2.00
   7   0  -1   11.30    2.20
   6   0  -1    5.30    1.60
   6   0  -1    0.30    1.80
   5   0  -1    8.50    1.70
   4   0  -1   -1.40    1.00
   4   0  -1   -2.10    1.10
  -4   0   1   -3.10    0.80
   3   0  -1   -2.50    0.80
  -3   0   1   -1.90    0.60
   3   0  -1   -1.30    0.80
  -2   0   1   -6.20    0.80
   2   0  -1   -6.20    0.90
   2   0  -1   -5.60    0.90
  -2   0   1   -6.50    0.80
   1   0  -1    5.00    0.60
  -1   0  -1   -7.70    0.70
   1   0   1   -7.50    0.80
   2   0   1   -2.80    0.80
   3   0   1    3.70    1.50
   4   0   1    2.20    1.30
   5   0   1   53.89    5.00
   6   0   1    1.80    1.80
   7   0   1    1.80    1.90
   8   0   1   15.10    3.00
   9   0   1    0.40    2.80
  10   0   1   -1.50    3.50
  11   0   1    0.60    4.10
  12   0   1    6.70    4.00
  13   0   1    2.80    4.50
  14   0   1    9.50    5.50
  15   0   1    8.40    6.60
  16  -1  -1   62.79    8.90
  16  -1  -1   32.20   15.30
  16   1  -1   48.00    8.70
  15  -1  -1   10.20    5.90
  15  -1  -1  -13.10   11.30
  15   1  -1    1.10    5.50
  14  -1  -1   27.70    6.10
  14  -1  -1   30.70    9.70
  14   1  -1   27.00    5.60
  13  -1  -1    4.00    7.50
  13  -1  -1    3.20    5.30
  13   1  -1    6.20    4.40
  12  -1  -1  143.29   13.70
  12   1  -1  159.68   13.70
  11  -1  -1    9.80    5.30
  11  -1  -1   17.30    3.90
  11   1  -1   16.00    4.20
  10  -1  -1   20.80    4.90
  10  -1  -1   28.60    4.10
  10   1  -1   23.80    4.60
   9  -1  -1   22.50    3.60
   9  -1  -1   17.00    4.30
   9   1  -1   20.90    3.60
   8  -1  -1  231.98   19.60
   8  -1  -1  238.58   20.40
   8   1  -1  229.98   19.90
   7  -1  -1   79.69    6.80
   7   1  -1   70.29    7.10
   6  -1  -1   34.80    3.70
   6  -1  -1   34.20    4.70
   6   1  -1   40.50    4.20
   5  -1  -1  245.28   19.40
   5   1  -1  211.28   19.30
   4  -1  -1  576.34   49.40
   4   1  -1  612.34   49.40
   3  -1  -1  357.66   27.50
   3   1  -1  299.67   27.50
  -2   1   1 9634.14  794.52
   1   1  -1  949.60   78.79
   0  -1   1 6074.89  493.65
   0   1  -1 5897.41  493.55
   1  -1   1 1826.02  135.99
  -1   1  -1 1394.76  135.99
   1   1   1 1714.03  135.99
   2  -1   1 2030.90  177.68
   2  -1   1 2267.87  177.78
   2   1   1 2157.68  177.78
   3  -1   1   85.49    7.70
   3  -1   1   88.69    7.30
   3   1   1   76.79    7.40
   4  -1   1 1642.54  135.09
   4  -1   1 1518.65  135.29
   4   1   1 1746.93  135.19
   6  -1   1  583.34   48.40
   6  -1   1  573.34   48.80
   6   1   1  593.14   48.50
   7  -1   1   31.90    3.90
   7   1   1   33.50    4.20
   8  -1   1  118.79   13.50
   8  -1   1  143.29   12.30
   8   1   1  157.48   12.60
   9  -1   1    8.00    4.90
   9  -1   1   12.80    3.20
   9   1   1    2.20    3.60
  10  -1   1  150.58   13.80
  10   1   1  158.98   13.80
  11  -1   1   25.00    6.00
  11   1   1   29.70    4.80
  12  -1   1   -0.50    7.40
  12  -1   1   16.10    4.90
  12   1   1   11.30    4.30
  13  -1   1    2.20    5.30
  13   1   1   -0.90    4.60
  14  -1   1    3.40    5.90
  14   1   1   10.10    5.20
  15  -1   1   18.60    7.70
  15   1   1   29.90    6.70
  15  -2  -1   24.20   13.80
  15   2  -1   16.00    7.00
  14  -2  -1   37.00   13.20
  13  -2  -1   16.10    9.30
  13  -2  -1    9.80    6.80
  12  -2  -1   -4.60    7.00
  12   2  -1   -4.30    4.60
  11  -2  -1   10.10    4.90
  11  -2  -1    8.90    7.50
  11   2  -1   11.50    4.10
  10  -2  -1  211.98   20.30
  10  -2  -1  227.58   19.40
   9  -2  -1   29.40    6.40
   9  -2  -1   46.40    6.10
   9   2  -1   42.10    5.80
   8  -2  -1   97.39   10.60
   8   2  -1  109.39   10.60
   7  -2  -1    1.10    4.00
   7   2  -1   11.00    3.80
   6  -2  -1   83.89    8.50
   6   2  -1   90.29    8.70
   5  -2  -1    6.70    3.40
   5   2  -1   -0.30    2.60
   4  -2  -1 2957.70  244.08
   4   2  -1 2952.90  244.18
   3  -2  -1   98.39    9.80
   3   2  -1  110.09    9.70
   2  -2  -1 2385.66  224.98
   2   2  -1 3066.69  225.98
   0  -2   1  471.85   37.50
   0   2   1  423.56   37.40
   1  -2   1  389.96   32.60
   1   2   1  383.86   32.40
   2  -2   1  668.83   56.39
   2   2   1  683.53   56.29
   3  -2   1  410.16   34.30
   3   2   1  402.26   34.10
   4  -2   1   42.10    5.90
   4   2   1   30.10    4.60
   5  -2   1   19.20    3.70
   5  -2   1   14.00    3.70
   5   2   1   12.40    3.50
   6  -2   1    4.10    3.60
   6  -2   1   15.90    3.80
   6   2   1   10.70    3.70
   7  -2   1    6.70    3.90
   7   2   1    8.80    3.60
   8  -2   1  209.78   18.50
   9  -2   1   52.09    6.80
   9   2   1   37.30    5.50
  10  -2   1   37.30    6.80
  10  -2   1   30.50    7.80
  11  -2   1   10.00    6.80
  11  -2   1    2.80    8.30
  11   2   1    2.40    4.20
  12  -2   1   53.99    8.70
  12  -2   1   39.60   11.20
  13  -2   1   15.20    6.80
  13  -2   1    1.30   12.10
  13   2   1   -2.10    5.50
  14  -2   1   34.40    8.50
  14  -2   1   -2.00   14.70
  13  -3  -1   23.00   12.90
  13   3  -1   21.40    8.20
  12  -3  -1   41.50   13.80
  12   3  -1   37.90    8.00
  11  -3  -1   34.00   10.50
  11   3  -1    4.90    6.00
  10  -3  -1   79.69   13.60
  10   3  -1  103.79   10.80
   9  -3  -1   25.30    7.90
   9   3  -1   24.20    5.80
   8  -3  -1   45.60    8.70
   8   3  -1   42.00    6.70
   7  -3  -1    7.70    5.10
   7   3  -1    2.70    4.40
   6  -3  -1  454.15   39.20
   6   3  -1  467.35   39.20
   5  -3  -1   38.70    6.40
   5   3  -1   29.70    5.70
   4  -3  -1  660.13   53.39
   4   3  -1  611.24   53.39
   3  -3  -1    4.50    4.60
   3   3  -1    6.10    4.10
   0  -3   1   31.60    6.50
   0   3   1   31.10    4.60
   1  -3   1   46.00    7.20
   1   3   1   48.80    5.60
   2   3   1   30.80    4.90
   3  -3   1   86.39    9.70
   3   3   1   91.19    9.40
   4  -3   1  260.27   22.50
   4   3   1  250.27   22.40
   5  -3   1   56.19    8.10
   5   3   1   66.49    7.50
   6   3   1   32.80    6.20
   7  -3   1    8.10    5.50
   7   3   1    9.40    4.60
   8  -3   1   93.39   13.00
   8   3   1  131.29   11.60
   9  -3   1   13.10    8.20
   9   3   1   13.90    5.20
  10  -3   1   56.79   11.70
  10   3   1   66.89    9.10
  11  -3   1    5.90   12.70
  11   3   1   13.30    6.80
  12   3   1   80.19   11.30
  10  -4  -1   75.19   14.40
  10   4  -1   63.19   12.20
   9  -4  -1   31.80    9.90
   9   4  -1   11.00    8.20
   8  -4  -1   78.29   13.30
   8   4  -1  124.19   12.60
   7  -4  -1   45.30    8.10
   7   4  -1   44.10    8.20
   6  -4  -1  277.17   25.70
   6   4  -1  297.57   25.70
   5  -4  -1    1.90    5.90
   5   4  -1    3.20    4.80
   4  -4  -1   75.59   11.10
   4   4  -1  102.59   10.00
   3  -4  -1   23.40    6.30
   3   4  -1   26.30    5.00
   2   4  -1   33.10    5.40
  -2   4   1   32.80    5.70
  -2   4   1   19.50    8.30
   1   4  -1   23.40    5.10
  -1   4   1   31.10    5.20
   1   4  -1   15.20    8.10
  -1   4   1   31.50    8.10
   0   4   1  122.39   11.70
   1  -4   1    4.90    5.90
   1   4   1    1.30    3.50
   2  -4   1  148.19   14.50
   2   4   1  142.69   13.60
   3  -4   1    9.10    5.80
   3   4   1   17.80    4.40
   4  -4   1   64.39    9.40
   4   4   1   71.99    8.60
   5  -4   1   27.70    6.90
   5   4   1   34.30    7.00
   6  -4   1  196.88   21.20
   6   4   1  246.18   20.70
   7  -4   1   10.30    8.90
   7   4   1   19.50    6.70
   8   4   1  140.69   15.10
   9  -4   1   10.90   11.50
   9   4   1   10.10    8.00
   3   5  -1   -0.10    6.20
  -2   5   1   -2.30    5.90
   2   5  -1   12.40    6.00
   1   5  -1   11.20    6.10
  -1   5   1   -4.50    5.80
   0   5  -1    3.60   13.40
   0   5   1   10.80    5.90
   0   5   1    5.50   11.60
   0   5  -1   25.30    6.70
  -1   5  -1    4.10    6.30
   1   5   1    2.70    5.50
   1   5   1   -1.60   11.00
  -1   5  -1   -1.40   14.20
   2   5   1   -1.00    5.60
   2   5   1  -10.30   11.30
  -2   5  -1    1.00    6.50
  17   0  -2   -3.00    7.20
  16   0  -2   50.29    8.50
  15   0  -2   -6.70    5.00
  14   0  -2  210.38   18.60
  13   0  -2    1.90    5.10
  12   0  -2  257.47   22.00
  11   0  -2   -3.00    2.90
  10   0  -2  277.77   23.40
   9   0  -2    3.20    2.80
   9   0  -2    5.30    2.30
   8   0  -2 2045.30  171.98
   8   0  -2 2121.79  172.08
   6   0  -2 1975.80  159.68
   6   0  -2 1893.31  159.68
   5   0  -2    1.00    1.10
   5   0  -2   -0.70    1.10
  -4   0   2 7960.60  700.83
   4   0  -2 9068.69  700.83
   4   0  -2 8481.65  700.83
   3   0  -2   -2.10    0.80
   3   0  -2   -0.10    0.90
  -3   0   2   -1.90    0.60
  -1   0   2   -5.00    1.40
  -1   0   2   -7.70    1.00
   1   0  -2   -5.60    1.10
  -1   0   2   -7.10    0.90
   1   0  -2   -5.50    1.20
   1   0  -2   -7.70    0.80
   1   0   2   -3.10    0.80
   2   0   2 8623.44  710.83
   3   0   2    7.00    1.60
   4   0   2 3587.24  295.87
   5   0   2   22.10    2.90
   6   0   2 2456.45  202.68
   7   0   2   20.40    3.10
   8   0   2  486.85   40.60
   9   0   2   -0.60    3.20
  10   0   2  150.78   13.70
  11   0   2   10.40    4.00
  12   0   2   74.29    8.40
  13   0   2   -3.10    4.80
  14   0   2   62.69    9.10
  15   0   2   -1.00    7.20
  17  -1  -2   26.40   15.70
  16  -1  -2   37.10   12.20
  16  -1  -2   17.00    6.70
  16   1  -2   20.20    6.60
  15  -1  -2    4.90    9.00
  15  -1  -2    0.90    5.50
  15   1  -2    4.70    5.10
  14  -1  -2   83.49   10.40
  14   1  -2   90.69    9.30
  13  -1  -2   32.10    5.60
  13   1  -2   25.60    5.50
  12  -1  -2  134.29   12.30
  12   1  -2  139.59   12.70
  11  -1  -2    9.20    3.50
  11  -1  -2   12.90    4.60
  11   1  -2    9.00    4.40
  10  -1  -2  343.97   29.20
  10  -1  -2  330.27   28.60
  10   1  -2  351.76   28.90
   9  -1  -2   64.79    6.60
   9   1  -2   50.39    5.90
   8  -1  -2  219.68   19.70
   8   1  -2  235.48   19.50
   7  -1  -2  443.76   35.70
   7   1  -2  406.76   35.60
   6  -1  -2 1010.70   84.09
   6   1  -2 1019.50   84.19
   5  -1  -2  407.76   33.50
   5   1  -2  391.96   33.60
   4  -1  -2 3423.76  281.07
   4   1  -2 3391.76  281.17
   3  -1  -2 1335.77  119.79
  -3  -1   2 1457.75  119.79
  -3   1   2 1660.33  120.09
   3   1  -2 1347.07  119.79
   1   1  -2 5359.06  493.85
   1   1  -2 5860.21  493.85
  -1   1   2 6741.43  494.15
   0   1  -2 5090.69  420.26
   1  -1   2 1241.18  109.99
   1  -1   2 1430.56  110.19
   1   1   2 1319.77  109.99
   2  -1   2 5909.61  465.35
   2  -1   2 5430.66  465.15
   2   1   2 5589.84  465.25
   3  -1   2  373.46   31.70
   3  -1   2  401.16   31.60
   3   1   2  359.86   31.60
   4  -1   2 1615.84  135.99
   4  -1   2 1673.83  135.79
   4   1   2 1641.54  135.79
   5  -1   2  378.16   32.70
   5  -1   2  413.76   32.40
   5   1   2  372.56   32.40
   6  -1   2  118.59   12.10
   6  -1   2  143.49   11.50
   6   1   2  133.19   11.60
   7  -1   2   61.39    5.90
   7  -1   2   54.29    7.90
   8  -1   2  347.47   29.40
   8   1   2  352.46   29.60
   9  -1   2   40.50    5.20
   9  -1   2   43.90    7.50
  10  -1   2   87.29    9.50
  10  -1   2   70.59   10.50
  10   1   2  103.09    8.80
  11  -1   2   31.70    5.90
  12  -1   2   36.30    6.80
  12   1   2   43.30    6.10
  13  -1   2   -0.20    5.50
  13   1   2   -2.80    5.00
  14  -1   2   10.60   11.90
  14  -1   2   17.00    6.70
  14   1   2    2.40    5.80
  15  -1   2   42.00   16.10
  16  -2  -2   53.79   17.90
  15  -2  -2   80.79   15.40
  14   2  -2   63.99    8.90
  13  -2  -2   11.90    9.00
  13   2  -2    2.30    5.10
  12   2  -2   34.70    6.10
  11   2  -2  127.39   12.00
  10  -2  -2  501.65   37.60
  10   2  -2  376.66   37.00
   9  -2  -2  539.95   40.20
   9   2  -2  404.76   39.70
   8  -2  -2  523.25   44.60
   8   2  -2  533.55   44.70
   7  -2  -2   48.40    6.40
   7   2  -2   46.70    6.20
   6  -2  -2  535.15   44.90
   6   2  -2  531.85   44.80
   5  -2  -2 1148.79   92.59
   5   2  -2 1080.79   92.59
   4  -2  -2 4402.36  363.26
   3  -2  -2  423.16   35.80
  -3   2   2  430.86   36.20
  -2   2   2 2166.88  201.78
   2   2  -2 2715.33  202.68
  -1   2   2 1486.65  122.89
   0  -2   2 1238.88  100.59
   0   2   2 1188.48  100.39
   1  -2   2  401.96   34.10
   1   2   2  407.06   33.90
   2  -2   2 1290.47  107.19
   2   2   2 1294.47  106.99
   3  -2   2 1071.39   87.19
   3   2   2 1027.80   86.99
   4  -2   2 1260.07  109.19
   4  -2   2 1340.87  109.39
   4   2   2 1355.86  109.29
   5  -2   2   47.20    6.10
   5  -2   2   40.00    5.70
   5   2   2   46.50    5.30
   6  -2   2  283.47   22.10
   6  -2   2  267.07   22.40
   6   2   2  220.68   22.00
   7  -2   2  483.85   38.90
   7  -2   2  431.76   38.50
   8  -2   2  441.26   37.50
   8  -2   2  446.16   38.00
   9  -2   2  155.98   16.50
   9  -2   2  203.98   17.40
  10  -2   2   62.59    9.20
  10  -2   2   75.49   10.30
  10   2   2   47.90    6.80
  11  -2   2   14.70    9.30
  11   2   2    8.90    4.60
  12  -2   2   66.89   10.10
  12   2   2   67.79    9.00
  13  -2   2   25.30   14.30
  13  -2   2   24.50    7.80
  13   2   2   18.60    6.30
  14  -2   2   -4.00   16.40
  14  -3  -2  104.99   18.30
  14   3  -2   75.59   12.70
  13  -3  -2   10.80   12.00
  13   3  -2    8.20    7.50
  12   3  -2  207.28   19.40
  11   3  -2  143.49   14.90
  10  -3  -2  497.05   41.10
  10   3  -2  448.26   40.50
   9  -3  -2  201.28   17.60
   9   3  -2  161.48   16.80
   8  -3  -2  237.18   20.60
   8   3  -2  217.48   20.30
   7   3  -2   45.00    6.70
   6  -3  -2 1095.19   86.79
   6   3  -2  980.80   86.49
   5  -3  -2   52.29    7.00
   5   3  -2   44.10    6.60
   4  -3  -2  783.82   62.29
   4   3  -2  701.93   62.29
  -3   3   2   42.40    8.00
  -2   3   2   36.50    7.70
  -2   3   2   30.60    4.60
  -1   3   2  141.09   14.80
  -1   3   2  151.88   13.10
   0  -3   2   34.00    6.20
   0   3   2   25.60    4.20
   1  -3   2   22.60    5.10
   1   3   2   28.90    4.50
   2  -3   2  629.54   50.99
   2   3   2  584.04   50.79
   3  -3   2   40.30    6.80
   3   3   2   37.80    6.40
   4  -3   2  278.57   24.40
   4   3   2  275.67   24.10
   5  -3   2   61.19    7.60
   5   3   2   44.90    7.10
   6  -3   2  356.96   31.60
   6   3   2  369.36   31.10
   7   3   2  100.49   10.20
   8   3   2  198.78   18.00
   9   3   2   89.99   10.40
  10   3   2  152.58   15.20
  11  -3   2   20.10   14.40
  11   3   2    8.30    7.00
  12  -3   2  114.49   21.30
  12   3   2  111.39   14.00
  11  -4  -2   54.39   13.10
  10  -4  -2  101.59   14.50
  10   4  -2   88.19   13.50
   9  -4  -2  162.48   16.10
   9   4  -2  113.89   15.20
   8  -4  -2   33.40    9.00
   8   4  -2   47.80    9.30
   7   4  -2   47.10    9.00
   6  -4  -2   87.19   10.60
   6   4  -2   82.79   10.30
   5   4  -2  135.09   13.40
  -4   4   2  122.59   11.50
  -4   4   2  100.49   13.80
   4   4  -2  131.69   12.20
  -3   4   2   89.99    9.60
  -3   4   2   78.09   11.60
   3   4  -2   88.99    9.70
  -2   4   2    7.40    4.80
  -2   4   2    6.60    7.50
   2   4  -2    7.60    4.90
  -1   4   2   13.90    4.30
  -1   4   2    9.50    7.60
   0   4   2    4.40    7.70
   0   4  -2   -0.40    8.90
   0   4   2    8.10    4.00
   1  -4   2  102.59   10.70
   1   4   2   81.89    9.30
   2  -4   2   39.70    8.00
   2   4   2   42.90    6.20
   3  -4   2  155.48   14.10
   3   4   2  119.09   12.80
   4  -4   2   75.09   10.20
   4   4   2   83.19    9.30
   5   4   2   38.70    7.80
   6  -4   2   19.40    8.40
   6   4   2   39.70    7.20
   7   4   2   70.69   10.20
   8   4   2   21.80    7.40
   9  -4   2   69.19   15.40
   3   5  -2   -4.10    6.30
  -3   5   2    8.20   11.10
  -2   5   2  113.89   17.30
   2   5  -2  158.08   14.90
  -1   5   2    6.40    5.70
  -1   5   2    6.90   10.90
   1   5  -2    2.30    6.30
   0   5   2   63.39    9.80
   0   5  -2   75.59   11.10
   0   5   2   99.59   15.20
  -1   5  -2   -5.40   14.70
   1   5   2    0.40    5.40
   1   5   2   -5.00   12.00
  -2   5  -2   45.70   19.10
  17   0  -3   -1.10    6.70
  16   0  -3   -3.50    5.70
  15   0  -3    0.90    4.70
  14   0  -3    5.80    5.70
  14   0  -3   10.10    4.90
  13   0  -3   -2.30    4.60
  13   0  -3   -3.50    4.20
  12   0  -3    6.10    4.00
  12   0  -3    1.10    3.30
  11   0  -3   -2.40    2.90
  10   0  -3    2.20    2.70
  10   0  -3    1.40    3.70
   9   0  -3    0.60    2.30
   9   0  -3   -1.90    2.20
   8   0  -3   -2.40    1.90
   8   0  -3   -3.20    1.90
   6   0  -3   -9.30    1.40
   6   0  -3   -5.80    1.30
   5   0  -3   -2.20    1.20
   5   0  -3    0.00    1.10
   4   0  -3   -1.20    1.00
  -4   0   3   -1.80    1.00
  -3   0   3    0.30    2.20
  -3   0   3   -1.40    1.00
   3   0  -3   -2.20    1.00
  -2   0   3    4.50    1.80
   2   0  -3    2.00    0.90
  -2   0   3    3.70    1.10
   2   0  -3    2.70    0.80
  -2   0   3    4.50    0.80
   1   0  -3   -1.60    1.00
  -1   0   3   -1.10    0.90
   0   0   3    4.10    1.40
   1   0   3   14.00    2.20
   2   0   3   10.80    1.90
   3   0   3   -5.10    1.40
   4   0   3   -1.50    1.70
   5   0   3    0.10    2.00
   6   0   3    5.90    2.40
   7   0   3    0.00    2.70
   8   0   3    3.70    3.30
   9   0   3    1.00    3.90
  10   0   3    8.40    4.00
  11   0   3   37.20    6.00
  12   0   3   -3.70    4.80
  13   0   3   13.80    6.10
  14   0   3   10.10    6.60
  17  -1  -3   16.90   13.80
  16  -1  -3   10.10    6.80
  16  -1  -3   11.40   10.70
  16   1  -3   10.50    6.10
  15  -1  -3   14.70    8.10
  15  -1  -3   -2.80    6.10
  15   1  -3    7.00    5.00
  14  -1  -3   57.29    7.10
  14  -1  -3   33.80    8.60
  14   1  -3   54.79    7.00
  13  -1  -3    6.20    4.00
  13  -1  -3    5.00    5.80
  12  -1  -3    9.30    3.80
  12  -1  -3    4.10    4.80
  12   1  -3   18.50    5.00
  11  -1  -3   12.00    4.00
  11   1  -3   13.90    4.00
  10  -1  -3  334.47   30.50
  10   1  -3  383.26   30.40
   9  -1  -3   14.40    3.50
   9   1  -3   11.60    3.20
   8  -1  -3  106.49   10.30
   8   1  -3  115.59   10.10
   7  -1  -3   15.40    3.00
   7   1  -3   13.60    2.40
   6  -1  -3  209.58   20.10
  -6   1   3  267.07   20.80
   6   1  -3  236.58   20.10
   5  -1  -3   94.39    8.30
   5   1  -3   87.89    8.00
   4  -1  -3  511.55   45.70
   4   1  -3  589.34   45.70
   3  -1  -3  162.58   12.20
   3   1  -3  130.49   12.20
  -3   1   3  134.99   12.70
   2   1  -3 2251.37  191.28
  -2   1   3 2382.36  191.48
  -1   1   3  332.77   28.10
  -1   1   3  330.87   27.60
   0  -1   3  989.10   86.99
   0  -1   3 1138.89   87.09
   0   1   3 1026.30   86.89
   1  -1   3   52.39    6.30
   1  -1   3   73.19    6.00
   2  -1   3  624.04   53.79
   2  -1   3  664.73   53.99
   2   1   3  657.33   53.79
   3  -1   3   57.69    5.70
   3   1   3   63.39    5.70
   4  -1   3  100.49    9.70
   4  -1   3  104.89    9.20
   4   1   3  106.69    9.20
   6  -1   3   76.99    7.30
   6   1   3   78.49    7.50
   7  -1   3   37.30    4.60
   7   1   3   37.80    5.10
   8  -1   3  128.39   11.50
   8   1   3  124.29   11.40
   9  -1   3   11.50    5.10
   9   1   3   20.90    4.10
  10  -1   3   96.39   10.70
  10   1   3  118.99   10.30
  11  -1   3    9.50    4.40
  11   1   3    9.10    4.10
  12  -1   3   22.20    5.70
  12   1   3   28.00    5.70
  13  -1   3   13.50    6.20
  13  -1   3   -7.00   10.30
  13   1   3    6.20    5.40
  14  -1   3   -3.20   14.00
  14  -1   3   28.50    8.30
  14   1   3   43.80    7.40
  16  -2  -3   46.60   15.30
  16   2  -3   58.99    9.80
  15  -2  -3   16.20   12.50
  15   2  -3    8.60    6.60
  14   2  -3  139.79   13.90
  13  -2  -3   62.49   10.70
  13   2  -3   53.69    7.70
  12   2  -3  144.29   13.70
  11  -2  -3   13.40    5.60
  11   2  -3   16.60    4.90
  10  -2  -3  114.29   12.60
  10   2  -3  142.79   12.60
   9  -2  -3   21.30    4.30
   9   2  -3   17.60    4.70
   8  -2  -3  534.85   48.20
   8   2  -3  617.14   48.60
   7  -2  -3  107.39   10.00
   7   2  -3  100.79   10.10
   6  -2  -3   69.29    7.60
   6   2  -3   59.39    7.00
   4  -2  -3 2889.71  267.07
  -4   2   3 3582.24  267.57
  -3   2   3   46.20    6.60
   3   2  -3   42.60    4.90
   2   2  -3  616.14   55.79
   2   2  -3  718.13   57.29
  -2   2   3  687.93   56.39
  -2   2   3  666.93   55.69
  -1   2   3   97.89   10.10
  -1   2   3  100.79    8.90
   0  -2   3  304.17   26.00
   0   2   3  303.27   25.50
   1  -2   3  399.06   34.60
   1   2   3  419.76   34.30
   2  -2   3 1885.21  153.58
   2   2   3 1824.32  153.28
   3  -2   3    4.80    4.00
   3   2   3    4.70    2.60
   4  -2   3  729.73   60.99
   4  -2   3  685.53   61.19
   4   2   3  782.12   60.99
   5   2   3   57.79    6.50
   6  -2   3  125.49   11.50
   6  -2   3  116.49   12.00
   7  -2   3    9.10    4.50
   7  -2   3    0.20    5.10
   8  -2   3   66.09    9.00
   8  -2   3   54.69    9.30
   9  -2   3    7.50    7.50
   9  -2   3   17.70    6.20
   9   2   3   27.40    4.90
  10  -2   3  182.18   16.60
  10  -2   3  166.68   18.10
  11  -2   3   42.00    8.70
  11  -2   3   25.30   10.90
  12  -2   3   28.40   13.40
  12  -2   3   24.20    7.80
  13  -2   3   24.90   16.50
  13  -2   3   18.70    8.90
  13   2   3    7.80    6.90
  14  -3  -3   67.39   14.90
  14   3  -3   75.69   11.80
  13  -3  -3    4.70   11.50
  13   3  -3   11.10    7.60
  12   3  -3  150.98   15.70
  11  -3  -3    6.70    7.60
  11   3  -3   14.70    6.40
  10  -3  -3   44.90    9.10
  10   3  -3   50.99    8.20
   9  -3  -3   52.79    8.30
   9   3  -3   41.10    7.40
   8  -3  -3  619.34   53.99
   8   3  -3  658.13   53.99
   7  -3  -3   12.10    4.80
   7   3  -3    0.10    3.70
   6  -3  -3 1152.38   93.89
   6   3  -3 1102.09   93.99
   5  -3  -3   14.80    4.70
   5   3  -3    9.80    4.50
  -4   3   3  691.93   58.59
  -3   3   3  162.88   15.40
  -3   3   3  198.78   17.50
   2   3  -3   41.80   10.10
  -2   3   3   20.80    4.10
   2   3  -3   30.50    4.90
  -1   3   3    1.20    2.70
  -1   3   3    0.10    6.40
   1   3  -3    5.00    3.20
   0  -3   3 1383.16  109.09
   0   3   3 1242.78  108.79
   1  -3   3   94.99    9.90
   1   3   3   94.49    9.10
   2  -3   3   63.59    7.70
   2   3   3   65.09    7.40
   3  -3   3  102.59   12.10
   3   3   3  150.18   12.40
   4  -3   3   69.79    9.90
   4   3   3   89.39    8.80
   5  -3   3   43.80    8.60
   5   3   3   66.59    7.10
   6  -3   3  259.87   26.30
   6   3   3  322.47   25.40
   7  -3   3    4.90    7.50
   7   3   3    3.90    4.60
   8  -3   3   14.00    9.30
   8   3   3   37.90    6.40
   9  -3   3   -8.90   11.10
   9   3   3   21.40    6.10
  10  -3   3   25.20   15.00
  10  -3   3   38.50   10.80
  10   3   3   40.70    8.00
  11  -3   3   31.00   11.20
  11  -3   3   -6.60   16.30
  11   3   3   25.50    8.00
  11  -4  -3   21.30   11.10
  11   4  -3   14.60   10.40
  10  -4  -3   23.50    9.30
  10   4  -3   20.70    8.60
   9  -4  -3   27.80    8.90
   9   4  -3    8.60    7.40
   8  -4  -3  381.36   35.70
   8   4  -3  432.16   35.80
   7  -4  -3   22.40    6.50
   7   4  -3   18.50    5.90
   6  -4  -3 2067.39  169.68
   6   4  -3 2018.80  169.68
   5  -4  -3   30.20    6.50
  -5   4   3   20.30    9.00
   5   4  -3   34.80    7.10
   4   4  -3   86.69    9.00
   4   4  -3   83.79   10.10
  -4   4   3   81.59   11.70
  -3   4   3   30.90    8.60
   3   4  -3   26.90    5.50
  -3   4   3   28.80    4.80
  -2   4   3  143.09   13.80
  -2   4   3  126.49   15.60
   2   4  -3  159.98   13.70
   1   4  -3   19.70    4.80
  -1   4   3   32.30    8.60
  -1   4   3   26.60    4.80
   1   4  -3    8.20    8.30
   0   4   3  175.08   18.30
   0   4  -3  193.88   16.70
   0   4   3  176.58   16.10
   0   4  -3  162.78   22.70
   1   4   3   13.60    3.90
   2  -4   3  228.18   20.20
   2   4   3  205.88   19.20
   3  -4   3  260.37   23.70
   3   4   3  262.37   23.00
   4   4   3  100.89   10.80
   5  -4   3   15.60    8.00
   6   4   3  157.68   15.60
   7  -4   3    4.80   10.10
   7   4   3    4.70    6.70
   8  -4   3   65.89   14.40
   8   4   3   76.89   11.60
  -3   5   3    8.60   11.10
   2   5  -3   -6.90    6.80
   2   5  -3    0.30    7.00
  -2   5   3  -16.70   11.40
   1   5  -3   -0.60    7.20
   1   5  -3    9.10    7.20
  -1   5   3    3.50   11.60
  -1   5   3    1.30    6.00
   0   5   3   63.69   10.20
   0   5  -3   93.49   12.60
   0   5   3   65.79   14.90
  -1   5  -3   -0.90   15.00
  -2   5  -3   37.60   18.60
  17   0  -4   -7.50    6.10
  16   0  -4   30.70    6.30
  15   0  -4   -1.90    4.90
  14   0  -4  201.98   17.90
  14   0  -4  194.58   17.60
  13   0  -4   -3.00    4.00
  12   0  -4  634.04   54.99
  12   0  -4  681.43   54.69
  11   0  -4   -4.20    3.20
  11   0  -4   -1.60    3.00
  10   0  -4  349.67   28.90
  10   0  -4  336.67   28.70
   9   0  -4   -0.30    2.10
   9   0  -4   -0.10    2.00
   8   0  -4  821.02   68.69
   8   0  -4  839.32   68.79
   7   0  -4    0.60    1.70
   7   0  -4   -2.80    1.50
   6   0  -4 2432.96  204.58
   6   0  -4 2523.35  204.58
   5   0  -4   -1.70    1.10
   4   0  -4 4892.81  403.46
   3   0  -4   -2.90    1.10
  -3   0   4   -3.60    2.50
  -3   0   4   -4.00    0.90
  -2   0   4 9999.00  770.32
  -2   0   4 8306.67  770.32
   2   0  -4 9732.03  770.32
  -1   0   4   15.90    2.30
   1   0   4   33.80    3.40
   2   0   4 3193.58  263.37
   3   0   4   76.69    6.90
   4   0   4 1563.44  129.19
   5   0   4    0.10    2.20
   6   0   4  818.52   67.89
   7   0   4    7.20    3.40
   8   0   4  900.71   74.89
   9   0   4    7.90    3.70
  10   0   4  155.58   14.20
  11   0   4    2.80    4.80
  12   0   4   16.50    5.90
  13   0   4    4.20    6.30
  14   0   4   45.50    8.80
  17  -1  -4   32.10   11.80
  17   1  -4    5.80    6.70
  16  -1  -4  232.78   21.90
  16   1  -4  209.68   20.00
  15  -1  -4   23.30    8.00
  15   1  -4    5.00    5.50
  14  -1  -4  155.48   14.70
  14   1  -4  133.69   13.30
  13   1  -4   58.69    7.50
  12  -1  -4  611.74   45.20
  12   1  -4  459.85   44.90
  11  -1  -4  428.36   32.30
  11   1  -4  331.77   32.00
  10  -1  -4  770.92   65.29
  10   1  -4  797.92   65.29
   9  -1  -4  412.16   33.60
   9   1  -4  387.06   33.60
   8  -1  -4 1135.79   93.49
   8   1  -4 1133.29   93.49
   8   1  -4 1113.89   93.29
   7  -1  -4   61.79    6.40
   7   1  -4   59.99    6.40
   7   1  -4   68.99    5.90
   6  -1  -4 1204.68  100.39
   6   1  -4 1221.88  100.29
   5  -1  -4 1019.90   85.79
   5   1  -4 1052.99   85.69
   4   1  -4  990.80   81.99
   3   1  -4  321.17   26.90
  -2   1   4 4741.13  377.46
   2   1  -4 4406.56  377.16
  -1   1   4  330.37   25.80
   1   1  -4  289.57   26.00
   0  -1   4  902.01   75.89
   0  -1   4  952.30   75.99
   0   1   4  896.41   75.79
   1  -1   4 1034.20   85.89
   1  -1   4 1038.90   85.79
   2  -1   4 1407.46  123.59
   2  -1   4 1530.55  123.49
   2   1   4 1544.15  123.49
   3  -1   4   63.39    6.70
   3  -1   4   64.19    5.90
   3   1   4   58.29    5.80
   4  -1   4 1481.75  121.99
   4  -1   4 1481.75  121.79
   4   1   4 1454.35  121.69
   5  -1   4  336.37   28.20
   5  -1   4  381.86   28.70
   5   1   4  292.57   28.20
   6  -1   4  717.03   60.59
   6   1   4  740.63   60.59
   7  -1   4  260.97   21.10
   7   1   4  228.08   21.00
   8  -1   4  574.44   46.80
   8  -1   4  549.95   46.50
   8   1   4  538.55   46.30
   9  -1   4   75.09    7.80
   9   1   4   57.29    7.00
  10  -1   4  161.08   15.40
  10   1   4  179.08   15.50
  11  -1   4   16.30    5.20
  11   1   4    5.50    4.60
  12  -1   4   74.39    9.60
  12  -1   4   76.89   13.30
  12   1   4   72.79    9.10
  13  -1   4   27.30   13.60
  13  -1   4   15.90    7.60
  16  -2  -4   54.09   14.30
  16   2  -4   42.30    8.90
  14  -2  -4  130.19   16.30
  14   2  -4  167.88   14.80
  13   2  -4   13.90    5.30
  12  -2  -4  356.16   28.30
  12   2  -4  284.67   27.60
  11  -2  -4  384.46   30.50
  11   2  -4  319.87   30.30
  10  -2  -4 1150.18  100.39
  10   2  -4 1263.87  100.49
   9  -2  -4   44.40    6.00
   9   2  -4   42.70    6.90
   8  -2  -4  330.37   29.40
   8   2  -4  361.06   29.80
   7  -2  -4  500.55   40.60
  -7   2   4  452.15   41.40
   7   2  -4  496.05   40.90
   6  -2  -4  731.03   56.69
   6   2  -4  684.63   56.29
  -6   2   4  617.74   57.09
   5   2  -4   18.80    3.60
   4  -2  -4  598.54   51.99
   4   2  -4  558.94   51.99
  -4   2   4  720.73   52.79
  -3   2   4 1935.11  148.89
   3   2  -4 1653.63  148.29
  -2   2   4 3051.79  247.58
   2   2  -4 2657.13  247.68
  -2   2   4 3165.78  248.28
   2   2  -4 3131.49  249.18
   1   2  -4 1444.96  133.89
   1   2  -4 1675.93  135.59
  -1   2   4 1739.53  133.79
   0  -2   4  721.53   59.89
   0   2   4  714.03   59.59
   1   2   4   26.00    3.70
   2  -2   4 1221.48   98.09
   2   2   4 1139.79   97.69
   3  -2   4  462.95   40.00
   3  -2   4  542.35   40.40
   3   2   4  427.06   39.80
   4  -2   4   33.30    5.20
   4   2   4   31.80    4.80
   5  -2   4   35.90    6.30
   5  -2   4   35.70    5.80
   5   2   4   33.60    5.40
   6  -2   4  524.25   43.00
   6  -2   4  543.95   42.70
   6   2   4  448.86   42.30
   7  -2   4  346.87   28.40
   7  -2   4  292.97   27.90
   8  -2   4  282.97   24.40
   8  -2   4  303.37   25.40
   8   2   4  250.57   23.80
   9  -2   4   46.00    8.00
   9  -2   4   65.29   11.20
  10  -2   4  155.58   15.50
  10  -2   4  157.78   18.20
  11   2   4   64.89    8.70
  12  -2   4   45.70   16.50
  12  -2   4   24.30    9.10
  12   2   4   34.90    7.60
  14  -3  -4   56.19   13.90
  14   3  -4   51.29   10.90
  13  -3  -4   -7.30    9.50
  13   3  -4   10.50    7.90
  12  -3  -4   14.80    8.50
  12   3  -4   35.00    8.00
  11  -3  -4    4.10    6.60
  11   3  -4    2.30    6.20
  10  -3  -4   79.59    9.70
  10   3  -4   74.19    9.50
   9  -3  -4   18.10    5.10
   9   3  -4   16.40    4.70
   8  -3  -4 1260.87  108.69
   8   3  -4 1353.56  108.89
   7  -3  -4   71.19    8.30
   7   3  -4   56.59    7.70
   6  -3  -4 1000.40   81.99
   6   3  -4  965.40   82.09
  -5   3   4   68.49   11.20
   4   3  -4  588.14   52.09
  -4   3   4  659.03   53.29
   3   3  -4  384.16   32.90
  -3   3   4  394.96   34.50
  -2   3   4  678.03   54.19
   2   3  -4  636.24   52.79
   2   3  -4  553.44   54.59
  -2   3   4  653.23   52.59
   1   3  -4  331.77   29.20
  -1   3   4  362.56   29.00
  -1   3   4  335.77   30.70
   0   3   4  491.55   41.20
   1  -3   4  151.28   13.40
   1   3   4  131.49   12.80
   2  -3   4  252.27   24.00
   2   3   4  294.77   23.80
   3  -3   4   54.59    7.20
   3   3   4   46.10    6.60
   4  -3   4  445.36   41.70
   4   3   4  534.25   41.40
   5  -3   4    5.20    5.40
   5   3   4   10.40    4.20
   6  -3   4   35.50    9.00
   6   3   4   25.30    5.30
   7  -3   4    5.60    9.00
   7   3   4    2.00    5.30
   8  -3   4    1.50   10.40
   8   3   4   20.20    6.10
   9  -3   4   20.20   13.10
   9  -3   4    9.20    9.80
   9   3   4   -0.20    6.10
  10  -3   4   88.89   18.10
  10  -3   4   66.49   13.50
  10   3   4   88.59   11.10
  11  -4  -4   29.20   11.00
  11   4  -4   18.00   10.00
  10  -4  -4   48.90   10.40
  10   4  -4   39.70    9.20
   9  -4  -4   69.79   11.60
   9   4  -4   64.69   10.80
   8  -4  -4  186.48   17.40
   8   4  -4  157.28   17.10
   7  -4  -4   75.89   10.60
   7   4  -4   69.59    9.90
   6   4  -4   94.59   11.10
  -6   4   4  109.69   14.90
   6   4  -4   88.09    9.40
   5   4  -4   56.69    8.50
   5   4  -4   50.39    6.70
  -4   4   4   46.20   10.70
   4   4  -4   67.09    7.50
  -3   4   4   55.59   10.60
   3   4  -4   52.29    7.10
  -2   4   4   69.79   11.70
  -2   4   4   75.49    8.80
   2   4  -4   84.59    8.90
  -1   4   4   52.29    6.90
   1   4  -4   36.70    7.20
  -1   4   4   46.60   10.60
   0   4   4   44.60    9.70
   0   4  -4   27.30    5.70
   0   4  -4   12.70    9.30
   0   4   4   30.40    5.80
   1   4   4   38.00    6.30
   2  -4   4   64.69    9.70
   2   4   4   55.89    7.60
   3  -4   4   51.49    9.60
   3   4   4   55.79    7.60
   4  -4   4   58.19   10.20
   4   4   4   57.39    8.20
   5  -4   4   61.29   11.60
   5   4   4   32.70    6.90
   6  -4   4    3.70    9.80
   6   4   4   14.80    6.80
   7  -4   4   11.60   11.00
   7   4   4   -0.90    6.90
   0   5  -4   31.10   15.70
  18   0  -5    6.40    6.70
  17   0  -5    1.50    6.10
  16   0  -5    2.50    5.30
  16   0  -5   -1.60    7.10
  15   0  -5   -4.30    5.90
  15   0  -5   -5.20    5.40
  14   0  -5   31.90    5.50
  14   0  -5   30.30    6.40
  13   0  -5    5.90    4.00
  13   0  -5   -3.80    4.40
  12   0  -5   99.39   10.10
  12   0  -5  112.39   10.30
  11   0  -5    2.60    3.00
  11   0  -5    2.80    3.00
  10   0  -5    0.40    2.50
  10   0  -5   -0.70    2.50
   9   0  -5    0.50    2.20
   9   0  -5   -1.50    2.20
   8   0  -5   -1.10    1.70
   7   0  -5    0.40    1.80
   7   0  -5   -2.30    1.50
   6   0  -5    0.20    1.40
   5   0  -5    0.80    1.30
  -4   0   5    4.80    3.10
   3   0  -5   -0.80    1.20
  -3   0   5   -1.70    1.60
  -3   0   5   -3.70    2.70
  -2   0   5    2.40    1.70
  -2   0   5   -0.10    1.60
  -2   0   5   -0.40    2.70
  -1   0   5   -0.80    3.10
  -1   0   5   -1.20    1.60
   0   0   5   -1.90    1.50
   1   0   5    4.10    1.90
   2   0   5   16.90    2.70
   3   0   5    0.10    2.00
   4   0   5   -2.00    2.20
   5   0   5    2.30    2.90
   6   0   5    5.70    3.50
   7   0   5   58.19    6.80
   8   0   5   26.00    5.00
   9   0   5   36.50    5.90
  10   0   5    6.40    4.80
  11   0   5    5.00    5.50
  12   0   5    0.20    6.20
  13   0   5   48.90    9.00
  17  -1  -5    7.20   11.20
  17   1  -5    4.30    6.50
  16  -1  -5   56.09   11.90
  16   1  -5   81.29    9.80
  15  -1  -5    3.30    7.10
  15   1  -5    5.80    5.40
  14  -1  -5   57.29    9.20
  14   1  -5   66.79    7.90
  13  -1  -5   65.39    8.50
  13   1  -5   67.89    8.50
  12  -1  -5  399.26   37.20
  12   1  -5  471.85   37.30
  12   1  -5  448.06   36.90
  11  -1  -5   76.19    7.70
  11   1  -5   72.99    8.00
  11   1  -5   72.49    7.30
  10  -1  -5  571.94   49.10
  10   1  -5  602.44   49.20
   9  -1  -5   83.29    7.30
   9   1  -5   77.89    7.10
   9   1  -5   59.19    7.20
   8  -1  -5  112.09   10.80
   8   1  -5  115.29   10.80
   8   1  -5  111.49   10.30
  -8   1   5  138.89   12.20
   7  -1  -5   93.99    8.60
   7   1  -5   81.59    8.30
  -7   1   5  107.29   10.00
   6  -1  -5   31.20    4.20
   6   1  -5   38.30    3.80
   5  -1  -5  135.39   11.30
  -5   1   5  148.69   12.30
   5   1  -5  109.79   11.20
   4   1  -5 1761.42  159.18
  -4   1   5 2096.49  159.78
   3   1  -5   69.39    6.50
  -3   1   5   70.29    7.30
  -2   1   5  718.73   55.29
  -2   1   5  586.34   54.69
   2   1  -5  679.03   54.99
  -1  -1   5  159.38   13.80
   1   1  -5  159.08   15.10
   0  -1   5 1038.90   87.09
   0   1   5 1046.60   86.99
   0   1  -5  941.61   87.09
   0   1   5 1183.48   87.49
   1  -1   5   16.10    3.00
   2  -1   5  671.73   58.09
   2  -1   5  760.82   58.29
   2   1   5  667.63   57.99
   3  -1   5    6.70    2.50
   4  -1   5  573.04   47.40
   4  -1   5  532.95   47.70
   4   1   5  597.94   47.30
   5  -1   5   45.10    6.30
   5   1   5   64.79    6.10
   6  -1   5  455.55   40.50
   6   1   5  507.95   40.50
   7  -1   5   61.89    7.90
   7   1   5   70.89    7.10
   8  -1   5  254.17   26.90
   8  -1   5  355.76   26.50
   9  -1   5   61.29    9.40
   9  -1   5   52.79    6.60
   9   1   5   35.30    6.20
  10  -1   5   23.10    9.20
  10  -1   5   43.50    6.80
  10   1   5   37.10    6.10
  11  -1   5   20.40    6.40
  11  -1   5   39.70   11.70
  11   1   5   27.10    6.00
  12  -1   5   32.30    7.70
  12  -1   5   33.60   14.10
  12   1   5   29.70    7.30
  13  -1   5    7.70   16.80
  13  -1   5    2.30    8.30
  16  -2  -5   89.59   14.30
  16   2  -5   55.09   10.10
  15  -2  -5   33.90   11.10
  15   2  -5   51.89    8.70
  14  -2  -5   41.90    9.40
  14   2  -5   52.19    8.10
  13  -2  -5   16.10    6.60
  13   2  -5    7.00    5.70
  12  -2  -5    5.90    5.60
  12   2  -5    8.10    5.10
  11  -2  -5    1.50    4.50
  11   2  -5   -1.40    4.70
  10  -2  -5  796.62   72.59
  10   2  -5  945.41   72.99
   9  -2  -5    2.50    3.50
  -9   2   5   11.50    7.70
   9   2  -5   -0.10    4.20
   8  -2  -5  569.84   49.80
   8   2  -5  620.84   50.19
   7  -2  -5   12.00    3.70
   7   2  -5    3.00    2.80
  -7   2   5   -4.90    6.20
   6  -2  -5   85.09    9.00
   6   2  -5   85.39    8.40
  -6   2   5  101.09   10.60
  -5   2   5   -4.30    5.10
   5   2  -5    1.90    2.50
   4   2  -5   31.20    4.70
  -4   2   5   42.60    6.60
   3   2  -5  183.58   18.10
  -3   2   5  239.98   19.20
  -2   2   5 1806.82  147.19
   2   2  -5 1630.94  146.59
   2   2  -5 1882.71  148.19
  -1   2   5    4.80    4.60
   1   2  -5    1.20    5.40
   1   2  -5    1.10    2.70
  -1   2   5    1.60    2.20
   0   2   5   19.50    3.20
   2  -2   5   69.69    7.40
   2  -2   5   70.29    7.80
   2   2   5   67.79    6.90
   3  -2   5   62.09    7.10
   3   2   5   60.39    6.50
   4  -2   5   54.89    7.00
   4  -2   5   47.20    6.80
   5  -2   5   72.49    9.50
   5  -2   5   62.59    9.80
   5   2   5   88.89    8.00
   6  -2   5   11.80    6.60
   6  -2   5    8.90    5.80
   7  -2   5   -2.40    5.40
   7  -2   5   -0.20    7.60
   8  -2   5   55.89   10.40
   8  -2   5   41.10    7.80
   9  -2   5    2.70    6.10
   9  -2   5    5.80   10.50
   9   2   5    4.20    4.80
  10  -2   5  120.99   14.00
  10  -2   5  128.59   18.00
  11  -2   5   26.10    8.90
  11  -2   5   41.00   16.40
  11   2   5   20.00    6.80
  12  -2   5   -8.50   18.80
  12   2   5   -0.50    7.70
  14  -3  -5   76.29   14.50
  14   3  -5   80.99   12.30
  13  -3  -5    7.60    9.70
  13   3  -5    6.60    7.70
  12  -3  -5   87.79   12.40
  12   3  -5   91.29   11.90
  11  -3  -5   -5.30    7.10
  11   3  -5   -5.00    5.70
  10  -3  -5   41.30    7.90
  10   3  -5   36.00    7.30
   9  -3  -5    0.60    5.60
   9   3  -5    7.00    4.40
   8  -3  -5  627.54   53.99
   8   3  -5  651.83   53.99
   7  -3  -5   15.20    5.50
  -7   3   5   10.60   10.60
   6  -3  -5  476.75   39.10
   6   3  -5  445.06   38.60
  -5   3   5    5.10    8.20
   5   3  -5   11.40    3.10
  -4   3   5  206.18   21.70
   4   3  -5  244.08   19.70
  -3   3   5    1.20    7.50
   3   3  -5    3.40    3.10
   2   3  -5   61.19    7.20
   2   3  -5   77.19   11.90
  -2   3   5   59.59    6.80
  -2   3   5   76.89   10.20
  -1   3   5   24.60    7.40
  -1   3   5   30.10    4.70
   0   3   5   34.40    7.80
   0   3  -5   31.80    5.50
   0   3   5   39.20    5.30
   1  -3   5   26.70    5.40
   2  -3   5   71.99    9.50
   2   3   5   87.69    9.10
   4  -3   5   33.90    7.60
   4   3   5   40.70    6.00
   5  -3   5   -4.60    7.30
   5   3   5    2.80    4.40
   6  -3   5   35.20    9.10
   6   3   5   43.70    6.70
   7  -3   5    6.00    9.50
   7   3   5    2.20    5.20
   8  -3   5   14.60   12.80
   8  -3   5   15.90   10.00
   9  -3   5   22.70   10.80
   9  -3   5   -0.20   14.00
   9   3   5   -0.10    7.20
  10  -3   5    5.20   17.80
  10  -3   5   27.50   13.00
  10   3   5   40.10    9.10
  11  -4  -5   11.40   10.60
  11   4  -5    0.60    9.20
  10  -4  -5   90.19   13.30
  10   4  -5   79.89   12.60
   9  -4  -5   22.30    8.30
   9   4  -5    9.40    7.10
   8  -4  -5  420.06   38.20
   8   4  -5  449.36   37.90
   7  -4  -5    9.10    6.60
   7   4  -5   10.50    6.20
  -7   4   5    2.40   12.10
   6   4  -5  302.47   26.60
   6   4  -5  289.77   25.40
  -5   4   5   17.40    9.50
   5   4  -5   36.20    5.80
  -4   4   5   55.89   11.50
   4   4  -5   70.69    8.10
  -3   4   5   36.80    9.30
   3   4  -5   34.30    6.10
  -2   4   5  204.98   18.60
  -2   4   5  190.28   20.80
   2   4  -5  223.38   18.80
   1   4  -5    9.80    8.70
  -1   4   5    3.90    9.20
  -1   4   5    2.20    4.40
   1   4  -5   10.30    4.70
   0   4   5  210.58   22.60
   0   4  -5  251.77   20.90
   0   4   5  222.78   20.10
  -1   4  -5    7.80    5.90
   1   4   5   34.20   10.00
   2   4   5   94.09   10.00
   4  -4   5   67.59   13.00
   4   4   5   85.19   10.10
   5   4   5   -2.60    6.30
   6  -4   5   -4.80   10.60
   6   4   5    3.40    7.00
  18   0  -6  258.17   25.80
  17   0  -6   -4.40    8.90
  17   0  -6    2.10    5.70
  16   0  -6  121.49   12.60
  15   0  -6   -4.00    5.50
  15   0  -6   -1.40    4.90
  14   0  -6 1301.07  106.99
  14   0  -6 1282.07  107.39
  13   0  -6   11.70    4.30
  12   0  -6 4996.50  422.76
  12   0  -6 5257.77  423.06
  11   0  -6    2.60    2.80
  11   0  -6    5.70    2.90
  10   0  -6  546.25   46.70
  10   0  -6  577.94   46.90
   9   0  -6   -1.00    2.30
   8   0  -6 1885.51  161.18
   8   0  -6 2017.40  161.18
   7   0  -6    0.20    1.70
   6   0  -6 4442.26  366.46
   5   0  -6    1.00    1.60
  -5   0   6    8.50    3.60
  -2   0   6 2232.88  184.28
  -1   0   6    1.90    2.10
   0   0   6 2480.95  204.68
   1   0   6   11.00    2.40
   2   0   6 2663.63  219.88
   3   0   6    2.00    2.30
   4   0   6  546.95   45.60
   5   0   6    7.50    3.40
   6   0   6 4503.75  371.66
   7   0   6   45.60    6.10
   8   0   6  673.63   56.39
   9   0   6    4.70    4.50
  10   0   6   74.99    9.30
  11   0   6    4.30    6.10
  12   0   6  162.88   16.30
  18  -1  -6   37.60   13.30
  17  -1  -6   74.09   13.20
  17   1  -6   44.10    9.60
  16  -1  -6   69.09   10.80
  16   1  -6   55.19    9.00
  15  -1  -6   40.50    8.40
  14  -1  -6  349.87   31.60
  14   1  -6  378.36   31.30
  13  -1  -6  296.97   23.10
  13   1  -6  231.48   23.20
  13   1  -6  256.57   22.50
  12  -1  -6 1276.77  113.09
  12   1  -6 1381.46  112.89
  12   1  -6 1429.36  113.09
  11  -1  -6  375.16   31.40
  11   1  -6  381.56   31.30
  11   1  -6  355.76   31.50
  10  -1  -6  798.02   68.29
  10   1  -6  885.21   68.19
  10   1  -6  779.42   68.39
   9  -1  -6   53.09    5.90
   9   1  -6   53.29    6.20
  -9   1   6   54.99    8.30
   9   1  -6   58.89    5.90
   8  -1  -6  206.98   18.00
   8   1  -6  208.98   17.70
   7  -1  -6  403.76   33.30
   7   1  -6  390.96   33.20
   6  -1  -6 3414.76  291.47
   6   1  -6 3353.46  291.47
  -6   1   6 3832.92  292.17
   5  -1  -6   20.90    3.10
   5   1  -6   25.60    3.10
  -4   1   6 1975.80  148.09
   4   1  -6 1595.64  147.39
  -3   1   6   94.19   10.40
   3   1  -6  122.79    9.60
  -2  -1   6 1035.50   94.69
  -2   1   6 1143.29   94.49
  -2   1   6 1264.77   95.09
   2   1  -6 1131.09   94.69
  -1  -1   6   40.30    4.60
   0  -1   6 3639.24  290.47
   0   1   6 3707.73  290.37
   0   1  -6 3446.36  291.57
   0   1   6 3299.67  290.77
   0   1  -6 3508.95  290.47
   1  -1   6  345.57   29.20
   1   1   6  348.37   29.00
   2  -1   6  153.28   13.90
   2  -1   6  162.48   14.20
   2   1   6  160.68   13.70
   3  -1   6   43.30    5.00
   3   1   6   34.80    4.70
   4  -1   6  726.73   60.79
   4   1   6  733.13   60.69
   5   1   6  185.38   16.30
   6  -1   6  411.86   36.80
   6   1   6  459.65   36.70
   7  -1   6  184.28   14.80
   7   1   6  140.79   14.30
   8  -1   6  273.57   26.60
   8  -1   6  320.27   25.80
   9  -1   6   25.50    8.90
   9  -1   6   19.30    5.70
  10  -1   6   64.39   12.70
  10  -1   6   48.80    8.20
  11  -1   6   61.69   13.60
  11  -1   6   47.10    8.90
  12  -1   6    6.80    8.10
  12  -1   6   26.10   16.70
  12   1   6   16.00    7.70
  17  -2  -6    2.30   12.40
  17   2  -6   -4.10    8.80
  16  -2  -6   97.19   14.70
  16   2  -6   96.99   12.20
  15  -2  -6   28.90   10.00
  15   2  -6   18.90    7.10
  14  -2  -6   65.79   11.70
  14   2  -6  101.99   10.70
  13  -2  -6   23.00    6.60
  13   2  -6   10.50    6.00
  12  -2  -6   20.40    5.60
  12   2  -6   17.90    5.70
  11  -2  -6   14.00    4.60
  11   2  -6    2.30    4.80
 -11   2   6    4.80   10.80
  10  -2  -6 1029.90   90.89
  10   2  -6 1206.18   91.39
  10   2  -6 1096.29   90.59
 -10   2   6 1042.40   92.19
   9  -2  -6   96.69    9.70
   9   2  -6  102.49    9.20
   9   2  -6   81.39   10.90
  -9   2   6  123.39   13.60
   8  -2  -6  380.46   32.10
  -8   2   6  378.66   33.60
   7  -2  -6    9.00    4.10
  -7   2   6    1.10    6.50
   7   2  -6    9.90    2.70
   6  -2  -6  695.13   55.49
   6   2  -6  659.33   55.39
  -6   2   6  642.94   56.49
   5   2  -6   38.60    5.10
  -5   2   6   40.30    7.90
  -4   2   6 1286.27   96.19
   4   2  -6 1015.10   95.19
   3   2  -6   26.90    4.40
   2   2  -6  705.33   61.89
  -2   2   6  802.62   62.79
  -2   2   6  726.83   61.69
  -1   2   6   38.80    7.40
  -1   2   6   49.70    4.90
   1   2  -6   45.10    5.30
   0   2  -6  453.25   46.80
   0   2   6  554.94   46.00
   0   2   6  621.24   45.00
   0   2  -6  524.95   45.10
   1  -2   6   -4.60    3.50
   1  -2   6    2.00    3.80
   1   2   6    0.40    2.60
   2  -2   6  383.86   32.20
   2  -2   6  361.86   32.20
   2   2   6  387.46   31.80
   3  -2   6  101.49    9.50
   3  -2   6   79.99    9.70
   3   2   6   76.69    8.70
   4  -2   6  558.04   47.10
   5  -2   6    8.70    5.80
   5  -2   6    8.10    5.60
   6  -2   6   14.10    7.20
   6  -2   6   12.20    5.60
   6   2   6   23.00    4.50
   7  -2   6   10.50    7.90
   7  -2   6   -7.80    5.70
   7   2   6    1.90    4.10
   8  -2   6   14.30   10.90
   8  -2   6   13.60    6.70
   9  -2   6   23.90    7.40
   9  -2   6   17.30   13.50
  10  -2   6   61.39   11.80
  10  -2   6   77.19   17.10
  10   2   6   86.49   10.10
  11  -2   6   24.80    9.90
  11  -2   6   23.10   19.20
  15   3  -6   32.40   10.50
  14  -3  -6   32.70   11.80
  14   3  -6   39.90    9.90
  13  -3  -6   11.20    9.50
  13   3  -6    3.90    8.00
  12  -3  -6   69.99   11.80
  12   3  -6   96.89   11.50
  11  -3  -6   31.60    7.80
  11   3  -6   13.20    5.90
  10  -3  -6   55.99    9.50
  10   3  -6   62.59    8.40
   9  -3  -6  232.28   20.10
   9   3  -6  205.48   19.80
   8  -3  -6  260.47   22.40
  -8   3   6  228.48   25.00
   8   3  -6  258.37   22.40
  -7   3   6   14.70    9.60
   6   3  -6  234.78   20.20
  -5   3   6  186.78   21.10
   5   3  -6  248.78   19.20
   4   3  -6  592.84   51.49
  -4   3   6  637.64   52.79
   3   3  -6  591.54   52.59
  -3   3   6  666.13   53.89
   2   3  -6  595.14   50.89
  -2   3   6  620.14   50.59
  -2   3   6  606.94   52.09
   1   3  -6  205.18   19.90
  -1   3   6  223.38   21.30
  -1   3   6  253.87   19.70
   0   3   6  172.88   16.50
   0   3  -6  161.48   15.00
   1   3   6   31.50    6.60
   2  -3   6  302.57   27.80
   2   3   6  328.97   27.20
   3  -3   6  162.58   15.10
   3   3   6  133.09   13.40
   4  -3   6   33.40    8.70
   4   3   6   54.99    6.70
   5  -3   6   16.70    8.70
   5   3   6   10.70    4.80
   6  -3   6   40.10   10.80
   6   3   6   34.30    6.30
   7  -3   6   10.80   11.90
   7   3   6    2.70    5.80
   8  -3   6   20.00   11.00
   8  -3   6   20.40   15.20
   8   3   6   27.10    6.90
   9  -3   6   62.79   13.40
   9  -3   6   52.69   17.30
  11  -4  -6   21.50   10.30
  11   4  -6   13.70    9.50
  10  -4  -6   52.29   10.80
  10   4  -6   44.00    9.50
   9  -4  -6   84.79   13.50
   9   4  -6  102.89   12.40
   8  -4  -6   48.60    8.80
   8   4  -6   28.00    5.90
   8   4  -6   26.50    7.70
  -8   4   6   20.70   13.50
   7   4  -6  142.49   13.50
   7   4  -6  148.49   15.50
  -6   4   6   23.80   11.20
   5   4  -6  168.68   15.40
   4   4  -6   86.49   10.10
  -4   4   6  107.49   13.50
  -3   4   6 1107.99   92.59
   3   4  -6 1077.29   91.09
   2   4  -6   70.49    8.70
  -2   4   6   78.59    9.40
  -2   4   6   75.39   12.40
   1   4  -6  137.59   14.30
  -1   4   6  152.78   13.90
  -1   4   6  144.69   17.00
   0   4  -6   53.89    8.30
   0   4   6   61.79    7.70
   0   4   6   53.69   12.10
   1   4   6   81.29   13.20
  -1   4  -6   75.29   10.10
   2   4   6   30.10   11.20
  -2   4  -6   29.40    7.70
   2   4   6   38.20    6.60
   3   4   6   68.49    9.10
   4  -4   6   15.70   10.40
   4   4   6   16.60    6.30
   5  -4   6   10.90   12.10
   5   4   6    1.30    6.90
  18   0  -7   10.00   11.10
  17   0  -7   -7.30    5.80
  17   0  -7   -0.70    8.10
  16   0  -7   16.40    7.10
  16   0  -7   19.80    6.20
  15   0  -7   -1.50    5.40
  15   0  -7    6.80    4.80
  14   0  -7   45.50    6.60
  13   0  -7   12.70    4.10
  12   0  -7   79.39    7.90
  12   0  -7   76.59    7.90
  11   0  -7    0.00    2.50
  10   0  -7    3.40    2.20
   9   0  -7    1.40    2.40
   8   0  -7    2.40    2.20
   7   0  -7    0.20    1.90
  -6   0   7    9.30    4.10
   6   0  -7    3.70    1.90
  -5   0   7    0.70    3.60
   5   0  -7    0.00    1.60
   4   0  -7   -0.60    1.60
  -4   0   7   -2.40    3.50
  -4   0   7   -0.50    2.60
  -2   0   7    6.20    2.50
   0   0   7    5.60    2.40
   1   0   7    1.90    2.30
   2   0   7    0.50    2.50
   3   0   7    2.60    3.00
   4   0   7   -1.30    3.80
   5   0   7  137.79   12.80
   6   0   7   48.90    6.30
   7   0   7   62.29    7.40
   8   0   7   -0.90    4.40
   9   0   7   83.59   10.00
  10   0   7    6.00    5.90
  11   0   7   58.99    9.10
  18  -1  -7   32.20   12.20
  18   1  -7   28.40    9.20
  17  -1  -7   10.20   10.50
  17   1  -7    0.60    8.00
  17   1  -7   17.10    7.60
  16  -1  -7  101.89   13.70
  16   1  -7  140.19   12.90
  16   1  -7  111.09   12.70
  15  -1  -7   16.20    6.70
  15   1  -7   12.50    6.00
  15   1  -7   17.50    5.50
  14  -1  -7  424.16   42.50
  14   1  -7  560.74   42.30
  14   1  -7  516.55   42.60
  13   1  -7   43.70    5.80
  12  -1  -7  517.75   43.20
  12   1  -7  524.35   43.40
  12   1  -7  497.15   43.00
  11  -1  -7   77.49    7.20
  11   1  -7   52.89    7.60
  11   1  -7   64.49    6.70
  10  -1  -7  425.16   37.20
  10   1  -7  445.76   37.40
  10   1  -7  458.65   37.10
   9  -1  -7    1.30    2.50
  -9   1   7    0.30    5.80
   9   1  -7    2.10    2.20
   8  -1  -7  261.07   21.70
   8   1  -7  246.68   21.50
   7  -1  -7   -1.10    2.20
   7   1  -7    0.10    2.00
  -7   1   7    2.80    5.20
   6  -1  -7  654.93   54.09
   6   1  -7  648.54   54.09
   5  -1  -7   68.59    6.70
   5   1  -7   72.29    6.90
  -5   1   7   80.79    8.50
  -4   1   7  145.59   12.90
   4   1  -7  121.49   11.60
  -3   1   7   14.50    4.10
   3   1  -7    9.50    2.40
  -2  -1   7  698.83   60.49
   2   1  -7  719.93   60.49
  -2   1   7  693.03   60.19
  -2   1   7  801.02   60.99
  -1  -1   7   49.99    6.10
  -1   1   7   70.69    5.70
   1   1  -7   55.89    6.20
  -1   1   7   60.89    7.20
   0  -1   7    0.80    2.60
   0   1   7   -3.80    3.80
   0   1   7    2.90    2.20
   0   1  -7   -1.00    4.00
   0   1  -7    6.10    2.50
   1  -1   7   19.80    3.90
   2  -1   7   95.69    9.60
   2   1   7  101.69   10.50
   2   1   7  107.39    9.30
   3  -1   7   23.00    5.00
   3   1   7   34.80    4.60
   4  -1   7  434.16   40.20
   4   1   7  521.85   40.20
   5  -1   7   29.50    5.00
   6  -1   7  217.38   19.30
   6  -1   7  219.88   20.40
   7  -1   7   34.30    6.40
   7   1   7   40.30    5.90
   8  -1   7   43.40    7.20
   8  -1   7   41.50    9.90
   8   1   7   38.50    6.90
   9  -1   7   19.70    6.70
   9   1   7   26.80    6.80
  10  -1   7   49.80    9.00
  10  -1   7   60.89   14.50
  11  -1   7   52.89   10.10
  11  -1   7   47.00   16.50
  11   1   7   39.80    9.00
  17  -2  -7   13.30   11.40
  17   2  -7   -5.50    8.70
  16  -2  -7  239.28   25.30
  16   2  -7  273.87   24.00
  15  -2  -7   -1.40    9.00
  15   2  -7    1.60    7.10
  14  -2  -7   21.10    7.90
  14   2  -7   26.40    7.20
  13  -2  -7   -4.60    5.60
  13   2  -7   -4.10    6.10
  13   2  -7    0.10    3.70
  12  -2  -7   -0.80    4.70
  12   2  -7    3.80    3.30
  12   2  -7    2.20    5.30
  11   2  -7   33.90    4.80
  11   2  -7   39.40    7.00
 -11   2   7   19.20    9.70
  10  -2  -7  151.38   14.80
  10   2  -7  153.28   15.50
 -10   2   7  196.98   18.80
  10   2  -7  158.88   14.20
  -9   2   7   54.89   12.50
   9   2  -7   53.99    5.80
   8  -2  -7  109.29   10.80
   8   2  -7  119.89   10.30
  -8   2   7  106.09   14.50
   7  -2  -7    8.00    4.10
  -7   2   7   -1.20    6.40
   7   2  -7    4.30    2.30
   6   2  -7   11.20    2.70
  -6   2   7   16.80    7.30
   5   2  -7    4.40    2.40
  -5   2   7   -4.70    6.10
   4   2  -7  807.32   72.99
  -4   2   7  953.10   74.09
   3   2  -7   84.69    9.00
  -3   2   7  114.89   10.90
  -2   2   7   60.09    6.40
  -2   2   7   61.99    9.00
   2   2  -7   80.39    6.90
   1   2  -7    1.20    2.50
  -1   2   7   -0.40    5.60
   1   2  -7   -1.80    4.10
   0   2  -7   96.59   12.20
   0   2   7  100.79    8.80
   0   2   7  102.69   11.30
   0   2  -7   81.19    8.80
   1  -2   7    9.60    5.00
   1   2   7   -6.40    6.60
   1   2   7    8.50    3.20
   2  -2   7  683.63   58.59
   2   2   7  712.73   58.19
   3  -2   7   -0.90    4.90
   3   2   7   13.70    4.10
   4  -2   7  489.45   43.30
   4   2   7  523.95   42.70
   5  -2   7   -6.30    7.60
   5  -2   7    0.10    5.10
   5   2   7    6.90    3.60
   6  -2   7    6.80    8.40
   6  -2   7    4.90    5.80
   7  -2   7   -7.30    6.20
   7   2   7    0.80    4.70
   8  -2   7    7.40    7.60
   8  -2   7    9.90   11.90
   9  -2   7    4.10   14.70
   9  -2   7   13.40    8.60
   9   2   7   20.70    6.50
  10  -2   7   19.70   10.30
  10  -2   7    9.50   17.80
  10   2   7   33.60    8.20
  15  -3  -7    3.60   12.40
  15   3  -7    5.60   10.20
  14  -3  -7   37.50   12.50
  14   3  -7   58.89   11.00
  13  -3  -7    5.80    9.30
  13   3  -7   -9.20    7.60
  12  -3  -7   79.39   12.10
  12   3  -7   93.39   11.80
  11  -3  -7    7.10    6.70
 -11   3   7   -6.10   11.50
  11   3  -7    2.00    5.40
  10  -3  -7   45.40    8.90
  10   3  -7   60.39    8.40
   9   3  -7    5.50    3.00
  -9   3   7   12.00   10.70
   9   3  -7    5.40    5.40
  -8   3   7   26.70    9.80
   8   3  -7   29.20    4.90
  -7   3   7   17.70   10.20
   7   3  -7   33.30    4.90
  -6   3   7   26.90    9.70
   6   3  -7   42.90    5.50
   5   3  -7    7.30    3.20
  -5   3   7   12.80    7.20
  -4   3   7   83.29   11.40
   4   3  -7   84.59    8.60
   3   3  -7    6.50    3.40
  -3   3   7   10.80    6.50
   2   3  -7   81.59    8.30
  -2   3   7   76.09   10.40
  -2   3   7   75.49    7.90
   1   3  -7    1.60    3.40
   1   3  -7    3.60    6.00
  -1   3   7    1.00    6.80
  -1   3   7    3.20    3.80
   0   3   7  526.55   44.50
   0   3  -7  560.64   44.80
   0   3   7  500.85   45.70
  -1   3  -7    0.40    8.20
   1   3   7    8.90    4.50
  -1   3  -7    0.30    4.00
   1   3   7    2.90    7.20
   2   3   7  270.87   23.00
   2   3   7  261.17   24.70
   3  -3   7   11.40    7.70
   3   3   7    8.50    4.30
   4  -3   7   -8.10    8.50
   4   3   7    8.10    5.00
   5  -3   7    1.70    9.60
   5   3   7   -2.30    5.00
   6  -3   7   26.70   12.60
   6   3   7   22.30    6.20
   7  -3   7   -5.40   13.80
   7  -3   7  -16.50   10.30
   7   3   7   -1.30    6.20
   8  -3   7   23.90   15.60
   8  -3   7    9.70   11.80
  11  -4  -7  -10.90    9.70
 -11   4   7   -3.10   18.80
  11   4  -7   12.70    8.90
  10  -4  -7    9.90    9.90
 -10   4   7    6.20   17.60
  10   4  -7   10.40    7.70
   9   4  -7    3.20    4.40
  -9   4   7    8.60   15.80
   9   4  -7   15.50    7.50
   8   4  -7  123.29   11.70
   8   4  -7  108.89   13.90
  -7   4   7   23.60   13.40
   7   4  -7   10.70    4.50
   5   4  -7    6.60    4.50
  -5   4   7    1.50   10.30
  -4   4   7  100.19   14.80
   4   4  -7  108.29   11.20
   3   4  -7   20.30    5.20
  -3   4   7    8.20    9.80
  -2   4   7   84.29   14.00
  -2   4   7   85.79   11.00
   2   4  -7  102.89   10.40
   1   4  -7   22.40    5.80
  -1   4   7   18.10    5.90
  -1   4   7   12.80   10.30
   0   4   7  166.08   19.70
   0   4  -7  188.08   17.20
   0   4   7  169.28   16.20
   1   4   7   12.50    5.70
  -1   4  -7    8.40    6.30
   1   4   7   15.30   10.70
   2   4   7  194.78   22.00
   2   4   7  193.28   18.70
  -2   4  -7  226.08   19.90
  -3   4  -7   -8.90   15.70
  -3   4  -7   -9.30    7.30
   3   4   7    3.40    6.00
   3   4   7    0.90   11.20
   4   4   7    9.10   11.90
  18   0  -8   70.49   13.00
  17   0  -8   -2.40    8.00
  16   0  -8  209.88   19.60
  15   0  -8    9.20    5.50
  14   0  -8 1724.43  142.99
  13   0  -8    6.30    3.80
  12   0  -8 1445.86  119.79
  11   0  -8    1.50    2.50
  10   0  -8  591.74   49.40
   9   0  -8    1.10    2.30
   8   0  -8 1452.05  120.09
   7   0  -8    2.80    2.30
  -6   0   8 3171.78  235.28
   6   0  -8 2513.35  234.48
   5   0  -8    3.90    1.90
  -5   0   8    2.30    3.80
  -4   0   8 1222.58  110.99
  -4   0   8 1473.35  111.69
   4   0  -8 1334.47  110.99
  -3   0   8   -5.20    4.10
  -3   0   8   -1.10    2.60
  -2   0   8 2493.55  205.88
  -1   0   8   -1.60    2.40
   0   0   8  472.65   39.50
   2   0   8  280.87   23.90
   3   0   8    1.40    3.80
   4   0   8  375.06   31.80
   5   0   8   -0.20    3.70
   6   0   8  493.45   41.60
   7   0   8    1.80    4.30
   8   0   8  135.89   13.60
   9   0   8   15.20    6.80
  10   0   8   57.29    9.90
  18  -1  -8  107.59   15.20
  18   1  -8  102.79   14.50
  18   1  -8   70.89   12.30
  17  -1  -8   33.10   10.60
  17   1  -8   28.40    8.20
  17   1  -8   12.80    7.60
  16  -1  -8  340.87   30.80
  16   1  -8  333.07   30.20
  16   1  -8  366.46   30.40
  15   1  -8   44.90    8.40
  15   1  -8   54.89    7.60
  14  -1  -8  706.03   59.59
  14   1  -8  705.73   59.19
  14   1  -8  712.63   59.69
  13  -1  -8  463.35   36.60
  13   1  -8  407.96   36.30
  13   1  -8  418.06   37.00
  12  -1  -8  490.85   40.20
  12   1  -8  490.95   40.10
  12   1  -8  447.56   40.40
  11  -1  -8  107.39    9.30
  11   1  -8   89.79    9.90
  11   1  -8   89.79    8.90
  10  -1  -8  642.04   54.19
  10   1  -8  616.84   54.39
  10   1  -8  689.43   54.09
   9  -1  -8  106.19    9.90
   9   1  -8   99.19    9.60
  -9   1   8  123.99   12.30
   8  -1  -8  501.15   44.40
   8   1  -8  560.34   44.40
  -8   1   8  533.95   45.50
   7  -1  -8  149.39   13.10
   7   1  -8  149.29   13.00
   6  -1  -8  165.38   14.40
   6   1  -8  169.18   14.60
  -5   1   8   63.09    8.20
   5   1  -8   58.99    6.10
   4   1  -8 1371.66  114.39
  -4   1   8 1393.06  115.09
  -3   1   8   58.39    5.60
   3   1  -8   55.79    5.90
  -3   1   8   58.39    7.60
  -2  -1   8  207.88   18.20
  -2   1   8  213.28   18.80
  -2   1   8  215.38   17.90
   2   1  -8  207.98   18.10
  -1  -1   8  116.29   10.30
   1   1  -8   91.99   10.10
  -1   1   8  123.59    9.90
   0  -1   8  399.86   31.30
   0   1   8  395.56   31.10
   0   1   8  353.16   31.60
   0   1  -8  333.47   31.20
   1   1   8   25.40    6.10
  -1   1  -8   31.50    5.00
   2  -1   8  204.28   18.00
   2   1   8  200.38   17.60
   3  -1   8   36.70    5.90
   3   1   8   44.10    6.10
   5   1   8  157.08   14.40
   6   1   8  185.58   16.70
   7  -1   8   25.00    5.30
   7  -1   8    9.50    9.30
   7   1   8   15.00    5.30
   8  -1   8   37.40    7.20
   8  -1   8   41.30   11.00
   8   1   8   47.30    8.20
   9  -1   8   14.30    6.50
   9  -1   8   44.90   12.80
   9   1   8    1.40    6.80
  10  -1   8   84.89   12.80
  10  -1   8  100.89   17.90
  10   1   8  110.79   12.90
  17   2  -8   76.69   12.40
  16  -2  -8  207.88   21.90
  16   2  -8  213.98   20.80
  15  -2  -8   29.20    9.20
  15   2  -8    4.30    7.90
  15   2  -8   12.80    5.60
  14  -2  -8  103.69   13.00
  14   2  -8  117.79   11.50
  14   2  -8  125.99   13.30
  13  -2  -8   70.39    9.10
  13   2  -8   65.49    9.70
  13   2  -8   60.29    7.50
  12  -2  -8  199.78   18.20
  12   2  -8  212.38   18.40
  12   2  -8  187.18   17.40
  11  -2  -8   80.59    8.50
  11   2  -8   73.89    9.20
 -11   2   8   59.39   12.30
  11   2  -8   69.89    7.30
  10  -2  -8  251.67   22.00
  10   2  -8  262.27   22.80
  10   2  -8  245.68   21.60
   9  -2  -8  194.98   16.60
   9   2  -8  183.28   16.20
  -9   2   8  180.48   19.50
   8  -2  -8  714.43   55.59
  -8   2   8  577.54   57.19
   8   2  -8  699.93   55.39
  -7   2   8   62.29   11.50
   7   2  -8   64.79    6.40
  -6   2   8  241.78   23.30
   6   2  -8  236.58   20.40
  -5   2   8  283.67   27.60
   5   2  -8  316.27   25.50
   4   2  -8  165.48   14.50
  -3   2   8  281.57   24.10
   3   2  -8  248.28   22.50
  -2   2   8  519.85   42.10
  -2   2   8  531.15   43.60
   2   2  -8  465.55   42.30
   1   2  -8   28.70    4.40
   0   2   8   97.49   12.90
   0   2  -8  108.19   10.20
   0   2  -8  122.19   13.70
   2  -2   8  482.25   47.80
   2   2   8  641.04   47.70
   2   2   8  582.24   48.90
   3  -2   8   47.30    7.20
   3   2   8   50.79    6.50
   4  -2   8  410.16   36.00
   4   2   8  415.96   35.10
   5  -2   8   28.90    8.90
   5  -2   8   48.50    7.80
   5   2   8   37.40    6.50
   6  -2   8    6.30   10.00
   6   2   8    8.60    4.80
   7  -2   8   21.70    7.90
   7  -2   8   11.00   11.80
   7   2   8   11.40    5.90
   8  -2   8   70.09   15.20
   8  -2   8   52.69   10.90
   8   2   8   71.89    9.60
   9  -2   8   72.09   12.70
   9  -2   8  110.79   18.50
   9   2   8   61.19   11.00
  15  -3  -8   20.90   12.00
  15   3  -8   15.30   10.40
  14  -3  -8   37.10   10.70
  14   3  -8   25.10    9.60
  13  -3  -8   31.30    9.10
  13   3  -8   23.70    8.00
  12  -3  -8   41.40    8.10
 -12   3   8   27.20   13.40
  12   3  -8   48.30    9.30
  11  -3  -8   29.10    6.90
 -11   3   8   15.30   13.20
  11   3  -8   13.70    6.40
  10  -3  -8  282.57   25.00
  10   3  -8  278.57   25.10
   9  -3  -8   81.59    9.50
   9   3  -8   72.79    7.90
  -9   3   8   77.89   15.20
   8   3  -8  334.07   28.40
  -7   3   8   13.70   10.30
   7   3  -8   22.00    4.00
   6   3  -8  308.87   23.90
  -6   3   8  239.88   26.30
   5   3  -8  317.97   27.20
  -4   3   8  986.60   79.19
   4   3  -8  882.51   77.79
   3   3  -8  274.67   24.40
  -3   3   8  291.47   25.90
   2   3  -8  222.08   21.00
  -2   3   8  248.88   20.70
  -2   3   8  252.87   22.70
   1   3  -8    6.00    6.90
  -1   3   8   -2.30    6.70
   1   3  -8    2.50    3.80
   0   3   8  563.94   49.80
   0   3  -8  577.64   48.60
   0   3   8  585.64   48.50
  -1   3  -8   15.80    4.50
   1   3   8   26.40    8.40
   2   3   8  443.96   41.30
  -2   3  -8  491.45   40.10
   2   3   8  471.85   39.70
   3   3   8  -11.60    8.40
   3   3   8    6.60    4.70
   4   3   8   13.90    5.10
   5  -3   8   -4.70   11.50
   5   3   8   14.50    5.30
   6  -3   8    3.20   13.00
   6   3   8   27.80    6.40
   7  -3   8   14.10   11.60
   7  -3   8   12.00   15.30
   7   3   8    3.70    6.70
  11  -4  -8   74.29   12.20
  11   4  -8   48.00    8.80
  11   4  -8   62.09   12.60
 -10   4   8   44.00   18.90
  10   4  -8   57.79    8.30
  -9   4   8   49.10   17.10
   9   4  -8   61.49   11.30
   9   4  -8   62.29    8.20
   8   4  -8   60.19    8.20
  -7   4   8   13.20   14.00
  -6   4   8   33.70   12.90
   6   4  -8   32.80    5.80
  -4   4   8  105.39   15.50
   4   4  -8  105.89   11.40
  -3   4   8  162.68   18.80
   3   4  -8  169.68   16.10
  -2   4   8   22.60   11.30
   2   4  -8   18.20    5.70
   1   4  -8   10.10    5.70
  -1   4   8   22.80   10.30
   0   4   8   63.79    8.60
   0   4  -8   45.60    9.80
   0   4   8   79.49   13.50
  -1   4  -8   10.20    6.40
   1   4   8    8.50   11.40
  -1   4  -8   -0.50   13.00
   2   4   8   88.59   10.80
  -2   4  -8   99.29   11.70
   2   4   8   71.89   15.10
  -3   4  -8    0.70   15.40
   3   4   8   10.00   12.80
  -3   4  -8   11.50    7.90
  -4   4  -8    2.40   19.60
  18   0  -9   -5.70    9.50
  17   0  -9   -7.40    8.10
  16   0  -9   21.30    6.80
  15   0  -9    2.70    5.40
  14   0  -9   33.70    6.50
  13   0  -9    5.80    3.70
  12   0  -9    1.50    3.10
  11   0  -9   -3.50    2.70
  10   0  -9    1.90    2.50
   9   0  -9    1.20    2.30
   8   0  -9    2.50    2.20
   7   0  -9    1.80    2.70
   6   0  -9    0.20    2.30
  -6   0   9    5.80    5.10
  -5   0   9   -3.60    3.20
   5   0  -9    1.00    2.00
  -5   0   9    0.80    4.20
  -4   0   9    4.70    5.00
  -4   0   9   -0.50    3.00
   4   0  -9    3.90    2.00
  -3   0   9   -2.60    2.90
  -2   0   9   -3.70    3.10
  -1   0   9    8.60    3.20
   0   0   9   -2.90    3.40
   1   0   9   14.00    3.90
   2   0   9   -3.40    4.00
   3   0   9   21.50    4.70
   4   0   9   -6.90    3.70
   5   0   9   29.60    6.00
   6   0   9    4.90    4.80
   7   0   9   56.69    8.40
   8   0   9    1.00    5.90
   9   0   9   50.19    9.40
  10   0   9    3.90    8.80
  18  -1  -9   28.90   12.00
  18   1  -9   48.60   10.40
  18   1  -9   23.00    8.90
  17  -1  -9    5.00    9.70
  17   1  -9    2.70    7.60
  17   1  -9   -1.90    8.00
  16  -1  -9  149.88   15.90
  16   1  -9  141.09   15.10
  16   1  -9  155.88   14.90
  15  -1  -9   15.40    6.50
  15   1  -9   -3.00    6.80
  15   1  -9    7.30    5.10
  14  -1  -9   92.89   10.30
  14   1  -9   78.59   12.10
  14   1  -9   92.99    9.60
  13  -1  -9   12.20    4.40
  13   1  -9   -2.90    6.80
  13   1  -9    6.40    3.90
  12  -1  -9   26.20    5.20
  12   1  -9   26.10    4.70
  12   1  -9   19.50    5.70
  11  -1  -9    5.80    3.40
  11   1  -9    2.90    2.80
  10  -1  -9   41.30    5.60
 -10   1   9   53.19    9.70
  10   1  -9   43.20    5.00
   9  -1  -9    2.00    2.80
   9   1  -9    1.10    2.10
  -9   1   9    3.50    6.40
   8  -1  -9  183.28   16.60
   8   1  -9  180.68   16.30
  -8   1   9  211.58   18.70
   7  -1  -9    5.10    3.00
  -7   1   9    3.10    6.30
   7   1  -9    6.50    2.10
  -6   1   9   91.79   11.20
   6   1  -9   89.99    8.30
  -5   1   9   51.19    8.30
   5   1  -9   50.49    5.50
  -4   1   9  608.74   55.79
  -4   1   9  683.13   54.89
   4   1  -9  689.23   54.99
  -3  -1   9    6.70    3.60
  -3   1   9   10.50    5.80
  -3   1   9    8.50    2.90
   3   1  -9    8.00    3.20
  -2  -1   9   97.19    9.50
   2   1  -9  105.59    9.40
  -2   1   9   96.89    9.00
  -2   1   9   90.79   10.20
  -1  -1   9   10.80    4.00
   1   1  -9    2.60    3.20
  -1   1   9    3.90    2.90
   0  -1   9   15.10    4.50
   0   1  -9   26.00    5.40
   0   1   9   26.50    5.90
   0   1   9   25.60    4.10
   1  -1   9   -6.80    4.10
  -1   1  -9    4.00    3.90
  -1   1  -9   -5.30    6.50
   1   1   9   -2.40    3.30
   2  -1   9   32.50    5.60
   2   1   9   40.10    6.00
  -2   1  -9   33.90    8.80
   3  -1   9   -2.30    3.90
  -3   1  -9    5.70    8.20
   4  -1   9   82.79    8.80
   6  -1   9   23.90    5.80
   7  -1   9    8.00    6.00
   7   1   9   20.80    6.80
   8  -1   9   28.50    8.00
   9  -1   9   51.39    9.80
   9  -1   9   10.10   16.30
   9   1   9   49.30    9.70
  17  -2  -9   32.60   12.20
  17   2  -9   26.50    9.70
  17   2  -9    9.00   10.00
  16  -2  -9  252.27   28.10
  16   2  -9  348.87   28.10
  15  -2  -9    0.50    8.20
  15   2  -9    3.20    8.60
  14  -2  -9   52.39    8.60
  14   2  -9   38.80    8.80
  13  -2  -9    8.70    6.00
  13   2  -9    0.40    3.90
  13   2  -9    3.20    6.20
  12  -2  -9  137.39   14.00
 -12   2   9  125.09   17.20
  12   2  -9  163.78   13.10
  12   2  -9  137.09   14.40
  11  -2  -9   17.20    4.90
 -11   2   9    7.20    8.90
  11   2  -9   15.00    6.30
  10  -2  -9  374.26   31.90
 -10   2   9  372.46   34.00
  10   2  -9  373.26   31.50
   9  -2  -9    0.50    3.80
  -9   2   9   -6.00    8.10
   9   2  -9    1.70    2.50
   8  -2  -9  315.57   26.00
  -8   2   9  258.37   28.00
   8   2  -9  328.17   25.70
  -6   2   9  156.48   16.40
   6   2  -9  150.98   13.50
   5   2  -9    7.00    2.50
  -5   2   9    3.00    7.80
   4   2  -9   70.59    7.00
  -3   2   9   16.00    6.80
   3   2  -9   10.70    2.80
  -2   2   9  749.82   63.19
  -2   2   9  775.62   64.39
   2   2  -9  758.32   63.49
  -1   2   9   10.40    6.40
   1   2  -9    8.80    3.20
   0  -2   9   -5.10    4.40
   0   2   9   -9.40    6.80
   0   2  -9   -1.30    5.50
   0   2   9    5.60    3.80
   1  -2   9   15.90    5.10
   2   2   9  328.67   28.20
  -2   2  -9  310.07   26.60
   2   2   9  290.17   26.60
  -3   2  -9   38.40    6.70
   3   2   9   42.30    9.70
   4   2   9   87.39   10.40
   4   2   9  117.39   13.70
   5  -2   9   -3.10    6.60
   5   2   9    2.30    5.10
   5   2   9    1.70   10.90
   6  -2   9   34.70   12.80
   6  -2   9   31.60    8.70
   6   2   9   49.80    8.00
   7  -2   9   14.30   14.80
   7  -2   9   10.10    8.70
   8  -2   9  115.69   20.80
   8   2   9  119.89   14.20
  15  -3  -9   -6.30   11.20
  14  -3  -9   99.69   13.30
  14   3  -9   69.99   13.30
  13  -3  -9    7.00    8.80
  13   3  -9    7.60    7.60
 -13   3   9   -2.30   15.00
  12   3  -9  149.88   14.00
  12   3  -9  153.08   15.90
  11  -3  -9   11.10    6.80
  11   3  -9    7.00    3.70
  11   3  -9   17.90    7.10
 -11   3   9   19.00   13.50
  10  -3  -9  104.99   11.60
  10   3  -9   97.69    9.90
   9   3  -9    9.00    3.50
  -9   3   9    8.30   12.30
   8   3  -9  126.19   11.30
  -8   3   9  104.89   16.50
   7   3  -9   12.70    3.60
  -7   3   9   18.60   10.70
   6   3  -9  329.67   28.20
  -5   3   9    3.20    7.90
   5   3  -9    1.10    3.60
  -4   3   9   42.90    9.30
   4   3  -9   42.20    6.20
  -3   3   9   26.80    7.70
   3   3  -9   18.80    4.50
  -2   3   9  271.97   26.10
  -2   3   9  277.67   24.20
   2   3  -9  302.87   24.80
  -1   3   9    7.10    7.80
   1   3  -9    4.20    4.00
  -1   3   9   13.40    4.50
   0   3   9  317.17   29.50
   0   3  -9  353.46   28.00
   0   3   9  292.87   27.40
  -1   3  -9    5.90    4.60
   1   3   9    4.90    4.00
   1   3   9   12.10    8.60
  -1   3  -9    1.30    9.50
   2   3   9  287.17   25.60
   2   3   9  306.87   28.10
  -3   3  -9   -9.00   12.70
  -3   3  -9    4.50    5.60
   3   3   9   -0.20    9.80
   3   3   9    3.30    4.70
  -4   3  -9   15.00    7.20
   4   3   9   14.00    5.50
   4   3   9   26.90   10.90
   5   3   9   11.50   12.20
   5   3   9   -5.00    6.00
   6   3   9   83.49   16.80
   6   3   9   80.79   11.00
  10   4  -9   66.59    9.40
  -9   4   9   29.50   17.70
   9   4  -9   17.70    5.50
   8   4  -9  104.79   11.40
  -7   4   9    6.90   15.00
   7   4  -9    9.30    5.00
   6   4  -9  148.69   14.50
  -5   4   9   -3.70   11.60
   5   4  -9   13.30    5.50
  -4   4   9   89.79   15.00
   4   4  -9   86.59   10.80
   3   4  -9   14.90    6.30
  -3   4   9   12.20   10.70
  -2   4   9  218.78   23.30
   2   4  -9  225.98   20.70
  -1   4   9    6.40    6.40
   1   4  -9    9.10    5.90
  -1   4   9   14.20   11.70
   0   4   9 1107.99   93.39
   0   4   9 1133.59   95.89
   1   4   9   18.20   12.40
   1   4   9    7.20    6.50
  -1   4  -9    8.60    6.70
  -1   4  -9    7.30   13.60
  -2   4  -9   56.79   16.90
   2   4   9   73.39   10.30
  18   0 -10   64.79   12.20
  17   0 -10   13.30    8.50
  16   0 -10   14.60    6.80
  15   0 -10    2.60    5.40
  14   0 -10  350.46   30.20
  13   0 -10    1.20    3.70
  12   0 -10  473.25   39.90
  11   0 -10    1.90    3.00
  10   0 -10  345.87   29.20
   9   0 -10    1.90    2.50
   8   0 -10  756.02   62.79
  -7   0  10    3.40    6.00
   7   0 -10    1.10    2.50
   6   0 -10 1038.30   82.79
  -6   0  10  959.20   83.69
  -5   0  10    8.80    5.90
   5   0 -10    2.10    2.40
  -5   0  10    5.00    4.00
  -4   0  10  390.36   32.90
  -3   0  10   54.29    6.50
  -2   0  10  222.98   19.30
  -1   0  10   27.10    5.00
   0   0  10  260.17   22.50
   2   0  10   54.59    6.90
   4   0  10  107.59   11.00
   5   0  10   10.10    5.50
   6   0  10  233.18   21.30
   7   0  10    1.70    7.20
   8   0  10   64.29   10.70
   9   0  10   17.50    9.50
  18  -1 -10  138.29   17.00
  18   1 -10  112.79   14.60
  18   1 -10  130.09   15.60
  17   1 -10   51.39   10.50
  16  -1 -10   57.69   10.40
  16   1 -10   49.50    8.40
  16   1 -10   32.20    8.70
  15  -1 -10   48.90    8.80
  15   1 -10   35.10    8.60
  15   1 -10   46.40    7.40
  14  -1 -10  293.27   23.90
  14   1 -10  249.97   23.40
  14   1 -10  263.27   24.90
  13  -1 -10   95.29   10.70
  13   1 -10  111.99   10.30
  12  -1 -10  255.57   21.80
  12   1 -10  239.18   22.40
  12   1 -10  249.18   21.50
  11  -1 -10  134.69   13.00
  11   1 -10  145.19   12.60
  10  -1 -10  546.45   44.20
  10   1 -10  562.84   44.10
 -10   1  10  468.55   45.50
   9  -1 -10   23.30    3.90
  -9   1  10   28.10    7.60
   9   1 -10   17.40    3.50
   8  -1 -10  613.54   48.60
  -8   1  10  575.64   50.39
   8   1 -10  554.94   48.40
   7  -1 -10  253.17   21.50
  -7   1  10  271.07   23.80
   7   1 -10  227.78   21.10
  -6   1  10  726.83   66.79
   6   1 -10  847.82   65.49
  -5   1  10  309.97   27.00
   5   1 -10  288.17   25.20
   4   1 -10  827.72   68.29
  -4   1  10  817.32   68.29
  -3   1  10  147.69   15.10
  -2  -1  10  203.38   18.70
  -2   1  10  216.38   18.20
  -1  -1  10    7.10    4.80
  -1   1  10    3.60    5.70
   1   1 -10    1.60    3.10
   0  -1  10  149.09   13.20
   0   1  10  134.89   13.00
   1  -1  10   84.29    8.20
   1   1  10   60.49    8.20
   2  -1  10   33.30    5.90
   2   1  10   34.40    6.00
   3  -1  10   53.69    6.90
   3   1  10   37.70    6.80
   4  -1  10  138.29   13.60
   4   1  10  150.98   14.00
   5  -1  10   12.50    5.40
  -5   1 -10   -8.00   13.30
   5   1  10    7.40    5.30
   6   1  10   74.39   11.30
  -6   1 -10  101.99   12.00
   7   1  10   17.90    7.90
   8  -1  10   71.99   12.50
   8   1  10   88.29   12.30
  17  -2 -10   44.00   12.00
  17   2 -10   15.80   10.70
  17   2 -10   24.40    8.90
  16  -2 -10  164.58   17.30
  16   2 -10  146.99   17.80
  16   2 -10  140.99   15.60
  15  -2 -10  260.97   23.70
  15   2 -10  244.38   24.00
  15   2 -10  240.98   22.30
  14  -2 -10  417.66   34.00
  14   2 -10  398.56   34.30
  14   2 -10  352.46   33.10
  13  -2 -10  312.57   26.50
  13   2 -10  284.97   25.60
  13   2 -10  296.07   26.70
  12  -2 -10   45.90    7.60
 -12   2  10   36.90   11.40
  12   2 -10   45.70    8.70
  12   2 -10   42.80    6.10
  11  -2 -10   37.50    6.90
 -11   2  10   50.19   11.20
  11   2 -10   35.40    5.40
  10  -2 -10  160.48   14.80
  10   2 -10  156.28   14.10
   9  -2 -10  183.38   17.20
  -9   2  10  200.98   19.90
   9   2 -10  192.38   16.70
   8   2 -10  261.57   20.00
  -8   2  10  193.48   22.60
  -7   2  10   96.19   12.50
   7   2 -10   86.99    8.50
   6   2 -10  681.63   56.29
  -6   2  10  669.03   57.99
  -5   2  10  409.96   37.30
   5   2 -10  429.56   35.40
   4   2 -10  868.51   72.29
  -3   2  10   35.20    7.90
   3   2 -10   36.30    5.00
   2   2 -10  661.83   55.59
  -2   2  10  667.23   56.59
   1   2 -10   24.80    4.90
   0   2  10   35.00    6.70
  -1   2 -10   -1.10    7.30
   1   2  10   -3.30    7.40
   1   2  10    4.10    4.00
  -1   2 -10   -0.80    4.10
   2   2  10   74.09    9.50
   2   2  10   99.59   12.60
  -2   2 -10  104.19    9.90
  -2   2 -10   91.29   15.80
   5   2  10  100.79   11.90
   6  -2  10   47.00   10.40
   6   2  10   50.99   16.30
  -6   2 -10   57.39   10.70
   6   2  10   70.39   10.50
   7  -2  10   21.10    9.90
   7   2  10   22.90   16.30
   7   2  10    4.50    8.70
  -7   2 -10    0.00   10.80
  14  -3 -10   91.39   13.50
  14   3 -10   79.59   13.10
  14   3 -10   68.09   10.00
 -14   3  10   90.89   20.50
  13  -3 -10   39.90   10.10
  13   3 -10   37.90    7.40
 -13   3  10   14.60   16.10
  13   3 -10   28.20    8.40
  12  -3 -10  276.87   25.80
  12   3 -10  297.47   25.80
  12   3 -10  269.57   24.40
  11   3 -10   50.09   10.00
  11   3 -10   55.89    7.00
 -10   3  10   35.00   14.00
  10   3 -10   31.90    5.80
  -9   3  10   44.10   15.20
   9   3 -10   55.89    6.80
   8   3 -10  154.38   14.10
  -7   3  10   -0.40   10.70
  -6   3  10   40.70   11.40
   6   3 -10   41.30    6.10
   5   3 -10   11.40    3.80
  -5   3  10   -7.30    8.50
   4   3 -10   63.49    7.70
  -4   3  10   68.59   10.80
   3   3 -10   11.90    4.00
  -3   3  10   -4.50    7.30
  -2   3  10  571.44   44.60
   2   3 -10  509.35   44.80
  -2   3  10  508.05   46.10
   1   3 -10    7.40    4.40
   0   3  10  505.25   44.40
   0   3 -10  517.45   43.00
   0   3  10  490.65   42.50
  -1   3 -10   -0.90    9.50
   1   3  10    3.80   10.00
  -1   3 -10    6.30    5.30
   2   3  10   69.99   13.40
   2   3  10   89.29    9.90
  -2   3 -10   81.99   10.40
   3   3  10    3.20   10.70
  -3   3 -10   -1.10   13.30
  -3   3 -10    5.10    6.50
   3   3  10    5.00    5.90
   4   3  10   83.29   16.10
   4   3  10  101.39   11.80
  -4   3 -10  113.29   13.10
  -5   3 -10    0.40    8.70
   5   3  10   21.10    7.40
   5   3  10    4.20   13.40
  -5   3 -10    8.30   20.80
  10   4 -10   56.69   12.00
 -10   4  10   14.70   20.60
   9   4 -10   39.50    7.50
  -9   4  10   29.10   18.70
   8   4 -10   39.10    7.40
  -8   4  10   14.40   16.70
  -7   4  10    5.50   16.00
   7   4 -10    7.40    5.10
   6   4 -10   21.00    5.80
  -6   4  10    9.90   14.70
  -5   4  10    8.40   13.30
  -4   4  10   20.20   12.50
   4   4 -10   21.70    5.90
  -3   4  10  -14.00   11.40
   3   4 -10   -1.90    5.60
  -2   4  10   89.69   16.10
   2   4 -10   80.69   11.00
   1   4 -10    0.50    6.00
  -1   4  10   23.40   12.10
   0   4 -10   52.89    9.60
   0   4  10   44.30    7.70
   0   4  10   49.30   14.50
  18   0 -11   19.20    9.50
  17   0 -11    5.50    8.50
  16   0 -11    1.40    6.70
  15   0 -11   -7.30    5.70
  14   0 -11   10.20    4.90
  13   0 -11   -0.70    4.00
  12   0 -11    0.90    3.70
  11   0 -11    0.60    3.20
  10   0 -11   -4.70    2.80
   9   0 -11   -2.40    2.60
   8   0 -11   -2.50    2.60
  -7   0  11   -6.80    7.00
   7   0 -11    0.20    2.70
   6   0 -11    7.80    3.10
  -6   0  11   13.90    6.80
  -5   0  11   13.60    7.10
  -5   0  11    5.80    4.80
   5   0 -11    1.40    3.30
  -4   0  11    6.80    4.20
  -3   0  11   -1.00    4.20
  -2   0  11   -6.00    4.20
  -1   0  11   11.40    5.40
   0   0  11   -2.30    4.20
   1   0  11   -0.80    4.50
   2   0  11   -3.20    4.60
   3   0  11    6.30    5.40
   4   0  11    6.60    5.70
   5   0  11    5.00    6.90
   6   0  11   -4.10    7.70
   7   0  11   47.30   10.10
   8   0  11    9.90    9.70
  18  -1 -11   26.50   10.90
  18   1 -11   36.10   10.00
  18   1 -11   15.20    9.60
  17  -1 -11    0.10    9.10
  17   1 -11   -6.00    8.50
  17   1 -11    7.50    7.90
  16  -1 -11  121.49   14.30
  16   1 -11  102.39   14.10
  16   1 -11  122.79   13.00
  15  -1 -11    5.50    6.70
  15   1 -11   -3.10    8.40
  15   1 -11   -6.20    5.30
  14  -1 -11   96.29   10.80
  14   1 -11   81.39   12.70
  14   1 -11   97.99   10.00
  13  -1 -11    0.40    5.00
  13   1 -11  -12.70    8.20
  13   1 -11    5.10    4.20
  12  -1 -11  233.08   20.90
  12   1 -11  241.58   20.70
  11  -1 -11   -2.30    3.80
 -11   1  11   -8.50    7.10
  11   1 -11   -3.70    2.90
  10  -1 -11  235.18   18.90
  10   1 -11  204.38   18.50
 -10   1  11  201.98   20.90
  -9   1  11   -3.60    7.40
   9   1 -11   -0.80    2.40
   8  -1 -11  154.58   14.60
   8   1 -11  160.68   14.20
  -8   1  11  177.28   17.50
   7   1 -11   43.50    5.00
   6   1 -11  636.94   56.69
  -6   1  11  729.63   58.89
   5   1 -11   48.30    5.40
  -5   1  11   49.40    6.40
  -4   1  11  714.43   59.09
  -4   1  11  702.63   60.49
   4   1 -11  710.53   58.99
  -3  -1  11   15.50    6.20
   3   1 -11   21.40    4.10
  -3   1  11   12.90    4.40
  -3   1  11   26.90    8.70
  -2  -1  11   50.49    7.20
  -2   1  11   44.40    6.40
  -2   1  11   42.40    9.70
   2   1 -11   55.79    5.90
  -1  -1  11    7.00    4.50
  -1   1  11    3.40    4.50
   0  -1  11   12.60    4.70
   1  -1  11   -5.00    4.50
   1   1  11    8.70    4.40
   2  -1  11   60.39    7.90
   3  -1  11    8.80    5.40
   3   1  11   20.30    5.80
   4  -1  11   19.40    6.60
  -4   1 -11   30.70   13.50
   5  -1  11    6.60    7.10
   5   1  11   10.30    6.80
   6  -1  11   68.29   10.50
   7  -1  11   56.29   10.70
   7   1  11   56.69   10.90
  -7   1 -11   42.10   22.10
  16  -2 -11  110.49   14.80
  16   2 -11   80.69   15.90
  16   2 -11  123.99   13.00
  15  -2 -11   20.90    9.10
  15   2 -11   -5.80    9.20
  15   2 -11   18.20    6.20
  14  -2 -11  178.58   19.20
  14   2 -11  220.18   18.20
  14   2 -11  192.08   19.70
  13  -2 -11    4.80    5.90
 -13   2  11   11.00   11.90
  13   2 -11   -2.80    7.40
  13   2 -11    7.80    4.30
  12  -2 -11    2.40    5.60
 -12   2  11   -0.60    9.80
  12   2 -11    0.50    3.50
  11  -2 -11    3.40    5.00
 -11   2  11   11.00   10.30
  11   2 -11    4.40    3.40
  10  -2 -11   55.59    7.80
  10   2 -11   54.59    6.40
   9  -2 -11    1.90    4.50
  -9   2  11    8.20    8.90
   9   2 -11    6.50    3.00
   8   2 -11  121.39   10.40
  -8   2  11   89.89   14.60
   7   2 -11   35.50    4.90
  -6   2  11   13.20    7.70
   6   2 -11   13.50    3.20
   5   2 -11    1.10    2.90
  -5   2  11    8.40    8.60
   4   2 -11  567.94   47.60
  -3   2  11    7.00    3.60
   3   2 -11    6.00    3.10
  -3   2  11    9.20    6.90
  -2   2  11  353.86   30.40
   2   2 -11  333.67   28.80
  -2   2  11  327.07   28.80
  -1   2  11   -4.10    5.10
  -1   2  11   -5.40    6.70
   1   2 -11    2.70    3.70
   0  -2  11    4.40    5.20
   0   2  11   -0.40    7.80
   0   2 -11   -0.30    4.00
   0   2  11    2.50    4.30
   1  -2  11   -2.20    5.80
   1   2  11    2.80    4.50
   1   2  11   -3.90    8.80
  -1   2 -11    4.80    4.80
   2   2  11   63.59    9.10
   2   2  11   89.49   13.00
  -3   2 -11  111.99   11.50
   3   2  11   99.69   15.00
   3   2  11   87.19   11.20
   4   2  11  235.68   19.90
  -4   2 -11  167.58   27.50
  -5   2 -11   20.00   18.60
   5   2  11   54.09   16.40
   5   2  11   39.80    9.20
  -5   2 -11   48.10    9.60
   6  -2  11   10.80   10.80
  -6   2 -11   17.30   10.30
   6   2  11   14.40   17.60
  -6   2 -11   28.40   23.40
   6   2  11    8.90    9.40
  14  -3 -11  119.79   16.60
  14   3 -11  124.49   13.20
  14   3 -11  134.89   16.00
  13  -3 -11   -1.20    9.00
 -13   3  11   10.50   16.10
  13   3 -11    6.10    5.00
  13   3 -11    7.80    8.50
  12  -3 -11   60.29   11.10
  12   3 -11   49.40    7.90
 -12   3  11   47.80   17.00
  12   3 -11   70.39   10.70
 -10   3  11   51.39   17.10
  10   3 -11   82.29    8.60
   9   3 -11    8.20    3.90
  -9   3  11   -1.40   14.20
   8   3 -11   30.10    5.00
  -8   3  11   27.40   12.70
  -7   3  11    4.10   11.60
   7   3 -11    2.20    3.70
   6   3 -11   47.80    6.50
  -6   3  11   40.00   13.00
  -5   3  11   -7.70    9.60
   5   3 -11    3.80    4.00
   4   3 -11    5.40    4.20
  -4   3  11   -8.50    8.80
   3   3 -11   -6.10    4.20
  -3   3  11   -1.80    8.90
  -2   3  11  304.47   27.90
  -2   3  11  295.87   29.80
   2   3 -11  366.06   28.20
   1   3 -11    3.70    4.60
  -1   3  11  -10.40    8.50
  -1   3  11    0.50    5.00
   0   3  11  109.99   15.40
   0   3 -11  124.49   12.40
  -1   3 -11   16.80    6.90
   1   3  11   10.20    5.90
   1   3  11   -3.10   10.60
  -2   3 -11   58.29    9.30
  -2   3 -11   18.60   13.80
   2   3  11   37.10    7.60
   2   3  11   50.49   12.50
  -3   3 -11   15.20   14.90
  -3   3 -11   30.70    7.70
   3   3  11    5.70    7.00
   3   3  11   19.20   13.30
  -4   3 -11   36.30    9.30
  -4   3 -11   32.60   17.30
   4   3  11   25.50   14.60
   8   4 -11   88.79   10.50
  -7   4  11   19.30   17.30
  -6   4  11   13.10   15.90
   6   4 -11   12.90    5.90
  -5   4  11   -4.30   14.50
   5   4 -11   -8.70    5.40
   4   4 -11   26.30    6.60
  -4   4  11   -5.10   13.10
   3   4 -11   -6.30    6.20
  -3   4  11    8.00   13.60
   2   4 -11  100.19   12.10
  -2   4  11   78.39   17.00
  18   0 -12  517.75   45.30
  17   0 -12   13.40    8.60
  16   0 -12   55.79    9.30
  15   0 -12   -3.50    5.70
  14   0 -12  265.47   23.40
  13   0 -12   30.10    6.20
  12   0 -12  998.50   83.19
  11   0 -12    6.60    3.60
  10   0 -12  437.36   36.90
   9   0 -12   -2.90    2.90
   8   0 -12 1470.15  121.69
   7   0 -12   36.00    5.20
   6   0 -12 6198.88  462.95
  -6   0  12 5023.10  463.75
   5   0 -12  266.87   22.80
  -4   0  12  355.86   30.60
  -3   0  12   94.89   10.70
  -2   0  12  119.19   12.50
  -1   0  12    9.00    5.40
   0   0  12  280.47   24.70
   1   0  12   42.90    7.00
   2   0  12  155.18   14.80
   3   0  12    3.70    6.00
   4   0  12   36.60    8.80
   5   0  12    0.50    8.40
   6   0  12  104.19   14.60
  18  -1 -12    1.50   11.10
  18   1 -12   23.30   10.20
  17  -1 -12   23.40    9.70
  17   1 -12    7.30    9.20
  17   1 -12   13.90    8.00
  16   1 -12  399.66   33.30
  16   1 -12  355.36   33.70
  15  -1 -12   32.00    7.40
  15   1 -12    9.50    9.10
  15   1 -12   26.30    6.30
  14  -1 -12  192.38   19.20
  14   1 -12  197.68   20.30
  14   1 -12  225.88   18.70
  13  -1 -12    9.60    5.40
  13   1 -12   18.50    9.40
  13   1 -12    6.20    4.40
  12  -1 -12  104.29   10.60
  12   1 -12   95.09   10.00
  11  -1 -12  123.89   12.60
  11   1 -12  138.79   12.10
  10  -1 -12  248.98   20.50
  10   1 -12  218.48   20.10
   9  -1 -12    7.20    3.90
   9   1 -12    6.80    2.70
  -9   1  12   10.20    8.50
   8  -1 -12  623.74   51.69
   8   1 -12  612.74   51.59
   7   1 -12  250.07   22.00
  -7   1  12  268.97   25.30
   6   1 -12  866.61   68.79
  -6   1  12  785.62   70.79
   5   1 -12  167.58   15.50
  -5   1  12  196.18   20.60
  -4  -1  12  741.23   63.59
  -4   1  12  655.13   65.09
   4   1 -12  837.82   63.19
  -4   1  12  793.82   63.39
  -3   1  12   16.80   10.70
  -2   1  12   50.39    7.70
   2   1 -12   34.50    5.30
  -2   1  12   21.30   12.40
  -1  -1  12   68.19    8.50
  -1   1  12   62.19    8.50
   0  -1  12  119.39   12.00
   1  -1  12    1.20    5.70
   1   1  12    8.10    4.90
   2  -1  12   29.40    6.30
   2   1  12   21.10    6.30
   3  -1  12    6.80    6.50
   3   1  12    6.20    6.10
   4  -1  12   64.99   10.10
   5  -1  12   20.90    8.80
   5   1  12    9.50    8.40
   6  -1  12   11.50   10.60
   6   1  12   31.80    9.90
  16  -2 -12   78.39   13.20
  16   2 -12   56.79   10.20
  16   2 -12   69.39   13.20
  15  -2 -12   33.50    9.70
  15   2 -12   26.30   10.40
  15   2 -12   21.70    6.70
  14  -2 -12   74.99   11.00
  14   2 -12   59.09   12.20
  14   2 -12   69.69    9.00
  13  -2 -12   74.49   10.30
 -13   2  12   69.79   15.10
  13   2 -12   57.19   11.40
  13   2 -12   76.29    8.40
  12  -2 -12  166.98   16.50
  12   2 -12  174.78   15.50
  11  -2 -12   -3.90    5.60
 -11   2  12    5.90   11.20
  11   2 -12    3.30    3.70
  10   2 -12   41.10    5.70
  -9   2  12   61.99   13.10
   9   2 -12   86.49    8.10
  -8   2  12  201.98   22.60
   8   2 -12  236.58   19.30
  -7   2  12   13.90    8.50
   6   2 -12   24.70    3.80
  -6   2  12    6.60    8.80
  -5   2  12   14.00    9.30
   4   2 -12  450.05   38.30
  -4   2  12  457.75   38.20
   3   2 -12   25.10    5.10
  -2   2  12   70.29   12.00
   2   2 -12   97.09    9.30
  -2   2  12   94.79   10.40
   1   2 -12   -1.90    4.20
  -1   2  12    4.20    4.60
  -1   2  12   -2.10    8.60
   0  -2  12   63.39    9.40
   0   2  12   65.49   11.80
   0   2 -12   62.79    8.20
   1  -2  12   34.50    8.00
   1   2  12   19.90    6.30
   2   2  12  208.58   21.80
   2   2  12  184.18   18.70
   3   2  12    6.30    7.40
  -3   2 -12    4.90    7.20
   3   2  12   -2.10   13.50
   4   2  12   60.59   11.00
   4   2  12   50.29   17.50
  -4   2 -12   61.39   12.60
   5  -2  12   -3.80   11.10
  -5   2 -12  -24.30   21.70
   5   2  12   -8.20    9.00
  -5   2 -12   -1.90    9.90
   5   2  12    0.00   17.00
 -14   3  12   78.59   21.90
  13  -3 -12   65.49   13.70
 -13   3  12   53.39   18.80
  13   3 -12   79.39   12.40
  13   3 -12   62.49    8.70
  12  -3 -12   41.40    9.50
 -12   3  12   34.50   18.40
  12   3 -12   34.90    7.20
  11   3 -12   32.40    6.70
 -11   3  12   17.80   16.30
  10   3 -12  238.48   21.30
  -9   3  12   50.79   16.90
   9   3 -12   72.09    8.20
  -8   3  12   34.30   13.80
   8   3 -12   32.80    6.20
   7   3 -12   34.20    6.00
  -7   3  12   12.80   13.00
  -6   3  12   14.60   13.10
   5   3 -12    7.90    4.50
  -5   3  12    1.20   11.80
  -4   3  12  -12.00   10.10
   4   3 -12    5.90    4.30
  -3   3  12   -1.50    6.50
  -3   3  12   -4.50    9.70
   3   3 -12    2.20    4.70
  -2   3  12   62.29   12.50
   2   3 -12   60.99    8.50
   1   3 -12    0.70    5.60
  -1   3  12    3.70   10.20
  -1   3  12    9.90    5.50
   0   3  12   58.59   12.40
   0   3  12   52.19    9.10
   0   3 -12   48.30    8.90
   1   3  12    6.30    6.60
  -1   3 -12   12.70    6.60
   1   3  12   -1.40   11.30
   2   3  12  118.09   13.70
   2   3  12  104.59   18.20
  -2   3 -12   87.49   13.40
  18   0 -13   26.10   10.20
  17   0 -13   12.80    8.40
  16   0 -13   -4.10    7.50
  15   0 -13   -7.90    5.90
  14   0 -13    8.30    5.20
  13   0 -13   13.30    5.00
  12   0 -13    4.00    4.40
  11   0 -13   -0.80    3.70
  10   0 -13    2.80    3.60
   9   0 -13   -2.40    3.50
   8   0 -13    6.30    3.50
  -7   0  13   39.10   13.60
   7   0 -13   24.50    4.70
  -6   0  13   72.29   10.10
  -5   0  13   12.60    7.50
  -4   0  13   28.50    8.00
  -3   0  13    3.30    6.00
  -2   0  13    1.10    5.40
  -1   0  13    3.70    5.70
   0   0  13    5.50    6.20
   1   0  13   -3.00    6.00
   2   0  13   -6.20    6.40
   3   0  13    7.00    7.40
   4   0  13    4.80    8.10
   5   0  13   63.69   13.30
  17  -1 -13   -1.80    9.30
  17   1 -13   -2.60    7.90
  16  -1 -13   33.30    9.00
  16   1 -13   14.20   10.50
  16   1 -13   36.10    8.00
  15  -1 -13    4.10    7.50
  15   1 -13    4.10    6.10
  15   1 -13  -11.10    8.90
  14  -1 -13   42.40    8.20
  14   1 -13   30.00   10.00
  14   1 -13   34.60    6.20
  13  -1 -13    7.60    5.40
  13   1 -13    1.20    4.30
  12  -1 -13   18.30    5.50
  12   1 -13   16.50    4.40
  11  -1 -13   -6.30    4.50
  11   1 -13    4.90    3.50
 -11   1  13  -10.00    8.70
  10  -1 -13  160.58   15.80
 -10   1  13  190.18   18.40
  10   1 -13  172.78   15.40
  -9   1  13   18.50    9.60
  -8   1  13  679.83   62.29
   8   1 -13  764.22   60.29
   7   1 -13   47.10    5.60
  -6   1  13  592.24   49.80
  -6   1  13  612.44   47.60
   6   1 -13  491.85   47.10
  -5   1  13   72.59   13.50
  -5   1  13   42.70    7.60
   5   1 -13   47.60    5.80
  -4  -1  13  184.68   17.10
  -4   1  13  184.38   16.80
  -4   1  13  174.58   20.30
   4   1 -13  176.68   15.80
  -3  -1  13    0.60    6.40
  -3   1  13    8.20    7.80
  -3   1  13   22.00   12.10
   3   1 -13    4.40    3.40
  -2  -1  13   71.59   10.20
  -2   1  13  103.19   10.40
  -1  -1  13   -1.50    6.10
  -1   1  13    8.40    5.60
   0   1  13   85.89   10.50
   1  -1  13   10.20    7.30
   1   1  13   -5.40    6.00
   2  -1  13   17.30    8.20
   2   1  13   19.60    7.50
   3  -1  13    7.90    8.20
   3   1  13   13.50    7.90
   4  -1  13   36.60   10.20
   5  -1  13    6.80   10.30
   5   1  13    9.20   10.30
  16  -2 -13   98.79   15.10
  16   2 -13  101.79   12.10
  16   2 -13   76.89   15.70
  15  -2 -13    6.90    8.70
  15   2 -13    1.30    6.20
  15   2 -13  -14.20   10.00
  14  -2 -13   31.00    8.70
 -14   2  13    1.80   14.10
  14   2 -13   18.60    6.00
  14   2 -13   10.40   10.10
  13  -2 -13    1.10    6.90
  13   2 -13    3.50    5.00
 -13   2  13   10.60   14.30
  12  -2 -13  108.09   13.00
  12   2 -13  127.49   11.40
 -12   2  13   98.99   17.60
  11  -2 -13   -6.10    6.10
  11   2 -13    4.10    4.00
 -11   2  13   16.60   12.10
  10   2 -13  481.85   40.70
  -9   2  13   12.60   10.70
   9   2 -13    4.00    3.50
  -8   2  13  100.59   15.60
   8   2 -13  113.19   10.50
   7   2 -13    3.40    3.10
  -7   2  13   -0.10   10.00
  -6   2  13   -0.20    9.60
   5   2 -13    1.30    3.40
  -5   2  13   -3.50    9.80
   4   2 -13   89.49    8.90
  -4   2  13   78.09   10.00
  -3   2  13    7.70   10.40
  -3   2  13    9.10    6.70
   2   2 -13    4.70    4.10
  -2   2  13    1.60   10.10
   1   2 -13    3.50    4.70
  -1   2  13   -3.50   10.10
  -1   2  13    3.20    5.20
   0  -2  13    5.50    8.30
   0   2  13   14.20   11.30
   0   2  13    1.00    6.20
   0   2 -13   24.40    5.70
   1  -2  13  -13.30    8.90
  -1   2 -13    5.00    6.00
   1   2  13   13.40   12.80
   1   2  13    8.60    6.20
   2   2  13  127.39   19.20
  -2   2 -13  140.09   14.40
   2   2  13  101.49   13.90
   3  -2  13   14.50   10.70
   3   2  13   12.70   15.80
  -3   2 -13   29.80    9.40
   3   2  13   15.90    9.70
  13  -3 -13    6.70   10.30
  13   3 -13   -7.20    5.30
  13   3 -13   -5.00   10.30
 -13   3  13   -5.60   20.20
  12  -3 -13  109.99   15.60
  12   3 -13  113.19   11.60
 -12   3  13   93.89   22.40
  11   3 -13    8.10    5.10
 -11   3  13   10.50   17.40
 -10   3  13   29.90   18.00
  10   3 -13   52.09    7.80
  -9   3  13   20.60   16.20
   8   3 -13   52.39    7.60
  -7   3  13   13.50   13.50
   7   3 -13    2.80    4.40
  -6   3  13   -1.70   13.30
   6   3 -13   20.80    5.20
   5   3 -13    6.50    4.80
  -5   3  13   -3.10   13.00
  -4   3  13    5.60   12.30
   4   3 -13   11.00    5.20
  -3   3  13    4.50   11.20
   3   3 -13   -0.70    5.00
  -2   3  13   31.00   12.30
   2   3 -13   44.60    7.20
  -2   3  13   39.00    8.10
  -1   3  13   -1.30   11.70
   1   3 -13    8.00    5.60
  -1   3  13   -0.60    7.10
   0   3 -13   21.40    6.70
   0   3  13   24.10   13.10
   1   3  13   44.00   14.60
  17   0 -14   -4.60    8.50
  16   0 -14   95.19   12.60
  15   0 -14    5.10    6.70
  14   0 -14  156.58   15.30
  13   0 -14    4.50    5.20
  12   0 -14  131.19   12.80
  11   0 -14   24.60    5.10
  10   0 -14  328.47   28.20
   9   0 -14   11.80    4.20
   8   0 -14 1292.07  107.19
  -7   0  14   90.59   15.90
   7   0 -14   65.89    7.70
  -6   0  14  849.52   71.79
  -5   0  14  138.59   15.50
  -4   0  14  152.38   15.70
  -3   0  14   19.40    6.80
  -2   0  14  212.68   19.80
  -1   0  14   -0.10    6.40
   0   0  14   78.29   10.80
   1   0  14    9.60    8.00
   2   0  14   29.90    9.70
   3   0  14   10.10    8.90
   4   0  14   44.80   13.70
  17  -1 -14   24.30   10.50
  17   1 -14   17.60    8.50
  16  -1 -14   59.59   10.20
  16   1 -14   36.60    8.30
  16   1 -14   43.80   10.80
  15  -1 -14    0.00    7.70
  15   1 -14   11.70    6.70
  15   1 -14   -5.00    9.80
  14  -1 -14  203.68   19.30
  14   1 -14  188.58   18.70
  14   1 -14  216.38   20.60
  13  -1 -14   18.10    6.10
  13   1 -14    8.00    4.90
  12  -1 -14  127.99   14.70
  12   1 -14  171.98   14.20
  11  -1 -14   26.80    5.80
 -11   1  14   22.80   10.90
  10  -1 -14  320.47   26.40
 -10   1  14  250.47   28.50
  10   1 -14  331.77   26.00
   9  -1 -14   48.10    7.40
   9   1 -14   48.10    6.20
  -8   1  14  602.14   59.89
   8   1 -14  773.12   57.69
   7   1 -14  148.19   13.10
  -7   1  14  136.69   18.10
  -6   1  14  260.87   21.10
   6   1 -14  203.18   19.80
   5   1 -14   56.39    7.10
  -5   1  14   76.89   11.00
  -4  -1  14  127.59   13.70
  -4   1  14  111.29   12.90
  -4   1  14  103.09   16.70
  -3  -1  14   17.60    7.60
  -3   1  14   24.90    6.60
  -3   1  14   21.20   12.90
  -1  -1  14   15.40    7.60
  -1   1  14   16.20    7.10
   0  -1  14   30.50    8.30
   0   1  14   15.20    7.60
   1  -1  14   18.50    9.10
   1   1  14   18.30    8.70
   2  -1  14    9.90   10.30
   2   1  14   52.39    9.10
   3  -1  14  -10.20   10.00
   3   1  14   10.30    8.90
  15  -2 -14   67.39   13.00
  15   2 -14   73.09   14.70
  15   2 -14   64.69   10.30
  14  -2 -14  162.18   19.20
  14   2 -14  183.78   19.90
  14   2 -14  184.88   16.90
  13  -2 -14   -3.50    7.70
 -13   2  14   -3.00   14.50
  13   2 -14   11.40    5.50
  12  -2 -14   58.99   11.00
  12   2 -14   72.39    8.50
 -12   2  14   53.69   14.90
 -11   2  14   96.79   18.00
  11   2 -14   98.79   10.40
  10   2 -14  440.16   37.30
   9   2 -14   12.70    4.00
  -9   2  14   30.50   12.80
   8   2 -14   74.79    8.10
  -8   2  14   77.19   15.50
   7   2 -14    2.40    3.80
  -7   2  14    0.40   11.70
  -6   2  14    5.90   11.30
   6   2 -14    3.80    3.60
  -5   2  14   -1.30   11.60
   5   2 -14    9.20    3.80
  -4   2  14   23.60   12.70
   4   2 -14   34.60    6.10
  -3   2  14   27.70   13.60
   3   2 -14   31.10    6.10
  -2   2  14  170.38   19.50
   2   2 -14  243.68   19.10
  -1   2  14   10.20    6.80
  -1   2  14   -1.00   13.20
   1   2 -14    9.60    5.20
   0  -2  14    4.70    9.60
   0   2 -14   -9.80    5.80
   0   2  14  -10.40   14.30
   0   2  14   20.30    7.50
   1  -2  14   16.20   10.70
  -1   2 -14   -1.90    7.50
   1   2  14    8.60    7.30
   1   2  14  -10.00   15.70
   2  -2  14   27.80   12.90
  -2   2 -14   36.60    9.60
   2   2  14    7.70   17.20
   2   2  14   15.10    8.90
  12   3 -14  223.98   20.70
  11   3 -14   60.19    8.90
 -11   3  14   58.79   20.60
 -10   3  14   89.99   21.20
  10   3 -14   97.59   10.70
  -9   3  14   26.80   17.80
   9   3 -14   35.90    6.80
  -8   3  14   43.60   16.70
   8   3 -14   40.30    7.10
  -7   3  14   -5.70   14.50
   7   3 -14    4.80    4.60
  -6   3  14    4.70   14.80
   5   3 -14    6.80    4.90
  -5   3  14   19.20   15.30
   3   3 -14    4.00    5.30
  -3   3  14   13.90   13.40
  17   0 -15    0.20    9.00
  16   0 -15  -10.60    7.50
  15   0 -15    1.60    7.10
  14   0 -15   -4.40    6.40
  13   0 -15    2.90    5.60
  12   0 -15   -1.80    4.90
  11   0 -15   -5.60    4.50
  10   0 -15   -2.30    4.50
   9   0 -15    6.60    4.40
   8   0 -15    2.90    4.10
  -7   0  15   32.00   13.80
  -6   0  15    9.20    8.10
  -5   0  15   15.60    8.50
  -4   0  15   -1.10    7.40
  -3   0  15   -1.40    8.30
  -2   0  15   10.70    7.70
  -1   0  15    0.50    8.60
   0   0  15    3.10    8.10
   1   0  15   15.80    9.20
   2   0  15   13.00   10.20
  16  -1 -15  112.99   15.20
  16   1 -15  128.39   14.10
  16   1 -15  110.69   21.00
  15  -1 -15   -1.40    8.10
  15   1 -15    7.40   10.80
  15   1 -15    9.60    6.50
  14  -1 -15    6.50    7.50
  14   1 -15   -1.20    6.10
  13  -1 -15   -3.30    6.40
  13   1 -15   -7.80    5.30
  12  -1 -15   40.30    8.40
  12   1 -15   36.80    6.70
  11  -1 -15    0.50    5.40
 -11   1  15   -4.80   11.50
  11   1 -15    0.60    4.10
  10  -1 -15   64.49    9.40
  10   1 -15   74.19    8.00
 -10   1  15   66.89   14.40
   9   1 -15   10.00    3.90
  -9   1  15   14.80   12.40
  -8   1  15   75.29   15.70
   8   1 -15   85.49    8.60
  -7   1  15   64.59   15.70
  -6   1  15   45.30   11.90
  -6   1  15   43.90   14.60
   6   1 -15   52.59    6.60
  -5   1  15   -1.20   13.30
   5   1 -15    4.90    4.10
  -5   1  15    6.40    8.40
  -4  -1  15   43.90    9.60
   4   1 -15   60.29    7.00
  -4   1  15   32.90    8.70
  -3  -1  15   -0.80    8.40
  -3   1  15    6.10    6.90
  -2  -1  15    5.50    9.50
  -2   1  15   33.60    8.50
  -1  -1  15    1.70    9.20
  -1   1  15   10.30    8.00
   0  -1  15    2.20    9.90
   0   1  15   -1.00    9.40
   1  -1  15   12.80   10.30
   1   1  15    6.80    9.30
   2  -1  15   43.10   14.60
   2   1  15   73.39   13.90
  14  -2 -15  132.89   17.00
  14   2 -15  132.79   13.70
  13  -2 -15    3.20    9.50
 -13   2  15    1.50   16.20
  13   2 -15    4.20    5.40
  12   2 -15   34.30    7.10
 -11   2  15   27.30   14.90
  11   2 -15   10.70    5.50
  10   2 -15  373.76   32.10
   9   2 -15    6.70    4.60
  -9   2  15   10.40   14.20
  -8   2  15   25.10   15.00
   8   2 -15   45.00    6.50
   7   2 -15    1.60    4.00
  -7   2  15    6.40   14.50
  -6   2  15   41.50   15.20
   6   2 -15   62.49    7.40
  -5   2  15   17.60   12.20
  -5   2  15    4.50   14.00
   5   2 -15   16.80    4.60
   4   2 -15  267.97   22.80
  -4   2  15  241.78   24.50
   3   2 -15   -0.30    4.90
  -3   2  15   11.80   14.70
  -3   2  15    7.10    7.90
  -2   2  15   89.09   13.60
  -2   2  15   68.39   19.10
   2   2 -15  119.79   11.70
  -1   2  15   23.90    8.60
   1   2 -15   19.40    7.00
  -1   2  15   28.80   17.80
   0   2  15   48.50   11.20
   0   2  15   27.80   18.60
 -10   3  15   45.90   21.20
   9   3 -15    2.30    5.00
  -9   3  15   11.60   19.40
   8   3 -15   27.80    6.10
  -8   3  15   38.20   18.80
  -7   3  15   14.30   16.60
   7   3 -15    0.90    5.20
  -6   3  15   42.70   17.30
   5   3 -15   -1.80    5.50
  -5   3  15    1.50   16.70
  -4   3  15   -3.10   17.10
  16   0 -16    3.80    8.50
  15   0 -16   -2.70    7.30
  14   0 -16  125.39   14.30
  13   0 -16    6.60    6.60
  12   0 -16   42.30    7.90
  11   0 -16    0.20    5.40
  10   0 -16   25.90    5.90
   9   0 -16   55.79    7.90
  -6   0  16  348.17   32.10
  -5   0  16    0.90    9.10
  -4   0  16   59.29   11.10
  -3   0  16   17.30    9.50
  -2   0  16   53.69   11.50
  -1   0  16   22.10   10.30
   0   0  16   33.80   10.80
   1   0  16    9.90   11.90
  15  -1 -16   57.29   12.40
  15   1 -16   76.09   10.40
  14  -1 -16   19.20    8.80
  14   1 -16   30.10    6.90
  13  -1 -16   15.40    7.70
  13   1 -16    4.70    6.00
  12  -1 -16  218.38   21.80
  12   1 -16  250.67   21.30
  11  -1 -16   66.49    9.70
  11   1 -16   49.40    8.00
  10   1 -16   31.80    6.20
 -10   1  16   17.50   13.90
   9   1 -16   43.00    6.70
  -9   1  16   34.80   14.00
  -7   1  16   38.60   13.60
  -7   1  16   23.40   15.90
   7   1 -16   15.20    4.70
  -6   1  16   99.29   13.90
  -6   1  16   91.99   19.40
   6   1 -16  104.49   10.60
  -5   1  16   26.00    9.40
   5   1 -16    6.20    5.00
  -5   1  16    9.70   16.90
  -4  -1  16  135.99   19.30
   4   1 -16  161.38   14.90
  -3  -1  16   24.40   10.40
  -3   1  16   -0.20    8.40
  -2  -1  16   29.40   12.30
  -2   1  16   34.80    9.40
  -1  -1  16    7.40   11.50
  -1   1  16    5.10    9.80
   0  -1  16   72.09   14.10
   0   1  16   73.19   12.90
  13  -2 -16   33.50   11.50
  13   2 -16   48.40    8.30
 -13   2  16   20.40   19.20
 -12   2  16   60.69   18.10
  12   2 -16   62.69    8.70
 -11   2  16   13.70   17.10
  11   2 -16   38.30    7.40
  10   2 -16  142.39   13.80
 -10   2  16  142.99   22.70
  -9   2  16   78.29   19.30
   9   2 -16   95.09   10.20
   8   2 -16  136.49   12.60
  -8   2  16  100.99   20.00
  -7   2  16    1.90   15.80
  -6   2  16   28.60   17.10
   6   2 -16   56.19    7.90
  -5   2  16   24.20   16.80
  -4   2  16   13.20   11.10
  -4   2  16   32.00   17.00
   4   2 -16   48.90    8.20
   3   2 -16   14.40    6.30
  -3   2  16   37.00   18.60
  -3   2  16   20.50   11.20
   2   2 -16   20.00    7.10
  -2   2  16   21.70   10.40
  -2   2  16    1.60   18.90
  15   0 -17   -8.00    8.20
  14   0 -17   -0.50    7.80
  13   0 -17    4.60    7.30
  12   0 -17   -0.90    7.10
  11   0 -17   -3.20    6.10
  10   0 -17   -2.90    5.70
   8   0 -17    4.80    5.90
  -6   0  17   -8.60   13.10
  -5   0  17    7.70   13.40
  -4   0  17    9.70   12.60
  -3   0  17    1.00   11.00
  -2   0  17    1.80   13.30
  -1   0  17   21.70   13.20
  14  -1 -17   38.10    9.90
  14   1 -17   30.40    8.10
  13  -1 -17    1.90    9.10
  13   1 -17   -0.80    6.30
  12  -1 -17   38.00    9.40
  12   1 -17   40.30    8.00
  11   1 -17    1.70    5.80
 -11   1  17    7.10   15.50
  10   1 -17   96.39   11.10
  -9   1  17  -11.50   15.80
   9   1 -17    4.40    5.60
   8   1 -17   68.69    9.20
  -8   1  17   57.19   19.90
  -7   1  17   -3.80   16.90
  -7   1  17    8.10   18.40
   7   1 -17    9.10    5.10
   6   1 -17  155.78   13.40
  -6   1  17  110.09   25.70
  -6   1  17   97.69   16.60
  -5   1  17    6.10   11.70
  -4   1  17   51.99   11.70
  -3  -1  17   -9.90   11.90
  -2  -1  17   44.20   16.00
  -2   1  17   37.10   11.80
 -11   2  17    3.80   18.50
  11   2 -17    0.40    6.30
  10   2 -17   47.30    8.20
 -10   2  17   45.20   19.80
   9   2 -17   17.60    6.20
  -9   2  17   13.50   18.80
   8   2 -17  185.88   17.60
  -7   2  17   -6.20   18.20
   7   2 -17   11.50    5.70
   6   2 -17   12.80    5.70
  -6   2  17   -4.80   18.80
   5   2 -17    1.00    5.60
  -5   2  17   -3.10   19.10
  13   0 -18   31.20    9.20
  12   0 -18  505.65   43.60
  11   0 -18   17.30    8.00
  10   0 -18  125.49   14.60
   9   0 -18    8.50    7.40
  -5   0  18   41.70   18.00
  -4   0  18  101.29   17.10
  12  -1 -18   25.00   10.50
  12   1 -18   20.80    7.20
  11   1 -18    2.50    6.50
 -11   1  18   -3.10   18.50
  10   1 -18  215.98   20.30
  -9   1  18   23.00   19.60
   9   1 -18   18.10    7.00
  -8   1  18   93.29   24.70
   8   1 -18  145.09   14.60
  -7   1  18   32.30   22.90
   7   1 -18   20.30    7.20
  -6   1  18   26.50   25.10
  -5   1  18   15.70   13.40
   0   0   0    0.00    0.00



_computing_structure_solution     'SHELXT 2014/5 (Sheldrick, 2014)'
_computing_structure_solution     'SHELXT 2014/5 (Sheldrick, 2014)'
_computing_structure_solution     'SHELXT 2014/5 (Sheldrick, 2014)'
;
_shelx_hkl_checksum              60661
_olex2_submission_special_instructions 'No special instructions were received'
loop_
_space_group_symop_operation_xyz
'x, y, z'
'x+1/2, -y, z+1/2'
loop_
_atom_site_label
_atom_site_type_symbol
_atom_site_fract_x
_atom_site_fract_y
_atom_site_fract_z
_atom_site_U_iso_or_equiv
_atom_site_adp_type
_atom_site_occupancy
_atom_site_site_symmetry_order
_atom_site_calc_flag
_atom_site_refinement_flags_posn
_atom_site_refinement_flags_adp
_atom_site_refinement_flags_occupancy
_atom_site_disorder_assembly
_atom_site_disorder_group
C00A C -0.6840(14) -0.071(4) -0.8917(13) 0.048(4) Uani 1 1 d . . . . .
H00A H -0.7233 -0.0881 -0.9674 0.058 Uiso 1 1 calc R . . . .
C00E C -0.7361(15) 0.084(4) -0.8387(14) 0.057(4) Uani 1 1 d . . . . .
H00E H -0.8044 0.1956 -0.8763 0.069 Uiso 1 1 calc R . . . .
C00F C -0.5760(11) -0.060(3) -0.6740(10) 0.034(3) Uani 1 1 d . . . . .
H00F H -0.5394 -0.0581 -0.5981 0.041 Uiso 1 1 calc R . . . .
C00G C -0.4147(12) -0.306(4) -0.6708(11) 0.043(3) Uani 1 1 d . . . . .
C001 C -0.5801(12) -0.196(3) -0.8396(11) 0.041(3) Uani 1 1 d . . . . .
C002 C -0.5269(11) -0.341(4) -0.8963(10) 0.038(3) Uani 1 1 d . . . . .
C005 C -0.5217(10) -0.183(3) -0.7258(10) 0.027(3) Uani 1 1 d . . . . .
C008 C -0.6799(11) 0.060(3) -0.7277(10) 0.033(3) Uani 1 1 d . . . . .
H008 H -0.7148 0.1281 -0.6882 0.040 Uiso 1 1 calc R . . . .
N003 N -0.4865(11) -0.462(4) -0.9431(10) 0.048(3) Uani 1 1 d . . . . .
N007 N -0.3254(14) -0.454(5) -0.6237(13) 0.061(4) Uani 1 1 d . . . . .
C00B C -0.7341(12) -1.063(3) -0.3380(11) 0.036(3) Uani 1 1 d . . . . .
H00B H -0.8084 -1.1259 -0.3755 0.043 Uiso 1 1 calc R . . . .
C00C C -0.5237(11) -0.794(3) -0.2277(11) 0.032(3) Uani 1 1 d . . . . .
C00D C -0.4144(10) -0.632(3) -0.1710(10) 0.029(2) Uani 1 1 d . . . . .
C00H C -0.5275(10) -0.656(3) -0.3970(10) 0.034(3) Uani 1 1 d . . . . .
C00I C -0.6859(11) -0.951(3) -0.3931(10) 0.032(3) Uani 1 1 d . . . . .
H00I H -0.7230 -0.9722 -0.4688 0.039 Uiso 1 1 calc R . . . .
C00J C -0.6798(14) -1.087(4) -0.2309(13) 0.051(4) Uani 1 1 d . . . . .
H00J H -0.7114 -1.2016 -0.1939 0.062 Uiso 1 1 calc R . . . .
C00K C -0.5799(9) -0.801(2) -0.3407(9) 0.024(2) Uani 1 1 d . . . . .
C009 C -0.5711(13) -0.935(4) -0.1716(13) 0.051(4) Uani 1 1 d . . . . .
H009 H -0.5339 -0.9335 -0.0956 0.061 Uiso 1 1 calc R . . . .
N004 N -0.3278(11) -0.535(3) -0.1260(10) 0.039(3) Uani 1 1 d . . . . .
N006 N -0.4872(10) -0.550(4) -0.4442(10) 0.045(3) Uani 1 1 d . . . . .
loop_
_atom_site_aniso_label
_atom_site_aniso_U_11
_atom_site_aniso_U_22
_atom_site_aniso_U_33
_atom_site_aniso_U_23
_atom_site_aniso_U_13
_atom_site_aniso_U_12
C00A 0.051(5) 0.047(5) 0.049(5) 0.000(3) 0.027(3) 0.003(3)
C00E 0.058(5) 0.059(5) 0.060(5) 0.001(3) 0.032(4) 0.000(3)
C00F 0.040(4) 0.030(4) 0.035(4) 0.002(3) 0.021(3) -0.001(3)
C00G 0.048(4) 0.041(4) 0.043(4) -0.004(3) 0.025(3) 0.002(3)
C001 0.044(4) 0.041(4) 0.043(4) 0.001(3) 0.026(3) 0.000(3)
C002 0.045(4) 0.034(4) 0.038(4) 0.001(3) 0.022(3) -0.001(3)
C005 0.035(4) 0.020(4) 0.030(4) 0.001(3) 0.018(3) 0.001(3)
C008 0.039(4) 0.029(4) 0.036(4) -0.002(3) 0.021(3) 0.003(3)
N003 0.057(6) 0.043(5) 0.055(6) 0.004(5) 0.035(5) 0.003(5)
N007 0.066(6) 0.062(7) 0.067(7) -0.007(5) 0.041(5) 0.002(5)
C00B 0.036(4) 0.029(4) 0.040(4) 0.001(3) 0.017(3) 0.002(3)
C00C 0.036(4) 0.028(4) 0.037(4) -0.001(3) 0.021(3) 0.003(3)
C00D 0.035(4) 0.028(3) 0.029(4) -0.001(3) 0.019(3) 0.000(3)
C00H 0.040(4) 0.032(4) 0.034(4) -0.003(3) 0.019(3) 0.001(3)
C00I 0.035(4) 0.023(4) 0.035(4) -0.003(3) 0.013(3) -0.001(3)
C00J 0.052(5) 0.053(6) 0.056(5) -0.001(3) 0.033(4) 0.001(3)
C00K 0.030(4) 0.017(3) 0.028(4) 0.001(3) 0.015(3) -0.001(3)
C009 0.053(5) 0.051(5) 0.053(5) -0.001(3) 0.029(4) -0.002(3)
N004 0.051(5) 0.025(4) 0.042(5) -0.003(4) 0.024(4) -0.002(4)
N006 0.051(5) 0.046(6) 0.048(5) 0.006(5) 0.031(4) -0.008(5)
loop_
_atom_type_symbol
_atom_type_description
_atom_type_scat_dispersion_real
_atom_type_scat_dispersion_imag
_atom_type_scat_source
C C 0.0033 0.0016 'International Tables Vol C Tables 4.2.6.8 and 6.1.1.4'
H H 0.0000 0.0000 'International Tables Vol C Tables 4.2.6.8 and 6.1.1.4'
N N 0.0061 0.0033 'International Tables Vol C Tables 4.2.6.8 and 6.1.1.4'
loop_
_geom_angle_atom_site_label_1
_geom_angle_atom_site_label_2
_geom_angle_atom_site_label_3
_geom_angle
_geom_angle_site_symmetry_1
_geom_angle_site_symmetry_3
_geom_angle_publ_flag
C00E C00A H00A 118.2 . . ?
C001 C00A H00A 118.2 . . ?
C001 C00A C00E 123.6(15) . . ?
C00A C00E H00E 122.4 . . ?
C008 C00E C00A 115.2(15) . . ?
C008 C00E H00E 122.4 . . ?
C005 C00F H00F 118.7 . . ?
C008 C00F H00F 118.7 . . ?
C008 C00F C005 122.6(12) . . ?
N007 C00G C005 172.3(16) . . ?
C00A C001 C002 122.5(13) . . ?
C00A C001 C005 118.8(12) . . ?
C005 C001 C002 118.7(11) . . ?
N003 C002 C001 178.4(15) . . ?
C00F C005 C00G 122.7(12) . . ?
C00F C005 C001 117.4(11) . . ?
C00G C005 C001 119.9(11) . . ?
C00E C008 H008 119.1 . . ?
C00F C008 C00E 121.8(13) . . ?
C00F C008 H008 119.1 . . ?
C00I C00B H00B 119.2 . . ?
C00I C00B C00J 121.5(14) . . ?
C00J C00B H00B 119.2 . . ?
C00K C00C C00D 119.3(11) . . ?
C009 C00C C00D 121.0(13) . . ?
C009 C00C C00K 119.7(12) . . ?
N004 C00D C00C 174.5(13) . . ?
N006 C00H C00K 177.8(14) . . ?
C00B C00I H00I 119.2 . . ?
C00B C00I C00K 121.5(12) . . ?
C00K C00I H00I 119.2 . . ?
C00B C00J H00J 120.3 . . ?
C00B C00J C009 119.3(15) . . ?
C009 C00J H00J 120.3 . . ?
C00C C00K C00H 118.3(10) . . ?
C00C C00K C00I 118.1(10) . . ?
C00I C00K C00H 123.5(11) . . ?
C00C C009 C00J 119.1(14) . . ?
C00C C009 H009 120.4 . . ?
C00J C009 H009 120.4 . . ?
loop_
_geom_bond_atom_site_label_1
_geom_bond_atom_site_label_2
_geom_bond_distance
_geom_bond_site_symmetry_2
_geom_bond_publ_flag
C00A H00A 0.9500 . ?
C00A C00E 1.42(2) . ?
C00A C001 1.37(2) . ?
C00E H00E 0.9500 . ?
C00E C008 1.39(2) . ?
C00F H00F 0.9500 . ?
C00F C005 1.383(16) . ?
C00F C008 1.364(19) . ?
C00G C005 1.40(2) . ?
C00G N007 1.24(2) . ?
C001 C002 1.459(18) . ?
C001 C005 1.424(16) . ?
C002 N003 1.165(17) . ?
C008 H008 0.9500 . ?
C00B H00B 0.9500 . ?
C00B C00I 1.337(18) . ?
C00B C00J 1.34(2) . ?
C00C C00D 1.487(19) . ?
C00C C00K 1.413(15) . ?
C00C C009 1.38(2) . ?
C00D N004 1.134(17) . ?
C00H C00K 1.443(16) . ?
C00H N006 1.149(16) . ?
C00I H00I 0.9500 . ?
C00I C00K 1.431(17) . ?
C00J H00J 0.9500 . ?
C00J C009 1.47(2) . ?
C009 H009 0.9500 . ?
loop_
_twin_individual_id
_twin_individual_mass_fraction_refined
1 0.670(7)
2 0.330(7)
