#------------------------------------------------------------------------------
#$Date: 2020-01-31 02:29:17 +0200 (Fri, 31 Jan 2020) $
#$Revision: 247394 $
#$URL: file:///home/coder/svn-repositories/cod/cif/1/55/71/1557194.cif $
#------------------------------------------------------------------------------
#
# This file is available in the Crystallography Open Database (COD),
# http://www.crystallography.net/
#
# All data on this site have been placed in the public domain by the
# contributors.
#
data_1557194
loop_
_publ_author_name
'Shibuya, Yusuke'
'Aonuma, Kazuhiro'
'Kimura, Tomohiro'
'Kaneko, Takuro'
'Fujiwara, Wataru'
'Yamaguchi, Yuji'
'Kumaki, Daisuke'
'Tokito, Shizuo'
'Katagiri, Hiroshi'
_publ_section_title
;
 Linear Biazulene Isomers: Effects of Molecular and Packing Structure on
 Optoelectronic and Charge-Transport Properties
;
_journal_name_full               'The Journal of Physical Chemistry C'
_journal_paper_doi               10.1021/acs.jpcc.9b11214
_journal_year                    2020
_chemical_formula_moiety         'C20 H14'
_chemical_formula_sum            'C20 H14'
_chemical_formula_weight         254.31
_space_group_crystal_system      monoclinic
_space_group_IT_number           14
_space_group_name_Hall           '-P 2ybc'
_space_group_name_H-M_alt        'P 1 21/c 1'
_atom_sites_solution_hydrogens   geom
_atom_sites_solution_primary     direct
_atom_sites_solution_secondary   difmap
_audit_creation_method           SHELXL-2014/7
_cell_angle_alpha                90
_cell_angle_beta                 94.232(4)
_cell_angle_gamma                90
_cell_formula_units_Z            2
_cell_length_a                   13.5349(7)
_cell_length_b                   6.0042(3)
_cell_length_c                   8.1543(4)
_cell_measurement_reflns_used    3976
_cell_measurement_temperature    293
_cell_measurement_theta_max      30.4250
_cell_measurement_theta_min      2.8870
_cell_volume                     660.86(6)
_computing_cell_refinement       'CrysAlisPro 1.171.38.43 (Rigaku OD, 2015)'
_computing_data_collection       'CrysAlisPro 1.171.38.43 (Rigaku OD, 2015)'
_computing_data_reduction        'CrysAlisPro 1.171.38.43 (Rigaku OD, 2015)'
_computing_molecular_graphics    'ORTEP-3 for Windows (Farrugia, 2012)'
_computing_publication_material  'Yadokari-XG (Wakita, Nemoto et al., 2009)'
_computing_structure_refinement  'SHELXL-2014/7 (Sheldrick, 2014)'
_computing_structure_solution    'SHELXT (Sheldrick, 2015)'
_diffrn_ambient_temperature      293
_diffrn_detector_area_resol_mean 28.5714
_diffrn_measured_fraction_theta_full 0.991
_diffrn_measured_fraction_theta_max 0.993
_diffrn_measurement_device_type  'Rigaku Saturn 70 CCD area detector'
_diffrn_measurement_method       \w
_diffrn_radiation_type           MoK\a
_diffrn_radiation_wavelength     0.71073
_diffrn_reflns_av_R_equivalents  0.0400
_diffrn_reflns_av_unetI/netI     0.0237
_diffrn_reflns_Laue_measured_fraction_full 0.991
_diffrn_reflns_Laue_measured_fraction_max 0.993
_diffrn_reflns_limit_h_max       17
_diffrn_reflns_limit_h_min       -17
_diffrn_reflns_limit_k_max       7
_diffrn_reflns_limit_k_min       -7
_diffrn_reflns_limit_l_max       10
_diffrn_reflns_limit_l_min       -10
_diffrn_reflns_number            8657
_diffrn_reflns_point_group_measured_fraction_full 0.991
_diffrn_reflns_point_group_measured_fraction_max 0.993
_diffrn_reflns_theta_full        25.242
_diffrn_reflns_theta_max         27.495
_diffrn_reflns_theta_min         3.714
_diffrn_source                   'Rotating Anode'
_exptl_absorpt_coefficient_mu    0.072
_exptl_absorpt_correction_T_max  1.00000
_exptl_absorpt_correction_T_min  0.68727
_exptl_absorpt_correction_type   multi-scan
_exptl_absorpt_process_details
;
CrysAlisPro 1.171.38.41 (Rigaku Oxford Diffraction, 2015)
Empirical absorption correction using spherical harmonics,
 implemented in SCALE3 ABSPACK scaling algorithm.
;
_exptl_crystal_colour            Colorless
_exptl_crystal_density_diffrn    1.278
_exptl_crystal_description       Prism
_exptl_crystal_F_000             268
_exptl_crystal_size_max          0.150
_exptl_crystal_size_mid          0.100
_exptl_crystal_size_min          0.050
_refine_diff_density_max         0.241
_refine_diff_density_min         -0.173
_refine_diff_density_rms         0.037
_refine_ls_extinction_method     none
_refine_ls_goodness_of_fit_ref   1.080
_refine_ls_hydrogen_treatment    constr
_refine_ls_matrix_type           full
_refine_ls_number_parameters     91
_refine_ls_number_reflns         1514
_refine_ls_number_restraints     0
_refine_ls_restrained_S_all      1.080
_refine_ls_R_factor_all          0.0712
_refine_ls_R_factor_gt           0.0527
_refine_ls_shift/su_max          0.000
_refine_ls_shift/su_mean         0.000
_refine_ls_structure_factor_coef Fsqd
_refine_ls_weighting_details
'w=1/[\s^2^(Fo^2^)+(0.0825P)^2^+0.0909P] where P=(Fo^2^+2Fc^2^)/3'
_refine_ls_weighting_scheme      calc
_refine_ls_wR_factor_gt          0.1404
_refine_ls_wR_factor_ref         0.1550
_reflns_Friedel_coverage         0.000
_reflns_number_gt                1117
_reflns_number_total             1514
_reflns_threshold_expression     'I > 2\s(I)'
_cod_data_source_file            jp9b11214_si_005.cif
_cod_data_source_block           180625_kazu_1_rt_a
_cod_original_sg_symbol_H-M      'P 21/c'
_cod_database_code               1557194
_shelx_shelxl_version_number     2014/7
_shelx_space_group_comment
;
The symmetry employed for this shelxl refinement is uniquely defined
by the following loop, which should always be used as a source of
symmetry information in preference to the above space-group names.
They are only intended as comments.
;
_shelx_estimated_absorpt_t_min   0.989
_shelx_estimated_absorpt_t_max   0.996
_oxdiff_exptl_absorpt_empirical_full_min 0.832
_oxdiff_exptl_absorpt_empirical_full_max 1.214
_oxdiff_exptl_absorpt_empirical_details
;
Empirical correction (ABSPACK) includes:
- Absorption correction using spherical harmonics
- Frame scaling
- Detector area scaling
;
_shelx_res_file
;

    180625_kazu_1_rt_a.res created by SHELXL-2014/7

TITL 180625_kazu_1_rt_a_a.res in P2(1)/c
REM  Yadorkari-X generated
CELL 0.71073 13.5349 6.0042 8.1543 90.0000 94.2320 90.0000
ZERR 2.0 0.0007 0.0003 0.0004 0.0000 0.0040 0.0000
LATT 1
SYMM -X, 1/2+Y, 1/2-Z
REM  SPGR P21/c monoclinic
SFAC C H
UNIT 40 28
SIZE 0.15 0.10 0.05
TEMP 20.0
L.S. 10
FMAP 2
PLAN -20
ACTA
CONF
LIST 4
BOND $H
OMIT -10.000000 55.000000
OMIT    1    0    0
OMIT    2    0    0

WGHT    0.082500    0.090900
FVAR       2.54827
C1    1    0.552451    0.520910    0.530720    11.00000    0.03982    0.03494 =
         0.02973   -0.00017    0.00195   -0.00236
C2    1    0.606450    0.369961    0.628538    11.00000    0.04291    0.03369 =
         0.03617    0.00207    0.00190   -0.00412
AFIX  43
H2    2    0.576158    0.238255    0.657817    11.00000   -1.20000
AFIX   0
C3    1    0.706531    0.408509    0.686038    11.00000    0.04184    0.03664 =
         0.03047   -0.00218    0.00178    0.00061
C4    1    0.762071    0.252945    0.786202    11.00000    0.04938    0.04113 =
         0.03998    0.00141    0.00092    0.00353
AFIX  43
H4    2    0.732783    0.119940    0.815263    11.00000   -1.20000
AFIX   0
C5    1    0.858211    0.296368    0.840518    11.00000    0.04891    0.05489 =
         0.04672    0.00245   -0.00458    0.01123
AFIX  43
H5    2    0.893745    0.192584    0.905764    11.00000   -1.20000
AFIX   0
C6    1    0.903702    0.497230    0.798249    11.00000    0.03858    0.06443 =
         0.05373   -0.00346   -0.00311    0.00073
AFIX  43
H6    2    0.968895    0.526063    0.836416    11.00000   -1.20000
AFIX   0
C7    1    0.852317    0.649851    0.701320    11.00000    0.04260    0.05250 =
         0.04929   -0.00091    0.00222   -0.00622
AFIX  43
H7    2    0.883259    0.781153    0.672909    11.00000   -1.20000
AFIX   0
C8    1    0.752715    0.610840    0.643621    11.00000    0.04043    0.04004 =
         0.03280   -0.00216    0.00225   -0.00186
C9    1    0.696722    0.764959    0.543948    11.00000    0.04752    0.03823 =
         0.04208    0.00388    0.00213   -0.00892
AFIX  43
H9    2    0.725901    0.897957    0.514594    11.00000   -1.20000
AFIX   0
C10   1    0.600906    0.722497    0.490081    11.00000    0.04721    0.03720 =
         0.04191    0.00843   -0.00219   -0.00321
AFIX  43
H10   2    0.566125    0.827710    0.425066    11.00000   -1.20000

AFIX   0
HKLF 4 1 1 0 0 0 1 0 0 0 1

REM  180625_kazu_1_rt_a_a.res in P2(1)/c
REM R1 =  0.0527 for    1117 Fo > 4sig(Fo)  and  0.0712 for all    1514 data
REM     91 parameters refined using      0 restraints

END

WGHT      0.0825      0.0909

REM Highest difference peak  0.241,  deepest hole -0.173,  1-sigma level  0.037
Q1    1   0.5000  0.5000  0.5000  10.50000  0.05    0.24
Q2    1   0.6607  0.3988  0.6577  11.00000  0.05    0.24
Q3    1   0.7375  0.4905  0.6483  11.00000  0.05    0.21
Q4    1   0.8034  0.6204  0.6517  11.00000  0.05    0.21
Q5    1   0.7985  0.3126  0.8343  11.00000  0.05    0.18
Q6    1   0.5850  0.5866  0.4834  11.00000  0.05    0.18
Q7    1   0.5628  0.6335  0.5394  11.00000  0.05    0.17
Q8    1   0.8210  0.2551  0.7805  11.00000  0.05    0.16
Q9    1   0.6593  0.6935  0.4848  11.00000  0.05    0.16
Q10   1   0.7390  0.3202  0.7236  11.00000  0.05    0.15
Q11   1   0.4308  0.5188  0.3973  11.00000  0.05    0.13
Q12   1   0.6962  0.0649  0.8369  11.00000  0.05    0.13
Q13   1   0.8662  0.4297  0.8406  11.00000  0.05    0.13
Q14   1   0.8775  0.3994  0.8160  11.00000  0.05    0.13
Q15   1   0.6399  0.7595  0.5368  11.00000  0.05    0.12
Q16   1   0.7351  0.6508  0.5829  11.00000  0.05    0.12
Q17   1   0.5419  0.8939  0.3754  11.00000  0.05    0.12
Q18   1   0.8649  0.8694  0.7014  11.00000  0.05    0.12
Q19   1   0.5543  0.1810  0.6951  11.00000  0.05    0.11
Q20   1   1.0061  0.5734  0.8654  11.00000  0.05    0.11
;
_shelx_res_checksum              30056
_shelx_hkl_file
;
   1   0   0    0.28    0.54
  -1   0   0   -0.17    0.56
   2   0   0   -1.49    1.07
  -2   0   0   -1.86    1.16
  -3   0   0  650.65   12.47
   3   0   0  641.18   13.84
  -3   0   0  677.04   11.59
   3   0   0  638.47   11.31
  -3   0   0  651.46   13.51
   3   0   0  637.88   12.42
   4   0   0 2599.65   28.67
  -4   0   0 2700.83   31.74
   4   0   0 2636.26   32.27
  -5   0   0 1153.44   23.57
   5   0   0 1122.87   21.06
   5   0   0 1149.40   23.87
  -5   0   0 1141.84   19.65
   6   0   0 9335.33   74.16
  -7   0   0 9968.72   83.78
   7   0   0 9999.00   74.84
   7   0   0 9990.39   82.92
  -7   0   0 9900.17   69.06
  -8   0   0 1091.58   30.42
   8   0   0 1116.97   29.90
  -8   0   0 1176.01   26.40
   8   0   0 1069.58   26.22
  -9   0   0   81.81    7.88
   9   0   0   79.27    8.37
   9   0   0   78.76    9.42
  -9   0   0   69.53    9.34
 -10   0   0    6.03    5.79
  10   0   0   11.58    5.11
 -10   0   0    7.42    4.23
  10   0   0   11.64    4.56
  11   0   0  455.14   23.26
  11   0   0  479.05   21.15
 -11   0   0  476.03   25.68
 -11   0   0  528.42   21.27
 -12   0   0   12.75    5.73
  12   0   0    6.44    5.92
 -12   0   0    0.30    6.04
  12   0   0    4.10    4.17
 -13   0   0 1376.42   47.02
 -13   0   0 1486.51   39.43
  13   0   0 1451.65   45.61
  13   0   0 1322.05   38.23
 -14   0   0   70.22   13.05
 -14   0   0   60.97    9.47
  14   0   0   65.30   11.54
  15   0   0   64.18   12.30
 -15   0   0   62.39   13.42
 -16   0   0   14.02   11.21
  16   0   0    0.52    7.12
  17   0   0   11.71    8.71
 -17   0   0   10.11   10.57
 -18   0   0   67.29   16.15
  18   0   0   41.66   11.81
   0   1   0    1.33    1.61
   0  -1   0   -2.00    1.99
   0   1   0   -5.34    2.14
   0  -1   0   -0.71    1.46
   0   1   0   -0.98    1.44
   0  -1   0    2.00    1.74
  -1  -1   0   33.44    3.07
  -1   1   0   30.11    2.12
  -1   1   0   29.45    3.27
  -1  -1   0   30.47    3.58
   1   1   0   33.92    3.19
   1  -1   0   30.79    3.27
   1  -1   0   28.76    2.98
   1   1   0   26.92    3.22
   1   1   0   38.10    3.81
  -1  -1   0   30.40    3.12
   1  -1   0   30.32    2.35
  -1   1   0   30.32    3.41
   1  -1   0   32.19    2.18
  -1   1   0   38.60    2.52
   2   1   0 1731.45   15.32
   2  -1   0 1677.05   20.33
  -2  -1   0 1800.85   23.26
  -2  -1   0 1776.42   15.36
   2   1   0 1782.38   22.66
  -2   1   0 1698.14   20.91
   2  -1   0 1771.60   23.24
   2   1   0 1803.60   23.34
  -2  -1   0 1836.74   24.25
   2  -1   0 1742.44   20.22
  -2   1   0 1801.11   20.28
  -3   1   0  227.04    8.73
   3   1   0  237.55    9.70
  -3  -1   0  248.01    7.61
  -3  -1   0  233.54    9.51
   3   1   0  233.32    7.63
   3  -1   0  234.53    9.91
   3  -1   0  244.39    8.81
   3   1   0  222.87    9.43
  -3   1   0  234.77    8.97
  -4   1   0  114.41    4.06
   4   1   0   91.43    6.78
   4  -1   0  104.15    7.77
  -4  -1   0  105.04    7.42
   4   1   0   96.38    7.21
   4  -1   0  108.29    6.61
   4  -1   0  111.57    4.60
  -4  -1   0  104.34    6.34
  -4   1   0  102.40    7.02
  -5   1   0   15.82    2.23
  -5   1   0   13.49    3.99
   5  -1   0   17.34    4.48
   5  -1   0   16.67    2.68
   5   1   0   14.96    3.81
   5  -1   0   19.43    3.69
  -5  -1   0   18.93    3.62
   5   1   0   15.15    4.10
  -5  -1   0   14.60    3.53
  -6   1   0  281.79   13.65
  -6  -1   0  284.88   13.42
   6   1   0  242.20   12.28
  -6   1   0  282.37    8.68
   6  -1   0  267.48   11.70
   6   1   0  272.58   12.88
  -6  -1   0  259.84   12.18
   6  -1   0  277.09   13.87
  -7  -1   0  421.76   17.32
   7   1   0  364.94   15.45
  -7   1   0  394.99   11.55
   7   1   0  396.30   16.59
  -7  -1   0  371.50   16.14
   7  -1   0  436.12   18.62
  -7   1   0  376.70   17.17
   7  -1   0  349.97   14.44
  -8   1   0  186.07   13.22
  -8  -1   0  179.87   12.35
   8   1   0  195.83   12.95
  -8   1   0  192.24    9.05
  -8  -1   0  176.68   12.68
   8  -1   0  178.26   12.91
   8   1   0  180.14   11.88
   8  -1   0  189.35   11.18
   9   1   0  202.90   14.21
  -9  -1   0  222.70   14.31
  -9   1   0  195.64   14.96
  -9  -1   0  187.06   14.04
   9  -1   0  218.39   12.76
   9  -1   0  222.88   15.30
   9   1   0  210.46   13.85
  -9   1   0  226.59   11.02
  10   1   0    0.22    4.64
 -10   1   0    0.99    5.38
  10  -1   0   -0.29    4.34
  10   1   0   -2.49    4.59
 -10  -1   0    0.32    4.49
 -10  -1   0    8.35    5.48
 -10   1   0   -2.85    3.36
  10  -1   0   13.80    6.96
 -11  -1   0    1.57    5.38
  11  -1   0   -0.90    5.31
 -11   1   0    9.40    5.16
  11   1   0    2.67    4.64
 -11  -1   0   13.14    7.06
  11  -1   0   -1.34    4.55
 -11   1   0   -0.24    6.49
  11   1   0   -0.12    4.79
  12  -1   0    2.14    5.51
  12  -1   0    1.14    4.04
 -12   1   0  -14.05    9.45
  12   1   0    3.74    4.99
 -12  -1   0   -9.21    6.75
 -12   1   0    1.83    4.50
 -12  -1   0    2.66    5.72
  12   1   0   15.69    7.00
  13  -1   0   32.62    6.87
 -13   1   0   34.06    9.64
  13   1   0   23.92    7.58
 -13  -1   0   39.47    8.57
  13   1   0   13.44    6.09
  13  -1   0   38.57    9.68
 -13  -1   0   32.62    9.19
  14  -1   0    6.49    6.82
 -14  -1   0    1.57    6.14
  14   1   0   -1.46    5.10
  14   1   0   -6.86    6.93
 -14   1   0  -15.38    8.53
 -14  -1   0    3.32    7.90
 -15   1   0    0.26    7.59
 -15  -1   0    9.98    7.78
  15   1   0    9.56    6.98
 -15  -1   0   -0.67    7.96
  15  -1   0    6.46    7.91
 -16  -1   0    1.06    6.66
  16   1   0   11.21    7.21
  16  -1   0   -0.30    7.50
 -16  -1   0    4.68    8.29
 -16   1   0   -2.31    8.86
  17  -1   0   12.86   10.08
 -17  -1   0    9.21   12.10
 -17   1   0   19.18   11.01
  17   1   0   10.87    9.11
 -18  -1   0   24.71   13.16
  18  -1   0    3.53    8.60
 -18   1   0   15.62   12.58
  18   1   0   -0.85    9.01
   0  -2   0 4764.23   47.12
   0  -2   0 4937.58   42.30
   0   2   0 4924.79   47.93
  -1   2   0  104.15    4.89
  -1  -2   0  124.34    8.77
   1  -2   0   99.12    7.22
  -1   2   0   95.12    7.92
   1  -2   0   94.10    5.66
   1   2   0  102.28    7.97
  -1  -2   0  128.78    8.39
  -1   2   0  101.88    4.33
   2  -2   0 6098.39   52.77
  -2  -2   0 6022.84   53.91
  -2  -2   0 6052.56   56.81
   2  -2   0 6070.34   55.85
   2  -2   0 6047.40   37.88
   2   2   0 6201.61   53.89
   3  -2   0   10.60    2.16
   3  -2   0   14.51    3.86
   3   2   0   11.96    4.47
  -3  -2   0   10.53    4.14
  -3  -2   0   10.33    2.20
  -3   2   0    8.28    2.73
  -3  -2   0    8.18    3.43
   3  -2   0   10.93    3.41
  -3   2   0   13.04    1.92
   4  -2   0  753.69   19.37
  -4  -2   0  788.95   14.97
   4  -2   0  774.45   22.23
  -4   2   0  709.69    9.29
  -4   2   0  674.35    9.75
   4   2   0  759.25   20.86
  -4   2   0  737.71   18.85
   4   2   0  764.34   22.48
  -4  -2   0  740.56   21.57
  -5  -2   0 1202.88   29.37
   5  -2   0 1184.47   25.23
   5   2   0 1153.73   28.97
  -5  -2   0 1140.91   21.05
  -5   2   0 1073.70   10.47
   5  -2   0 1177.01   29.11
   5   2   0 1163.58   27.04
  -5   2   0 1170.13   26.08
   6  -2   0  166.54   12.41
  -6   2   0  164.49   11.17
   6   2   0  157.33   11.42
   6   2   0  164.86   11.79
  -6   2   0  172.41    4.76
  -6  -2   0  172.77    9.60
  -6   2   0  140.35    4.75
   6  -2   0  161.91   10.38
  -6  -2   0  164.98   11.70
  -7  -2   0  285.39   16.29
  -7   2   0  334.47    7.63
   7  -2   0  341.97   15.26
  -7  -2   0  325.93   14.58
   7   2   0  346.17   17.30
   7   2   0  357.95   17.39
  -7   2   0  332.66   16.86
   7  -2   0  290.41   16.67
  -7   2   0  286.23    7.95
   8   2   0  615.38   23.80
  -8   2   0  572.88   23.68
  -8   2   0  629.19   12.25
  -8  -2   0  621.49   25.21
   8   2   0  645.23   24.64
   8  -2   0  537.44   13.29
   8  -2   0  574.58   24.20
   8  -2   0  659.15   21.96
  -8  -2   0  590.72   21.40
  -9  -2   0  574.71   25.05
  -9  -2   0  604.06   22.83
  -9   2   0  630.32   13.57
   9   2   0  571.46   24.22
   9  -2   0  590.58   26.13
   9  -2   0  637.38   22.56
  -9   2   0  575.52   25.11
   9   2   0  609.12   24.55
 -10  -2   0   -0.46    6.24
  10   2   0   -1.26    4.84
  10  -2   0    0.68    4.72
 -10  -2   0    1.74    5.27
  10   2   0    0.42    4.86
 -10   2   0    5.96    6.13
  10  -2   0    6.96    5.88
  11   2   0 2019.00   49.05
  11  -2   0 2021.12   43.14
  11   2   0 1951.31   48.36
 -11  -2   0 2020.56   47.78
 -11   2   0 2120.31   54.08
 -11  -2   0 2150.61   52.55
  12   2   0   25.37    7.55
 -12   2   0   15.40    7.94
 -12  -2   0   16.38    6.93
 -12  -2   0    9.95    6.25
  12  -2   0   25.25    8.39
  12   2   0   26.62    8.43
  12  -2   0   12.34    5.46
  13  -2   0  213.35   19.37
  13   2   0  234.79   19.37
 -13  -2   0  220.03   19.16
 -13   2   0  206.56   19.53
  13   2   0  208.28   18.25
 -13  -2   0  196.34   18.41
 -14   2   0   13.66    9.45
 -14  -2   0    8.55    8.84
  14  -2   0    4.35    6.62
 -14  -2   0    3.42    7.19
  14   2   0   -4.79    6.87
  14   2   0   -8.04    7.23
 -15   2   0   50.53   12.73
 -15  -2   0   71.98   13.17
 -15  -2   0   47.83   12.89
  15   2   0   50.60   10.74
  15  -2   0   52.02   11.31
 -16   2   0   10.88   10.07
  16   2   0   22.43   10.18
 -16  -2   0   -0.72    8.49
  16  -2   0   -2.87    8.08
 -16  -2   0   -7.07   10.29
  17   2   0   26.67   10.03
 -17  -2   0   38.44   12.78
 -17  -2   0   42.08   13.86
  17  -2   0   37.55   12.43
 -17   2   0   30.86   13.72
 -18  -2   0   32.49   14.80
  18   2   0   51.89   13.79
   0  -3   0   -4.27    4.01
   0  -3   0   -1.28    3.16
   0   3   0   -1.57    1.22
   0   3   0    0.03    1.07
   0   3   0   -0.01    5.09
  -1   3   0    3.84    2.15
  -1  -3   0    8.18    4.27
   1  -3   0    6.09    3.97
   1   3   0   15.17    5.47
  -1   3   0    4.93    2.00
  -1   3   0    7.66    5.11
  -1  -3   0   -0.38    3.95
   1  -3   0    7.00    3.33
   2   3   0 6229.05   65.45
   2  -3   0 6215.05   51.01
  -2  -3   0 6252.83   65.70
  -2   3   0 6305.99   68.40
   2  -3   0 6202.16   65.86
  -2  -3   0 6205.44   69.29
  -2   3   0 6048.84   45.57
   3   3   0  803.54   24.25
  -3  -3   0  833.87   25.14
   3  -3   0  834.47   24.38
  -3   3   0  842.72   26.32
  -3   3   0  818.77   19.08
   3  -3   0  827.88   17.53
  -3  -3   0  836.43   26.90
   4   3   0 2235.28   43.73
   4  -3   0 2258.22   44.41
  -4  -3   0 2061.78   21.16
  -4   3   0 2217.56   34.69
  -4  -3   0 2238.05   42.98
  -4  -3   0 2163.27   22.05
   4  -3   0 2183.34   39.98
   4   3   0 2296.15   41.60
   4  -3   0 2260.49   26.23
  -4   3   0 2389.37   23.25
  -5  -3   0  752.76   26.11
   5  -3   0  711.89   25.48
   5   3   0  817.15   25.86
  -5  -3   0  851.63   17.25
  -5   3   0  757.40   22.24
   5   3   0  757.46   26.59
  -5   3   0  689.19   11.57
   5  -3   0  769.46   24.21
  -5   3   0  775.06   11.00
   6   3   0   40.24    8.11
   6  -3   0   39.99    7.63
   6  -3   0   45.16    6.48
  -6   3   0   40.48    6.65
  -6  -3   0   56.96    5.97
   6   3   0   47.71    8.00
  -6  -3   0   41.94    8.18
   7   3   0   86.91   11.15
  -7  -3   0   89.12    8.00
  -7   3   0   84.01    9.36
  -7  -3   0  109.01   12.17
   7   3   0   88.59   10.00
   7  -3   0   87.93    9.10
   7  -3   0   94.37   11.11
   8  -3   0 1041.02   30.17
   8   3   0 1085.26   33.58
   8  -3   0 1020.17   35.21
  -8  -3   0  986.25   34.57
  -8  -3   0 1071.51   27.64
   8   3   0 1011.44   33.75
  -8   3   0 1032.49   32.50
   9  -3   0 2879.80   51.19
   9   3   0 2981.05   57.67
   9  -3   0 2876.88   60.99
  -9  -3   0 2899.96   61.50
  -9  -3   0 2990.67   49.55
   9   3   0 2864.14   59.72
  -9   3   0 2747.23   56.51
  10   3   0  247.97   17.79
  10  -3   0  228.80   19.01
  10  -3   0  236.67   15.59
  10   3   0  220.52   18.03
 -10   3   0  244.39   18.73
 -10  -3   0  231.23   19.17
 -10  -3   0  245.18   16.01
 -11  -3   0 1854.93   45.44
  11   3   0 1828.60   48.47
 -11   3   0 1926.06   52.54
  11  -3   0 1846.24   53.39
  11  -3   0 1893.32   44.36
  11   3   0 1798.38   49.91
 -11  -3   0 1987.42   55.70
 -12  -3   0   36.60    9.98
  12  -3   0   24.53    8.90
 -12  -3   0   34.12    8.58
  12  -3   0   33.07    7.20
 -12   3   0   19.38    7.98
  12   3   0   26.51    8.05
  12   3   0   30.06    8.79
 -13  -3   0   13.14    8.18
 -13   3   0    2.26    6.93
  13  -3   0   10.77    7.40
  13   3   0    8.12    6.23
 -13  -3   0    8.95    7.18
  13   3   0   11.40    7.81
  14   3   0   11.66    7.84
 -14   3   0   24.63   10.20
 -14  -3   0    7.02    8.23
  14   3   0    3.37    6.53
 -14  -3   0   25.18    9.72
  14  -3   0    2.36    7.58
  15  -3   0   38.54   11.76
  15   3   0   41.19   10.79
 -15   3   0   15.79    8.63
  15   3   0   34.21   10.70
 -15  -3   0   49.92   13.18
  16  -3   0    5.90    8.72
  16   3   0   14.09    8.53
 -16   3   0    1.46   10.70
 -16  -3   0   10.94   10.55
 -17   3   0   48.09   14.47
  17   3   0   53.44   14.20
 -17  -3   0   49.97   13.62
   0   4   0  487.43   21.73
   0  -4   0  511.89   20.06
   0  -4   0  464.75   21.96
  -1   4   0   11.24    6.63
   1  -4   0    9.07    4.62
  -1   4   0    8.19    2.53
  -1  -4   0   19.22    6.34
  -1   4   0   10.12    2.58
   1   4   0   16.89    7.24
  -1  -4   0   23.19    7.10
   1  -4   0    6.54    5.09
  -2   4   0  337.33   11.56
   2   4   0  368.20   19.46
  -2  -4   0  321.92   17.18
  -2  -4   0  311.35   18.88
   2  -4   0  331.02   18.57
  -2   4   0  312.41   18.37
   2  -4   0  356.91   15.19
  -3   4   0   50.71    5.89
  -3  -4   0   34.53    8.17
  -3  -4   0   35.69    7.20
   3  -4   0   41.89    7.40
  -3   4   0   35.31    7.85
   3  -4   0   36.79    5.74
   3   4   0   41.25    8.70
  -4   4   0   -2.44    4.25
  -4   4   0   -0.81    5.81
   4  -4   0    5.08    3.77
   4   4   0    1.23    6.56
  -4  -4   0    0.11    5.77
   4  -4   0   -1.41    4.88
  -4  -4   0   -2.26    4.80
  -5  -4   0   88.21   11.23
   5   4   0   80.70   11.25
  -5   4   0  100.08    9.18
   5   4   0  114.28   12.55
   5  -4   0   88.92   10.21
   6  -4   0   98.48   12.26
  -6  -4   0  100.60   12.58
  -6   4   0   91.51    9.63
   6   4   0  108.39   12.20
   6   4   0   80.55   11.72
   6  -4   0   66.37    9.34
   7  -4   0   20.30    6.65
   7   4   0   12.76    7.10
   7  -4   0   14.97    7.63
  -7  -4   0   12.77    7.11
  -7   4   0   10.09    5.86
   7   4   0   14.81    7.38
   8   4   0  358.49   20.98
  -8   4   0  310.75   18.71
  -8  -4   0  317.44   22.72
   8   4   0  361.72   23.59
   8  -4   0  334.50   19.63
   8  -4   0  328.89   22.38
   9   4   0  584.51   27.72
   9  -4   0  598.45   30.76
  -9   4   0  497.55   25.41
   9   4   0  496.29   28.26
  -9  -4   0  540.04   30.50
   9  -4   0  543.99   25.32
  10   4   0   30.10    9.34
 -10  -4   0   24.91    9.16
  10  -4   0   23.80    7.27
 -10   4   0   17.17    7.34
  10  -4   0   24.60    8.28
  10   4   0   19.09    7.95
 -11   4   0    2.65    7.19
  11  -4   0   19.56    6.98
  11   4   0   25.13    8.04
 -11  -4   0   27.04   10.09
  11  -4   0   21.73    8.50
  11   4   0   25.29    8.24
  12  -4   0   -6.37    7.16
 -12  -4   0    8.93    8.35
 -12   4   0   -2.69    6.81
  12   4   0    3.35    6.96
  12   4   0    3.29    7.24
  13  -4   0   15.80    9.49
  13   4   0    6.69    6.88
 -13  -4   0    2.86    8.09
  13   4   0   22.11    8.77
 -13   4   0   14.08    9.88
 -14  -4   0   -7.60   10.46
  14  -4   0    6.50    7.78
 -14   4   0   -4.17    8.87
  14   4   0   -1.13    7.19
  14   4   0   18.79    8.89
  15  -4   0   99.19   17.79
  15   4   0   73.52   14.82
 -15   4   0   97.57   16.44
  15   4   0  100.42   16.17
 -15  -4   0   87.45   17.63
  16   4   0   31.73   12.85
 -16  -4   0   -2.01   11.26
 -16   4   0   -0.84   11.05
   0   5   0    9.62    7.82
   0  -5   0   -8.16    6.48
   0  -5   0    3.82    4.51
   1  -5   0   27.32    8.54
   1   5   0   10.86    8.17
  -1  -5   0   23.43    8.85
   1  -5   0   15.55    5.85
  -1  -5   0    7.96    5.42
  -1   5   0   24.46    9.21
   2   5   0 1341.39   41.37
  -2  -5   0 1259.41   42.61
  -2   5   0 1313.14   41.41
  -2  -5   0 1233.14   37.89
   2  -5   0 1268.49   40.77
   2  -5   0 1267.72   32.47
   3  -5   0  603.46   28.21
  -3   5   0  650.50   29.71
  -3  -5   0  666.21   29.31
  -3  -5   0  702.93   32.66
   3   5   0  675.73   29.97
   3  -5   0  707.19   23.20
  -4  -5   0    9.19    6.43
  -4   5   0   17.37    5.50
  -4   5   0    3.87    7.11
   4   5   0   25.58    9.40
   4  -5   0   11.05    6.39
  -5  -5   0   -0.65    6.37
   5   5   0   -2.01    6.87
   5  -5   0   -5.73    5.81
  -5   5   0   13.64    8.65
  -5   5   0    2.19    4.27
   5   5   0   -0.71    5.66
  -6   5   0   -1.13    5.12
   6   5   0    1.43    7.17
   6  -5   0   -3.64    5.53
  -6  -5   0    3.37    6.84
   6   5   0   -2.27    6.17
  -6   5   0    2.69    7.51
   7  -5   0    6.47    5.81
  -7  -5   0   11.81    6.99
   7   5   0    9.98    8.08
  -7   5   0    9.71    8.21
   7   5   0    2.89    6.61
  -7   5   0   14.04    6.20
  -8   5   0   24.64    6.61
   8   5   0   49.81   10.70
   8   5   0   55.99   11.74
  -8  -5   0   41.34   10.64
   8  -5   0   20.16    6.38
  -9   5   0  364.69   22.42
   9   5   0  373.52   27.14
  -9  -5   0  370.22   27.55
   9  -5   0  387.80   23.92
   9  -5   0  419.87   28.56
   9   5   0  400.79   25.00
  10  -5   0   25.66    9.59
  10   5   0    7.87    8.54
  10   5   0   34.22    9.35
  10  -5   0   25.81    8.36
 -10  -5   0   14.83    9.87
 -10   5   0   15.16    8.56
  11   5   0  311.33   26.09
  11  -5   0  372.50   28.61
 -11  -5   0  352.17   29.02
  11   5   0  335.09   24.44
 -11   5   0  332.44   23.99
  12   5   0   -5.60    8.94
  12   5   0    6.60    7.59
 -12  -5   0    1.46    9.05
 -12   5   0   -0.50    8.69
  12  -5   0   -0.05   10.15
  13  -5   0    6.38   10.01
 -13  -5   0    5.63   11.04
 -13   5   0  -12.40    9.86
  13   5   0   -7.05    9.37
  13   5   0   13.48    9.04
  14  -5   0    1.11    9.50
  14   5   0    2.49   10.34
  14   5   0   15.51    9.57
 -14   5   0    6.95   10.08
 -14  -5   0  -14.35   11.43
  15   5   0   38.46   13.45
  15   5   0   23.95   10.74
 -15   5   0   17.75   11.81
   0   6   0  138.40   16.38
   0  -6   0  136.41   13.47
   0  -6   0  118.57   15.28
   1  -6   0   53.95    9.03
  -1   6   0   69.22   13.22
   1   6   0   58.18   12.35
  -1  -6   0   44.90   11.52
   1  -6   0   68.74   12.30
  -1  -6   0   60.91   10.07
  -2   6   0  795.20   35.57
  -2  -6   0  734.15   32.72
   2   6   0  856.91   37.65
   2  -6   0  751.15   35.29
  -2  -6   0  793.59   38.45
   3   6   0  384.26   25.41
  -3  -6   0  384.90   27.96
   3  -6   0  345.14   24.32
  -3  -6   0  314.95   22.37
  -3   6   0  325.74   23.65
  -4   6   0  403.11   26.05
   4   6   0  424.83   26.86
   4  -6   0  368.90   25.13
  -4  -6   0  404.76   26.26
   4   6   0  353.92   25.95
  -5  -6   0    4.04    6.94
  -5   6   0    2.18    7.45
   5   6   0   12.08    8.94
   5  -6   0   -4.02    7.18
  -6   6   0   26.82    9.01
   6   6   0   21.17   10.01
   6   6   0   32.50   10.09
  -6  -6   0   34.43   10.08
   6  -6   0   17.56    8.10
   7  -6   0   -3.01    6.78
   7   6   0    1.58    7.15
  -7   6   0    4.53    8.58
   7   6   0    4.14    8.30
  -7  -6   0   20.35   10.24
   8  -6   0   -5.62    6.71
   8   6   0   -5.87    8.14
  -8   6   0   -0.50    9.47
   8   6   0    2.12    8.43
  -8  -6   0   12.97    8.32
   9  -6   0   14.69    8.07
   9   6   0   47.49   11.33
  -9  -6   0   31.00   11.59
  -9   6   0   25.64   11.70
   9   6   0   38.64   11.38
  10   6   0   82.85   15.31
  10   6   0   74.87   14.34
 -10  -6   0   78.70   15.45
 -10   6   0   77.26   18.13
 -11  -6   0   93.45   17.80
 -11   6   0   84.91   17.81
  11   6   0  109.65   16.80
  11   6   0  116.77   19.11
 -12  -6   0   10.02   11.70
 -12   6   0   11.54   12.90
  12   6   0   15.33   10.41
  12   6   0   -9.52    9.22
  13   6   0   -2.04   11.10
   0  -7   0  -15.32   12.60
   0   7   0   -5.12   10.76
  -1  -7   0    0.87    7.35
  -1  -7   0    5.75    6.30
   1   7   0   24.73   12.18
  -1   7   0    2.39    9.13
   1  -7   0   -8.83    7.98
  -2  -7   0   23.67    8.58
   2  -7   0   10.80    7.83
  -2   7   0   27.43   11.76
  -2  -7   0   10.48    8.00
   2   7   0   18.68   10.26
  -3  -7   0   13.45    8.08
   3  -7   0   23.78    9.53
  -3   7   0   24.24   11.06
   3   7   0   33.12   12.68
  -4  -7   0   38.87   11.35
   4   7   0   77.36   16.13
  -4   7   0   39.09   11.96
   4   7   0   33.42   11.30
   4  -7   0   49.32   12.11
  -5  -7   0   10.52   10.08
   5   7   0   -3.26    9.46
   5   7   0    8.88    9.58
   5  -7   0   14.31    9.00
  -5   7   0   12.23    8.82
   6   7   0   -7.67    8.88
   6  -7   0    2.40    9.03
   6   7   0   -6.41    9.45
  -6   7   0    6.73   11.23
  -6  -7   0    9.77    9.88
   7   7   0   13.33   10.54
  -7  -7   0   -8.93   10.27
   7   7   0   16.74   11.12
   7  -7   0   10.32    8.08
  -7   7   0    8.18   11.03
   8  -7   0    8.39    9.97
   8   7   0   13.55    9.40
  -8   7   0   -1.48   11.11
  -8  -7   0    2.94    9.42
  -9  -7   0   -3.45   10.62
  -9   7   0   -4.91   10.65
   9   7   0    4.12    9.78
 -10   7   0    3.71   12.17
   0  -8   0  330.39   31.81
   0   8   0  382.02   32.35
   1  -8   0   26.47   12.76
  -1  -8   0   35.20   14.15
   1   8   0   74.33   17.92
  -1   8   0   49.47   15.10
  -2   8   0   -3.35   11.99
   2  -8   0   30.29   13.12
   2   8   0   10.32   10.39
  -3   8   0   10.88   13.64
   3  -8   0   -8.04    9.69
  -4   8   0    2.35   11.19
   4  -8   0    0.70    9.57
  -4  -8   0    1.00    9.95
   5  -8   0    6.47   10.20
  -5  -8   0   -1.55    9.63
  -5   8   0   11.06   12.51
  -6  -8   0  124.33   20.25
   6  -8   0  109.48   18.89
  -6   8   0  120.56   21.17
 -18   0   1  -14.51   12.32
  18   0  -1   23.53   11.55
 -17   0   1   -9.98   10.43
  17   0  -1   -4.37    7.91
  16   0  -1   15.34    9.49
 -16   0   1    2.41    8.42
  15   0  -1    1.79    6.48
  15   0  -1   -3.76    6.20
  14   0  -1   -2.20    4.96
 -14   0   1    8.09    9.11
  14   0  -1    7.53    6.47
 -14   0   1   24.25    9.09
  13   0  -1   -2.19    5.01
 -13   0   1   -5.49    6.41
  13   0  -1    4.14    6.06
 -13   0   1    5.32    5.81
 -12   0   1    6.81    7.19
 -12   0   1   -1.19    4.97
  12   0  -1    7.61    5.32
  12   0  -1   -3.66    5.49
 -11   0   1    7.34    4.80
 -11   0   1   -6.59    5.28
  11   0  -1   13.59    6.18
  11   0  -1   -2.98    5.10
  10   0  -1    9.35    5.81
  10   0  -1   -6.30    5.46
 -10   0   1    1.48    5.35
 -10   0   1   -2.75    4.53
  -9   0   1    3.60    3.59
  -9   0   1    2.38    5.29
   9   0  -1   -6.48    4.65
   9   0  -1   -4.18    4.95
  -8   0   1   -0.56    3.28
   8   0  -1   -0.11    3.48
   8   0  -1   -3.01    4.10
  -8   0   1    0.28    4.28
  -7   0   1    2.85    3.26
   7   0  -1    3.79    3.86
  -7   0   1   -0.49    3.96
   7   0  -1   -6.39    4.56
  -6   0   1   -2.23    3.70
   6   0  -1   -0.86    2.86
  -6   0   1    4.28    3.16
   6   0  -1    5.77    3.88
   5   0  -1    1.86    3.04
  -5   0   1   -0.43    2.50
  -5   0   1   -1.14    3.28
   5   0  -1   -1.05    2.93
  -4   0   1    0.71    2.27
   4   0  -1   -0.05    2.52
  -4   0   1    1.55    3.17
   4   0  -1    2.86    3.05
   3   0  -1    3.06    2.76
   3   0  -1   -3.16    2.63
   3   0  -1   -0.47    2.86
  -3   0   1    1.31    2.52
  -3   0   1    1.34    2.56
  -3   0   1    4.99    3.37
  -2   0   1   -1.36    2.26
  -2   0   1    0.56    1.48
   2   0  -1    3.71    2.58
  -2   0   1   -1.04    2.45
   2   0  -1   -0.44    1.74
  -2   0   1    0.50    1.65
   2   0  -1    5.13    1.92
   2   0  -1    0.04    2.04
   1   0  -1   12.42    2.05
  -1   0   1    5.26    1.84
   1   0  -1   10.68    2.43
   1   0  -1    0.05    0.73
  -1   0   1    5.54    1.25
   1   0  -1   -0.33    0.61
  -1   0   1   -0.07    0.65
   0   0  -1   -1.18    1.38
   0   0   1   -0.30    1.42
   0   0  -1    0.23    0.54
   0   0   1    0.52    0.98
   0   0   1    1.27    0.82
   0   0  -1   -0.50    0.84
   1   0   1    0.91    1.60
  -1   0  -1    1.49    1.65
   1   0   1    2.00    1.40
  -1   0  -1   -0.68    1.38
   2   0   1    1.46    2.27
   2   0   1    0.94    2.28
  -2   0  -1    1.17    2.09
  -2   0  -1   -0.33    2.67
   2   0   1   -0.73    2.32
  -2   0  -1    1.01    2.34
   3   0   1    2.41    3.13
   3   0   1    2.24    3.02
  -3   0  -1    3.61    2.46
   3   0   1   -0.88    1.41
  -4   0  -1    0.57    2.91
   4   0   1    2.69    1.72
   4   0   1    3.28    2.90
  -4   0  -1    1.20    2.50
  -4   0  -1    0.34    1.79
  -5   0  -1   -0.77    2.77
  -5   0  -1    0.95    3.10
   5   0   1    2.45    2.24
  -5   0  -1    2.96    2.22
   5   0   1    1.87    2.91
  -6   0  -1   -2.07    3.46
   6   0   1   -3.35    3.58
  -6   0  -1    0.48    3.58
   6   0   1    1.43    2.62
   7   0   1   -1.21    3.71
  -7   0  -1    0.90    4.24
   7   0   1   -2.84    2.85
  -7   0  -1   -1.75    3.30
   8   0   1    2.37    2.99
  -8   0  -1   -2.97    3.78
   8   0   1   -4.51    5.14
  -8   0  -1   -0.06    3.17
  -9   0  -1   -0.80    3.92
   9   0   1   -2.13    3.28
   9   0   1   -0.52    4.88
  -9   0  -1   -5.35    4.88
 -10   0  -1   -1.94    4.89
 -10   0  -1   -0.42    5.08
  10   0   1  -17.36    7.73
  10   0   1   -5.32    4.09
  11   0   1    0.48    4.42
 -11   0  -1    7.31    5.85
 -11   0  -1   -2.09    6.47
  11   0   1   -7.93    6.98
  12   0   1    9.79    6.08
  12   0   1    9.41    4.83
 -12   0  -1   -1.09    5.73
 -12   0  -1    0.30    4.98
 -13   0  -1   -1.06    6.31
  13   0   1   -5.16    6.21
 -13   0  -1   -1.10    5.74
 -14   0  -1    5.83    7.88
  14   0   1  -11.33    7.87
 -14   0  -1   14.33    6.96
 -15   0  -1   -2.66    8.66
  15   0   1   -9.79    8.08
 -16   0  -1   -4.07    8.81
  16   0   1    5.45    8.07
 -17   0  -1    9.10   10.12
  17   0   1    5.06    8.42
 -18   0  -1   -6.02   10.70
  18   0   1  -18.90   11.50
 -18  -1   1   16.03   11.80
 -18   1   1   -5.01   12.76
  18  -1  -1    9.81    9.50
  18   1  -1    0.02    8.31
  17   1  -1    3.28    7.25
 -17  -1   1    7.20   10.94
 -17   1   1    5.09   10.80
  17  -1  -1   -6.88    8.08
 -16  -1   1   14.06    9.52
  16  -1  -1   30.48    9.25
 -16   1   1   11.90   11.51
 -15  -1   1   13.90    8.91
  15   1  -1   -0.52    6.67
 -15   1   1   -2.93    7.72
  15   1  -1    4.04    5.97
 -15  -1   1    4.47    6.06
  15  -1  -1    9.95    7.60
  14   1  -1  261.26   20.41
  14   1  -1  284.51   20.47
 -14  -1   1  259.07   18.72
 -14  -1   1  272.37   22.77
 -14   1   1  226.34   21.70
  14  -1  -1  278.16   21.58
  14  -1  -1  269.46   19.02
  13   1  -1   27.77    8.33
 -13   1   1   15.34    7.79
 -13  -1   1    3.93    6.49
  13   1  -1   18.54    6.60
 -13  -1   1   27.39    7.95
  13  -1  -1   16.42    6.24
  13  -1  -1   12.50    6.53
  12  -1  -1    6.35    6.03
  12   1  -1    4.20    4.93
  12   1  -1   -3.17    5.15
 -12   1   1   15.11    8.21
 -12  -1   1   -0.05    6.18
 -12  -1   1    5.00    4.80
  12  -1  -1    3.86    4.48
 -11  -1   1   -2.33    5.04
  11  -1  -1   -3.13    5.45
 -11   1   1   14.73    7.27
 -11  -1   1   -2.39    7.26
 -11   1   1    5.46    3.98
  11   1  -1   -2.85    4.84
  11   1  -1   -0.80    4.90
  11  -1  -1    1.88    4.87
  10  -1  -1   66.07    8.78
  10  -1  -1   83.22   10.73
 -10  -1   1   78.77    9.41
 -10  -1   1   70.63    9.77
 -10   1   1   66.03   10.12
 -10   1   1   81.80    7.07
  10   1  -1   61.53    9.06
  10   1  -1   92.97   10.30
   9   1  -1   -0.08    3.96
  -9  -1   1    5.51    4.61
   9  -1  -1   -3.58    4.50
  -9   1   1    4.90    3.06
  -9  -1   1    9.47    5.12
  -9   1   1    6.58    5.28
   9  -1  -1    0.88    4.43
   9   1  -1    3.23    4.96
   8  -1  -1  175.86   12.64
  -8  -1   1  187.21   12.69
  -8   1   1  179.35   12.76
  -8   1   1  198.14    8.89
   8   1  -1  195.57   12.25
   8  -1  -1  184.17   12.17
  -8  -1   1  197.95   12.71
   8   1  -1  197.24   13.41
  -7   1   1 2334.30   26.63
  -7   1   1 2259.64   40.91
  -7  -1   1 2389.26   39.91
   7   1  -1 2342.89   41.88
   7   1  -1 2254.93   37.43
  -7  -1   1 2240.88   39.18
   7  -1  -1 2333.52   39.69
   7  -1  -1 2319.40   41.81
   6  -1  -1   44.82    6.17
  -6   1   1   59.10    4.19
   6   1  -1   63.45    6.37
  -6   1   1   61.07    7.38
   6   1  -1   54.95    7.13
   6  -1  -1   53.69    3.94
  -6  -1   1   62.50    6.81
   6  -1  -1   53.57    6.34
  -6  -1   1   70.31    7.21
   5   1  -1  207.20    9.64
  -5   1   1  183.13   10.47
   5   1  -1  185.85   10.59
  -5   1   1  183.81    5.86
  -5  -1   1  200.89   10.71
   5  -1  -1  207.26   11.01
   5  -1  -1  196.48    5.91
  -5  -1   1  212.25   10.49
   5  -1  -1  201.95   10.79
  -4   1   1    4.85    3.47
   4   1  -1    6.66    2.40
  -4  -1   1    5.96    3.23
  -4  -1   1    3.87    3.24
   4  -1  -1    3.25    2.78
  -4   1   1    3.28    1.15
   4  -1  -1    4.17    3.15
   4  -1  -1    4.32    1.16
   4   1  -1    0.86    3.45
  -3  -1   1 1691.21   22.40
  -3   1   1 1718.97   25.74
  -3  -1   1 1753.97   27.00
   3   1  -1 1683.00   27.23
   3  -1  -1 1729.78   27.18
  -3  -1   1 1744.81   23.77
   3   1  -1 1732.74   20.86
   3  -1  -1 1629.86   26.04
  -2  -1   1  836.42   13.11
   2   1  -1  861.05   15.29
  -2  -1   1  795.48   14.54
   2  -1  -1  776.16   16.99
  -2  -1   1  831.56   17.36
   2  -1  -1  736.20   16.43
   2   1  -1  780.63   11.56
  -2   1   1  753.66    9.46
   2  -1  -1  706.88    8.94
  -2   1   1  803.85   16.03
   2   1  -1  769.94   16.98
   1  -1   1 2484.45   26.60
   1  -1   1 2536.62   25.31
  -1  -1  -1 2493.47   26.67
  -1   1  -1 2501.16   22.34
  -1  -1  -1 2538.29   26.15
   1   1   1 2525.40   22.21
   1  -1   1 2558.03   21.95
  -1   1  -1 2720.24   26.93
   1  -1   1 2460.02   22.64
  -1  -1  -1 2460.41   22.40
   1   1   1 2415.14   25.86
  -1   1  -1 2570.74   25.29
  -1   1  -1 2619.92   22.50
   1   1   1 2396.04   29.24
   2  -1   1 1276.91   20.32
  -2  -1  -1 1188.89   18.85
   2   1   1 1255.71   17.23
   2  -1   1 1240.08   14.29
   2   1   1 1187.06   22.49
  -2  -1  -1 1174.99   17.25
  -2   1  -1 1225.77   18.36
  -2   1  -1 1201.65   18.36
   2  -1   1 1166.88   18.90
  -2   1  -1 1263.72   15.00
  -2  -1  -1 1211.07   20.49
  -3  -1  -1  638.30   14.81
  -3   1  -1  673.70   14.32
   3  -1   1  671.24   16.99
   3  -1   1  728.41   15.95
   3   1   1  649.74   14.25
   3  -1   1  633.47   16.00
  -3  -1  -1  630.40   16.72
   3  -1   1  674.98   10.81
   3   1   1  628.85   17.25
  -3   1  -1  633.05   11.29
   4  -1   1  761.80   12.35
   4  -1   1  761.73   19.56
  -4   1  -1  748.38   15.51
   4   1   1  719.10   16.68
  -4  -1  -1  776.48   19.74
   4   1   1  759.65   20.01
  -4   1  -1  734.52   18.96
  -4   1  -1  732.89   13.55
  -4  -1  -1  758.13   17.49
   5  -1   1  978.80   24.18
   5   1   1  970.97   20.57
   5  -1   1  985.01   16.13
  -5  -1  -1  996.63   22.24
  -5  -1  -1  974.17   23.86
   5   1   1  966.67   24.59
  -5   1  -1  957.01   18.09
  -5   1  -1  907.31   16.32
  -5   1  -1 1011.73   24.28
  -6  -1  -1 3499.86   48.04
  -6   1  -1 3588.65   49.76
   6   1   1 3479.40   49.51
  -6   1  -1 3536.83   36.82
   6   1   1 3412.23   41.46
  -6  -1  -1 3613.40   46.96
   6  -1   1 3617.97   34.36
   6  -1   1 3447.94   49.97
  -7   1  -1   48.21    7.48
  -7  -1  -1   51.04    7.15
   7  -1   1   46.17    7.57
  -7  -1  -1   58.99    7.25
   7  -1   1   47.65    4.76
   7   1   1   45.50    5.90
   7   1   1   43.15    6.76
  -7   1  -1   56.86    5.53
  -8  -1  -1   53.27    7.49
   8  -1   1   41.41    7.35
  -8   1  -1   37.95    7.00
   8   1   1   33.38    6.98
   8  -1   1   44.54    5.15
  -8  -1  -1   38.23    6.55
  -8   1  -1   35.62    5.08
   8   1   1   35.61    5.75
  -9   1  -1    2.54    4.55
  -9  -1  -1   -8.88    5.59
  -9  -1  -1    8.87    5.81
   9  -1   1   -0.23    3.03
   9  -1   1   -1.42    4.64
   9   1   1    2.73    4.01
  -9   1  -1    3.16    3.94
   9   1   1    5.56    4.48
  10  -1   1  160.25   14.46
 -10   1  -1  179.05   11.16
  10   1   1  171.50   12.51
 -10   1  -1  159.86   15.14
 -10  -1  -1  186.14   14.32
  10  -1   1  187.01   11.22
  10   1   1  169.66   14.60
 -10  -1  -1  181.93   15.36
  11  -1   1   50.92    9.77
 -11   1  -1   71.18    8.00
 -11   1  -1   60.28   11.05
 -11  -1  -1   49.04    8.67
  11   1   1   72.16   10.70
  11  -1   1   57.41    6.92
  11   1   1   76.99    9.64
 -11  -1  -1   46.16    9.08
  12   1   1   67.45    9.36
 -12  -1  -1   61.32    9.44
 -12   1  -1   72.76   12.07
  12   1   1   84.16   11.53
 -12  -1  -1   67.17   11.69
 -12   1  -1   68.53    8.54
  12  -1   1   67.35   10.72
 -13   1  -1  109.83   15.78
 -13  -1  -1  136.03   14.46
  13   1   1  148.73   16.45
  13   1   1  122.38   12.38
 -13  -1  -1  133.81   15.44
  13  -1   1  129.63   15.87
  14  -1   1   43.94    9.96
  14   1   1   48.01   10.75
 -14  -1  -1   72.58   12.24
 -14  -1  -1   62.84   12.92
 -14   1  -1   47.99   11.81
 -15  -1  -1   13.92    8.73
  15   1   1   12.12    7.18
 -15  -1  -1   39.21   10.94
  15  -1   1   15.32    7.81
 -15   1  -1   23.98    9.39
 -16  -1  -1   41.96   12.34
 -16  -1  -1    8.03    8.58
  16  -1   1   25.15    9.53
  16   1   1   36.96   12.01
 -16   1  -1   29.44   10.35
 -17  -1  -1    3.08    9.72
 -17   1  -1   29.73   10.73
  17   1   1   48.09   14.23
  17  -1   1   31.79   11.83
 -18  -1  -1   11.29   10.91
  18   1   1   12.28    9.35
 -18  -2   1    9.27   13.26
  18   2  -1   24.84   11.00
  17  -2  -1   10.54    9.16
  17   2  -1    1.54    7.18
 -17  -2   1   -2.31   10.61
 -17  -2   1    5.15    8.91
 -17   2   1    6.48   11.23
 -16  -2   1   34.38   13.43
 -16  -2   1   30.56   10.94
  16  -2  -1   61.51   13.76
  16   2  -1   59.05   12.50
 -16   2   1   29.78   12.49
  16   2  -1   54.95   12.20
  15   2  -1   -1.99    6.68
  15   2  -1    1.03    6.64
 -15  -2   1   -3.47    9.21
  15  -2  -1   12.29    8.35
 -15   2   1   -2.57    8.36
 -15  -2   1   15.00    9.11
  14   2  -1   -0.19    5.41
  14  -2  -1    4.75    5.77
 -14  -2   1   -9.45    8.46
 -14   2   1   10.55    8.84
  14  -2  -1    4.24    7.52
  14   2  -1   -1.70    6.62
 -14  -2   1    6.70    7.72
  13   2  -1   15.94    7.22
 -13  -2   1    9.59    7.31
 -13  -2   1   -3.97    6.68
  13  -2  -1   -3.59    5.02
 -13   2   1   -0.36    7.10
  13   2  -1    6.07    5.95
  13  -2  -1    6.13    7.88
 -12  -2   1  318.77   21.49
  12  -2  -1  295.35   18.53
 -12  -2   1  311.41   21.12
  12   2  -1  298.09   19.35
 -12   2   1  306.95   22.66
  12  -2  -1  340.86   22.89
  12   2  -1  282.01   20.56
  11  -2  -1  298.48   20.82
 -11  -2   1  276.10   18.91
 -11  -2   1  314.71   19.89
  11   2  -1  299.73   18.49
 -11   2   1  269.61   19.79
  11   2  -1  290.03   20.06
  11  -2  -1  290.13   17.84
 -10  -2   1  684.16   28.30
  10   2  -1  658.45   28.14
 -10   2   1  623.02   27.59
 -10  -2   1  663.67   26.41
  10   2  -1  666.92   25.46
  10  -2  -1  733.69   30.38
  10  -2  -1  669.90   25.78
   9  -2  -1 1077.61   34.67
   9  -2  -1 1005.37   30.33
  -9  -2   1 1100.87   33.85
  -9   2   1 1057.05   33.26
  -9  -2   1 1039.81   30.78
   9   2  -1 1099.22   30.47
   9   2  -1  996.80   32.29
   8  -2  -1   32.06    7.25
  -8  -2   1   21.01    5.79
   8   2  -1   28.36    5.94
  -8   2   1   26.22    6.78
   8  -2  -1   33.36    6.72
  -8  -2   1   29.78    6.87
   8   2  -1   24.98    6.66
  -7   2   1   67.25    8.39
   7   2  -1   85.56    8.46
  -7  -2   1   52.25    7.51
   7   2  -1   75.72    9.64
   7  -2  -1   78.51    9.49
   7  -2  -1   76.05    8.54
  -7  -2   1   78.09    8.34
   6  -2  -1   21.44    5.67
  -6  -2   1   24.82    5.09
   6  -2  -1   23.45    5.28
  -6   2   1   21.84    4.66
   6   2  -1   27.93    5.56
   6   2  -1   25.86    6.38
  -6  -2   1   20.85    5.32
  -5  -2   1  187.78   10.09
   5  -2  -1  165.39   11.57
   5   2  -1  172.05    9.88
   5  -2  -1  160.38   10.92
  -5   2   1  150.59   10.07
  -5  -2   1  170.74   11.64
   5   2  -1  184.59   12.39
  -4  -2   1    8.04    4.32
  -4   2   1   11.07    4.11
   4   2  -1    6.92    4.70
   4   2  -1    6.12    3.89
   4  -2  -1    9.19    4.25
   4  -2  -1    4.47    3.68
  -4  -2   1    7.76    3.19
   3  -2  -1 2450.96   17.48
  -3  -2   1 2533.79   27.38
  -3   2   1 2486.33   32.95
   3   2  -1 2529.41   32.04
   3  -2  -1 2550.37   37.86
   3   2  -1 2533.49   39.59
   3   2  -1 2595.18   26.44
   3  -2  -1 2480.32   39.39
  -3  -2   1 2579.21   38.65
  -2   2   1  703.39   11.42
   2   2  -1  703.25   20.03
  -2   2   1  727.63   21.23
   2   2  -1  757.71   13.65
  -2  -2   1  713.17   13.29
   2   2  -1  726.34   16.58
  -2  -2   1  750.56   20.15
   2  -2  -1  696.62   19.63
  -2   2   1  714.72   15.94
   2  -2  -1  708.26   11.84
  -1  -2   1 1432.14   17.60
   1   2  -1 1511.35   19.02
  -1   2   1 1463.41   29.37
   1  -2  -1 1519.22   19.51
   1  -2  -1 1430.70   19.60
  -1   2   1 1458.11   20.70
  -1  -2   1 1474.50   26.59
  -1  -2   1 1498.35   27.63
   1   2  -1 1453.43   22.51
   1  -2  -1 1456.67   27.87
   0   2   1   65.40    7.48
   0  -2  -1   59.14    6.51
   0  -2   1   60.11    5.88
   0   2   1   61.24    4.40
   0  -2  -1   71.76    4.21
   0  -2  -1   54.61    4.81
   0  -2   1   61.49    4.16
   0   2  -1   60.34    5.53
   0   2  -1   65.80    4.83
   0  -2   1   56.07    5.82
  -1  -2  -1  917.71   19.58
  -1  -2  -1  912.98   22.32
   1   2   1  952.72   23.50
   1  -2   1  915.36   19.18
   1  -2   1  960.91   16.68
   1  -2   1  954.53   19.98
  -1  -2  -1  852.57   12.02
   1   2   1  894.42   12.22
   2  -2   1 2133.78   28.58
  -2  -2  -1 2062.14   21.01
   2   2   1 2084.51   19.02
   2   2   1 2073.69   35.14
  -2  -2  -1 2046.57   31.94
   2  -2   1 2126.72   28.94
  -2  -2  -1 2054.05   33.87
   2  -2   1 2073.03   30.33
   2  -2   1 2169.77   29.50
   3  -2   1 1438.98   23.76
  -3   2  -1 1456.50   25.10
  -3  -2  -1 1364.63   27.77
  -3  -2  -1 1391.44   28.46
   3   2   1 1439.85   30.14
   3  -2   1 1387.76   27.31
  -3  -2  -1 1410.75   19.90
  -4  -2  -1 2730.98   41.27
  -4   2  -1 2666.34   37.58
  -4   2  -1 2774.47   30.83
  -4  -2  -1 2769.11   30.55
   4  -2   1 2699.34   40.74
   4   2   1 2689.13   42.77
  -4  -2  -1 2627.48   41.52
   4  -2   1 2782.24   33.22
  -5  -2  -1    4.09    3.86
   5   2   1    7.41    5.40
  -5   2  -1    5.04    3.21
   5  -2   1    2.11    2.54
  -5  -2  -1    1.17    2.86
   5   2   1   -0.88    3.59
   5  -2   1   -0.47    3.64
  -5   2  -1    3.63    2.39
   6  -2   1    1.14    3.89
  -6   2  -1    5.26    3.81
  -6   2  -1    9.67    2.89
   6   2   1   12.46    5.23
   6  -2   1    4.30    2.60
  -6  -2  -1   -0.32    2.98
   6   2   1    4.83    3.78
  -6  -2  -1    3.53    4.76
  -7   2  -1    6.32    4.54
  -7  -2  -1    2.30    4.48
  -7  -2  -1    1.67    3.72
   7   2   1    7.08    5.35
   7  -2   1    0.66    2.78
   7   2   1    5.92    4.10
  -7   2  -1    3.64    2.39
   7  -2   1    2.00    4.21
   8  -2   1  346.64   19.41
   8  -2   1  364.56   14.02
  -8  -2  -1  350.88   19.28
  -8  -2  -1  337.75   16.87
  -8   2  -1  336.73   18.72
   8   2   1  324.82   17.19
  -8   2  -1  372.13   12.29
   8   2   1  333.49   19.16
   9   2   1   78.72   10.69
  -9  -2  -1   78.89    9.18
  -9  -2  -1   74.81   10.35
   9  -2   1   97.99   11.42
  -9   2  -1   87.51    6.84
   9  -2   1   79.82    7.39
  -9   2  -1   87.73   10.73
   9   2   1   95.78   10.59
  10   2   1 1581.09   40.09
 -10   2  -1 1538.64   43.53
  10  -2   1 1644.58   32.90
  10   2   1 1587.20   43.60
 -10  -2  -1 1557.14   40.32
  10  -2   1 1461.74   43.39
 -10  -2  -1 1659.02   45.81
 -10   2  -1 1691.67   29.08
  11  -2   1  300.58   21.04
 -11  -2  -1  303.45   19.85
 -11  -2  -1  349.07   22.52
  11  -2   1  347.40   16.00
  11   2   1  295.04   19.92
 -11   2  -1  297.61   20.82
 -12  -2  -1  271.51   20.25
  12   2   1  262.71   18.29
 -12  -2  -1  248.25   19.44
 -12   2  -1  240.78   20.34
  12  -2   1  289.83   21.95
  12   2   1  285.12   21.20
  13   2   1   -2.45    6.04
  13  -2   1    3.85    6.49
 -13  -2  -1   -7.23    7.49
  13   2   1    5.78    6.66
 -13  -2  -1    1.65    7.22
 -13   2  -1    1.73    6.56
 -14  -2  -1   12.88    8.15
 -14  -2  -1   16.60    8.55
  14  -2   1   12.58    8.58
  14   2   1    7.51    6.10
 -14   2  -1    2.17    7.16
 -15   2  -1    4.72    9.48
  15  -2   1  -10.43    8.86
 -15  -2  -1   -6.61    8.41
 -15  -2  -1   -7.09    8.55
  15   2   1    0.33    6.60
 -16  -2  -1   15.72   10.17
  16  -2   1    7.39    8.96
 -16  -2  -1    6.66    8.93
 -16   2  -1  -10.56   10.33
  16   2   1    5.66    8.02
 -17   2  -1   87.36   17.49
 -17  -2  -1   66.63   15.33
  17  -2   1   60.16   14.32
 -17  -2  -1   70.85   16.27
  17   2   1   43.98   12.94
 -18  -2  -1   10.37   12.68
 -18  -3   1   10.12   10.96
  18   3  -1   -3.58    9.02
 -17  -3   1   -6.30    9.13
 -17   3   1    0.43   12.07
  17   3  -1    0.71    7.94
  16  -3  -1  182.28   22.03
 -16   3   1  180.38   23.07
  16   3  -1  163.78   20.66
  16   3  -1  165.16   19.11
 -16  -3   1  178.64   21.30
 -15  -3   1   13.81    8.98
 -15   3   1  -12.30   10.42
  15   3  -1   -6.23    6.76
  15   3  -1   -2.53    6.95
 -14  -3   1   26.67   10.31
 -14   3   1   19.42    9.63
  14   3  -1   16.47    8.63
  14   3  -1   16.33    7.79
 -14  -3   1   36.68   10.78
  14  -3  -1   17.95    8.78
 -13   3   1   60.60   12.62
  13  -3  -1   60.42   10.67
  13  -3  -1   73.49   13.07
  13   3  -1   62.31   10.30
 -13  -3   1   56.33   10.71
 -13  -3   1   33.78    9.57
  13   3  -1   51.76   10.77
  12   3  -1  943.93   38.46
 -12  -3   1  954.17   39.73
 -12  -3   1  956.76   35.79
  12  -3  -1  952.69   35.37
 -12   3   1  903.37   38.15
  12  -3  -1  972.04   40.71
  12   3  -1  941.56   34.97
  11  -3  -1   -7.77    7.94
  11   3  -1    3.35    6.10
  11   3  -1   -0.64    5.31
 -11   3   1  -14.99    7.87
  11  -3  -1   -0.84    6.01
 -11  -3   1   -7.32    6.55
 -11  -3   1   -1.46    6.01
  10  -3  -1  170.04   14.62
 -10   3   1  176.09   16.23
  10   3  -1  149.16   13.08
 -10  -3   1  156.70   13.87
  10  -3  -1  134.24   14.95
 -10  -3   1  145.19   15.09
  10   3  -1  136.89   14.92
   9   3  -1 1860.84   49.94
   9  -3  -1 1953.96   46.30
   9  -3  -1 1788.37   49.47
   9   3  -1 1924.85   43.00
  -9   3   1 1761.28   44.97
  -9  -3   1 2010.94   43.29
  -9  -3   1 1900.15   48.81
   8  -3  -1   36.65    8.45
   8   3  -1   55.90    8.22
  -8   3   1   47.15    8.78
   8   3  -1   41.55    8.81
   8  -3  -1   44.15    8.35
  -8  -3   1   51.04    7.56
  -8  -3   1   58.68   10.24
   7   3  -1  137.28   13.40
  -7  -3   1  132.69   12.68
   7  -3  -1  152.31   13.64
   7   3  -1  138.31   11.28
  -7  -3   1  141.77   10.70
   7  -3  -1  147.48   12.60
  -7   3   1  116.93   11.06
  -6  -3   1  237.67   12.07
   6  -3  -1  212.54   15.43
   6   3  -1  203.71   15.25
  -6   3   1  197.44   12.81
   6   3  -1  215.42   13.06
   6  -3  -1  208.54   14.36
  -5  -3   1 1544.04   37.62
  -5  -3   1 1667.37   26.56
   5   3  -1 1650.45   33.59
   5  -3  -1 1678.30   40.51
  -5   3   1 1555.22   32.51
   5  -3  -1 1643.75   37.70
   5   3  -1 1551.08   39.35
   4   3  -1  103.95   10.53
   4   3  -1  115.89    9.26
   4  -3  -1   94.99    4.56
   4  -3  -1  108.03   10.02
  -4   3   1  104.48    8.27
  -4  -3   1  106.06   10.25
  -4  -3   1  103.35    6.34
  -4   3   1   88.93    3.94
  -4   3   1  112.31   11.10
   3  -3  -1  920.60   27.41
   3   3  -1  908.11   23.58
   3   3  -1  916.59   13.65
  -3  -3   1  948.12   27.27
  -3  -3   1  850.36   14.42
  -3   3   1  867.23   20.91
   3  -3  -1  877.53   16.15
  -3   3   1  889.87   28.31
   3   3  -1  894.65   27.98
  -2   3   1  221.14   14.41
  -2   3   1  209.72    9.48
   2   3  -1  220.80   12.25
   2  -3  -1  214.19   13.68
   2   3  -1  221.20    6.30
  -2  -3   1  201.25    6.17
   2  -3  -1  236.15    9.90
  -2  -3   1  214.01   12.85
   1  -3  -1  332.40   16.65
   1   3  -1  339.14   14.66
   1  -3  -1  323.21    9.43
   1  -3  -1  321.34   12.59
  -1   3   1  334.81   17.28
  -1   3   1  320.49   10.53
   1   3  -1  327.87    8.76
  -1  -3   1  344.16   15.54
  -1  -3   1  344.10    8.06
  -1  -3   1  355.90   16.99
   0   3   1   47.61    8.06
   0   3  -1   56.52    7.26
   0  -3  -1   59.66    6.39
   0  -3   1   41.02    6.68
   0   3  -1   56.96    4.96
   0  -3   1   62.29    7.27
   0   3   1   43.33    3.69
   0  -3   1   60.66    4.18
   0  -3  -1   53.90    7.82
   0  -3  -1   54.87    3.17
   1   3   1 1805.99   38.62
  -1   3  -1 1796.28   33.89
  -1  -3  -1 1864.30   33.73
   1  -3   1 1786.62   34.65
   1  -3   1 1808.92   33.12
  -1   3  -1 1838.42   23.97
  -1  -3  -1 1915.53   39.20
   2  -3   1  134.21    9.07
  -2   3  -1  131.89   10.21
  -2  -3  -1  127.15   10.76
   2  -3   1  146.75   10.38
   2   3   1  141.61   11.78
  -2  -3  -1  129.00    9.89
  -2   3  -1  130.41    7.52
  -3  -3  -1   39.15    6.59
   3  -3   1   43.86    5.73
  -3  -3  -1   46.56    2.76
   3  -3   1   38.49    5.40
  -3   3  -1   40.59    5.14
  -3  -3  -1   34.39    2.93
   3  -3   1   48.85    7.05
  -3  -3  -1   59.38    7.83
   3   3   1   40.84    7.68
  -4   3  -1 2233.54   35.96
  -4  -3  -1 2124.92   43.71
  -4  -3  -1 2256.65   44.69
  -4  -3  -1 2195.97   22.99
   4  -3   1 2222.37   42.19
   4  -3   1 2160.59   37.35
   4   3   1 2211.01   43.81
  -5  -3  -1   73.97    5.50
  -5  -3  -1   57.37    8.38
  -5   3  -1   55.95    7.02
   5  -3   1   66.20    7.14
  -5   3  -1   69.12    5.87
   5  -3   1   61.87    8.38
  -5  -3  -1   68.58    9.21
   5   3   1   65.18    9.18
  -6  -3  -1  224.04   10.48
  -6   3  -1  222.95    9.32
  -6   3  -1  205.96   13.36
  -6  -3  -1  221.56   16.27
   6   3   1  208.87   15.08
   6  -3   1  201.53   11.89
   6  -3   1  228.26   15.56
   6   3   1  208.59   15.45
   7   3   1  192.85   14.92
   7  -3   1  210.99   16.21
   7   3   1  179.05   14.79
   7  -3   1  221.71   12.57
  -7  -3  -1  218.10   16.45
  -7   3  -1  212.06    8.74
  -7  -3  -1  234.21   11.96
  -7   3  -1  186.65   13.32
  -8  -3  -1 2805.69   60.05
  -8   3  -1 2814.60   29.52
   8   3   1 2743.47   56.27
   8   3   1 2743.25   55.55
   8  -3   1 2946.42   45.47
  -8   3  -1 2662.22   51.98
   8  -3   1 2759.83   57.17
  -8  -3  -1 2918.95   45.32
  -9   3  -1    7.60    5.57
  -9  -3  -1   11.30    5.63
  -9  -3  -1    1.65    6.20
   9  -3   1    4.82    4.48
   9   3   1   -4.98    6.82
   9  -3   1    4.11    5.73
   9   3   1   -1.15    5.66
 -10  -3  -1  380.92   19.58
  10  -3   1  437.99   18.76
 -10   3  -1  404.66   23.39
  10  -3   1  378.52   23.78
  10   3   1  447.08   25.02
 -10  -3  -1  401.63   25.00
  10   3   1  385.02   22.72
 -11  -3  -1  157.46   14.09
  11   3   1  185.10   17.04
  11   3   1  172.66   15.85
 -11  -3  -1  165.87   17.56
 -11   3  -1  164.22   16.16
  11  -3   1  170.12   17.11
 -12  -3  -1  121.63   15.59
  12  -3   1  118.53   15.82
 -12  -3  -1  119.90   13.17
  12   3   1  138.75   15.51
 -12   3  -1  124.31   15.77
  12   3   1  125.90   14.44
 -13  -3  -1   40.18   10.16
  13   3   1   45.25   11.17
 -13   3  -1   62.07   12.52
 -13  -3  -1   58.50   13.32
  13   3   1   47.94   10.69
  13  -3   1   55.26   11.86
 -14  -3  -1  151.97   19.56
 -14  -3  -1  106.62   15.01
  14  -3   1  144.73   18.40
 -14   3  -1  107.16   16.99
  14   3   1  153.76   17.58
  15  -3   1   38.56   12.16
 -15   3  -1   52.24   13.91
 -15  -3  -1   66.19   14.97
  15   3   1   36.76   10.70
 -16   3  -1   -8.85   10.03
  16  -3   1   -5.42    8.79
  16   3   1    7.73    8.48
 -17  -3  -1   39.00   14.14
  17   3   1   14.89   10.40
 -16  -4   1   21.18   12.58
  16   4  -1   11.72   10.42
 -16   4   1    4.23   11.04
  16   4  -1   11.76    8.54
  15  -4  -1   15.10   10.15
 -15  -4   1   21.72   10.80
 -15   4   1   -9.32   11.82
  15   4  -1   16.02   10.50
  15   4  -1   14.79    8.65
  14  -4  -1    7.28    9.21
  14   4  -1   -5.56    8.29
  14   4  -1   14.11    8.58
 -14   4   1   11.86   10.67
 -14  -4   1    4.21    9.36
  13  -4  -1   -2.41    7.28
  13   4  -1   -0.19    6.83
 -13   4   1    0.87    7.79
  13   4  -1    0.83    6.42
 -13  -4   1   -4.14    7.35
  12   4  -1   88.80   12.33
 -12  -4   1   52.93   12.30
  12  -4  -1   59.54   11.00
 -12   4   1   58.48   12.34
  12   4  -1   58.22   12.17
  12  -4  -1   63.58   12.36
 -11  -4   1   70.21   12.98
  11  -4  -1   67.17   10.96
  11   4  -1   53.19   12.20
 -11   4   1   49.16   10.67
  11   4  -1   74.14   11.30
  11  -4  -1   81.97   13.64
 -10  -4   1   23.87    8.42
  10  -4  -1   24.60    7.66
  10   4  -1   35.19    9.17
  10   4  -1   11.56    6.28
 -10   4   1   30.40    9.37
  10  -4  -1   30.21    9.10
   9   4  -1   20.82    8.60
  -9   4   1   35.16    8.38
  -9  -4   1   46.04    9.74
   9  -4  -1   32.41    8.77
   9  -4  -1   38.28    7.68
   9   4  -1   43.95    9.06
   8   4  -1   24.42    6.53
   8  -4  -1   18.55    7.45
  -8  -4   1   20.34    7.25
   8   4  -1   28.30    8.77
  -8   4   1   36.28    7.77
   8  -4  -1   30.96    7.40
   7   4  -1    5.52    6.29
  -7  -4   1   17.59    7.27
  -7   4   1    2.73    5.47
   7  -4  -1   13.26    7.69
   7   4  -1    9.20    6.60
   7  -4  -1    9.56    6.06
   6  -4  -1   75.53   10.71
  -6  -4   1   71.65   10.11
   6   4  -1   66.48   10.93
   6   4  -1   72.31    9.95
  -6   4   1   68.92   11.60
  -6   4   1   70.53    8.85
  -5   4   1  465.96   24.94
   5   4  -1  430.30   23.69
   5  -4  -1  436.19   22.77
   5   4  -1  464.54   20.73
  -5  -4   1  419.59   22.61
  -5   4   1  452.55   18.97
   4  -4  -1    4.20    2.87
  -4   4   1    0.15    4.44
  -4  -4   1   -1.38    4.99
   4   4  -1    1.63    5.27
   4  -4  -1    2.25    4.66
   4   4  -1    5.96    6.22
  -4   4   1    4.23    6.23
   3  -4  -1  128.95    8.37
   3   4  -1  142.99   12.57
  -3   4   1  138.34   13.42
  -3   4   1  136.64    9.36
   3   4  -1  123.36   12.25
   3  -4  -1  125.01   12.11
  -3  -4   1  124.38   11.95
   2  -4  -1    2.17    4.91
  -2  -4   1    2.41    5.78
   2   4  -1    3.20    5.36
   2  -4  -1   -0.12    3.57
  -2   4   1   -3.92    6.34
  -2   4   1    3.58    3.80
  -2  -4   1    4.01    5.50
  -1   4   1    8.97    3.30
  -1  -4   1    0.89    4.71
   1  -4  -1    3.41    4.72
  -1  -4   1   -3.11    5.19
  -1   4   1   -4.50    6.78
   1   4  -1    0.38    5.50
   1  -4  -1    6.50    4.20
   0  -4   1    5.30    4.78
   0   4  -1    3.35    5.27
   0  -4  -1    7.52    5.70
   0   4   1   -5.52    7.16
   0  -4  -1    4.60    4.52
   0   4  -1    4.33    1.71
   0  -4   1    5.88    4.51
   0   4  -1    9.84    3.04
   1   4   1  106.40   12.27
  -1  -4  -1  104.66   11.67
  -1   4  -1  113.63    6.49
   1  -4   1   90.21    9.18
   1  -4   1   95.40   10.19
  -1   4  -1  104.73   10.57
  -1  -4  -1   82.04    8.78
   2  -4   1   52.44    8.19
  -2  -4  -1   54.71    9.41
   2   4   1   58.98   10.35
   2  -4   1   63.15    7.56
  -2  -4  -1   62.32    8.94
  -2   4  -1   66.44    5.90
  -2   4  -1   63.45    9.36
   3  -4   1   13.46    4.74
  -3  -4  -1   19.24    6.16
   3   4   1   15.73    8.03
  -3  -4  -1   22.22    6.81
   3  -4   1   24.03    6.90
  -3   4  -1   16.96    4.28
  -3   4  -1    5.68    5.62
  -4  -4  -1   17.86    6.15
   4   4   1   12.50    8.18
  -4   4  -1   14.51    4.23
   4  -4   1   15.04    4.91
  -4   4  -1   15.93    6.23
  -4  -4  -1   11.82    6.39
   4  -4   1   14.84    4.37
  -5   4  -1   20.91    5.03
  -5  -4  -1   21.14    7.12
   5  -4   1   28.51    8.15
   5   4   1   24.62    8.01
   5  -4   1   27.71    6.59
  -5   4  -1   23.27    4.44
  -5  -4  -1   34.93    8.94
  -6  -4  -1   -2.96    5.81
  -6   4  -1    2.89    4.17
   6   4   1   -6.68    6.69
   6  -4   1   -8.58    5.30
   6   4   1   -1.54    5.74
   6  -4   1   -4.28    6.34
  -6   4  -1   -4.21    3.00
  -7   4  -1  215.02   14.94
   7  -4   1  171.09   13.09
   7   4   1  204.53   17.38
  -7  -4  -1  196.49   17.97
   7   4   1  184.86   16.54
   7  -4   1  167.38   15.75
  -8  -4  -1  533.44   29.30
  -8   4  -1  535.71   24.70
   8  -4   1  582.86   23.38
   8   4   1  608.92   29.68
   8   4   1  581.07   27.53
   8  -4   1  614.92   29.76
   9   4   1   47.06   10.07
   9  -4   1   65.67   11.48
   9   4   1   47.89    9.65
   9  -4   1   41.73    7.69
  -9   4  -1   31.11    8.14
  -9  -4  -1   32.61   10.44
  10   4   1   71.71   11.21
 -10   4  -1   74.27   11.47
  10   4   1   68.12   11.97
 -10  -4  -1   69.59   13.29
  10  -4   1   62.80   11.87
  11   4   1  -10.29    8.16
  11   4   1    2.16    7.31
 -11  -4  -1   -5.02    8.50
  11  -4   1   13.46    9.03
 -11   4  -1    9.55    7.67
  12   4   1   12.70    7.42
  12  -4   1   24.64   10.77
  12   4   1   17.48    7.71
 -12  -4  -1   29.88   10.56
 -12   4  -1   17.97    8.05
 -13   4  -1   -9.44    8.17
 -13  -4  -1   12.92    9.05
  13  -4   1   -1.92    7.64
  13   4   1    9.59    7.95
  13   4   1   -0.46    7.25
 -14   4  -1   73.49   14.21
  14   4   1  100.01   16.51
  14  -4   1  102.12   17.22
 -14  -4  -1   80.86   16.76
  14   4   1   88.73   14.84
  15  -4   1  124.78   19.78
 -15  -4  -1  121.97   19.57
  15   4   1  142.29   18.99
 -15   4  -1  103.79   17.48
 -16  -4  -1   17.24   13.22
  16   4   1    2.84    8.63
 -16   4  -1   20.04   11.05
  15   5  -1    5.26   10.56
 -15   5   1   15.39   11.91
 -14  -5   1   -2.15   10.52
  14  -5  -1   -0.73    9.91
  14   5  -1   11.35   10.41
 -14   5   1   -4.58    9.90
 -13   5   1  -19.65   11.45
  13   5  -1   -8.24    8.00
  13   5  -1   -2.54    8.27
 -13  -5   1   20.11   12.31
  13  -5  -1   -6.41   10.25
  12   5  -1   59.77   13.42
 -12  -5   1   23.49   11.22
  12  -5  -1   29.00   11.79
 -12   5   1   60.43   13.28
  12   5  -1   51.17   11.31
  11   5  -1  137.61   16.05
 -11   5   1  131.61   15.90
  11  -5  -1  156.58   17.64
  11  -5  -1  121.77   17.91
  11   5  -1  143.91   18.65
 -11  -5   1  136.29   17.68
  10   5  -1   15.74    9.11
  10   5  -1   24.75    9.07
 -10   5   1   34.81   10.59
 -10  -5   1   27.63   10.15
  10  -5  -1   35.33   10.55
   9   5  -1   -1.25    7.11
  -9   5   1   -0.55    6.38
  -9  -5   1    3.53    7.85
   9   5  -1   -9.38    7.16
   9  -5  -1   11.52    8.03
  -9   5   1    6.58    8.01
   8   5  -1   15.09    8.46
  -8   5   1   16.39    6.73
  -8  -5   1    7.16    8.05
   8  -5  -1   12.22    6.43
  -8   5   1   28.86   10.07
   8   5  -1   21.53    7.67
  -7   5   1   13.82    7.73
   7  -5  -1   14.44    5.54
   7   5  -1   22.79    8.23
   7   5  -1   12.07    7.50
  -7  -5   1   -2.42    6.07
  -7   5   1   14.12    6.79
   6   5  -1   -5.87    6.80
  -6   5   1   -8.68    6.13
  -6  -5   1   -3.18    6.27
  -6   5   1   -8.30    6.83
   6  -5  -1    2.67    5.77
   6   5  -1    6.19    5.86
  -5  -5   1  455.32   25.93
   5  -5  -1  414.85   24.85
   5   5  -1  401.28   25.37
  -5   5   1  390.10   18.23
  -5   5   1  422.58   25.99
   5   5  -1  491.40   24.27
  -4   5   1   14.59    5.17
  -4   5   1    8.17    7.47
  -4  -5   1    9.15    6.16
   4  -5  -1   19.97    7.35
   4   5  -1   22.38    7.53
   4   5  -1   11.52    6.88
   3  -5  -1  556.56   19.34
  -3  -5   1  574.61   27.49
  -3   5   1  559.88   28.77
   3  -5  -1  545.98   27.94
   3   5  -1  578.97   26.28
   3   5  -1  598.66   29.30
   2   5  -1   21.67    8.63
   2  -5  -1   -0.06    5.96
  -2   5   1   17.39    8.98
  -2  -5   1   11.67    7.54
   2  -5  -1    6.41    4.69
  -2  -5   1    4.57    5.28
   1  -5  -1    2.80    4.65
  -1  -5   1   12.59    7.33
  -1  -5   1    9.11    5.34
  -1   5   1    5.04    7.46
   1  -5  -1    4.17    6.46
   1   5  -1   21.81    8.46
   0   5  -1   87.82   12.40
   0  -5   1  107.52   11.52
   0   5   1   94.99   13.84
   0  -5  -1   92.24   10.71
   0  -5  -1   81.84   12.09
   0  -5   1  102.53   13.16
   1   5   1  607.17   30.12
  -1   5  -1  598.98   26.96
  -1  -5  -1  556.81   24.90
  -1  -5  -1  585.29   29.36
   1  -5   1  573.13   27.37
   1  -5   1  557.10   23.97
   2  -5   1 1841.69   47.88
  -2  -5  -1 1976.36   48.49
  -2   5  -1 1992.92   48.50
  -2  -5  -1 2163.26   56.30
   2   5   1 2137.81   54.97
   2  -5   1 2081.07   44.24
  -3  -5  -1  153.70   15.11
  -3  -5  -1  166.56   16.90
   3  -5   1  143.36   14.43
   3  -5   1  184.05   13.59
  -3   5  -1  178.86   15.85
   3   5   1  147.67   15.88
  -3   5  -1  150.33   10.02
  -4   5  -1   86.27    8.81
   4  -5   1  102.07   10.50
   4  -5   1   86.21   11.39
  -4  -5  -1   84.27   12.82
  -4  -5  -1   71.39   11.40
   4   5   1   84.89   13.04
  -4   5  -1   56.17   10.62
   5   5   1    2.75    7.31
  -5  -5  -1    3.53    7.47
   5  -5   1   17.18    6.34
  -5   5  -1   17.56    7.95
  -5   5  -1    6.08    4.53
  -5  -5  -1   -1.57    6.62
   6   5   1   45.14   11.49
   6   5   1   25.98    9.19
  -6   5  -1   22.66    6.17
   6  -5   1   10.79    5.92
  -6   5  -1   34.99    9.33
  -6  -5  -1   41.13    9.99
  -7  -5  -1   -4.51    6.90
   7   5   1    1.09    6.44
  -7   5  -1    0.06    5.09
   7  -5   1    1.26    4.80
   8   5   1  220.95   21.40
  -8  -5  -1  237.03   21.66
   8  -5   1  226.57   16.87
   8   5   1  269.91   21.16
   8  -5   1  263.20   22.14
  -8   5  -1  234.61   18.01
   9  -5   1   18.25    6.36
   9   5   1   24.96    9.74
   9   5   1   24.91    8.60
   9  -5   1   49.36   11.73
  -9   5  -1   32.92    8.85
  -9  -5  -1   30.05   11.30
  10   5   1    3.18    7.81
 -10   5  -1   -8.76    6.90
  10  -5   1    5.94    9.65
  10   5   1    6.86    8.54
 -10  -5  -1   -0.49    7.38
 -11   5  -1    5.13    7.69
  11  -5   1   12.17    9.25
 -11  -5  -1   -7.50    9.36
  11   5   1    5.29    8.82
  11   5   1   14.77    7.68
  12  -5   1   21.36   10.24
 -12  -5  -1   -6.97    9.18
  12   5   1    8.16    8.31
  12   5   1   21.74   11.45
 -12   5  -1    2.76    7.66
  13   5   1   20.62   10.37
  13  -5   1   13.54    9.59
 -13  -5  -1   13.92    9.68
 -13   5  -1   15.53   10.48
  13   5   1   12.56    9.69
  14   5   1  -11.01   10.70
 -14  -5  -1    7.17   10.72
 -14   5  -1  -26.14   11.74
  14   5   1    6.79   10.69
  14  -5   1    1.86   10.33
 -15   5  -1   55.14   14.93
  15   5   1   24.18   11.59
 -12   6   1   45.91   15.09
 -12  -6   1   36.39   12.62
  12   6  -1   28.98   12.02
 -11   6   1   75.92   17.76
  11  -6  -1   95.82   15.62
  11   6  -1  116.31   19.21
 -11  -6   1   78.08   17.23
 -10  -6   1   45.08   12.74
  10  -6  -1   55.17   11.71
 -10   6   1   48.63   14.64
  10   6  -1   35.96   11.83
  -9  -6   1   14.21   10.34
  -9   6   1   28.08   10.43
   9  -6  -1   17.46    9.39
   9   6  -1   23.87   10.83
   8   6  -1    6.12    8.24
  -8  -6   1    1.13    7.28
   8  -6  -1   -8.66    7.68
  -8   6   1   -2.34    9.47
   8   6  -1   -9.94    8.22
   7   6  -1   90.16   13.26
   7  -6  -1   89.77   14.53
  -7  -6   1   66.19   12.78
   7   6  -1   50.26   12.29
  -7   6   1   73.46   13.87
   6   6  -1   -3.58    7.36
   6   6  -1    1.33    7.25
  -6  -6   1  -12.05    7.29
  -6   6   1   -4.47    8.63
   6  -6  -1    6.06    7.24
   5   6  -1   22.60    9.49
   5  -6  -1   29.82    9.04
   5   6  -1   19.85    8.34
  -5   6   1   31.18    9.86
  -5  -6   1    9.59    6.62
   4  -6  -1  272.35   22.88
  -4  -6   1  276.81   22.18
  -4   6   1  254.46   22.30
   4   6  -1  294.04   22.06
   4   6  -1  323.93   24.71
   3  -6  -1  993.18   41.94
  -3   6   1 1012.24   42.07
  -3  -6   1  948.20   38.52
   3   6  -1 1084.90   43.63
   2   6  -1   20.54    9.98
  -2  -6   1    8.15    6.19
   2  -6  -1   -0.67    6.69
  -2   6   1   -8.18    9.06
  -1  -6   1   44.34    9.63
   1  -6  -1   30.27    9.28
   1  -6  -1   43.28    8.16
   1   6  -1   59.36   12.89
  -1  -6   1   49.77   10.70
  -1   6   1   33.42   11.13
   0  -6  -1   54.59   11.99
   0  -6  -1   25.60    7.14
   0  -6   1   34.85    8.88
   0  -6   1   36.97   10.68
   0   6   1   43.04   11.89
   0   6  -1   46.34   10.44
  -1   6  -1  241.97   20.05
   1  -6   1  228.78   20.73
  -1  -6  -1  213.58   17.43
   1   6   1  280.25   23.17
   1  -6   1  215.56   16.61
  -1  -6  -1  258.29   22.42
  -2   6  -1  433.27   25.97
   2  -6   1  461.45   28.07
  -2  -6  -1  426.54   28.75
   2   6   1  495.66   30.50
  -2  -6  -1  437.99   25.89
   2  -6   1  435.43   22.92
  -3  -6  -1  115.43   14.89
   3  -6   1  111.46   14.66
   3   6   1  104.89   15.02
  -3   6  -1  133.25   15.73
  -3  -6  -1  124.47   17.25
   4   6   1  185.30   19.69
  -4  -6  -1  155.11   17.33
   4  -6   1  120.20   14.99
  -4   6  -1  141.88   16.24
  -4  -6  -1  191.73   21.03
   5  -6   1   25.88    8.69
  -5  -6  -1   21.85    9.26
  -5   6  -1   31.61   10.00
   5   6   1   10.36    8.54
   6   6   1   31.27   11.17
  -6  -6  -1   25.45    8.98
  -6   6  -1    8.42    7.76
   6  -6   1   28.59    9.77
   7   6   1   22.97    9.89
   7   6   1    9.53    7.60
  -7   6  -1   10.36    8.00
   7  -6   1    6.47    6.41
   8   6   1  186.70   20.50
   8   6   1  172.05   20.39
   8  -6   1  139.10   15.85
  -8   6  -1  164.38   20.28
  -8  -6  -1  167.31   20.44
  -9  -6  -1   16.16    9.26
   9   6   1   19.99    9.66
  -9   6  -1    9.95   10.84
   9   6   1   17.67   10.68
  10   6   1  147.32   20.31
  10   6   1  158.70   19.34
 -10  -6  -1  154.18   20.61
 -10   6  -1  185.21   23.89
  11   6   1   -9.80   10.14
 -11   6  -1    3.21   11.98
 -11  -6  -1   12.04   14.01
  11   6   1   -0.11    9.80
  12   6   1    5.16    8.70
  12   6   1   12.54   11.71
 -12  -6  -1    5.23   10.94
  13   6   1   -3.46   10.42
  13   6   1   -1.79   10.00
   9   7  -1    4.96    9.26
   9  -7  -1   27.38   11.87
  -9   7   1    5.90   11.08
  -9  -7   1    3.55   10.16
  -8  -7   1   14.13   11.05
  -8   7   1   -2.17    9.59
   8  -7  -1   13.08   10.19
   8   7  -1   -4.06    9.70
  -7  -7   1   94.04   17.60
   7  -7  -1   92.56   15.07
   7   7  -1  107.53   18.64
  -7   7   1   76.13   15.51
  -6  -7   1   -0.90    7.83
   6   7  -1   -3.90    9.34
  -6   7   1    8.78   10.01
   6  -7  -1   -9.30   10.53
   5  -7  -1    6.18    9.67
  -5  -7   1    1.11    7.21
   5   7  -1    8.35    8.62
  -5   7   1    7.16   10.03
  -4  -7   1   13.75    7.63
   4   7  -1    1.57    9.63
   4  -7  -1   -1.69    7.93
  -4   7   1   12.88   10.95
   3  -7  -1  124.32   17.80
  -3   7   1  113.94   18.20
   3   7  -1  162.19   19.71
  -3  -7   1  106.34   15.04
   3   7  -1  147.09   19.04
   2   7  -1   15.57    9.92
   2   7  -1   14.21    9.75
  -2  -7   1   -3.74    6.60
  -2   7   1    9.71   10.61
   2  -7  -1   -7.97    8.27
   1   7  -1    7.16    8.82
  -1  -7   1   31.13    9.65
   1  -7  -1   34.40   12.03
  -1   7   1   39.18   13.77
   0   7  -1   65.35   14.40
   0  -7   1   56.61   13.55
   0  -7  -1   32.52   10.22
   0   7   1   83.35   16.81
  -1   7  -1   -2.59    8.79
   1   7   1   -0.42    9.09
  -1  -7  -1    9.79   10.26
   1  -7   1    5.51    9.17
   2   7   1    2.70    9.78
   2  -7   1    5.27    9.32
  -2  -7  -1   18.76   10.60
  -2   7  -1    2.84    8.61
  -2  -7  -1   -0.59    6.51
   3  -7   1   27.38   10.33
   3   7   1   43.40   14.77
  -3  -7  -1   45.43   12.14
  -3   7  -1   28.42   10.55
  -3  -7  -1   41.08   14.29
   4   7   1    3.22    9.78
  -4   7  -1   13.80   10.68
  -4  -7  -1    0.51    8.82
   4  -7   1   -3.84    7.62
  -4  -7  -1   -3.01    8.55
  -5  -7  -1   -2.04    9.09
   5   7   1   12.06   10.53
   5  -7   1   23.14   10.97
   5   7   1   23.79   11.47
  -5   7  -1   15.24    9.17
   6  -7   1   46.84   11.75
   6   7   1   66.24   15.70
  -6  -7  -1   13.26    9.74
   6   7   1   47.03   14.59
  -6   7  -1   49.00   12.86
  -7  -7  -1    1.38    9.01
  -7   7  -1    0.88   10.12
   7  -7   1   15.65    9.59
   7   7   1   26.24   12.33
   8   7   1    5.86    9.37
  -8   7  -1   -5.40   10.34
  -8  -7  -1   17.24   11.32
   8   7   1    8.52   10.60
   9   7   1   22.18   11.39
  -9  -7  -1   15.65   11.82
   9   7   1   -1.79   11.07
  -9   7  -1   17.91   11.85
 -10   7  -1   32.41   14.61
  10   7   1   40.50   13.53
  -6  -8   1   52.77   16.38
   5  -8  -1   19.95   13.17
  -5   8   1   16.11   14.07
  -5  -8   1   12.35   11.14
  -4  -8   1    1.00    9.01
   4  -8  -1    6.43   10.55
  -4   8   1    4.11   11.19
  -3   8   1   27.14   15.37
   3  -8  -1  -11.96   10.96
   3   8  -1   15.95   10.83
  -2   8   1   -4.77   12.22
   2   8  -1   -4.23    9.30
   2  -8  -1    1.52    9.78
   1  -8  -1  -10.47   10.01
   1   8  -1   11.12   10.56
  -1   8   1   12.37   12.68
   0   8  -1   18.90   11.37
   0   8   1   80.41   19.32
   0  -8  -1   69.17   18.12
   1   8   1   -3.10   11.87
  -1  -8  -1    3.61   11.13
   2   8   1   17.37   14.58
  -2  -8  -1   13.26   11.03
   2  -8   1   -1.90   12.09
   3  -8   1   16.72   10.10
   3   8   1   15.04   12.09
   4   8   1   18.40   14.21
   4  -8   1    4.66    9.51
  -5  -8  -1   39.36   13.22
   5  -8   1   44.72   13.41
  -6  -8  -1  221.97   27.16
  18   0  -2   16.04    9.86
 -18   0   2   -5.40   11.01
 -17   0   2   -3.72   10.79
  17   0  -2  -12.76    8.20
  16   0  -2   33.63    9.93
  16   0  -2   48.98   11.85
 -16   0   2   66.36   14.93
  15   0  -2  296.28   22.87
  15   0  -2  339.10   24.03
 -15   0   2  307.61   26.47
 -14   0   2  237.02   22.10
  14   0  -2  231.90   19.67
  14   0  -2  219.92   18.03
  13   0  -2   -0.28    5.92
 -13   0   2   14.35    5.71
 -13   0   2   20.85    9.47
  13   0  -2   17.07    7.18
  12   0  -2    7.68    6.51
 -12   0   2   -1.51    4.45
  12   0  -2    7.61    5.58
 -12   0   2    3.23    7.26
  11   0  -2    6.46    5.14
 -11   0   2    0.62    6.01
  11   0  -2    6.75    4.97
 -11   0   2    3.79    4.32
 -10   0   2  690.47   22.47
 -10   0   2  666.55   28.08
  10   0  -2  662.61   26.59
  10   0  -2  654.94   25.13
   9   0  -2   34.34    6.81
  -9   0   2   25.84    5.32
  -9   0   2   31.26    7.15
   9   0  -2   21.21    5.69
   8   0  -2 6317.04   74.52
  -8   0   2 6235.16   61.03
   8   0  -2 6225.66   67.70
  -8   0   2 6046.79   74.43
   7   0  -2  124.85   10.50
  -7   0   2  114.50    8.27
   7   0  -2  125.76    9.34
  -7   0   2  123.17   10.89
   6   0  -2   93.43    8.88
   6   0  -2  116.69    8.45
  -6   0   2  116.97   10.02
  -6   0   2   99.51    7.49
   5   0  -2  222.78   10.24
  -5   0   2  211.95   10.35
  -5   0   2  219.47   12.41
   5   0  -2  210.08   12.02
   4   0  -2   -1.92    3.07
  -4   0   2    6.77    4.12
   4   0  -2    1.45    2.39
  -4   0   2    6.70    3.09
   0   0   2 3437.11   37.43
   0   0   2 3588.80   30.68
   0   0   2 3521.93   27.85
   0   0  -2 3580.82   37.48
   0   0  -2 3502.78   30.51
   0   0  -2 3544.74   27.58
   1   0   2 5713.09   49.25
  -1   0  -2 5539.84   39.66
   1   0   2 5506.35   39.28
   2   0   2  918.42   20.45
  -2   0  -2  960.62   20.83
  -2   0  -2  978.48   11.10
   2   0   2  892.31   18.17
   2   0   2  962.41   11.55
  -3   0  -2  358.60   13.53
   3   0   2  375.57   13.42
   3   0   2  369.85   14.10
   4   0   2    0.51    3.15
  -4   0  -2    8.30    3.20
   4   0   2    1.53    3.10
  -5   0  -2 4301.08   49.36
   5   0   2 4328.29   51.48
   5   0   2 4357.55   54.13
   6   0   2   68.55    3.85
   6   0   2   71.65    4.29
  -6   0  -2   74.85    7.47
   6   0   2   78.04    8.36
   6   0   2   63.48    7.71
  -7   0  -2   53.36    6.90
  -7   0  -2   57.13    7.81
   7   0   2   57.65    4.33
   7   0   2   54.45    4.16
   7   0   2   57.59    7.84
  -8   0  -2  154.26   11.31
   8   0   2  163.52    7.71
   8   0   2  150.42   12.67
  -8   0  -2  127.39   11.67
   9   0   2  124.42    7.46
  -9   0  -2  124.60   10.72
   9   0   2  120.21   12.35
  -9   0  -2  107.30   11.90
  10   0   2   31.99    4.97
 -10   0  -2   34.02    8.91
 -10   0  -2   20.42    6.31
  10   0   2   21.77    7.08
 -11   0  -2  117.30   11.82
 -11   0  -2   85.72   12.11
  11   0   2  113.13   13.03
 -12   0  -2  478.37   23.59
  12   0   2  511.24   27.86
 -12   0  -2  460.00   26.62
 -13   0  -2   13.68    6.50
 -13   0  -2   18.40    8.90
  13   0   2   10.55    7.10
 -14   0  -2   -2.99    7.02
 -14   0  -2   15.77    7.03
  14   0   2   -1.54    6.96
 -15   0  -2    9.39    7.42
  15   0   2    1.77    6.40
 -15   0  -2   -7.88    7.56
  16   0   2   53.17   13.75
 -16   0  -2   48.60   14.30
 -17   0  -2  -12.67   12.41
  17   0   2   16.80   10.37
 -18  -1   2  -11.43   11.82
 -18   1   2  -19.13   13.40
  18  -1  -2   16.16   10.81
  18   1  -2    0.37    8.25
  17  -1  -2    0.21    7.85
  17   1  -2    8.26    8.02
 -17  -1   2    0.12   10.47
  17   1  -2    4.67    7.22
  16   1  -2   -5.01    7.23
  16   1  -2   -3.60    6.75
  16  -1  -2    6.59    8.62
 -16   1   2    7.92    9.32
  16  -1  -2   -2.39    6.16
 -16  -1   2   -5.26    8.92
 -15  -1   2   74.17   11.61
  15  -1  -2   45.10   10.42
  15  -1  -2   52.43   10.67
 -15   1   2   54.20   14.31
  15   1  -2   74.86   12.71
 -15  -1   2   51.37   12.77
  15   1  -2   55.95   10.50
  14   1  -2  129.83   15.07
 -14   1   2  142.54   18.66
  14   1  -2  117.33   13.75
  14  -1  -2  132.58   14.65
 -14  -1   2   91.83   15.14
  14  -1  -2  128.43   14.77
 -14  -1   2  128.28   13.69
  13  -1  -2   96.50   12.32
  13   1  -2   91.69   12.85
  13   1  -2  106.55   12.39
 -13  -1   2   95.88   13.76
 -13  -1   2  100.40   12.20
  13  -1  -2  122.72   14.37
 -13   1   2   90.99   13.81
  12   1  -2   45.71    8.42
  12  -1  -2   56.88   10.86
  12   1  -2   66.17   10.40
 -12   1   2   67.34   12.00
 -12  -1   2   61.60   11.05
  12  -1  -2   63.92    9.91
 -12  -1   2   66.15    9.55
 -11  -1   2    2.79    6.20
  11  -1  -2   15.69    6.31
 -11   1   2   12.04    4.34
 -11  -1   2    5.71    5.28
 -11   1   2   -8.21    7.36
  11  -1  -2    3.98    5.36
  11   1  -2    9.97    5.22
  11   1  -2   16.34    6.92
 -10   1   2  683.33   29.06
  10  -1  -2  585.31   25.52
  10   1  -2  647.61   23.89
 -10  -1   2  682.35   25.04
 -10   1   2  648.69   18.83
  10   1  -2  628.36   27.15
 -10  -1   2  595.77   26.47
  10  -1  -2  658.12   26.69
  -9   1   2   14.38    6.99
  -9  -1   2   12.62    5.29
  -9  -1   2   25.48    6.42
  -9   1   2   25.69    4.54
   9  -1  -2   15.22    6.00
   9   1  -2   22.97    5.68
   9  -1  -2   13.89    5.34
   9   1  -2   24.90    6.83
   8   1  -2 1272.46   35.34
   8  -1  -2 1298.50   34.43
  -8  -1   2 1292.03   31.59
  -8   1   2 1254.36   34.61
   8   1  -2 1288.70   29.24
   8  -1  -2 1258.75   32.61
  -8  -1   2 1288.36   34.45
  -8   1   2 1297.15   22.97
  -7  -1   2    0.32    4.48
   7   1  -2    1.78    4.26
   7   1  -2    2.11    3.05
  -7  -1   2   -0.88    4.00
  -7   1   2    0.17    4.58
   7  -1  -2    3.88    3.94
   7  -1  -2   -0.40    3.54
  -7   1   2    0.21    2.29
  -6   1   2   62.00    8.12
  -6  -1   2   51.54    7.59
   6  -1  -2   54.57    6.70
   6  -1  -2   57.63    7.79
   6   1  -2   68.85    8.67
  -6   1   2   45.16    4.23
  -6  -1   2   54.21    6.96
   6   1  -2   48.19    5.33
  -5   1   2   12.76    2.98
   5   1  -2   -2.85    4.06
   5  -1  -2    9.80    2.57
  -5  -1   2   11.60    4.78
  -5   1   2    6.15    4.19
  -5  -1   2   11.86    4.54
   5  -1  -2   14.27    4.98
   5  -1  -2    6.22    3.67
   5   1  -2   10.31    2.99
   4  -1  -2  703.69   20.86
  -4  -1   2  681.90   19.57
  -4  -1   2  723.67   20.06
   4  -1  -2  684.11   14.08
   4  -1  -2  665.75   18.60
   4  -1  -2  646.88   14.13
   4   1  -2  672.60   20.41
   4   1  -2  663.77   13.62
  -4   1   2  694.06   20.87
   3   1  -2 6423.59   57.83
   3  -1  -2 6279.44   43.02
   3  -1  -2 6325.93   43.25
  -3   1   2 6303.77   59.07
  -3  -1   2 6283.94   56.60
   3  -1  -2 6232.77   54.19
  -3  -1   2 6412.54   55.62
  -3  -1   2 6398.98   35.88
   3  -1  -2 6351.37   59.04
   0   1   2 5781.08   48.74
   0   1   2 5752.08   51.15
   0  -1  -2 5898.07   47.69
   0  -1   2 6037.34   49.21
   0  -1   2 6037.79   52.01
   1   1   2  703.85   18.37
  -1  -1  -2  703.75   15.96
  -1   1  -2  751.47   12.00
  -1   1  -2  770.53   13.78
   1  -1   2  735.91   12.49
  -1   1  -2  745.04   18.90
   1   1   2  647.84   15.93
  -1  -1  -2  719.03   17.80
   1  -1   2  755.47   18.50
   1  -1   2  767.67   14.20
  -2   1  -2  162.64    5.54
   2   1   2  148.26    8.27
  -2   1  -2  154.20    5.43
  -2   1  -2  152.81    9.13
   2  -1   2  137.04    6.90
   2   1   2  149.21    9.59
  -2  -1  -2  156.74    9.03
   2  -1   2  139.91    8.67
  -2  -1  -2  150.57    7.45
  -3   1  -2 1358.25   12.96
  -3  -1  -2 1281.86   21.14
   3   1   2 1356.96   25.02
  -3   1  -2 1447.06   27.14
   3   1   2 1297.30   27.22
   3  -1   2 1314.24   23.75
   3  -1   2 1401.91   28.50
  -3   1  -2 1256.63   12.69
   4   1   2   30.81    5.64
   4  -1   2   23.81    4.78
  -4  -1  -2   26.27    5.11
  -4  -1  -2   20.62    3.52
  -4   1  -2   25.97    4.44
   4   1   2   22.07    4.43
   4  -1   2   29.86    4.85
   5   1   2 4959.28   45.22
   5  -1   2 5136.19   57.07
   5  -1   2 5075.91   59.71
  -5   1  -2 5274.57   53.71
  -5  -1  -2 5149.55   58.40
   5   1   2 5032.95   60.58
   5   1   2 4987.57   55.33
   6   1   2  322.24   16.89
   6  -1   2  268.10    6.25
  -6  -1  -2  271.16   14.56
   6   1   2  294.02   11.87
  -6   1  -2  258.86    6.37
   6  -1   2  301.74   15.78
  -6   1  -2  324.79   13.81
   7   1   2 1045.10   23.40
  -7   1  -2  982.16   14.43
   7  -1   2 1053.06   13.88
  -7  -1  -2 1160.79   30.99
   7   1   2  976.71   30.20
  -7   1  -2 1079.04   31.26
  -7  -1  -2 1083.86   29.60
  -7   1  -2 1091.47   25.76
   7  -1   2 1070.07   30.59
   8  -1   2   25.97    3.15
  -8   1  -2   29.96    6.95
  -8   1  -2   27.95    5.46
   8   1   2   29.58    5.12
   8  -1   2   17.32    6.13
  -8   1  -2   20.15    3.03
   8   1   2   20.13    6.60
  -8  -1  -2   14.62    4.94
  -8  -1  -2   24.75    6.19
  -9  -1  -2  936.78   31.65
   9  -1   2  995.48   17.68
   9   1   2 1023.59   33.74
   9   1   2 1006.02   25.11
  -9   1  -2  934.42   32.70
  -9   1  -2 1046.96   27.43
   9  -1   2  916.37   31.68
  -9  -1  -2  997.20   31.81
 -10   1  -2 1333.00   41.36
 -10   1  -2 1381.78   33.13
  10   1   2 1309.79   40.21
  10  -1   2 1346.41   40.76
 -10  -1  -2 1309.14   38.05
 -10  -1  -2 1263.36   39.26
  10   1   2 1360.83   31.04
 -11  -1  -2  571.93   28.20
  11   1   2  648.68   29.83
 -11  -1  -2  607.46   27.23
  11  -1   2  576.75   28.16
 -11   1  -2  636.47   23.66
  11   1   2  606.62   22.48
 -11   1  -2  573.32   29.15
  12  -1   2  382.45   24.76
 -12   1  -2  349.79   24.09
 -12   1  -2  403.99   20.00
 -12  -1  -2  351.77   23.48
 -12  -1  -2  377.75   22.51
  12   1   2  402.86   25.03
 -13   1  -2   11.46    5.75
  13  -1   2   27.75    9.60
 -13  -1  -2   18.87    9.11
 -13   1  -2    8.44    7.87
 -13  -1  -2   15.35    8.15
  13   1   2   20.23    8.29
 -14   1  -2    5.56    8.99
  14   1   2    9.55    7.21
 -14  -1  -2    9.43    8.04
  14  -1   2   -7.90    7.60
 -14  -1  -2    5.10    8.40
  15  -1   2  -12.73    7.92
 -15  -1  -2  -10.01    8.41
 -15  -1  -2  -17.83    9.39
 -15   1  -2   -4.84    7.82
  15   1   2    2.03    8.07
  16  -1   2  116.54   17.75
 -16   1  -2  125.18   19.22
 -16  -1  -2  148.11   21.46
 -16  -1  -2  140.42   17.79
  16   1   2  147.80   19.36
  17   1   2    1.29    9.37
  17  -1   2   21.87   11.46
 -17   1  -2    6.01    9.42
 -18  -1  -2  364.07   33.05
 -18  -2   2   -2.18   10.74
  18   2  -2   -2.77    7.70
 -17   2   2   51.61   15.70
  17   2  -2   19.14    9.59
  17  -2  -2   22.23    9.57
 -17  -2   2   43.86   15.43
  17   2  -2   45.18   11.87
 -16   2   2   13.73   10.81
  16   2  -2   28.01   10.37
 -16  -2   2   12.76    8.76
  16  -2  -2   23.81   10.00
 -16  -2   2   39.61   12.95
  16   2  -2   42.58   10.24
 -15   2   2   14.50    9.26
 -15  -2   2   11.94    7.73
 -15  -2   2   -3.77    8.15
  15  -2  -2   14.12    8.02
  15  -2  -2   17.16    7.81
  15   2  -2    0.97    5.98
  15   2  -2    0.93    7.13
  14   2  -2   51.97    9.71
  14   2  -2   42.44   10.56
 -14   2   2   42.20   12.04
 -14  -2   2   37.69   10.99
  14  -2  -2   31.55    9.58
 -14  -2   2   29.25    9.25
  14  -2  -2   55.28   10.38
 -13  -2   2   81.46   12.20
  13  -2  -2   79.54   11.33
 -13   2   2   75.65   13.89
  13   2  -2   80.69   13.01
 -13  -2   2   99.25   14.54
  13  -2  -2   84.99   13.22
  13   2  -2   73.81   10.71
 -12   2   2   19.31    7.67
  12  -2  -2   16.31    6.11
  12   2  -2   33.45    8.93
 -12  -2   2   42.14    9.90
  12  -2  -2   24.76    7.49
  12   2  -2   26.99    7.19
 -12  -2   2   23.45    7.33
  11   2  -2  132.57   14.45
  11  -2  -2  127.43   14.29
 -11   2   2  113.82   13.88
  11   2  -2  127.22   11.76
 -11  -2   2  130.89   13.53
 -11  -2   2  126.27   13.99
  11  -2  -2  130.32   12.93
  10  -2  -2 3123.32   61.59
  10  -2  -2 3065.95   58.34
 -10   2   2 3063.07   61.91
 -10  -2   2 3090.14   59.10
  10   2  -2 3137.06   52.00
 -10  -2   2 3045.74   58.40
  10   2  -2 3129.82   62.25
  -9  -2   2   -3.16    6.09
   9  -2  -2    6.52    6.42
   9   2  -2    0.26    6.04
  -9  -2   2    2.16    4.87
  -9   2   2   12.68    7.83
   9  -2  -2    1.79    4.56
   9   2  -2    6.92    4.26
   8   2  -2    4.89    5.29
  -8  -2   2   10.53    5.70
   8  -2  -2    8.45    5.62
  -8  -2   2    6.67    5.82
  -8   2   2    5.37    5.17
   8  -2  -2   12.03    5.27
   8   2  -2    9.28    4.14
   7  -2  -2   11.46    4.59
   7   2  -2    2.83    4.38
  -7  -2   2    6.63    5.24
   7  -2  -2    9.07    4.62
  -7   2   2   13.54    5.86
  -7  -2   2   18.81    7.19
   7   2  -2   11.45    4.09
   6  -2  -2  101.81    9.95
   6  -2  -2   87.20    9.39
  -6   2   2   94.24    9.52
   6   2  -2   89.90    6.98
   6   2  -2   94.82   10.16
  -6  -2   2   95.21    9.44
  -6  -2   2   88.87    9.42
   5  -2  -2  295.79   16.10
   5   2  -2  273.66   15.91
  -5  -2   2  292.67   13.87
   5  -2  -2  288.12   15.55
   5   2  -2  296.93   11.17
   5  -2  -2  255.15    5.55
  -5   2   2  294.67   14.78
  -5  -2   2  295.03   15.39
   4  -2  -2 5263.09   61.92
   4  -2  -2 5288.32   63.33
  -4  -2   2 5281.81   61.59
   4  -2  -2 5236.56   31.40
   4   2  -2 5118.64   41.48
   4  -2  -2 4963.90   33.90
   4   2  -2 5345.73   63.02
  -4  -2   2 5201.36   52.06
  -4   2   2 5062.89   56.70
  -3  -2   2 2645.16   42.13
   3   2  -2 2549.28   26.22
   3  -2  -2 2572.29   42.61
   3  -2  -2 2565.27   25.86
  -3   2   2 2563.38   26.83
   3   2  -2 2692.98   42.19
  -3  -2   2 2639.60   28.70
  -3   2   2 2572.44   39.05
  -3   2   2 2450.73   42.62
  -3  -2   2 2547.57   35.11
   2   2  -2   -0.35    2.24
   2  -2  -2   -1.39    2.04
   2   2  -2   -0.39    3.54
  -2  -2   2    2.64    3.15
  -2  -2   2    1.34    2.29
  -2  -2   2   -6.14    3.83
  -2   2   2    1.72    4.37
  -2   2   2   -2.23    3.92
   2  -2  -2   -0.81    3.24
   1  -2  -2  410.11   16.43
   1   2  -2  440.81   10.44
   1   2  -2  455.06   16.00
  -1   2   2  428.53   14.67
   1   2  -2  456.80   10.04
  -1  -2   2  456.77   14.10
  -1   2   2  452.22   18.12
  -1  -2   2  478.66   16.94
   1  -2  -2  435.16   13.20
   0   2   2  203.45   12.53
   0  -2   2  228.72   10.28
   0   2   2  193.02    9.33
   0   2  -2  206.30    8.05
   0  -2   2  183.99   10.75
   0  -2  -2  204.10   11.48
   0   2  -2  199.75    7.21
   0  -2  -2  198.15    9.59
   0   2  -2  206.42   10.23
  -1   2  -2  322.74   12.08
   1   2   2  288.03   10.54
   1   2   2  299.37   15.33
  -1  -2  -2  308.30   13.94
   1  -2   2  320.83   12.27
   1  -2   2  317.44   13.96
  -1  -2  -2  287.47   12.62
   1  -2   2  304.23   10.35
   2  -2   2    4.66    3.20
   2   2   2   -0.26    2.94
  -2  -2  -2    5.94    3.82
   2  -2   2   -1.99    3.05
  -2  -2  -2   -0.74    3.88
   2  -2   2    0.66    2.36
   2  -2   2    2.91    2.86
   2   2   2    5.49    5.30
   3   2   2 6482.31   68.71
  -3  -2  -2 6231.38   65.00
  -3   2  -2 6323.49   58.04
  -3  -2  -2 6276.66   61.52
   3  -2   2 6336.10   47.69
   3   2   2 6304.04   51.13
   3  -2   2 6569.53   57.82
   3  -2   2 6274.38   62.15
  -4  -2  -2    9.08    4.26
   4   2   2   11.23    5.42
   4   2   2   15.33    3.88
   4  -2   2    9.37    4.56
   4  -2   2   14.49    3.02
  -4  -2  -2   16.88    4.87
  -4   2  -2   19.33    4.65
   4  -2   2   17.45    4.56
   5  -2   2 1244.72   30.65
   5   2   2 1343.42   34.34
   5  -2   2 1313.85   31.25
  -5  -2  -2 1246.78   29.06
  -5  -2  -2 1296.06   33.16
   5   2   2 1270.60   26.31
  -5   2  -2 1333.91   27.31
   5  -2   2 1322.14   20.62
   6   2   2    5.89    4.85
  -6   2  -2   -2.09    3.56
   6  -2   2    1.75    3.75
  -6   2  -2    6.35    4.12
   6  -2   2    1.02    2.07
  -6  -2  -2   -1.05    4.23
   6   2   2    9.06    5.71
  -6  -2  -2   -0.84    3.37
  -7   2  -2    1.69    3.60
  -7  -2  -2    5.02    5.51
   7   2   2    3.69    4.09
   7  -2   2    8.78    5.85
   7   2   2    3.16    5.83
   7  -2   2    7.63    2.57
  -7  -2  -2   -0.78    3.68
  -7   2  -2    1.07    4.74
   8  -2   2  179.53   14.42
  -8   2  -2  182.88   10.97
  -8   2  -2  189.53   14.77
  -8  -2  -2  164.55   14.51
   8  -2   2  178.61    8.07
   8   2   2  175.61   14.96
  -8  -2  -2  173.70   13.05
   8   2   2  172.21   12.43
   9   2   2 1623.33   37.14
   9  -2   2 1579.73   24.39
  -9  -2  -2 1576.18   39.54
   9   2   2 1701.75   45.89
   9  -2   2 1544.25   43.10
  -9   2  -2 1523.07   42.50
  -9  -2  -2 1626.69   44.56
  -9   2  -2 1633.93   32.12
  10   2   2 1913.48   42.90
 -10  -2  -2 1990.25   50.63
 -10   2  -2 1925.28   50.34
 -10   2  -2 1976.55   36.45
 -10  -2  -2 1920.76   46.13
  10   2   2 1983.64   52.10
  10  -2   2 1949.56   50.81
  11   2   2   68.21    9.24
 -11   2  -2  104.32    9.53
 -11   2  -2  114.05   14.25
 -11  -2  -2   96.69   12.00
  11  -2   2   98.30   13.35
 -11  -2  -2  101.36   12.99
  11   2   2   89.96   12.86
 -12  -2  -2   52.55   10.57
 -12  -2  -2   39.18    9.19
  12   2   2   25.05    6.69
  12   2   2   20.44    7.75
  12  -2   2   24.07    7.95
 -12   2  -2   30.63    9.05
 -13   2  -2   23.99    8.20
 -13  -2  -2   43.20   10.21
 -13  -2  -2    8.03    6.60
  13  -2   2   34.88   10.30
  13   2   2   27.33    9.44
 -14  -2  -2   39.87   11.43
 -14  -2  -2   28.41    9.90
 -14   2  -2   35.29   11.37
  14  -2   2   14.90    9.21
  14   2   2   37.03   10.71
 -15   2  -2  -11.13   11.08
 -15  -2  -2   -4.55    9.22
 -15  -2  -2    2.09    8.73
  15  -2   2   -6.44    8.31
  15   2   2   15.08    9.82
 -16  -2  -2  112.05   17.39
 -16  -2  -2  105.04   18.03
 -16   2  -2  133.55   20.53
  16   2   2  141.74   19.56
  16  -2   2  153.66   20.24
 -17   2  -2   21.49   13.18
 -17  -2  -2   21.68   11.64
 -17  -2  -2    2.49   10.42
  17  -2   2    4.16    9.11
  17   2   2   12.79    9.58
 -18  -2  -2   46.01   15.42
  17   3  -2   14.51   10.68
 -17  -3   2   42.73   12.56
  16   3  -2   33.04   11.59
 -16   3   2   35.01   13.33
  16  -3  -2   40.53   12.52
 -16  -3   2   36.71   11.57
  16   3  -2   18.21    9.10
  15  -3  -2   -6.42    8.84
  15   3  -2   13.87    7.27
 -15  -3   2   32.57   11.32
 -15   3   2    8.30    8.82
 -15  -3   2   13.08   11.59
  15   3  -2   24.95   10.37
  14  -3  -2   61.17   12.82
 -14  -3   2   50.23   12.34
  14   3  -2   32.08    8.21
  14   3  -2   63.32   13.24
  14  -3  -2   54.11   11.24
 -14   3   2   48.10   13.19
 -14  -3   2   40.16   11.93
  13   3  -2  359.11   21.80
 -13   3   2  336.49   25.74
  13   3  -2  397.22   27.35
  13  -3  -2  410.30   25.18
 -13  -3   2  388.20   25.82
  13  -3  -2  395.67   27.00
 -13  -3   2  334.64   24.65
  12   3  -2 1038.20   34.86
  12  -3  -2 1038.29   38.99
  12  -3  -2 1039.55   41.44
 -12  -3   2 1029.34   38.95
 -12   3   2  972.98   41.25
  12   3  -2 1088.92   43.21
 -12  -3   2 1055.51   40.84
  11   3  -2  121.34   15.21
  11  -3  -2  116.60   13.27
 -11   3   2  102.10   13.87
 -11  -3   2  128.63   14.63
  11   3  -2  128.93   12.28
  11  -3  -2  119.16   14.69
 -11  -3   2  128.91   14.72
  10  -3  -2  987.48   37.50
  10  -3  -2  925.51   34.50
 -10  -3   2  930.99   34.65
  10   3  -2  884.86   28.89
 -10  -3   2  886.74   34.86
 -10   3   2  859.44   34.89
  10   3  -2  841.33   34.68
   9  -3  -2   45.43    9.59
  -9  -3   2   65.26   10.04
   9   3  -2   60.73   10.78
  -9  -3   2   47.01    8.60
   9  -3  -2   52.70    9.48
   9   3  -2   46.13    6.82
  -9   3   2   66.87   11.16
  -8   3   2   -1.35    5.87
   8  -3  -2    7.14    6.64
   8  -3  -2   -9.52    6.21
  -8  -3   2   -7.89    7.02
  -8  -3   2   -5.10    6.78
   8   3  -2    6.89    4.25
   8   3  -2    1.66    5.79
  -7  -3   2   30.09    7.18
  -7   3   2   20.77    6.44
   7   3  -2   28.77    5.88
  -7  -3   2   25.92    8.13
   7  -3  -2   35.98    7.93
   7  -3  -2   33.96    8.84
   7   3  -2   22.13    7.78
   6   3  -2  776.24   30.09
   6  -3  -2  818.07   30.69
   6  -3  -2  777.45   29.21
  -6  -3   2  787.59   23.61
   6   3  -2  801.95   22.69
  -6   3   2  705.77   25.35
  -6  -3   2  750.83   28.18
   5   3  -2  173.84   14.02
  -5   3   2  156.35   13.62
   5  -3  -2  197.07   14.82
   5   3  -2  209.37   11.24
  -5   3   2  176.93   12.26
  -5  -3   2  185.22   11.18
  -5  -3   2  180.21   13.78
  -4   3   2  803.06   29.05
   4   3  -2  881.03   21.05
  -4   3   2  791.09   14.85
   4   3  -2  851.78   28.82
  -4  -3   2  808.29   27.16
   4  -3  -2  828.48   14.14
  -4   3   2  791.54   24.03
  -4  -3   2  840.42   21.13
   4  -3  -2  765.73   27.33
  -3  -3   2  191.64   13.26
   3   3  -2  205.08   14.05
  -3   3   2  176.20   13.84
   3  -3  -2  194.75    8.24
   3   3  -2  192.08   10.18
   3  -3  -2  190.15   13.66
  -3   3   2  175.16   11.41
  -3  -3   2  202.11   10.45
  -2  -3   2  238.22   14.67
  -2  -3   2  250.63   10.66
   2  -3  -2  229.79   14.79
  -2   3   2  203.80   15.16
   2   3  -2  236.89   11.33
   2   3  -2  238.23   14.50
  -2   3   2  225.92   11.84
   2  -3  -2  223.14   10.15
   1   3  -2 1103.32   29.17
  -1  -3   2 1062.31   29.18
  -1   3   2 1070.14   32.37
   1  -3  -2 1090.59   30.84
   1   3  -2 1079.09   22.97
  -1  -3   2 1196.45   22.41
   1  -3  -2 1040.85   23.46
  -1   3   2 1065.44   23.02
   0   3  -2 1067.79   27.87
   0  -3  -2 1112.84   25.81
   0  -3  -2 1100.71   30.90
   0   3   2 1067.92   20.61
   0   3   2 1112.09   33.01
   0  -3   2 1176.36   22.56
   0   3  -2 1096.57   23.92
   0  -3   2 1104.94   28.86
   1  -3   2 1784.24   35.90
   1   3   2 1823.14   41.73
  -1  -3  -2 1776.52   34.67
  -1   3  -2 1860.12   32.18
   1  -3   2 1820.96   35.04
   1  -3   2 1852.35   30.98
   1   3   2 1838.93   25.38
  -1  -3  -2 1808.51   39.92
   2  -3   2   69.10    6.84
   2  -3   2   83.14    8.68
  -2  -3  -2   73.42    8.84
   2  -3   2   62.32    7.09
   2   3   2   81.78    5.47
   2   3   2   80.90   10.71
  -2  -3  -2   62.98    7.91
   2  -3   2   71.22    7.63
   3   3   2  403.77   20.86
   3  -3   2  441.11   17.54
   3  -3   2  438.09   17.79
  -3  -3  -2  481.05   21.36
   3  -3   2  454.41   16.56
   3  -3   2  468.57   18.69
  -3  -3  -2  414.91   19.10
   3   3   2  464.28   12.69
   4   3   2   26.79    3.98
   4  -3   2   24.54    4.69
  -4  -3  -2   30.16    6.57
   4   3   2   33.42    8.43
  -4   3  -2   19.20    4.95
  -4  -3  -2   15.28    5.30
   4  -3   2   36.85    7.03
  -4   3  -2   19.55    4.70
  -5  -3  -2   65.52    9.13
   5  -3   2   60.16    6.46
  -5  -3  -2   67.93    9.29
  -5   3  -2   71.84    7.30
  -5  -3  -2   81.58    6.68
   5   3   2   53.90    8.89
   5  -3   2   71.06    8.77
  -5   3  -2   74.01    8.42
  -6  -3  -2   14.00    6.07
  -6   3  -2    1.56    4.08
   6  -3   2   11.39    3.65
  -6  -3  -2    7.93    3.79
   6   3   2    9.83    7.04
   6  -3   2    6.74    4.53
  -6  -3  -2   11.18    6.15
  -6   3  -2   18.22    5.19
   7   3   2 1178.97   37.84
  -7   3  -2 1104.39   26.18
  -7  -3  -2 1017.58   35.69
  -7  -3  -2 1172.39   28.60
  -7   3  -2 1115.52   33.54
   7  -3   2 1105.78   34.59
   7   3   2 1040.15   33.18
   7  -3   2 1113.70   24.62
  -8  -3  -2  212.03   13.53
   8   3   2  194.27   15.21
  -8   3  -2  206.67   15.96
   8   3   2  211.13   17.26
   8  -3   2  208.88   11.07
  -8  -3  -2  191.48   16.76
   8  -3   2  228.75   17.55
  -8   3  -2  227.53   11.85
  -9  -3  -2  257.00   15.78
  -9   3  -2  277.85   19.09
   9   3   2  276.73   20.59
   9   3   2  257.53   17.82
  -9  -3  -2  257.88   20.20
   9  -3   2  264.65   19.47
 -10   3  -2   39.37    9.17
  10   3   2   33.99    8.18
 -10  -3  -2   28.19    6.83
 -10  -3  -2   33.78    9.02
  10  -3   2   42.43    9.14
  10   3   2   36.22    9.14
 -11   3  -2    7.17    6.04
  11   3   2   29.69    7.68
 -11  -3  -2   18.02    7.03
 -11  -3  -2   19.13    9.01
  11  -3   2   11.31    7.73
  11   3   2    8.75    7.32
  12   3   2   42.02    9.92
  12   3   2   31.16    7.49
 -12  -3  -2   41.22   11.49
 -12  -3  -2   32.34    8.12
 -12   3  -2   58.32   12.51
 -13  -3  -2    3.63    7.48
 -13  -3  -2   11.15    8.26
  13  -3   2    0.10    7.27
 -13   3  -2   -5.90    8.28
  13   3   2    7.31    7.31
  14  -3   2   19.88    9.71
 -14   3  -2   16.13    9.11
 -14  -3  -2   29.29   11.04
  14   3   2   17.40    9.67
  15  -3   2    4.71    9.65
 -15   3  -2   -4.52   10.14
 -15  -3  -2   14.21    9.95
  15   3   2   -4.30    7.54
  16  -3   2    9.66    9.08
 -16  -3  -2   17.46   11.25
 -16   3  -2   -3.29   10.10
  16   3   2    6.04    9.63
 -17  -3  -2   -0.22   11.14
  16   4  -2    5.77    9.54
 -16  -4   2  -10.47   10.97
  15   4  -2   10.74    9.34
 -15   4   2   21.18   11.48
 -15  -4   2    4.55    8.39
  15  -4  -2   12.95   10.58
  14  -4  -2   48.88   13.50
 -14  -4   2   39.43   11.78
  14   4  -2   26.76   11.36
 -14   4   2   34.90   12.19
  14  -4  -2   31.93   10.62
  13   4  -2  331.44   26.86
  13   4  -2  283.02   20.48
  13  -4  -2  329.26   26.91
 -13   4   2  313.54   25.74
  13  -4  -2  313.49   24.40
 -13  -4   2  327.42   26.66
  12  -4  -2  629.14   32.65
  12   4  -2  640.58   35.45
  12   4  -2  611.92   28.13
 -12   4   2  641.30   33.70
  12  -4  -2  624.40   36.00
 -12  -4   2  615.23   33.98
  11  -4  -2   46.36   11.71
  11  -4  -2   33.00    9.69
 -11  -4   2   20.72    7.44
 -11   4   2   37.68   11.05
  11   4  -2   37.67   11.12
  11   4  -2   22.36    6.24
 -10   4   2    7.95    7.47
  10   4  -2   12.24    7.43
 -10  -4   2   10.52    7.01
  10  -4  -2    8.30    7.30
  10  -4  -2   12.53    6.77
  10   4  -2    7.43    5.50
   9   4  -2   -2.18    7.24
  -9   4   2   -4.47    5.97
  -9  -4   2   -8.42    7.57
   9  -4  -2    3.30    7.60
   9  -4  -2    1.51    5.71
   9   4  -2   15.02    6.34
  -8  -4   2   59.05   10.83
   8  -4  -2   38.96    8.82
  -8   4   2   41.13    9.27
   8   4  -2   36.99    7.28
   8   4  -2   32.61    9.89
  -7  -4   2    3.38    5.23
   7   4  -2   -5.31    5.29
   7  -4  -2   -8.00    7.04
   7   4  -2   -5.22    6.61
  -7   4   2    7.49    6.28
  -7   4   2   16.95    8.85
   6   4  -2  399.15   23.51
  -6  -4   2  392.38   16.20
   6  -4  -2  408.86   23.34
  -6   4   2  444.90   25.44
   6   4  -2  429.22   18.74
  -6   4   2  386.88   19.81
  -6  -4   2  373.52   22.19
   5   4  -2    6.39    6.37
  -5   4   2   -0.82    6.60
  -5  -4   2   -1.97    5.40
   5  -4  -2    0.94    5.68
  -5   4   2    0.13    5.21
  -5  -4   2   -4.37    4.02
   5   4  -2   -1.43    4.94
  -4  -4   2  149.21   13.45
   4   4  -2  130.13   13.91
  -4   4   2  146.50   15.26
  -4  -4   2  137.17    8.42
   4  -4  -2  125.47   13.18
   4  -4  -2  150.04    7.82
   4   4  -2  164.00   11.78
  -4   4   2  159.15   11.91
  -3   4   2   83.62    8.60
   3   4  -2   79.02   10.25
   3   4  -2  105.21   10.21
  -3  -4   2   95.71    6.41
  -3   4   2   74.19   11.27
  -3  -4   2   81.90   11.12
   3  -4  -2   82.75    7.15
   3  -4  -2   78.85   11.20
   2  -4  -2   65.47   10.09
  -2  -4   2  131.42    7.58
  -2  -4   2  121.91   13.47
   2  -4  -2   63.03    6.95
  -2   4   2   67.76   11.65
   2   4  -2  103.41   12.47
  -2   4   2   60.03    7.12
   2   4  -2  106.88   10.67
  -1  -4   2   76.50   10.31
   1  -4  -2   47.35    9.02
  -1   4   2   31.93    9.20
   1   4  -2   82.33   11.25
   1   4  -2   89.08    9.86
  -1   4   2   61.09    6.66
   1  -4  -2   48.15    6.78
  -1  -4   2   84.00    6.70
   0   4   2  832.87   16.99
   0  -4  -2  793.28   30.88
   0  -4   2  855.78   28.65
   0   4   2  826.95   32.26
   0  -4   2  949.86   20.16
   0  -4  -2  897.45   27.42
   0   4  -2  929.77   26.50
   1  -4   2 5136.67   67.79
   1  -4   2 5281.79   50.92
  -1  -4  -2 5093.69   76.62
  -1  -4  -2 5027.46   65.92
   1  -4   2 5015.50   68.78
   1   4   2 5171.52   79.72
  -1   4  -2 5220.27   62.99
   2  -4   2   16.18    6.05
  -2  -4  -2   10.55    6.34
  -2  -4  -2   22.97    6.36
   2   4   2   18.02    2.09
   2  -4   2   29.66    6.30
  -2   4  -2   17.50    5.64
   2   4   2   19.72    7.84
  -2   4  -2   20.97    4.44
   3  -4   2  145.52   12.76
  -3  -4  -2   99.58    4.62
  -3  -4  -2  109.62   12.95
   3  -4   2  101.53   10.23
  -3   4  -2  107.73    8.73
   3   4   2  116.47   13.96
  -3  -4  -2  115.27   12.04
  -3   4  -2  126.51   11.61
  -4   4  -2    7.82    4.54
   4  -4   2    7.42    6.10
  -4  -4  -2    3.33    5.60
   4  -4   2   10.04    5.14
  -4  -4  -2    7.66    5.46
   4  -4   2    2.70    4.25
   4   4   2   -2.46    8.00
  -4  -4  -2    2.91    1.94
   5  -4   2   18.92    7.01
  -5  -4  -2    7.26    5.67
   5  -4   2   14.29    5.56
  -5  -4  -2    3.52    5.82
  -5   4  -2    3.89    3.97
   5   4   2    6.35    7.56
  -5   4  -2    5.84    4.57
  -6  -4  -2    1.34    5.99
   6   4   2   11.10    8.14
  -6   4  -2   -7.27    4.47
   6  -4   2    8.05    5.34
  -6  -4  -2   -2.31    6.31
  -6   4  -2    7.18    4.90
   6  -4   2    1.24    5.63
   7   4   2 3273.22   66.48
  -7  -4  -2 3351.83   71.97
   7  -4   2 3335.70   51.81
  -7   4  -2 3355.80   59.59
   7  -4   2 3491.38   66.48
   7   4   2 3508.38   69.84
  -8   4  -2  599.51   26.87
   8  -4   2  576.89   21.51
   8   4   2  611.74   30.38
  -8  -4  -2  625.54   32.46
   8   4   2  587.47   28.98
   8  -4   2  635.58   30.35
   9   4   2  407.02   24.92
  -9   4  -2  433.82   24.61
   9  -4   2  426.64   26.11
   9   4   2  452.47   26.57
  -9  -4  -2  448.83   28.82
  10  -4   2   35.34    9.23
  10   4   2   28.59    9.20
 -10   4  -2   33.85    9.58
 -10  -4  -2   39.94   12.53
  10   4   2   36.01   10.16
  11  -4   2   -4.72    7.74
 -11  -4  -2   -9.41    8.61
 -11   4  -2   -3.17    6.64
  11   4   2   17.13    9.36
  12   4   2    1.92    6.95
 -12   4  -2   -5.01    7.47
 -12  -4  -2   -6.92   10.57
  12  -4   2   -8.30    7.82
  12   4   2   -4.79    7.54
  13   4   2   39.34   12.01
 -13   4  -2   22.86    9.60
 -13  -4  -2   30.15   12.95
  13  -4   2   10.25    8.46
  14  -4   2    3.96    9.61
 -14   4  -2   16.46   10.43
 -14  -4  -2   -0.62    9.69
  14   4   2   18.39   11.08
  15  -4   2   21.87   12.50
 -15  -4  -2   11.91   13.13
 -15   4  -2    9.49   11.00
  15   4   2   21.03   11.27
 -15   5   2   -5.86   11.96
  14  -5  -2    9.47   10.02
  14   5  -2    9.80   11.06
 -14  -5   2   -9.12   10.98
 -14   5   2  -16.65   11.34
 -13   5   2   23.27   12.16
  13   5  -2   12.85    9.72
 -13  -5   2   36.56   13.25
  13  -5  -2   26.95   11.14
  12  -5  -2  136.87   18.11
 -12   5   2  167.28   19.15
  12   5  -2  154.77   20.01
 -12  -5   2  127.09   17.75
  11   5  -2   10.53    9.33
 -11  -5   2   15.23    8.68
  11  -5  -2   14.53    9.24
 -11   5   2    1.33   10.90
 -11   5   2   -1.64    8.39
  10   5  -2  120.56   17.27
  10  -5  -2  154.42   18.66
 -10   5   2  117.83   18.81
 -10   5   2  124.58   15.82
 -10  -5   2  109.97   15.46
  -9   5   2    3.13    8.09
   9   5  -2   -5.50    7.58
  -9  -5   2    5.46    8.31
   9  -5  -2    2.50    7.08
  -9   5   2   -4.28    7.14
   8   5  -2   36.03   10.08
  -8   5   2   26.02    9.30
  -8  -5   2   29.82    9.93
   8  -5  -2   42.82   10.85
  -8   5   2   39.79    9.66
   8   5  -2   49.82    9.42
   7  -5  -2    3.66    6.26
   7   5  -2    8.56    8.00
   7   5  -2    2.71    5.55
  -7  -5   2    7.51    6.02
  -7   5   2   16.43    7.69
  -7   5   2   -1.46    8.52
  -6  -5   2  212.25   18.73
  -6   5   2  251.57   21.60
   6   5  -2  261.95   21.23
   6  -5  -2  257.47   21.33
   6   5  -2  231.50   16.16
  -6   5   2  202.60   15.61
  -5  -5   2  119.55   13.87
   5   5  -2  137.81   15.88
   5  -5  -2  144.20   15.92
   5   5  -2  153.74   13.43
  -5   5   2  131.49   15.96
  -5   5   2  134.29   12.33
  -4  -5   2   94.64   12.75
   4   5  -2   84.95   11.93
   4  -5  -2  103.72   13.86
  -4   5   2   90.98   13.72
  -4   5   2   93.87    9.57
   4   5  -2  117.13   11.99
  -3  -5   2   34.17    8.96
   3  -5  -2   26.89    8.89
  -3   5   2   27.47   10.03
   3   5  -2   15.36    6.83
   3   5  -2   31.45    8.05
   2  -5  -2   25.38    6.15
  -2  -5   2   43.45   10.19
   2  -5  -2   16.29    7.27
  -2   5   2   36.52   10.06
   2   5  -2   24.80    8.00
   2   5  -2   34.34    8.84
  -1  -5   2  347.23   21.29
   1  -5  -2  338.91   17.98
   1   5  -2  352.56   22.23
  -1   5   2  303.46   22.23
   1   5  -2  366.13   20.10
   1  -5  -2  341.55   23.15
   0  -5  -2  119.63   11.71
   0  -5   2  109.22   12.34
   0  -5  -2   87.06   12.76
   0   5   2  132.34   16.32
   0   5  -2  125.76   13.14
   1  -5   2 1811.30   45.75
  -1  -5  -2 1973.21   54.93
  -1  -5  -2 1766.78   44.84
   1   5   2 1952.31   54.90
   1  -5   2 1757.77   47.57
  -1   5  -2 2002.41   45.57
  -2  -5  -2   68.78   10.83
   2  -5   2   77.05   10.16
   2   5   2   58.57   12.56
  -2  -5  -2   66.31   11.72
   2  -5   2   55.82    9.27
  -2   5  -2   88.72   11.91
  -3  -5  -2   56.11   10.49
  -3  -5  -2   54.71   11.08
   3  -5   2   53.03    9.31
  -3   5  -2   55.10    7.19
   3   5   2   73.55   12.84
  -3   5  -2   72.95   10.53
   3  -5   2   64.48   10.30
  -4   5  -2   12.16    4.47
  -4  -5  -2   11.05    6.14
   4   5   2   20.97    8.96
  -4  -5  -2    7.14    6.16
   4  -5   2   16.16    6.09
   4  -5   2   28.11    7.44
  -4   5  -2   18.91    7.49
  -5   5  -2   -5.44    7.00
  -5  -5  -2   -3.29    7.20
  -5   5  -2    2.77    4.73
   5  -5   2    6.10    5.57
  -5  -5  -2    8.52    8.08
   5   5   2   -7.38    8.65
   6   5   2    2.48    8.01
  -6  -5  -2   13.33    9.70
  -6   5  -2   17.21    6.02
   6  -5   2   13.19    4.89
  -6  -5  -2   13.92    8.91
  -7   5  -2    5.70    5.45
  -7  -5  -2   21.24    9.72
   7  -5   2    3.86    5.42
   7  -5   2    2.46    7.23
   7   5   2    8.03    6.51
   7   5   2    5.45    7.35
  -8  -5  -2   49.52   11.86
   8   5   2   56.67   12.17
  -8   5  -2   58.72   10.21
   8  -5   2   77.91   13.93
   8   5   2   44.10   11.37
   9  -5   2    9.91    8.39
   9   5   2    0.53    7.64
   9   5   2   -4.57    8.44
  -9  -5  -2   -0.44    7.68
  -9   5  -2   11.98    7.69
  10   5   2    5.41    8.19
  10  -5   2    6.26    7.37
 -10   5  -2   -6.81    6.52
 -10  -5  -2    4.82    8.26
  10   5   2   -6.73   10.27
 -11   5  -2   13.04    9.17
 -11  -5  -2    4.48   10.09
  11  -5   2   -0.82    8.42
  11   5   2   14.79    8.99
  11   5   2    3.98    9.21
  12  -5   2   42.88   12.67
  12   5   2   37.09   10.94
 -12  -5  -2   81.57   18.03
 -12   5  -2   48.43   12.80
  12   5   2   53.14   13.42
  13  -5   2   53.93   13.65
 -13  -5  -2   36.43   14.77
 -13   5  -2   52.64   13.40
  13   5   2   30.34   11.82
 -14   5  -2  160.48   21.75
  14  -5   2  194.01   23.54
  14   5   2  138.60   20.16
  12   6  -2   21.74   11.00
 -12  -6   2   21.09   12.34
  12  -6  -2   -6.40    9.90
 -12   6   2   -7.06   12.26
 -11  -6   2   75.15   15.99
  11   6  -2   81.92   16.38
  11  -6  -2   62.56   13.71
 -11   6   2  102.55   19.72
  10  -6  -2  107.22   17.26
 -10  -6   2   93.01   16.78
  10   6  -2  114.30   18.34
 -10   6   2   90.61   18.24
   9   6  -2   -5.22    8.30
  -9   6   2    6.62    9.34
  -9  -6   2    1.91    7.69
   9  -6  -2   -5.98    9.44
   8   6  -2   15.35    8.81
  -8   6   2   -5.27    8.80
  -8  -6   2    5.56    7.49
   8  -6  -2  -13.99   10.59
   7   6  -2    5.35    7.11
  -7  -6   2   16.76    8.00
  -7   6   2    2.01    8.05
   7  -6  -2    0.21    7.51
  -6  -6   2  166.07   18.60
   6   6  -2  157.08   18.67
   6  -6  -2  175.13   19.86
  -6   6   2  147.48   18.53
   5   6  -2   34.69    9.70
  -5  -6   2   17.67    7.51
   5  -6  -2   19.47    8.70
  -5   6   2    2.58    9.41
   4   6  -2  971.61   41.70
   4  -6  -2  959.66   43.35
  -4   6   2  960.39   42.78
  -4  -6   2  939.14   40.60
   3   6  -2   80.14   13.90
   3   6  -2   85.31   12.72
  -3   6   2   51.01   13.00
  -3  -6   2   53.96   11.06
   3  -6  -2   59.08   11.71
   2   6  -2   41.22   10.77
   2   6  -2   21.08    8.26
  -2  -6   2   19.64    7.78
   2  -6  -2   45.87   11.69
  -2   6   2   45.36   12.57
   1   6  -2   -4.51    6.65
  -1  -6   2    2.16    6.07
   1  -6  -2   -3.45    7.35
   1   6  -2    3.51    7.89
  -1   6   2   -3.80    8.31
   0  -6  -2   -0.80    5.41
   0   6  -2    1.10    6.26
   0   6  -2    6.68    7.33
   0  -6   2    6.78    5.76
   0  -6  -2   15.81    9.60
   0   6   2   -1.59    8.58
  -1  -6  -2  188.30   19.96
   1   6   2  192.55   20.32
  -1   6  -2  156.23   16.18
   1  -6   2  192.20   17.07
  -1  -6  -2  160.34   15.57
   2  -6   2    7.52    7.18
  -2  -6  -2    4.45    8.08
   2  -6   2    5.23    6.51
  -2  -6  -2    6.61    8.29
   2   6   2   -1.69    9.39
  -2   6  -2    1.09    8.38
  -3  -6  -2   18.76    9.12
  -3  -6  -2   20.96    9.73
   3  -6   2   21.87    8.78
  -3   6  -2   16.07    9.03
   3   6   2   28.95   12.06
  -4  -6  -2   28.31    9.62
  -4   6  -2   -1.31    8.92
   4   6   2   12.48    9.42
  -4  -6  -2    7.97    8.21
   4  -6   2   12.86    7.33
  -5  -6  -2    4.14    8.69
   5  -6   2    4.45    6.70
  -5  -6  -2    5.25    8.06
  -5   6  -2   -7.09    7.81
   5   6   2    2.35    8.24
  -6  -6  -2    4.34    8.63
   6   6   2    3.50    9.48
   6  -6   2    1.73    6.09
  -6  -6  -2   -0.77    7.68
  -7   6  -2    1.45    8.81
  -7  -6  -2   15.93    9.26
   7   6   2    6.02    9.61
   7   6   2   -7.42    9.32
  -8   6  -2    2.69    8.51
   8   6   2   -1.72    8.13
  -8  -6  -2    7.53   10.52
   8   6   2    6.46    8.65
   9   6   2  179.43   21.18
  -9   6  -2  183.46   21.27
  -9  -6  -2  182.66   23.38
   9   6   2  208.00   22.31
  10   6   2   71.07   14.97
 -10  -6  -2   70.12   16.82
  10   6   2   69.15   14.94
  11   6   2   18.91   12.37
 -11  -6  -2    7.11   11.05
  11   6   2   11.40    9.06
  12   6   2   15.67   11.08
  12   6   2   24.88   11.38
  12  -6   2   26.29   11.99
  10  -7  -2    6.00   10.39
  -9  -7   2   -0.44    9.28
   9  -7  -2  -12.01   11.09
  -9   7   2    4.69   10.78
  -8  -7   2  103.60   18.17
   8   7  -2  101.68   18.86
   8  -7  -2  155.15   22.31
  -8   7   2  148.09   22.03
   7   7  -2   85.62   17.32
  -7  -7   2   92.11   16.88
   7  -7  -2   53.77   13.99
  -7   7   2   76.94   17.36
   6   7  -2   10.30    9.99
  -6   7   2   -0.26   10.40
  -6  -7   2   12.88    9.78
   6  -7  -2   18.19    9.94
  -5   7   2   -9.52   10.46
   5   7  -2    6.27    8.94
  -5  -7   2   13.40    9.81
   5  -7  -2  -12.86   10.01
   4   7  -2  273.85   25.37
   4  -7  -2  326.97   28.80
  -4   7   2  275.89   25.99
  -4  -7   2  265.15   24.74
   3   7  -2   68.34   13.97
  -3  -7   2   61.63   13.20
   3  -7  -2   55.72   14.12
  -3   7   2   62.28   14.62
   2  -7  -2   93.75   16.31
  -2  -7   2  108.19   15.42
  -2   7   2  105.17   17.28
   2   7  -2  116.43   17.25
   1   7  -2  194.78   20.79
  -1  -7   2  169.85   18.56
   1  -7  -2  175.34   21.13
  -1   7   2  188.85   22.13
   0  -7  -2    9.60    9.34
   0   7  -2   -4.81    9.48
   0   7   2   -1.55   10.35
  -1   7  -2   53.77   12.74
  -1  -7  -2   32.55   12.04
   1   7   2   59.59   16.33
  -2  -7  -2   25.10    9.65
   2   7   2   18.24   11.32
  -2  -7  -2   17.23   10.30
  -3  -7  -2   81.07   14.85
  -3  -7  -2   77.80   15.92
   3   7   2   78.80   16.23
   3  -7   2   77.85   15.18
  -4  -7  -2   11.39    9.45
  -4  -7  -2   -1.83    9.16
   4  -7   2   16.42    9.20
   4   7   2    7.64   11.28
  -5  -7  -2   10.37   10.93
   5   7   2   11.98    9.98
   5  -7   2   20.91   10.02
  -5   7  -2    3.64    9.48
  -5  -7  -2    6.51    9.18
  -6  -7  -2   29.99   12.94
   6   7   2   36.44   12.84
  -6   7  -2   26.73   11.54
   6   7   2   33.39   13.09
   7   7   2   -3.57   10.44
   7   7   2   23.26   12.44
  -7   7  -2   10.23   10.03
  -7  -7  -2    3.39   10.59
  -8   7  -2    2.94   10.01
  -8  -7  -2    6.38   10.28
   8   7   2   -3.31    9.99
   8   7   2    3.75   11.37
   9   7   2   43.32   15.52
   9   7   2   63.38   16.37
  -9   7  -2   68.03   16.23
 -10   7  -2   15.60   13.09
  -5  -8   2   -8.78   11.34
  -4  -8   2    3.15    9.76
  -3   8   2   -4.43   12.12
  -2   8   2   38.04   16.55
   2   8  -2   68.66   15.80
  -1   8   2  113.13   20.71
   1   8  -2  119.80   18.85
   0   8  -2   -1.12    9.28
   0   8   2    8.57   12.34
  -1   8  -2    1.88    9.56
   1   8   2   -6.42   12.92
   2   8   2   26.46   14.99
  -2   8  -2   13.64   11.25
  -3   8  -2   18.34   10.45
   3   8   2    3.65   12.11
   4   8   2    5.95   12.49
  -4   8  -2   15.08   11.30
  18   0  -3   -8.62   10.27
 -18   0   3    8.81   11.16
  17   0  -3   -3.47    7.61
  17   0  -3   -2.89    7.53
 -17   0   3   -0.85   10.56
  16   0  -3    9.32    8.84
 -16   0   3   -1.59    9.49
  15   0  -3    2.86    6.79
  15   0  -3   -0.62    6.75
 -15   0   3   -0.33    8.76
  14   0  -3    0.33    5.47
  14   0  -3   10.68    8.11
 -14   0   3   -1.87    7.97
  13   0  -3   -0.02    5.74
 -13   0   3    0.22    7.10
 -13   0   3   -2.70    5.42
  13   0  -3   -1.19    6.24
  12   0  -3   11.69    5.66
  12   0  -3   -0.85    5.57
 -12   0   3    3.37    4.35
 -12   0   3   -6.27    7.41
  11   0  -3    0.90    6.40
 -11   0   3    2.94    4.86
  11   0  -3   10.75    6.11
 -11   0   3   -3.52    7.74
  10   0  -3    2.75    4.35
 -10   0   3   -1.86    6.48
  10   0  -3  -10.77    6.67
 -10   0   3    1.10    4.16
   9   0  -3    4.89    4.25
   9   0  -3    3.34    5.13
  -9   0   3   -2.93    4.01
  -9   0   3   -1.09    6.31
   8   0  -3   -1.09    4.40
  -8   0   3    5.89    6.00
  -8   0   3   -1.57    4.19
   8   0  -3   -1.17    4.00
   7   0  -3    7.99    4.30
   7   0  -3   -1.82    4.77
  -7   0   3    2.34    4.20
  -7   0   3   -3.00    5.64
   6   0  -3   -0.51    3.87
  -6   0   3   -1.34    2.91
   6   0  -3    0.60    3.09
  -6   0   3   -1.88    5.72
   5   0  -3    1.23    2.85
   5   0  -3    6.87    4.69
  -5   0   3   -1.75    3.25
   4   0  -3    7.62    3.12
  -4   0   3    2.94    4.64
   4   0  -3    2.49    3.71
  -4   0   3    4.27    3.09
  -3   0   3   -2.16    4.68
   3   0  -3    2.81    3.41
  -3   0   3   -2.56    3.06
  -3   0   3    1.09    3.02
  -2   0   3   -1.64    2.24
   2   0  -3    3.82    3.11
  -2   0   3   -2.15    2.98
   1   0  -3   -1.27    2.50
   1   0  -3   -0.30    2.71
  -1   0   3    6.38    5.52
  -1   0   3    2.87    3.15
   1   0  -3    5.71    3.61
   0   0  -3    2.02    2.53
   0   0   3    4.80    4.04
   0   0   3    3.76    3.31
   0   0  -3    3.25    3.21
   1   0   3   -4.76    4.24
  -1   0  -3   -1.92    3.69
  -1   0  -3   -0.39    2.41
   1   0   3    3.29    3.15
   2   0   3    1.96    3.66
   2   0   3    1.21    2.09
  -2   0  -3    1.05    1.69
   2   0   3   -2.33    3.20
  -2   0  -3    1.93    3.40
   3   0   3    1.15    1.55
  -3   0  -3    0.25    1.43
   3   0   3   -1.17    4.18
   3   0   3   -0.94    3.38
  -3   0  -3    6.92    4.39
  -4   0  -3   -0.19    3.97
   4   0   3   -0.39    3.48
   4   0   3    0.36    0.96
   4   0   3   -3.91    3.88
  -4   0  -3    0.50    0.99
   5   0   3    0.67    3.80
  -5   0  -3    2.85    4.27
   5   0   3    0.47    3.58
  -6   0  -3   -1.99    3.70
   6   0   3    0.27    4.34
   6   0   3   -1.84    4.52
  -7   0  -3    4.74    4.69
   7   0   3   -4.03    4.45
   7   0   3    3.84    4.45
  -8   0  -3    2.70    4.70
   8   0   3   -0.76    0.93
   8   0   3    2.32    5.05
  -9   0  -3    3.74    6.94
  -9   0  -3   -5.10    6.25
   9   0   3   -0.80    5.94
 -10   0  -3   -4.04    5.85
 -10   0  -3    0.87    4.96
  10   0   3   -0.34    6.00
 -11   0  -3    0.62    5.73
  11   0   3    5.18    6.40
 -11   0  -3   -3.48    5.20
 -12   0  -3   -0.25    6.02
 -12   0  -3   -5.04    6.48
  12   0   3    9.75    8.06
 -13   0  -3   -1.84    6.95
 -13   0  -3    2.99    5.96
  13   0   3   -1.03    6.57
 -14   0  -3    6.46    7.18
 -14   0  -3   -0.56    8.59
  14   0   3    2.90    7.42
 -15   0  -3   -4.87    9.40
 -15   0  -3   -7.01    7.24
  15   0   3   15.41    9.02
 -16   0  -3    3.44   10.50
  16   0   3   -2.71    8.33
  17   0   3   -8.06   10.09
 -17   0  -3   -2.21    9.93
  18  -1  -3    7.74    8.70
  18   1  -3   11.02    8.66
  18   1  -3   24.99   11.80
 -18  -1   3   -6.77   12.15
  17   1  -3   46.54   11.52
  17  -1  -3   42.89   12.85
  17   1  -3   45.67   12.72
  17  -1  -3   25.12   10.02
 -17  -1   3   41.11   15.33
 -17   1   3   24.12   12.29
  16   1  -3   32.46   10.40
  16  -1  -3   41.16   10.74
  16   1  -3   25.15    8.59
  16  -1  -3   39.73   10.75
 -16  -1   3   17.40    9.50
 -16   1   3   36.69   13.35
  15   1  -3   63.91   11.38
 -15  -1   3   71.09   11.61
  15  -1  -3   74.51   13.01
  15   1  -3   77.94   14.29
 -15  -1   3   59.41   13.60
 -15   1   3   60.96   14.51
  15  -1  -3   94.56   13.72
  14   1  -3    8.11    6.10
 -14   1   3  -14.39    9.47
  14  -1  -3    7.44    6.82
  14   1  -3    0.31    6.26
  14  -1  -3   -2.50    6.20
 -14  -1   3   -7.73    6.76
 -14  -1   3    1.13    7.27
  13   1  -3   21.26    7.03
  13  -1  -3   25.40    8.41
  13   1  -3    9.51    7.35
  13  -1  -3   23.35    8.07
 -13  -1   3   36.65    8.86
 -13  -1   3   23.64    9.90
 -13   1   3   25.26    8.99
  12   1  -3    1.89    5.50
  12  -1  -3   -1.38    6.09
 -12   1   3   -4.90    6.44
  12   1  -3   -0.04    5.78
  12  -1  -3   12.56    7.02
 -12  -1   3   -3.67    5.49
 -12  -1   3    5.81    6.79
  11   1  -3  469.61   21.49
 -11  -1   3  441.29   21.76
 -11   1   3  466.13   17.69
  11  -1  -3  436.64   24.67
  11   1  -3  493.28   27.01
  11  -1  -3  476.41   23.95
 -11   1   3  409.44   24.70
 -11  -1   3  446.38   25.51
 -10   1   3   25.47    9.34
  10   1  -3   24.06    7.66
  10  -1  -3   13.24    5.99
 -10  -1   3   16.06    6.07
  10  -1  -3   26.90    7.31
 -10   1   3   24.43    5.14
  10   1  -3   31.77    6.51
 -10  -1   3   28.59    8.70
   9   1  -3  436.34   23.29
  -9   1   3  451.55   16.17
   9  -1  -3  431.93   22.49
  -9   1   3  419.04   23.19
  -9  -1   3  438.15   23.51
  -9  -1   3  420.46   20.06
   9   1  -3  442.02   18.27
   9  -1  -3  424.17   20.61
   8   1  -3  308.22   14.28
   8   1  -3  323.68   19.42
  -8   1   3  350.75   13.93
   8  -1  -3  321.35   18.90
  -8  -1   3  310.34   16.55
  -8   1   3  284.78   18.25
  -8  -1   3  286.13   18.66
   8  -1  -3  301.37   16.61
  -7  -1   3  169.11   12.26
   7   1  -3  156.70   13.20
   7  -1  -3  150.71   12.69
  -7   1   3  153.37    9.24
   7   1  -3  166.00    9.84
   7  -1  -3  167.65   11.93
  -7   1   3  187.26   14.49
  -7  -1   3  173.68   14.35
   6   1  -3  300.37   17.10
  -6  -1   3  303.33   16.92
  -6  -1   3  263.68   14.44
   6  -1  -3  267.53   16.14
  -6   1   3  283.77   12.04
   6   1  -3  277.77   11.24
  -6   1   3  294.32   17.50
   6  -1  -3  269.24   14.15
   5  -1  -3  757.22   25.11
  -5  -1   3  669.11   21.99
   5  -1  -3  723.84   19.47
   5   1  -3  707.41   24.51
   5   1  -3  711.28   15.69
  -5   1   3  741.27   25.54
  -5  -1   3  714.21   23.88
   5  -1  -3  731.52   21.81
   4  -1  -3   80.40    8.70
   4   1  -3   73.09    7.98
  -4  -1   3   68.12    8.13
  -4  -1   3   58.33    7.04
   4  -1  -3   73.41    6.76
   4   1  -3   79.65    4.73
  -4   1   3   65.66    8.57
  -4  -1   3   70.35    4.79
  -3  -1   3 1488.86   30.62
   3  -1  -3 1533.41   32.26
  -3   1   3 1521.43   33.50
  -3   1   3 1482.98   29.63
  -3  -1   3 1465.73   15.02
   3  -1  -3 1482.80   27.80
   3   1  -3 1496.05   14.43
   3   1  -3 1524.99   31.40
  -3  -1   3 1559.80   31.94
   1  -1  -3  340.71   13.89
  -1  -1   3  367.40   15.45
   1   1  -3  342.63   12.94
  -1   1   3  334.26   15.17
  -1  -1   3  335.39   15.05
   1  -1  -3  350.25   14.09
  -1   1   3  315.10   13.57
   0  -1  -3  332.16   14.23
   0   1   3  335.08   14.56
   0  -1   3  337.11   14.62
   0  -1   3  334.74    7.16
   0  -1   3  317.55   14.70
   0  -1  -3  333.41   13.21
   0   1   3  309.75   13.98
   0   1  -3  339.81    7.49
   0   1  -3  359.02   12.31
  -1   1  -3   51.75    4.54
   1  -1   3   49.84    6.75
  -1   1  -3   48.59    3.96
  -1  -1  -3   43.53    5.80
  -1   1  -3   44.58    6.34
   1  -1   3   46.24    3.91
   1   1   3   39.67    6.09
   1   1   3   30.91    5.15
  -1  -1  -3   41.57    4.99
   2  -1   3 1652.86   21.34
  -2   1  -3 1589.30   20.56
  -2  -1  -3 1582.22   25.99
   2   1   3 1502.21   31.12
   2   1   3 1538.83   30.71
   2  -1   3 1539.52   32.21
  -2   1  -3 1548.81   32.06
  -2  -1  -3 1609.32   32.61
   2  -1   3 1585.49   24.15
  -3   1  -3  896.75   12.97
  -3  -1  -3 1057.72   20.97
   3   1   3  937.51   25.69
  -3   1  -3  996.18   13.05
   3   1   3 1013.34   25.59
   3  -1   3 1045.81   27.66
  -3  -1  -3 1027.42   26.94
   3  -1   3  991.12   21.84
  -3   1  -3 1027.25   26.53
  -4  -1  -3 4198.87   56.13
   4  -1   3 4083.41   48.89
   4   1   3 4068.17   53.79
  -4  -1  -3 4020.78   39.93
  -4   1  -3 4164.93   53.36
   4  -1   3 4168.11   58.62
   4   1   3 3912.92   54.71
   5  -1   3  437.94   17.87
  -5  -1  -3  442.78   13.51
  -5   1  -3  473.13   18.99
   5   1   3  462.79   19.91
   5   1   3  445.20   19.20
   5  -1   3  464.04   20.68
  -5  -1  -3  479.33   20.33
   6   1   3   95.75   10.03
   6  -1   3   65.73    9.00
  -6  -1  -3   72.64    8.85
  -6   1  -3   67.74    8.16
   6   1   3   76.52    9.10
   6   1   3   68.21    6.07
   6  -1   3   93.66    9.67
   7   1   3   94.87   11.43
   7   1   3   97.03   10.51
   7  -1   3   68.82    9.94
  -7   1  -3  109.60   10.09
  -7  -1  -3   90.42   10.39
   7  -1   3   97.04    9.96
   7   1   3   90.58    6.92
  -8  -1  -3  137.87   12.77
  -8  -1  -3  149.60   13.02
   8   1   3  141.47    8.68
  -8   1  -3  136.82   13.40
   8   1   3  134.99   13.47
  -8   1  -3  168.88   13.06
   8  -1   3  140.05   12.71
  -9  -1  -3 1434.69   41.48
  -9   1  -3 1410.96   42.47
  -9   1  -3 1537.21   37.47
  -9  -1  -3 1511.10   41.60
   9  -1   3 1414.48   40.70
   9   1   3 1391.83   41.76
   9   1   3 1556.73   28.25
 -10  -1  -3    7.40    6.58
 -10   1  -3   -3.18    4.94
 -10  -1  -3    6.10    6.04
 -10   1  -3   -6.21    6.38
  10   1   3   -2.29    6.53
  10  -1   3   -1.80    5.08
 -11  -1  -3   53.58   10.13
 -11  -1  -3   48.74   10.42
 -11   1  -3   56.28    8.86
  11  -1   3   55.00    9.87
 -11   1  -3   69.51   11.75
  11   1   3   62.35   11.04
 -12   1  -3   15.03    7.67
 -12  -1  -3    4.35    7.64
 -12   1  -3    2.31    5.05
 -12  -1  -3   -6.00    7.10
  12   1   3    8.87    6.19
  12  -1   3    2.43    6.21
 -13   1  -3   42.28   10.41
 -13  -1  -3   34.13    9.92
 -13   1  -3   29.74    8.27
 -13  -1  -3   16.09    6.54
  13   1   3   23.25    9.18
  13  -1   3   23.03    9.19
 -14   1  -3    0.78    7.10
 -14  -1  -3   14.89    9.20
 -14  -1  -3    5.84    7.02
  14  -1   3   -6.30    7.67
  14   1   3   18.29    9.28
 -15   1  -3  111.46   17.16
 -15  -1  -3  126.22   17.56
  15   1   3  137.82   18.08
  15  -1   3  139.57   18.54
 -15  -1  -3  147.42   17.96
 -16   1  -3   13.32   11.02
 -16  -1  -3    4.20    8.54
 -16  -1  -3   22.19   10.55
  16  -1   3   13.39   10.79
  16   1   3   23.40   11.06
  17  -1   3   62.34   14.98
 -17  -1  -3   66.39   16.51
 -17   1  -3   42.97   13.95
  17   1   3   66.67   15.68
  18   2  -3   18.82   10.34
 -18  -2   3   30.06   16.94
  17  -2  -3   12.82    9.02
  17   2  -3   12.12    9.00
 -17   2   3   32.62   14.77
 -17  -2   3   21.23   14.26
  16   2  -3    4.79    7.32
  16  -2  -3    9.95    9.55
  16   2  -3   10.31    9.63
 -16  -2   3   -1.43    6.92
  16  -2  -3    9.24    7.30
 -16   2   3    6.36    9.75
 -16  -2   3   19.57   10.80
  15   2  -3   42.67    9.75
  15   2  -3   49.87   12.17
 -15  -2   3   45.21   10.32
  15  -2  -3   47.55   11.44
  15  -2  -3   33.88    9.82
 -15  -2   3   48.28   12.85
 -15   2   3   33.43   12.65
  14  -2  -3    8.46    7.71
  14   2  -3    8.91    6.93
  14   2  -3   -0.98    7.59
 -14  -2   3    4.46    6.04
  14  -2  -3   14.30    7.86
 -14   2   3  -12.70    8.18
 -14  -2   3  -15.87   12.00
  13  -2  -3   61.43   11.57
  13   2  -3   98.19   14.67
  13  -2  -3   78.12   12.29
 -13  -2   3   57.82   12.33
  13   2  -3   63.67    9.75
 -13  -2   3   60.49   10.73
 -13   2   3   70.88   13.32
  12  -2  -3   23.05    8.25
  12   2  -3    9.35    6.91
 -12  -2   3    9.07    5.78
  12  -2  -3   11.67    6.82
  12   2  -3   20.23    6.73
 -12  -2   3    4.10    7.45
 -12   2   3   25.49   10.84
  11   2  -3 1372.75   45.40
  11  -2  -3 1225.10   41.24
 -11  -2   3 1285.26   40.22
  11   2  -3 1372.87   35.45
 -11  -2   3 1361.24   44.97
  11  -2  -3 1388.39   43.25
 -11   2   3 1230.72   42.33
  10   2  -3  294.25   20.90
  10  -2  -3  292.53   19.81
 -10  -2   3  272.41   18.51
  10   2  -3  328.65   16.56
 -10   2   3  267.06   19.90
 -10  -2   3  308.84   21.45
  10  -2  -3  303.23   19.98
  -9  -2   3  337.04   19.65
   9  -2  -3  332.85   20.50
   9  -2  -3  349.21   20.69
   9   2  -3  364.29   16.26
  -9   2   3  305.74   20.04
   9   2  -3  352.98   21.83
  -9  -2   3  352.88   21.55
   8   2  -3    3.79    5.85
   8  -2  -3    2.60    1.93
  -8  -2   3   15.78    6.45
   8  -2  -3    7.43    5.84
  -8   2   3    3.08    6.12
   8   2  -3    2.05    3.67
  -8  -2   3   -4.02    7.61
   8  -2  -3   18.01    7.30
  -7  -2   3   19.68    7.51
   7   2  -3    8.41    6.12
   7  -2  -3    1.05    5.11
  -7  -2   3   -7.05    5.68
  -7   2   3    5.31    6.13
   7  -2  -3    3.04    2.30
   7  -2  -3   13.36    6.77
   7   2  -3    4.97    3.45
  -6   2   3   11.20    6.51
  -6  -2   3   -2.68    5.24
   6   2  -3    1.53    4.44
   6  -2  -3   -6.92    5.53
   6  -2  -3    1.18    4.18
  -6  -2   3   -0.62    4.21
   6   2  -3    6.73    2.86
   6  -2  -3    2.19    2.04
  -5  -2   3   56.30    8.45
   5   2  -3   45.88    7.64
  -5   2   3   48.65    7.86
   5  -2  -3   43.42    7.39
   5  -2  -3   50.19    4.66
  -5   2   3   42.69    7.65
   5   2  -3   45.87    4.14
  -5  -2   3   48.99    8.05
  -4  -2   3 2651.16   43.43
  -4  -2   3 2821.38   48.42
   4   2  -3 2715.89   46.92
  -4  -2   3 2715.28   26.93
   4   2  -3 2739.34   24.00
   4  -2  -3 2785.90   50.27
  -4   2   3 2618.54   47.18
  -4   2   3 2600.80   46.22
   4  -2  -3 2696.41   32.72
  -3  -2   3  672.95   23.36
   3  -2  -3  771.73   25.88
   3   2  -3  786.10   24.30
  -3  -2   3  730.16   10.40
   3   2  -3  743.12    9.51
   3  -2  -3  806.32   19.05
  -3   2   3  771.31   24.61
  -3   2   3  779.17   25.97
  -3  -2   3  854.13   23.91
   2   2  -3 5994.84   63.37
  -2  -2   3 6002.90   67.24
   2  -2  -3 5931.35   68.14
   2  -2  -3 5869.74   55.62
  -2   2   3 5793.53   69.44
  -2   2   3 6007.34   65.40
   1   2  -3   76.44    7.65
  -1  -2   3   86.09    8.66
   1  -2  -3   72.93    8.20
  -1  -2   3   77.88    7.85
   1  -2  -3   70.98    7.05
  -1   2   3   75.46    9.17
  -1   2   3   65.45    8.32
   0   2   3  108.98    9.25
   0   2  -3  131.90    8.98
   0  -2   3  146.90   10.78
   0  -2  -3  109.95    9.29
   0  -2   3  146.86   10.39
   0  -2  -3  118.83    8.99
   0   2  -3  135.88    5.04
   0   2   3  141.01   12.22
  -1  -2  -3  142.65   10.55
   1  -2   3  124.88   10.35
   1   2   3  126.32   11.84
   1   2   3  123.44    8.98
   1  -2   3  112.04    6.42
   1  -2   3  135.07   10.15
  -1  -2  -3  125.98    9.71
  -1   2  -3  126.02    8.10
  -2   2  -3 3610.67   38.92
  -2  -2  -3 3513.36   50.73
  -2  -2  -3 3488.35   49.00
   2   2   3 3528.02   45.47
   2  -2   3 3520.76   49.74
  -2   2  -3 3511.96   51.43
   2  -2   3 3507.73   38.48
   2   2   3 3437.99   54.37
  -3   2  -3  443.61   13.01
   3  -2   3  433.28   18.69
  -3  -2  -3  411.59   16.99
   3   2   3  410.80   19.78
  -3   2  -3  428.77   17.93
  -3  -2  -3  420.26   18.65
   3  -2   3  430.07   15.64
   3   2   3  429.31   16.42
  -4   2  -3  497.84   12.60
   4   2   3  435.49   20.71
  -4  -2  -3  421.99   17.00
  -4   2  -3  427.24   18.40
  -4  -2  -3  431.34   19.99
   4   2   3  488.08   18.37
   4  -2   3  446.38   17.49
   4  -2   3  439.71   19.87
  -5   2  -3  591.77   12.46
   5  -2   3  493.70   21.66
  -5  -2  -3  531.83   19.09
   5   2   3  557.63   24.11
  -5  -2  -3  535.57   23.00
  -5   2  -3  522.04   12.13
   5   2   3  614.66   21.23
   5  -2   3  612.54   21.85
  -5   2  -3  565.18   20.86
   6  -2   3  324.96   18.91
  -6  -2  -3  365.38   16.81
  -6   2  -3  378.98   17.19
   6   2   3  386.76   17.91
  -6   2  -3  371.82    8.95
  -6  -2  -3  383.82   20.84
   6  -2   3  414.41   19.22
   6   2   3  345.88   19.88
  -6   2  -3  296.33    8.51
  -7   2  -3   28.54    5.77
  -7   2  -3   33.35    2.64
  -7  -2  -3   28.66    7.18
   7   2   3   37.49    6.76
   7   2   3   41.81    6.87
   7   2   3   27.52    7.70
   7  -2   3   32.81    6.96
  -8  -2  -3  204.27   14.99
   8   2   3  197.96   12.74
  -8   2  -3  209.03   16.85
   8  -2   3  177.25   14.77
  -8  -2  -3  212.52   17.33
  -8   2  -3  215.05   13.98
   8   2   3  217.75   17.37
  -9  -2  -3 1783.75   44.67
  -9   2  -3 1796.65   48.53
   9   2   3 1830.19   38.00
  -9  -2  -3 1821.84   49.28
  -9   2  -3 1916.09   40.23
 -10   2  -3   62.74   10.90
  10   2   3   72.21    9.07
 -10   2  -3   43.83    7.38
 -10  -2  -3   64.07   11.13
 -10  -2  -3   59.02    9.53
  10  -2   3   63.68   10.50
  10   2   3   54.95   10.82
 -11   2  -3  234.09   15.21
  11   2   3  214.77   19.68
 -11  -2  -3  190.95   17.27
 -11   2  -3  216.00   19.13
 -11  -2  -3  227.36   19.76
  11  -2   3  241.74   20.13
  12  -2   3   15.17    7.56
 -12  -2  -3    5.30    5.95
 -12  -2  -3    7.60    7.63
 -12   2  -3    8.30    7.67
  12   2   3    4.34    6.64
  13  -2   3   11.21    7.88
 -13   2  -3    5.91    7.73
 -13  -2  -3   16.62    9.16
 -13  -2  -3   15.43    8.28
  13   2   3   12.13    8.80
  14  -2   3   -3.13    7.71
 -14   2  -3   -6.42    8.82
 -14  -2  -3   15.71   10.16
 -14  -2  -3    5.88    7.83
  14   2   3   -1.09    8.31
  15  -2   3   32.21   10.92
 -15   2  -3   17.60    8.37
 -15  -2  -3    8.91    8.75
 -15  -2  -3    3.24    8.95
  15   2   3   18.45    9.96
  16  -2   3   22.10   11.05
 -16   2  -3   48.03   14.90
 -16  -2  -3   29.53   12.63
 -16  -2  -3   19.31   11.16
  16   2   3   28.71   11.84
 -17  -2  -3  239.65   27.62
 -17  -2  -3  234.49   25.83
  17   3  -3   36.77   12.90
 -17  -3   3   17.79   11.08
  16   3  -3   -7.84    9.59
 -16  -3   3    0.84    8.95
  16  -3  -3   -0.56    7.71
  16  -3  -3    8.90    9.42
 -16   3   3    2.51   11.18
  15  -3  -3   43.24   12.92
  15   3  -3   44.61   12.91
 -15  -3   3   46.63   11.90
  15  -3  -3   41.73   11.03
 -15   3   3   22.86   12.27
 -15  -3   3   24.07   11.03
  14   3  -3   65.81   14.48
 -14  -3   3   64.26   12.05
  14  -3  -3   53.26   11.15
 -14   3   3   69.58   13.94
  14  -3  -3   81.42   14.80
 -14  -3   3   38.04   12.16
 -13  -3   3  288.30   22.69
  13   3  -3  319.38   25.88
  13  -3  -3  297.42   22.63
  13  -3  -3  302.78   23.83
 -13   3   3  303.49   24.99
 -13  -3   3  309.17   24.39
  12  -3  -3   12.28    8.70
  12   3  -3   14.79    8.70
 -12  -3   3   12.34    7.65
  12  -3  -3   12.08    7.20
 -12   3   3   24.26    9.23
  12   3  -3   15.40    6.01
 -12  -3   3   19.16    9.39
 -11  -3   3  231.05   19.17
  11  -3  -3  245.38   19.85
  11   3  -3  236.28   15.24
  11   3  -3  229.13   20.16
 -11   3   3  188.52   17.96
 -11  -3   3  238.47   20.12
  11  -3  -3  225.94   19.70
 -10  -3   3   69.04   11.39
 -10  -3   3   72.75   11.74
  10  -3  -3   62.26   10.92
  10   3  -3   53.83   10.85
 -10   3   3   32.36    8.00
  10   3  -3   56.12    7.87
  10  -3  -3   83.65   12.80
  -9  -3   3    2.04    6.04
   9   3  -3   20.97    8.00
  -9  -3   3   -3.29    7.13
   9  -3  -3    2.92    5.98
   9  -3  -3   14.44    7.05
  -9   3   3   -2.57    6.32
   9   3  -3    0.41    4.19
  -8  -3   3  100.24   12.03
   8  -3  -3   81.09   11.92
   8   3  -3   65.96   10.78
   8   3  -3   80.54    7.99
  -8   3   3   69.52   10.97
  -8  -3   3   80.39   10.94
   8  -3  -3   97.56   13.27
  -7  -3   3  276.10   18.65
   7   3  -3  281.86   19.42
   7  -3  -3  259.86   18.74
   7   3  -3  281.92   12.50
  -7   3   3  234.46   17.61
  -7  -3   3  274.31   17.02
  -6   3   3   -3.53    6.07
  -6   3   3    5.11    6.71
   6  -3  -3   -1.15    1.33
   6   3  -3    7.61    5.58
  -6  -3   3   10.18    5.80
  -6  -3   3   -7.03    5.00
   6  -3  -3   -7.44    5.92
   6   3  -3    4.95    3.28
   5   3  -3   32.27    6.95
  -5  -3   3   42.52    8.19
   5  -3  -3   24.89    7.16
  -5  -3   3   37.91    7.28
   5  -3  -3   31.54    3.82
  -5   3   3   36.90    8.41
  -5   3   3   33.42    7.53
   5   3  -3   36.13    4.80
  -4  -3   3  218.37   13.62
   4  -3  -3  191.49   15.08
   4   3  -3  179.43   14.33
   4   3  -3  208.11    8.70
  -4  -3   3  207.90   15.53
   4  -3  -3  222.42    9.65
  -4   3   3  183.20   13.40
  -4   3   3  189.39   15.29
   3   3  -3    2.63    2.84
   3  -3  -3    2.01    2.94
  -3   3   3   -0.28    5.29
  -3  -3   3    2.39    4.24
   3   3  -3    4.14    4.37
   3  -3  -3    1.80    4.55
  -3   3   3    8.90    6.91
  -3  -3   3    2.40    4.75
   2  -3  -3    5.98    3.56
  -2  -3   3   10.22    4.52
   2   3  -3   12.26    5.04
   2   3  -3    8.82    3.61
  -2   3   3   23.36    6.34
  -2  -3   3    3.94    4.43
   2  -3  -3    8.07    5.50
  -2   3   3   17.01    8.09
   1   3  -3   74.41    8.64
  -1  -3   3   75.72    9.15
  -1  -3   3   72.44    7.95
   1  -3  -3   55.97    6.82
   1  -3  -3   46.72    7.78
  -1   3   3   56.39    9.47
   1   3  -3   71.38    6.09
  -1   3   3   54.88    7.40
   0   3   3 1926.81   33.70
   0   3  -3 2058.72   39.24
   0  -3   3 2037.45   42.88
   0  -3   3 2043.76   36.92
   0   3  -3 2054.89   28.67
   0  -3  -3 2006.73   38.80
   0   3   3 1975.92   47.45
  -1  -3  -3   33.86    7.99
   1  -3   3   28.10    5.49
   1   3   3   34.99    5.24
  -1   3  -3   24.68    5.75
   1  -3   3   31.67    7.23
  -1  -3  -3   25.84    5.55
   1   3   3   24.81    8.36
  -1   3  -3   21.66    4.28
   2  -3   3    1.22    3.51
  -2   3  -3    0.39    3.56
  -2  -3  -3    4.11    4.67
   2  -3   3    2.64    4.22
   2   3   3    0.88    3.50
  -2  -3  -3   -1.50    4.53
   2  -3   3    0.78    4.33
   2   3   3    3.84    6.37
   3  -3   3   50.87    7.12
  -3   3  -3   50.49    6.29
  -3  -3  -3   27.47    6.42
  -3  -3  -3   52.67    8.42
   3   3   3   44.74    5.89
  -3   3  -3   48.08    7.51
   3   3   3   42.36    9.34
   3  -3   3   50.43    7.81
  -4  -3  -3   11.75    6.10
  -4  -3  -3    7.56    4.50
   4   3   3   14.13    4.25
   4  -3   3    8.97    5.05
  -4   3  -3    7.60    4.51
  -4   3  -3   10.49    3.87
   4   3   3   14.26    7.47
   4  -3   3   14.27    6.47
   5   3   3  133.28    9.81
   5   3   3  134.11   13.53
   5  -3   3  129.99   12.53
  -5  -3  -3  127.99   12.08
   5  -3   3  136.48   11.64
  -5   3  -3  138.78   11.10
  -5  -3  -3  142.19   13.74
   6   3   3  647.37   21.69
  -6  -3  -3  637.84   25.88
   6  -3   3  673.55   17.99
  -6  -3  -3  634.28   28.81
  -6   3  -3  715.85   23.89
   6   3   3  668.14   29.26
   6  -3   3  694.83   26.47
   7   3   3  521.10   26.97
   7  -3   3  511.08   15.25
  -7   3  -3  521.46   24.59
  -7  -3  -3  514.42   23.90
  -7  -3  -3  569.14   21.95
  -7   3  -3  510.51   20.34
  -7  -3  -3  464.24   25.37
   7  -3   3  495.59   23.84
  -8   3  -3    5.40    4.86
   8  -3   3   -2.32    5.68
  -8  -3  -3    8.26    5.41
  -8  -3  -3   -0.40    6.56
  -8   3  -3   -1.38    5.27
   8   3   3   -2.34    6.07
   8   3   3   -6.85    7.57
   9   3   3   82.81   10.70
  -9  -3  -3   93.54   10.39
  -9   3  -3   85.42   12.43
  -9   3  -3   96.21    9.92
  -9  -3  -3  114.31   14.60
   9  -3   3   85.02   11.88
   9   3   3   88.41   12.85
 -10   3  -3    5.32    6.41
 -10  -3  -3   18.45    8.16
 -10  -3  -3    4.30    5.56
  10   3   3   10.86    6.45
  10  -3   3   -5.73    6.27
  10   3   3    1.95    7.86
  11  -3   3   37.90   10.63
 -11  -3  -3   41.25    9.23
 -11  -3  -3   30.32   10.20
 -11   3  -3   31.52    9.79
  11   3   3   44.00   10.11
  12  -3   3   -5.49    7.92
 -12   3  -3  -15.23    7.85
 -12  -3  -3    4.18    5.74
 -12  -3  -3    4.40    9.01
  12   3   3    5.90    7.53
  13  -3   3    5.61    7.86
 -13   3  -3    8.17    8.37
 -13  -3  -3    9.40    7.35
 -13  -3  -3    8.81    8.63
  13   3   3   13.98    9.54
  14  -3   3    6.20    8.74
 -14   3  -3   13.57    9.85
 -14  -3  -3    5.87    8.86
  14   3   3    1.18    8.60
  15  -3   3   38.87   12.79
 -15   3  -3   31.42   12.92
 -15  -3  -3   27.46   12.59
  15   3   3   66.41   15.03
  16  -3   3    4.04   10.56
 -16  -3  -3    5.92   11.08
  16   4  -3   10.43   10.89
 -16  -4   3   13.24   10.98
  15   4  -3    9.02    9.81
  15  -4  -3   30.08   13.26
 -15  -4   3   15.04   10.54
  15  -4  -3    4.60    9.27
 -15   4   3   14.15   11.46
  14   4  -3   39.02   12.15
  14  -4  -3   30.62   11.81
 -14  -4   3   34.51   11.46
  14  -4  -3   43.62   11.87
 -14   4   3   10.29   11.96
 -13   4   3   32.92   11.79
  13   4  -3   48.45   11.38
 -13  -4   3   50.36   12.07
  13  -4  -3   54.02   11.74
  13  -4  -3   48.68   13.48
  12  -4  -3   22.00   10.77
  12   4  -3   21.25    9.61
 -12  -4   3   22.60   10.38
  12  -4  -3   15.82    9.09
 -12   4   3   30.26   10.73
  11  -4  -3   27.46   10.63
  11   4  -3    3.00    7.61
 -11  -4   3   -0.44    6.82
  11  -4  -3   25.56   10.21
 -11   4   3   31.88   10.26
  10   4  -3    4.44    7.01
 -10   4   3   -0.30    7.95
 -10  -4   3   12.86    8.09
  10  -4  -3    4.38    6.87
   9   4  -3   -3.72    7.00
  -9   4   3   -7.03    8.23
  -9   4   3    9.47    7.98
  -9  -4   3    9.85    7.20
   9  -4  -3    6.93    6.81
   8   4  -3   24.02    8.40
  -8  -4   3   11.46    6.19
   8  -4  -3   33.38    9.78
  -8   4   3   24.05    8.36
  -8   4   3   15.29    8.33
  -7  -4   3  656.35   30.79
   7   4  -3  766.15   34.43
   7  -4  -3  716.61   33.23
  -7   4   3  656.10   33.01
   7   4  -3  758.88   22.78
  -7  -4   3  685.92   25.25
  -7   4   3  682.28   29.16
  -6  -4   3  500.06   21.20
  -6  -4   3  484.28   26.02
   6   4  -3  514.64   17.98
   6   4  -3  545.56   28.44
   6  -4  -3  459.90   26.55
  -6   4   3  434.22   22.46
  -6   4   3  377.61   24.19
   5   4  -3  139.10   14.69
  -5  -4   3  105.12   10.27
  -5  -4   3  116.21   13.49
   5   4  -3  127.81    9.17
   5  -4  -3  114.74   13.97
  -5   4   3  103.42   11.35
  -5   4   3   99.87   13.37
  -4  -4   3   -3.12    4.34
  -4   4   3    2.30    5.66
   4  -4  -3    0.13    3.82
  -4  -4   3    7.11    6.52
   4  -4  -3   -3.82    6.88
   4   4  -3   10.66    6.49
   4   4  -3    3.71    4.17
  -4   4   3    1.71    7.07
   3   4  -3   -0.37    5.43
   3  -4  -3    5.10    3.90
  -3   4   3    6.17    5.87
  -3  -4   3   -4.05    3.85
  -3  -4   3   -5.07    6.51
   3  -4  -3    2.74    5.53
  -3   4   3  -13.74    9.05
   3   4  -3    2.64    4.56
   2   4  -3   45.46    8.28
  -2  -4   3   44.00    6.57
  -2   4   3   25.05    6.26
  -2  -4   3   38.97    8.03
   2  -4  -3   36.64    8.41
   2   4  -3   46.98    7.22
  -2   4   3   36.95    9.43
   2  -4  -3   46.12    6.91
   1   4  -3  117.51   12.35
  -1  -4   3  118.95   12.51
  -1   4   3  115.80    9.46
   1  -4  -3  116.64   13.25
   1   4  -3  130.94   10.21
  -1  -4   3  119.32    9.25
  -1   4   3  131.45   15.89
   1  -4  -3  123.21   10.31
   0   4  -3  323.68   15.36
   0   4  -3  299.54   17.56
   0  -4   3  312.59   18.79
   0   4   3  316.86   13.79
   0   4   3  329.38   22.88
   0  -4  -3  293.12   19.82
   0  -4   3  351.03   15.45
   0  -4  -3  347.24   17.90
  -1   4  -3  422.46   19.94
   1  -4   3  389.28   21.50
  -1  -4  -3  400.72   23.25
   1   4   3  421.94   25.85
  -1  -4  -3  393.07   20.37
   1  -4   3  438.75   17.87
   1   4   3  454.47   15.53
  -1   4  -3  468.56   18.59
  -2   4  -3  274.23   16.21
  -2   4  -3  277.13   15.31
   2  -4   3  249.59   17.64
  -2  -4  -3  264.94   18.90
  -2  -4  -3  244.55   16.98
   2   4   3  283.19   11.84
   2   4   3  286.80   21.59
   2  -4   3  261.40   14.74
   3   4   3   -2.34    8.45
  -3   4  -3    4.99    4.97
  -3  -4  -3    5.24    5.63
  -3   4  -3    6.27    5.98
   3   4   3    1.42    3.08
  -3  -4  -3   16.73    7.37
   3  -4   3   -3.28    5.72
   3  -4   3   -2.75    5.00
  -4  -4  -3   15.24    6.35
   4  -4   3   37.86    7.72
  -4  -4  -3   23.02    7.63
  -4   4  -3   21.29    5.93
   4   4   3   22.48    4.29
   4   4   3   31.07   10.16
   5  -4   3   25.18    6.88
  -5  -4  -3   26.28    8.60
  -5  -4  -3   37.03    9.04
  -5   4  -3   22.33    6.62
   5  -4   3   29.58    6.10
   5   4   3   44.43   11.59
  -5   4  -3   26.70    6.70
  -6   4  -3  860.38   30.50
   6  -4   3  898.87   32.24
  -6  -4  -3  776.96   32.48
   6  -4   3  805.20   24.65
  -6   4  -3  840.82   27.01
   6   4   3  899.67   36.91
  -6  -4  -3  842.42   35.70
  -7  -4  -3  114.52   13.91
  -7   4  -3  106.74   10.03
   7   4   3   95.54   13.57
  -7  -4  -3  112.34   14.75
  -7   4  -3  111.38   12.54
   7  -4   3  101.63   12.27
   8   4   3   74.57   11.66
  -8  -4  -3   51.09   11.19
  -8   4  -3   76.25   11.16
   8  -4   3   91.40   13.07
   8   4   3   75.83   13.26
  -9   4  -3   29.35    9.05
   9   4   3   26.96    8.52
  -9  -4  -3   35.52    9.51
   9  -4   3   31.80    9.37
   9   4   3   18.44    9.35
  10  -4   3    6.39    7.22
 -10   4  -3   25.14    8.61
  10   4   3    6.71    6.51
 -10  -4  -3   26.08    9.66
  10   4   3   23.20    9.00
 -11   4  -3    3.87    7.44
  11   4   3   16.33    8.31
  11  -4   3   -3.64    6.61
 -11  -4  -3   -6.88    9.34
  11   4   3   11.90    9.32
 -12   4  -3    2.71    6.81
 -12  -4  -3   -0.62   11.18
  12   4   3    4.68    8.51
  12  -4   3    2.63    7.37
  13   4   3  459.80   32.36
  13  -4   3  505.52   33.77
 -13  -4  -3  456.85   35.13
 -13   4  -3  444.11   31.05
  14  -4   3   42.61   12.34
 -14   4  -3   46.31   12.97
 -14  -4  -3   24.21   12.83
  14   4   3   43.04   12.77
  15  -4   3   29.64   12.55
 -15   4  -3   19.33   12.58
 -15   5   3    4.93   13.40
 -14   5   3   -1.29   11.05
 -14  -5   3    4.91   10.76
  14  -5  -3    9.14    9.82
  14   5  -3   -3.90    9.15
 -13  -5   3  354.69   29.68
  13  -5  -3  212.26   22.41
 -13   5   3  233.87   28.19
  13   5  -3  313.75   28.70
 -13   5   3  211.49   22.88
  12   5  -3   56.48   13.98
 -12   5   3   22.32   11.60
 -12  -5   3   58.96   14.01
  12  -5  -3   46.26   11.97
 -12   5   3   12.17    9.93
  11   5  -3    7.71    8.13
 -11  -5   3    9.37    9.07
  11  -5  -3   20.44   11.14
 -11   5   3   -1.32   10.33
 -11   5   3   -2.71    9.12
  10   5  -3    6.37    9.64
 -10  -5   3   -9.62    9.39
 -10   5   3   -1.43    8.16
  10  -5  -3   10.64    7.82
 -10   5   3    9.55    8.65
  -9   5   3   36.28   12.15
   9   5  -3   31.14   10.86
  -9  -5   3   33.17   10.52
   9  -5  -3   13.47    7.58
  -9   5   3    4.32    7.50
   8   5  -3   34.17   10.56
  -8  -5   3   29.26    9.29
  -8   5   3   54.01   12.24
   8  -5  -3   28.81    9.21
  -8   5   3   41.33   10.02
   7   5  -3   -4.76    8.33
  -7  -5   3   -7.71    6.79
   7  -5  -3   12.02    7.93
  -7   5   3   13.56    9.31
  -7   5   3    8.53    7.53
   6   5  -3  104.39   14.61
  -6  -5   3   95.60   13.83
   6  -5  -3   91.21   14.19
  -6   5   3   91.77   14.34
  -6   5   3  101.48   11.95
  -5   5   3    4.70    6.70
   5   5  -3    5.97    6.27
  -5  -5   3    4.19    6.29
   5  -5  -3   -8.02    6.38
  -5   5   3   12.51    8.91
   4   5  -3    7.43    6.50
  -4  -5   3    2.95    5.80
   4  -5  -3   12.24    7.58
  -4   5   3   -5.99    8.66
  -3  -5   3    2.46    6.92
   3  -5  -3    2.71    6.77
  -3   5   3    3.33    7.57
   3   5  -3   -9.30    7.03
   2   5  -3   27.26    8.03
   2  -5  -3   32.18    6.88
  -2   5   3   24.84   10.85
  -2  -5   3   31.65    8.61
   2  -5  -3   51.10   11.41
   2   5  -3   36.33    8.43
   1   5  -3   13.18    7.92
   1  -5  -3   -3.39    5.44
  -1  -5   3   12.53    7.40
   1  -5  -3   -3.99    6.26
  -1   5   3   -5.30    8.87
   0   5  -3 2666.57   49.52
   0   5  -3 2432.32   55.41
   0  -5   3 2514.74   57.53
   0  -5  -3 2486.34   62.85
   0   5   3 2603.09   66.63
   0  -5  -3 2468.10   53.15
  -1   5  -3  247.26   18.43
  -1  -5  -3  271.34   21.92
  -1   5  -3  275.27   17.24
   1   5   3  320.56   24.88
   1  -5   3  238.92   18.60
  -1  -5  -3  268.47   19.10
  -2   5  -3   37.09    8.01
  -2  -5  -3   20.64    8.12
  -2  -5  -3   47.65   10.50
   2  -5   3   50.67   10.05
   2   5   3   20.28    8.91
  -2   5  -3   39.59    6.49
  -2   5  -3   22.82    6.75
  -3   5  -3   15.51    5.45
  -3  -5  -3   17.52    7.31
   3   5   3   24.15   10.60
  -3   5  -3   16.76    7.48
  -3  -5  -3   14.53    7.61
   3  -5   3   16.58    6.99
  -3   5  -3    9.07    5.97
   4   5   3   93.52   15.21
  -4  -5  -3   90.39   13.90
  -4  -5  -3   84.35   12.82
  -4   5  -3  111.85   12.73
  -4   5  -3  106.22   10.94
  -5   5  -3   -1.86    4.69
  -5  -5  -3    2.06    7.39
  -5  -5  -3   -4.94    6.45
   5  -5   3    1.97    5.30
  -5   5  -3   -2.58    6.17
  -5   5  -3    3.85    4.36
   5   5   3    8.26    9.17
  -6   5  -3  574.44   26.10
  -6  -5  -3  549.63   31.69
   6  -5   3  547.97   24.16
  -6  -5  -3  657.81   35.80
   6   5   3  596.21   33.16
   7   5   3  538.77   32.22
  -7  -5  -3  532.24   31.89
  -7   5  -3  515.34   26.16
  -7  -5  -3  523.90   33.48
   7  -5   3  508.89   29.17
   8  -5   3   67.50   12.70
   8   5   3   56.00   11.83
  -8   5  -3   81.20   11.94
   8   5   3   92.44   15.48
  -8  -5  -3   88.60   15.80
   9  -5   3   -5.34    7.72
   9   5   3  -11.75    9.15
  -9   5  -3   -4.49    6.76
  -9  -5  -3   18.63   11.68
   9   5   3   -0.50    8.47
 -10   5  -3   -5.85    7.79
 -10  -5  -3   -7.56    9.83
  10   5   3    2.77    8.24
  10  -5   3   -7.57    8.93
  10   5   3  -10.26    8.05
  11   5   3   12.32   10.03
  11  -5   3   -4.65    8.54
 -11   5  -3   -1.29    8.06
 -11  -5  -3   37.06   13.97
  11   5   3   20.94    9.77
 -12  -5  -3  -24.52   12.51
  12  -5   3    5.79    9.36
 -12   5  -3   24.79   10.45
  12   5   3   -4.01   10.30
  13  -5   3   -5.85   10.17
 -13   5  -3   -8.44    9.29
 -13  -5  -3    0.38   12.94
  13   5   3   -3.76   10.21
  14  -5   3  -12.42   10.77
 -14   5  -3   15.28   11.86
  13  -6  -3    5.65   10.86
  12  -6  -3    0.31   10.39
  11   6  -3   11.75   10.14
 -11  -6   3   30.25   11.64
  11  -6  -3   27.33   13.14
 -11   6   3   19.97   13.50
  10   6  -3   -2.61   10.88
 -10  -6   3    7.60    9.61
  10  -6  -3    3.22    8.91
 -10   6   3   27.73   13.17
   9   6  -3   19.40   10.10
  -9  -6   3   28.46   11.47
   9  -6  -3   18.69    9.31
  -9   6   3   39.31   13.85
   8   6  -3    8.20    7.98
  -8  -6   3   -3.48    8.43
   8  -6  -3   13.68    9.02
  -8   6   3    0.09    8.99
   7   6  -3   24.51   10.36
  -7  -6   3   -2.05    7.44
   7  -6  -3   10.25    7.71
  -7   6   3    9.36    8.30
   6   6  -3    1.68    6.70
  -6   6   3   -6.74    9.58
  -6  -6   3    7.49    7.68
   6  -6  -3    1.55    7.28
   5   6  -3  336.43   25.95
  -5   6   3  329.63   26.98
   5  -6  -3  317.38   26.88
  -5  -6   3  269.29   23.50
  -4   6   3  171.78   20.16
  -4  -6   3  189.40   19.88
   4   6  -3  184.28   19.37
   4  -6  -3  219.57   22.61
   3   6  -3   10.44    8.11
  -3  -6   3   37.50    9.75
   3  -6  -3   27.86   10.87
  -3   6   3   20.30   10.09
   2   6  -3   16.97    7.76
   2  -6  -3   23.79    8.33
  -2   6   3    9.13    8.48
   1   6  -3   15.97    7.85
  -1  -6   3   10.64    6.02
   1  -6  -3   20.02    9.94
  -1   6   3    8.99    8.98
   0   6  -3   -0.84    6.48
   0  -6  -3    8.59    7.61
   0  -6   3    1.29    6.19
   0  -6  -3    5.46    7.03
   0   6   3   -5.43    9.41
  -1   6  -3   13.53    7.52
  -1  -6  -3    1.57    6.34
   1  -6   3   15.44    7.49
  -1  -6  -3    0.96    7.72
   1   6   3   -5.24   10.18
  -2   6  -3  107.49   14.04
   2   6   3  111.58   18.45
   2  -6   3  140.70   16.28
  -2  -6  -3  114.95   16.37
  -2  -6  -3  125.35   15.16
  -3  -6  -3   18.63    7.88
  -3   6  -3   23.65    7.98
  -3  -6  -3   26.50   10.57
   3   6   3   13.30   10.71
  -4   6  -3   12.57    8.21
  -4   6  -3   10.99    7.29
  -4  -6  -3    7.42    9.19
  -4  -6  -3    6.34    9.22
   4   6   3    0.08    9.22
  -5  -6  -3   48.19   13.16
  -5  -6  -3   38.47   11.88
   5   6   3   22.93   11.92
  -5   6  -3   29.88    9.62
  -6  -6  -3   30.36   10.71
  -6  -6  -3    6.99    8.99
  -6   6  -3   19.15    9.15
   6   6   3   11.56   11.18
  -7  -6  -3   16.63   10.90
  -7   6  -3   30.09   11.18
   7   6   3   27.89   11.05
   8   6   3   35.02   12.57
  -8  -6  -3   32.98   11.97
  -8   6  -3   18.66    9.77
   8   6   3   32.69   12.01
   9   6   3   19.02   11.12
  -9  -6  -3   25.21   12.90
  -9   6  -3   16.92   10.98
   9   6   3   40.39   13.62
  10   6   3    5.88    9.94
 -10  -6  -3   16.85   12.97
  10   6   3    4.47    9.35
  11  -6   3   85.04   17.39
  11   6   3   49.85   14.10
  11   6   3   77.72   15.85
  12  -6   3   25.00   13.62
   9  -7  -3  164.02   22.64
  -8  -7   3  142.96   21.13
   8   7  -3  225.34   25.79
   8  -7  -3  201.95   24.51
  -8   7   3  161.16   23.58
  -7   7   3   10.08   12.53
   7   7  -3   14.50   10.07
  -7  -7   3    3.71   11.35
   7  -7  -3    2.97   10.57
   6   7  -3    9.84   10.34
  -6  -7   3   22.38   11.04
   6  -7  -3   -2.04    8.98
  -6   7   3   -8.74   11.86
  -5  -7   3  268.29   26.04
   5   7  -3  270.35   25.98
  -5   7   3  264.86   26.45
   5  -7  -3  300.57   28.80
  -4  -7   3  104.77   16.53
   4   7  -3  133.89   19.11
   4  -7  -3  107.48   18.96
  -4   7   3  122.93   20.22
   3   7  -3   16.66    9.45
  -3  -7   3    7.56    9.55
   3  -7  -3    8.31   11.05
  -3   7   3   18.12   13.52
   2   7  -3  112.28   16.93
  -2  -7   3  118.15   16.79
   2  -7  -3  124.94   18.73
  -2   7   3  125.36   19.25
   1   7  -3   21.29   10.23
  -1  -7   3   19.99    8.07
   1  -7  -3   13.62    9.98
  -1   7   3    5.48   12.45
   0   7  -3   20.42    8.16
   0  -7   3   30.96   10.75
   0  -7  -3   27.04   12.47
   0   7   3   14.69   10.94
  -1   7  -3   34.63   10.58
   1   7   3   62.36   17.65
  -1  -7  -3   44.01   14.05
  -2  -7  -3  137.30   19.56
  -2   7  -3  153.83   18.17
   2   7   3  166.52   22.96
  -3   7  -3   38.08   11.80
  -3  -7  -3   18.30   10.14
  -3  -7  -3   28.27   11.53
   3   7   3   19.63   12.38
  -4   7  -3  108.33   15.68
  -4  -7  -3  138.73   21.09
   4   7   3  147.14   21.02
  -4  -7  -3  138.27   19.56
  -5  -7  -3  157.38   22.64
  -5  -7  -3  130.23   20.85
   5   7   3  114.57   19.49
  -6  -7  -3    0.08   11.50
  -6  -7  -3  -12.05   11.48
   6   7   3    9.94   12.78
   7   7   3    0.54   11.69
  -7  -7  -3   22.76   12.85
   7   7   3  -10.43   11.45
   8   7   3   67.21   17.95
  -8  -7  -3   96.28   20.63
   8   7   3   67.94   16.47
  -4  -8   3   10.87    9.81
  -3  -8   3    2.08    9.33
   1   8  -3   20.05   11.02
   0   8  -3   -0.96    9.97
  -1   8  -3   19.35   10.84
  -2   8  -3   10.22    9.58
  18   0  -4    7.10   10.53
  18   0  -4   13.36    9.83
  17   0  -4   -1.88    7.60
  17   0  -4    1.70    8.58
 -17   0   4    1.55   11.87
  16   0  -4   12.08    7.66
  16   0  -4   11.34    8.21
 -16   0   4    7.73    9.98
  15   0  -4   -3.28    6.89
  15   0  -4   -6.71    7.61
 -15   0   4    7.26   10.79
  14   0  -4   56.81   10.38
  14   0  -4   54.77   12.02
 -14   0   4   43.65   11.71
  13   0  -4   -7.85    5.52
  13   0  -4   -1.21    7.44
 -13   0   4   10.59    8.08
 -12   0   4  119.74   11.93
  12   0  -4  139.91   15.64
  12   0  -4  133.38   13.09
 -12   0   4  115.13   15.51
 -11   0   4   53.83    8.23
  11   0  -4   67.69   10.86
  11   0  -4   49.82    8.74
 -11   0   4   58.89   11.44
  10   0  -4   12.36    5.39
  10   0  -4   34.97    9.26
 -10   0   4   18.12    5.75
 -10   0   4   15.27   10.78
  -9   0   4  244.83   15.08
   9   0  -4  247.08   18.19
   9   0  -4  242.88   14.70
  -9   0   4  264.55   19.88
  -8   0   4   42.80   10.76
   8   0  -4   45.61    6.86
  -8   0   4   45.64    7.27
   8   0  -4   49.22    8.51
   7   0  -4   14.56    4.50
  -7   0   4   11.71    7.76
   7   0  -4   16.58    6.60
  -7   0   4   13.53    4.99
  -6   0   4   54.08    7.25
   6   0  -4   48.34    7.94
  -6   0   4   58.14    9.87
   6   0  -4   53.09    6.34
   5   0  -4 1102.38   31.74
  -5   0   4 1047.32   28.19
  -5   0   4 1145.38   33.95
   5   0  -4 1109.38   23.58
  -4   0   4    5.44    3.81
  -4   0   4   -8.47    6.85
   4   0  -4   -0.25    3.87
  -4   0   4    1.54    3.44
  -3   0   4  291.83   11.96
   3   0  -4  272.94   15.25
  -3   0   4  306.09   17.17
   3   0  -4  285.18   15.10
   2   0  -4    4.86    4.28
  -2   0   4    5.76    5.89
  -2   0   4   -1.34    3.25
   2   0  -4    7.37    4.76
  -1   0   4 1271.23   33.17
   1   0  -4 1210.41   27.14
   1   0  -4 1217.43   31.36
  -1   0   4 1202.30   22.31
   0   0   4  269.45   15.73
   0   0  -4  255.99   11.83
   0   0  -4  268.70   15.20
   0   0   4  264.29   11.13
   1   0   4   61.29    8.32
  -1   0  -4   67.96    6.04
  -1   0  -4   79.32    8.88
   1   0   4   58.90    6.43
   2   0   4  774.23   26.01
  -2   0  -4  856.59   26.71
   2   0   4  793.31   21.36
  -2   0  -4  807.82   17.08
  -3   0  -4  172.57    7.27
   3   0   4  157.09   12.44
  -3   0  -4  193.78   13.47
   3   0   4  164.61   11.11
   4   0   4   97.12    5.10
  -4   0  -4  103.91    5.09
   4   0   4   98.86    9.99
  -4   0  -4  113.80   11.16
   4   0   4  117.46   10.45
  -5   0  -4   99.70   10.71
   5   0   4  112.97   10.72
   5   0   4   88.26   10.73
  -6   0  -4  200.76   14.53
   6   0   4  174.23   13.33
   6   0   4  184.80   15.50
   7   0   4    3.57    4.91
   7   0   4    4.59    5.00
   8   0   4 2862.31   60.70
  -8   0  -4 2951.45   57.56
   8   0   4 2747.65   56.09
   9   0   4   86.46   12.20
  -9   0  -4  110.89   12.65
   9   0   4   74.79   10.96
 -10   0  -4  217.29   19.13
 -10   0  -4  231.80   17.73
  10   0   4  230.03   18.72
 -11   0  -4   24.97    9.38
 -11   0  -4   10.02    7.28
  11   0   4    6.18    5.94
 -12   0  -4   19.47    9.48
 -12   0  -4    9.91    6.63
  12   0   4   18.47    8.07
 -13   0  -4   28.87   10.07
 -13   0  -4   52.72   10.97
  13   0   4   32.61   10.21
 -14   0  -4  186.24   21.68
 -14   0  -4  158.42   17.82
  14   0   4  164.46   19.53
 -15   0  -4  217.17   23.75
 -15   0  -4  193.45   20.16
  15   0   4  215.94   23.31
 -16   0  -4   17.47   11.35
  16   0   4   15.04   10.28
  18  -1  -4    4.94    9.18
  18   1  -4   14.48   10.64
  18  -1  -4    2.13    8.75
  17  -1  -4   -2.05    9.18
  17   1  -4    9.26    9.92
  17  -1  -4   -9.15    8.07
 -17  -1   4    4.48   11.66
 -17   1   4   -3.40   10.67
  16   1  -4  132.11   18.55
  16  -1  -4  125.19   17.82
 -16   1   4  110.71   19.79
  16  -1  -4  141.23   17.45
 -16  -1   4  111.38   19.02
  15   1  -4    1.74    6.08
  15  -1  -4   11.11    7.81
  15   1  -4    2.99    7.96
  15  -1  -4   16.62    9.43
 -15   1   4   -5.63    9.65
 -15  -1   4   14.35    9.62
  14   1  -4    6.32    6.29
  14  -1  -4   15.67    7.48
  14   1  -4    5.56    7.08
  14  -1  -4    4.78    6.34
 -14  -1   4   -0.80    6.06
 -14   1   4   12.94    9.11
 -14  -1   4    0.46    9.12
  13  -1  -4   42.91    9.49
  13   1  -4   25.48    7.62
  13   1  -4   38.60   10.48
  13  -1  -4   44.43   10.68
 -13  -1   4   46.21    9.49
 -13  -1   4   20.53    9.72
 -13   1   4   47.63   11.54
 -12  -1   4  857.67   33.02
  12   1  -4  832.18   36.55
  12  -1  -4  865.15   37.94
  12   1  -4  878.44   30.59
 -12   1   4  774.41   37.52
 -12  -1   4  882.81   39.21
  12  -1  -4  853.57   33.39
 -11  -1   4  958.34   33.53
  11   1  -4  955.93   38.23
  11  -1  -4  962.85   38.06
  11   1  -4  905.68   29.33
 -11   1   4  907.57   38.37
  11  -1  -4  927.48   33.21
 -11  -1   4  987.80   39.59
 -10  -1   4  735.69   28.45
  10  -1  -4  733.58   32.49
 -10   1   4  737.90   24.03
  10   1  -4  700.70   31.75
  10   1  -4  713.42   24.36
 -10   1   4  748.98   33.56
 -10  -1   4  706.83   33.18
  10  -1  -4  676.10   27.36
  -9  -1   4  360.44   19.87
   9   1  -4  397.26   23.58
   9  -1  -4  380.64   22.93
  -9   1   4  397.49   17.48
   9   1  -4  364.50   16.45
  -9   1   4  387.03   24.19
  -9  -1   4  381.29   23.58
   9  -1  -4  356.78   19.32
   8   1  -4    5.74    3.69
   8  -1  -4   11.32    5.56
  -8  -1   4   11.86    7.50
   8   1  -4    1.86    5.37
  -8   1   4   12.87    8.11
   8  -1  -4    8.42    6.22
  -8  -1   4    8.01    5.39
  -8   1   4    6.10    4.32
  -7   1   4    2.07    6.81
   7   1  -4    2.27    3.51
   7  -1  -4    1.55    4.44
  -7  -1   4  -10.66    6.34
   7   1  -4   -6.79    5.70
   7  -1  -4   -0.47    4.60
  -7  -1   4   -4.24    4.73
   6   1  -4   17.33    4.00
  -6   1   4   13.52    7.42
  -6  -1   4    3.52    5.91
   6   1  -4   15.02    6.19
   6  -1  -4   14.21    5.69
  -6  -1   4    8.62    5.23
   6  -1  -4   17.32    4.51
   6  -1  -4   11.99    4.88
  -5  -1   4 4828.90   63.61
   5  -1  -4 4910.95   58.71
   5  -1  -4 4892.64   68.43
  -5   1   4 4827.73   60.86
   5   1  -4 4805.89   67.68
   5   1  -4 4844.17   38.71
  -5   1   4 4778.92   70.86
  -5  -1   4 4903.56   67.86
  -4   1   4    8.85    6.04
   4   1  -4    9.91    5.03
   4  -1  -4    4.42    4.46
  -4  -1   4   17.52    6.23
  -4  -1   4    8.56    2.43
  -4  -1   4    2.53    4.18
  -4   1   4    0.11    4.31
   4  -1  -4   11.38    4.50
  -4  -1   4    4.83    2.09
  -2  -1   4  578.48   22.66
   2   1  -4  519.25   18.94
   2  -1  -4  513.32   19.79
  -2  -1   4  525.49   20.73
  -2   1   4  534.71   22.60
  -2   1   4  482.65   18.28
   2  -1  -4  509.10   20.28
  -1  -1   4   52.26    2.94
   1   1  -4   51.06    6.39
   1  -1  -4   57.80    7.30
   1  -1  -4   50.98    7.64
   1   1  -4   41.02    3.00
  -1   1   4   41.25    7.07
  -1  -1   4   56.64    8.38
  -1   1   4   52.10    8.81
   0   1   4  934.59   28.63
   0   1  -4  936.60   22.25
   0  -1   4  926.02   14.27
   0   1  -4  895.40   27.95
   0   1  -4  902.41   15.04
   0   1   4  893.55   24.93
   0  -1  -4  888.16   26.37
   0  -1   4  868.92   26.81
   0  -1  -4  911.33   24.01
  -1   1  -4 3544.48   39.33
  -1  -1  -4 3465.34   44.28
   1   1   4 3385.78   51.29
   1  -1   4 3539.57   54.61
  -1   1  -4 3575.17   54.90
   1   1   4 3340.99   48.33
  -1  -1  -4 3546.72   53.62
   1  -1   4 3549.04   33.87
   2  -1   4 1392.12   24.80
  -2   1  -4 1469.68   22.91
  -2  -1  -4 1422.61   35.07
  -2  -1  -4 1437.10   27.40
   2   1   4 1369.21   33.39
   2  -1   4 1422.39   35.37
   2   1   4 1351.43   31.95
  -2   1  -4 1493.71   35.74
  -3  -1  -4   41.84    6.76
   3  -1   4   48.80    4.37
  -3   1  -4   56.78    4.39
  -3  -1  -4   52.98    5.56
   3   1   4   58.09    7.92
  -3   1  -4   60.14    8.50
   3  -1   4   55.87    6.06
   3   1   4   57.63    8.16
   3  -1   4   43.57    7.49
  -4  -1  -4  840.32   28.49
  -4  -1  -4  824.78   19.67
   4  -1   4  772.45   27.92
  -4   1  -4  821.96   26.92
   4   1   4  809.67   27.20
   4  -1   4  837.41   23.63
   4   1   4  872.82   28.05
  -5  -1  -4   47.70    8.12
  -5  -1  -4   55.05    5.55
   5   1   4   47.91    8.33
  -5   1  -4   61.99    8.59
   5   1   4   50.24    8.74
   5  -1   4   58.70    7.43
   5  -1   4   53.43    9.04
  -6  -1  -4  185.99    9.28
   6   1   4  147.89   13.76
  -6   1  -4  167.24   13.55
   6  -1   4  167.41   12.73
   6   1   4  185.64   14.68
  -6  -1  -4  178.04   14.67
   6  -1   4  179.71   15.30
  -7   1  -4    6.44    5.24
   7   1   4   16.55    3.99
   7  -1   4   21.38    6.88
   7   1   4   28.50    7.32
   7   1   4   10.19    6.65
  -7  -1  -4   15.52    6.00
   7  -1   4   27.14    7.15
   8   1   4 4440.11   74.55
  -8   1  -4 4676.84   69.82
  -8  -1  -4 4576.09   74.22
   8  -1   4 4384.36   70.37
   8   1   4 4565.06   76.73
   9   1   4  105.98   12.95
  -9  -1  -4  122.84   13.65
  -9   1  -4  110.53   11.86
   9  -1   4  136.15   14.06
   9   1   4  120.25   14.33
  10   1   4 1016.07   39.27
 -10  -1  -4  984.68   38.35
 -10   1  -4 1031.44   40.30
 -10   1  -4 1092.62   36.26
 -10  -1  -4 1089.17   39.45
  10  -1   4 1048.37   38.76
 -11  -1  -4   13.15    7.21
 -11   1  -4    8.23    5.54
 -11  -1  -4   21.01    7.83
 -11   1  -4   14.39    9.08
  11   1   4   21.28    8.94
  11  -1   4   14.70    6.76
 -12   1  -4   -4.29    7.30
 -12  -1  -4    9.34    8.72
 -12   1  -4   16.90    7.56
 -12  -1  -4    0.82    7.24
  12   1   4   13.22    8.74
  12  -1   4   32.46    9.39
 -13  -1  -4    1.19    6.70
 -13   1  -4    3.57    6.67
 -13   1  -4    9.82    8.87
 -13  -1  -4   -7.04    7.44
  13   1   4  -12.70    8.30
  13  -1   4    9.96    8.16
 -14   1  -4   -8.16    9.33
 -14  -1  -4   13.29    9.28
  14   1   4   12.60    9.10
  14  -1   4   -9.10    8.26
  15   1   4  135.95   19.15
 -15   1  -4  135.80   20.06
 -15  -1  -4   93.20   16.84
  15  -1   4  151.79   19.70
 -15  -1  -4  162.68   19.64
 -16   1  -4   24.91   12.09
 -16  -1  -4   65.00   15.51
 -16  -1  -4   48.74   13.50
  16   1   4   66.30   15.60
  16  -1   4   79.45   16.09
  17   2  -4   10.20    9.25
  17  -2  -4    4.92    7.78
  17  -2  -4    0.26    8.38
 -17  -2   4   19.66   14.61
  16  -2  -4   36.10   11.12
  16   2  -4   59.69   14.70
  16  -2  -4   44.32   11.92
 -16  -2   4   32.08   11.14
 -16   2   4   46.90   15.58
 -16  -2   4   21.05   11.27
  15  -2  -4    7.97    8.58
  15   2  -4   -0.53    7.27
  15  -2  -4   -1.95    6.89
 -15  -2   4    3.69    7.08
 -15   2   4   26.32   14.57
 -15  -2   4    0.59   10.05
  14   2  -4   40.58   10.47
  14  -2  -4   20.97    9.00
 -14  -2   4   41.18   10.16
  14  -2  -4   37.62   11.01
 -14   2   4   37.04   12.58
 -14  -2   4   14.00    9.08
 -13  -2   4   84.68   14.68
 -13  -2   4   69.57   12.19
  13   2  -4   83.18   13.96
  13  -2  -4   92.51   13.63
 -13   2   4   36.70   10.23
  13  -2  -4   75.67   12.81
 -12  -2   4  623.02   30.38
  12   2  -4  579.51   32.27
  12  -2  -4  599.38   31.98
  12   2  -4  567.10   24.37
 -12   2   4  575.95   32.15
 -12  -2   4  590.43   32.77
  12  -2  -4  582.53   29.68
 -11  -2   4  349.86   22.43
  11   2  -4  332.35   24.28
  11  -2  -4  337.14   23.32
  11   2  -4  338.12   17.32
 -11   2   4  328.30   24.70
 -11  -2   4  358.75   25.48
  11  -2  -4  361.78   22.53
  10   2  -4   35.20    6.17
  10  -2  -4   29.38    8.89
 -10  -2   4   32.36    9.57
  10   2  -4   34.73    9.18
  10  -2  -4   24.26    8.35
 -10  -2   4   48.98    8.86
 -10   2   4   29.78   10.30
  -9  -2   4  245.54   17.73
   9   2  -4  308.28   21.38
   9  -2  -4  252.50   18.97
   9   2  -4  294.91   14.19
  -9   2   4  271.85   20.63
  -9  -2   4  256.33   19.80
   9  -2  -4  258.64   18.43
   8   2  -4   30.83    5.07
   8  -2  -4   33.63    8.48
  -8  -2   4   51.10   10.45
   8   2  -4   42.83    9.38
   8  -2  -4   42.62    8.71
  -8  -2   4   36.63    8.07
   8  -2  -4   41.54    5.37
  -8   2   4   34.36    9.64
  -7  -2   4  128.78   12.23
   7   2  -4  124.77   13.02
   7  -2  -4  108.09   12.33
  -7   2   4  120.01   12.27
   7  -2  -4  127.81    8.85
   7   2  -4  130.25    7.87
  -7   2   4  104.84   12.81
  -7  -2   4  113.28   13.20
  -6   2   4   62.23   10.39
   6  -2  -4   77.91   10.58
  -6  -2   4   53.56    8.96
  -6   2   4   67.84   10.07
   6  -2  -4   51.63    6.05
   6   2  -4   71.22    5.23
  -6  -2   4   64.88    9.95
   6   2  -4   57.78    9.27
  -5  -2   4  523.96   22.75
   5   2  -4  517.06   22.92
   5  -2  -4  561.25   25.04
  -5  -2   4  504.74   22.89
  -5   2   4  478.30   21.74
  -5  -2   4  488.68   11.30
   5  -2  -4  531.43   17.40
   5   2  -4  515.81   10.10
  -5   2   4  535.95   24.29
   4   2  -4   80.43    9.21
  -4  -2   4   88.04    9.82
   4  -2  -4   68.96    9.53
  -4   2   4   60.34    9.81
  -4   2   4   78.10   10.17
   4  -2  -4   71.03    6.82
  -4  -2   4   71.47    9.19
   3   2  -4 7879.10   80.88
  -3  -2   4 7995.92   87.38
   3  -2  -4 7974.92   88.24
  -3   2   4 7956.81   86.10
   3  -2  -4 8117.19   71.15
  -3   2   4 7925.76   87.04
   2   2  -4  363.31   16.64
  -2  -2   4  330.82   18.29
  -2  -2   4  408.78   19.46
   2  -2  -4  356.77   18.19
   2  -2  -4  350.86   16.05
  -2   2   4  384.66   19.50
  -2   2   4  354.20   18.32
  -1   2   4 1364.95   34.36
   1   2  -4 1390.95   30.52
  -1  -2   4 1350.07   36.00
  -1  -2   4 1434.15   34.64
   1  -2  -4 1322.02   33.47
  -1   2   4 1414.23   36.46
   1  -2  -4 1366.39   32.21
   0   2   4   95.86   10.08
   0   2  -4   99.99    8.40
   0  -2   4   98.26   10.31
   0  -2  -4  106.20   10.14
   0  -2   4   80.35    9.61
   0  -2  -4   95.45    9.59
   0   2   4  117.90   12.08
   0   2  -4   81.54    3.80
  -1   2  -4  265.11   12.11
   1   2   4  252.36   14.33
  -1  -2  -4  283.09   14.97
   1  -2   4  274.23   16.17
  -1   2  -4  275.73   16.82
   1   2   4  251.05   16.76
  -1  -2  -4  246.07   14.78
   1  -2   4  260.20    9.24
  -2   2  -4 1482.50   26.35
  -2  -2  -4 1461.47   33.58
   2   2   4 1489.97   34.71
   2  -2   4 1463.48   36.32
  -2   2  -4 1531.32   38.29
   2   2   4 1482.11   38.41
  -2  -2  -4 1360.36   35.44
   2  -2   4 1530.52   26.09
  -3   2  -4 1170.73   33.15
  -3   2  -4 1186.18   21.89
  -3  -2  -4 1135.06   29.27
   3   2   4 1169.57   31.16
   3  -2   4 1058.16   31.88
  -3  -2  -4 1019.02   32.02
   3   2   4 1077.26   33.30
   3  -2   4 1172.00   25.68
  -4   2  -4  916.17   17.36
   4  -2   4  889.74   30.91
  -4  -2  -4  884.38   25.65
   4   2   4  936.55   28.38
  -4   2  -4 1001.08   30.77
   4   2   4  855.92   30.56
  -4  -2  -4  832.42   29.92
   4  -2   4  972.39   25.50
  -5   2  -4   94.40   10.00
  -5   2  -4   79.89    4.48
  -5  -2  -4   98.70    9.18
   5   2   4   83.15   10.67
   5   2   4  111.08   11.12
  -5  -2  -4   99.38   11.81
   5  -2   4   91.98    9.37
   5  -2   4  104.99   11.88
  -6  -2  -4  111.42    9.77
  -6   2  -4  124.86   11.56
   6   2   4  127.50   13.86
  -6  -2  -4   94.40   11.79
   6  -2   4  111.46   10.60
   6   2   4  119.10   11.66
   6  -2   4  106.27   12.53
  -7  -2  -4    8.47    5.53
   7  -2   4   14.57    7.40
  -7  -2  -4    5.83    4.47
   7   2   4    7.01    6.47
  -7   2  -4   -2.03    6.01
   7  -2   4   17.29    6.72
   8   2   4  545.66   20.41
  -8   2  -4  581.44   24.89
   8   2   4  573.08   25.97
   8   2   4  551.24   28.31
  -8  -2  -4  572.89   28.70
   8  -2   4  510.00   24.57
  -9   2  -4   35.47    7.21
  -9  -2  -4   49.38   10.33
   9   2   4   43.86   10.42
  -9  -2  -4   37.37    8.59
  -9   2  -4   34.21    8.29
   9  -2   4   28.81    8.35
 -10  -2  -4  273.85   21.57
  10  -2   4  296.33   21.34
 -10  -2  -4  329.47   22.23
 -10   2  -4  311.54   23.48
  10   2   4  266.38   22.36
 -10   2  -4  291.10   18.55
 -11  -2  -4  125.36   15.87
 -11   2  -4  120.12   15.62
 -11  -2  -4   87.33   12.85
  11   2   4  128.19   16.58
 -11   2  -4  134.31   13.57
  11  -2   4  135.53   16.14
 -12   2  -4   98.02   15.46
 -12  -2  -4  111.98   15.19
  12   2   4   97.13   14.41
 -12  -2  -4  114.41   15.96
  12  -2   4  122.75   15.18
  13  -2   4    9.14    7.71
 -13   2  -4   -6.29    7.53
 -13  -2  -4    0.52    7.87
 -13  -2  -4   -4.78    8.87
  13   2   4   17.88    8.85
  14  -2   4   20.23   10.40
 -14   2  -4   41.18   11.38
 -14  -2  -4   35.10   11.89
 -14  -2  -4   32.32   11.95
  14   2   4   41.85   12.56
  15  -2   4    3.00    9.37
 -15   2  -4   16.64    9.95
 -15  -2  -4    0.63    8.57
 -15  -2  -4  -12.79   10.38
  15   2   4    7.85    9.30
  16  -2   4   73.95   16.52
 -16  -2  -4   76.21   17.02
 -16  -2  -4   55.92   14.98
  17  -3  -4    9.96   10.69
 -17  -3   4   10.69   10.23
  16  -3  -4    0.63    9.45
  16   3  -4   15.25   10.18
  16  -3  -4    7.45    8.80
 -16  -3   4   16.29    9.57
 -16   3   4   -6.08   12.97
  15  -3  -4   24.44   10.52
 -15  -3   4   -4.39   10.63
  15   3  -4    2.04    8.92
  15  -3  -4    5.63    8.64
 -15  -3   4    4.13    8.14
 -15   3   4    2.93   10.91
  14  -3  -4   18.91    9.68
 -14  -3   4   20.93   10.36
  14   3  -4   21.81    9.69
 -14  -3   4   11.89    8.20
  14  -3  -4   19.16    8.71
 -14   3   4   14.35    9.76
  13  -3  -4   12.51    8.85
 -13  -3   4    6.11    8.67
  13   3  -4   13.82    8.98
 -13  -3   4   11.60    8.50
  13  -3  -4   -7.82    6.93
 -13   3   4   -7.87    9.16
  12  -3  -4   -4.76    7.00
  12  -3  -4    8.03    6.73
 -12  -3   4    3.19    8.36
  12   3  -4   -6.99    7.15
 -12  -3   4   -0.02    6.53
 -12   3   4  -12.35    9.59
  11  -3  -4    2.20    7.45
 -11  -3   4    1.71    7.97
  11   3  -4    1.27    5.83
 -11  -3   4    0.90    6.05
  11  -3  -4   10.32    7.19
 -11   3   4    0.73    8.72
 -10   3   4    0.41    7.57
  10  -3  -4    4.47    6.83
 -10  -3   4    5.59    7.16
  10   3  -4   12.76    7.47
  10  -3  -4    5.74    6.01
 -10  -3   4   10.35    6.27
   9   3  -4    8.78    7.52
  -9  -3   4   -3.95    6.92
   9  -3  -4    0.31    5.89
  -9  -3   4   -6.91    6.49
  -9   3   4   -4.60    6.90
  -9   3   4   13.19    8.82
   8   3  -4   32.86    8.89
  -8  -3   4   34.88    9.44
   8  -3  -4   38.96    9.49
  -8  -3   4   24.26    7.74
  -8   3   4   47.17   10.67
  -8   3   4   47.22   10.06
  -7   3   4   46.64   10.10
   7   3  -4   55.90   10.28
  -7  -3   4   48.41    9.71
   7  -3  -4   46.79    9.60
  -7  -3   4   50.63    9.93
  -7   3   4   30.92    8.89
  -6   3   4    4.90    6.70
   6   3  -4    3.75    6.05
   6  -3  -4    8.71    6.46
  -6  -3   4   13.13    7.25
  -6  -3   4   -3.39    5.95
  -6   3   4   10.04    7.73
   6  -3  -4    1.91    2.84
  -5   3   4   37.52    9.05
   5   3  -4   38.88    8.82
   5  -3  -4   55.92   10.39
  -5  -3   4   48.68    9.45
  -5  -3   4   37.84    7.97
  -5   3   4   33.24    8.47
   5  -3  -4   40.69    5.51
   4  -3  -4   -2.61    3.49
   4   3  -4    1.99    5.09
  -4   3   4    2.94    6.17
   4  -3  -4   -1.29    5.55
  -4  -3   4   -4.71    6.71
  -4   3   4   -2.87    6.50
  -4  -3   4    6.67    5.48
   3  -3  -4   -2.72    3.62
   3   3  -4   -5.11    5.27
  -3   3   4    0.26    5.76
   3  -3  -4    0.82    5.21
  -3  -3   4    3.14    5.21
  -3   3   4   14.55    8.23
  -3  -3   4   -0.15    5.49
   2  -3  -4   18.81    5.30
  -2  -3   4   26.72    7.35
   2   3  -4   12.53    5.67
   2  -3  -4   17.98    6.66
  -2   3   4   20.61    7.46
  -2  -3   4   20.16    7.58
  -2   3   4   19.74    8.53
  -1   3   4  205.76   13.83
   1   3  -4  203.64   14.26
  -1  -3   4  140.86   13.71
   1  -3  -4  176.86   14.87
   1   3  -4  150.78    5.90
  -1  -3   4  196.86   13.91
   1  -3  -4  197.43   13.02
  -1   3   4  185.16   16.48
   1   3  -4  166.02    5.14
   0   3  -4  322.20   16.11
   0  -3   4  277.69   18.04
   0  -3  -4  298.04   18.51
   0  -3   4  327.86   17.81
   0   3   4  284.60   15.88
   0  -3  -4  284.82   16.08
   0   3   4  287.68   20.25
   0   3  -4  320.02   10.16
  -1  -3  -4   36.38    7.59
   1   3   4   40.97    6.88
  -1   3  -4   40.06    6.35
   1  -3   4   46.66    7.86
  -1  -3  -4   50.57    8.89
   1  -3   4   35.93    7.41
  -1   3  -4   48.61    5.66
   1   3   4   60.03   11.85
   2  -3   4   22.97    4.86
  -2  -3  -4   40.64    7.63
   2  -3   4   23.85    6.21
  -2   3  -4   36.27    6.30
   2   3   4   29.26    6.14
  -2  -3  -4   30.08    7.54
   2   3   4   32.09    9.40
  -2   3  -4   42.19    8.28
  -3   3  -4   59.92    6.91
  -3  -3  -4   46.49    8.95
   3   3   4   60.19    8.23
   3  -3   4   51.79    8.50
  -3  -3  -4   47.83    8.77
  -3   3  -4   75.03    9.91
   3   3   4   57.04   10.75
   3  -3   4   66.87    7.87
  -4   3  -4   92.92    7.86
  -4  -3  -4  104.42   11.52
   4   3   4   99.98   10.00
   4   3   4   92.77   13.04
  -4  -3  -4   98.20   11.91
  -4   3  -4   89.60   10.63
   4  -3   4   89.58    9.07
   4  -3   4   81.24   11.02
   5  -3   4    1.92    4.61
  -5  -3  -4   -6.94    6.97
  -5   3  -4   -4.01    3.37
   5  -3   4   -2.92    4.89
  -5  -3  -4    4.49    5.10
   5   3   4   13.67    6.37
   5   3   4   -3.02    8.31
  -5   3  -4    0.36    5.07
   6  -3   4   62.91   10.72
  -6  -3  -4   56.29    8.60
  -6   3  -4   67.60    9.30
  -6  -3  -4   78.51   12.34
   6  -3   4   73.41    9.80
   6   3   4   50.23   10.37
   6   3   4   59.66    8.53
   7  -3   4   -2.44    5.66
  -7  -3  -4    2.50    6.62
   7  -3   4    4.55    6.17
  -7  -3  -4    6.00    5.59
   7   3   4   -1.86    4.68
  -7   3  -4   -0.17    4.24
   7   3   4    6.03    7.20
   8   3   4  106.76   11.53
   8   3   4  103.06   13.45
  -8  -3  -4  127.64   16.10
   8  -3   4  140.65   14.42
  -8   3  -4  122.66   14.05
  -8   3  -4  125.83   11.83
  -9  -3  -4    1.74    5.35
  -9   3  -4   -1.64    6.28
  -9   3  -4    7.65    5.10
   9   3   4   -4.25    5.11
  -9  -3  -4   23.01   10.02
   9  -3   4    5.20    6.04
   9   3   4   10.04    7.96
  10  -3   4    1.41    6.08
 -10  -3  -4   -3.12    6.21
 -10   3  -4   -6.39    7.14
 -10  -3  -4  -19.24    9.06
  10   3   4   -9.74    8.39
  11  -3   4   -6.82    8.06
 -11   3  -4    0.70    6.29
 -11  -3  -4   -6.65    6.22
 -11  -3  -4  -12.14    8.67
  11   3   4   17.50    9.88
  12  -3   4   46.82   10.68
 -12   3  -4   72.64   14.34
 -12  -3  -4   61.44   12.24
 -12  -3  -4   63.44   14.63
  12   3   4   61.71   13.75
 -13   3  -4   49.02   13.26
 -13  -3  -4   31.87   10.90
  13  -3   4   43.30   12.04
  13   3   4   58.20   13.27
 -14   3  -4   -1.11    9.42
 -14  -3  -4    6.27    9.91
  14  -3   4   -0.40    9.42
  14   3   4   -6.86    9.36
  15  -3   4    7.19    9.10
 -15   3  -4    0.91   10.31
 -15  -3  -4   -0.39    9.24
  15   3   4   -0.62    9.40
  16  -4  -4   29.60   11.22
 -15   4   4   -4.27   11.80
  15   4  -4   -5.35   12.02
 -15  -4   4   -2.25    9.12
  15  -4  -4  -11.89   10.38
 -14  -4   4  857.42   44.12
  14   4  -4  824.12   45.73
  14  -4  -4  756.36   40.65
 -14   4   4  742.47   42.55
 -13  -4   4  128.17   17.70
  13   4  -4  149.69   20.79
  13  -4  -4  121.55   16.96
 -13   4   4   81.69   18.89
 -13   4   4  101.24   16.84
  12   4  -4   84.14   15.76
  12  -4  -4   90.28   15.21
 -12  -4   4   75.84   13.71
 -12   4   4   60.58   13.66
  11   4  -4   -6.05    6.95
 -11  -4   4   10.63    7.06
  11  -4  -4    2.12    7.65
 -11   4   4   14.64   10.53
 -11   4   4    6.42    8.39
  10   4  -4    0.70    6.78
 -10  -4   4   -5.06    7.56
  10  -4  -4   19.11    8.77
 -10   4   4   -3.76    8.97
 -10   4   4    8.84    8.23
   9   4  -4   -2.32    6.80
  -9  -4   4   -0.61    6.42
   9  -4  -4    1.09    6.21
  -9   4   4    1.63    7.77
  -9   4   4    7.66    7.59
  -8   4   4   45.20   10.55
   8   4  -4   39.91   10.46
  -8  -4   4   42.16   10.77
   8  -4  -4   42.95   10.67
  -8  -4   4   31.52    8.16
  -8   4   4   32.32    9.55
  -7   4   4  -14.50    8.45
   7   4  -4   -3.42    7.01
  -7  -4   4   -1.44    6.57
   7  -4  -4   -3.23    6.72
  -7  -4   4   10.33    6.64
  -7   4   4   -3.37    8.02
  -6   4   4   37.30    9.06
   6   4  -4   49.95   10.60
  -6  -4   4   46.53    9.79
   6  -4  -4   31.85   10.03
  -6   4   4   23.60    9.02
  -6  -4   4   36.80    7.84
  -5   4   4   28.05    8.68
   5   4  -4   23.98    7.75
  -5  -4   4   40.28    9.40
   5  -4  -4   20.81    7.73
  -5   4   4   33.80    9.85
  -5  -4   4   28.86    7.31
  -4  -4   4   16.22    6.03
   4  -4  -4    8.81    4.27
   4   4  -4   -4.66    7.22
  -4   4   4   -3.43    6.71
  -4  -4   4    3.83    6.60
   4  -4  -4   -0.14    6.91
  -4   4   4    4.02    7.95
   3   4  -4  216.65   16.88
  -3  -4   4  208.52   17.57
   3  -4  -4  242.47   19.74
  -3  -4   4  236.43   15.30
  -3   4   4  174.33   17.85
   3  -4  -4  216.99   13.47
  -3   4   4  217.07   15.27
   2   4  -4  148.47   14.84
  -2  -4   4  168.52   17.61
   2  -4  -4  117.10   14.44
  -2  -4   4  192.80   14.50
  -2   4   4  115.39   14.89
   2  -4  -4  121.96   10.88
  -2   4   4  121.82   11.94
  -1   4   4 4935.54   63.07
   1   4  -4 4876.88   71.60
  -1  -4   4 5034.49   80.76
   1  -4  -4 4971.45   84.13
  -1   4   4 5111.78   88.44
   1  -4  -4 4794.24   67.42
   0   4  -4 2203.72   46.70
   0   4   4 2303.64   41.72
   0  -4   4 2348.94   56.44
   0  -4  -4 2270.97   55.95
   0  -4  -4 2301.40   49.41
   0  -4   4 2427.21   45.90
   0   4  -4 2463.66   35.64
   0   4   4 2270.59   60.40
  -1   4  -4  347.01   19.30
   1  -4   4  396.29   23.57
  -1  -4  -4  339.04   20.92
   1   4   4  342.56   16.61
  -1  -4  -4  396.63   24.08
  -1   4  -4  367.04   15.58
   1   4   4  327.26   24.94
   1  -4   4  327.01   18.04
  -2   4  -4    3.22    4.60
  -2  -4  -4   20.05    7.05
  -2  -4  -4   -0.54    5.99
   2  -4   4    0.35    5.68
   2   4   4    8.18    5.24
  -2   4  -4    7.18    5.85
   2  -4   4    1.62    4.57
   2   4   4    5.13    8.82
   3   4   4    9.48    4.49
  -3   4  -4    2.05    4.58
  -3  -4  -4   12.53    7.51
   3  -4   4   12.38    6.06
  -3  -4  -4    9.16    6.53
  -3   4  -4   15.65    6.24
   3   4   4   17.61    9.29
   4  -4   4   52.73    9.29
  -4   4  -4   61.28    8.03
  -4  -4  -4   55.31   10.86
  -4  -4  -4   63.93   10.93
  -4   4  -4   41.23    8.76
   4   4   4   72.03    8.32
   4   4   4   51.85   11.94
   4  -4   4   64.76    9.01
  -5   4  -4  559.73   20.82
   5  -4   4  476.19   25.29
  -5  -4  -4  491.42   26.22
   5   4   4  547.72   31.09
  -5   4  -4  568.13   25.03
  -5  -4  -4  457.00   27.29
   5  -4   4  514.48   23.26
   6   4   4 2499.15   65.18
  -6  -4  -4 2454.74   57.41
  -6   4  -4 2376.26   51.71
  -6  -4  -4 2434.39   64.34
   7  -4   4   -7.67    6.51
  -7  -4  -4    5.96    7.66
  -7  -4  -4  -10.99    6.83
  -7   4  -4   -0.97    4.47
   7   4   4    0.16    8.32
  -7   4  -4    0.53    5.56
   8  -4   4   60.83   10.91
  -8  -4  -4   67.14   13.80
  -8   4  -4   75.23   11.94
   8   4   4   49.46   12.35
   9  -4   4    5.93    7.87
  -9   4  -4   -6.31    6.85
   9   4   4    1.61    5.68
  -9  -4  -4    0.12    7.23
   9   4   4   19.31    9.80
  10  -4   4   74.51   12.86
 -10  -4  -4   82.94   14.76
 -10   4  -4   88.00   14.33
  10   4   4   46.45   11.23
  11  -4   4   15.59    8.02
 -11   4  -4   26.66   10.08
 -11  -4  -4   15.51   11.67
  11   4   4   35.45   12.62
  12  -4   4   19.38    9.72
 -12   4  -4    0.11    8.27
 -12  -4  -4   -3.89    8.25
  12   4   4    4.72    8.20
  13  -4   4   45.62   12.96
 -13   4  -4   20.97   10.78
 -13  -4  -4   44.95   13.96
  13   4   4   32.30   12.09
  14  -4   4   12.92   10.13
 -14   4  -4    7.12    9.35
 -14  -4  -4  -12.82   12.19
  14  -5  -4    3.78    9.98
 -14   5   4   23.19   14.01
  13   5  -4   10.83   11.11
 -13  -5   4   14.52   10.62
  13  -5  -4   10.73   10.02
 -13   5   4   12.59   12.31
 -13   5   4   -9.76   11.30
  12   5  -4    7.27    9.13
 -12  -5   4   27.61    9.94
  12  -5  -4   10.21    9.93
 -12   5   4    5.85   10.33
 -12   5   4   12.41   10.67
  11   5  -4   20.58   10.43
 -11  -5   4  -14.07    9.46
  11  -5  -4   16.54   11.24
 -11   5   4   -2.94    9.08
 -11   5   4   -0.45    9.75
 -10   5   4   11.55    9.91
  10   5  -4   -8.78    7.27
 -10  -5   4  -12.22    8.85
  10  -5  -4   -1.30    7.36
 -10   5   4  -15.71   12.54
  -9   5   4   43.00   10.99
   9   5  -4   35.70   10.81
  -9   5   4   44.48   12.35
  -9  -5   4   49.05   11.19
   9  -5  -4   58.96   12.85
  -8   5   4   55.32   10.84
   8   5  -4   58.81   11.89
  -8  -5   4   49.02   11.22
   8  -5  -4   53.28   12.88
  -8   5   4   59.79   13.15
  -7  -5   4  454.63   29.81
   7   5  -4  454.82   29.52
   7  -5  -4  458.73   30.90
  -7   5   4  377.03   27.27
  -7   5   4  443.49   25.76
   6   5  -4    9.09    6.31
  -6   5   4   10.53    7.67
  -6  -5   4    0.65    6.37
   6  -5  -4  -12.82    8.52
  -6   5   4    1.08    8.34
   5   5  -4   29.36    9.24
  -5   5   4   19.58    7.56
  -5  -5   4   41.15   11.06
   5  -5  -4   21.91    8.88
  -5   5   4   11.54    8.16
   4   5  -4   10.02    7.80
  -4  -5   4    6.69    7.72
   4  -5  -4   12.21    8.12
  -4   5   4    8.09    9.27
   3   5  -4    2.37    6.46
  -3  -5   4    6.44    6.62
   3  -5  -4    0.70    6.89
  -3   5   4   11.58    8.71
   2   5  -4   44.18   10.12
   2  -5  -4   21.69    6.56
  -2  -5   4   33.47    9.67
   2  -5  -4   39.63   10.55
  -2   5   4   51.95   12.50
   1  -5  -4    1.37    4.88
   1  -5  -4    8.57    7.51
  -1  -5   4   16.02    7.54
  -1   5   4   -4.73    9.75
   0   5  -4  148.86   14.33
   0  -5   4  165.91   17.12
   0  -5  -4  155.77   17.38
   0   5   4  163.97   19.89
   0  -5  -4  163.78   14.45
  -1   5  -4    8.41    5.56
  -1  -5  -4    8.54    6.12
   1   5   4   11.55    9.40
  -1  -5  -4   22.32    8.05
   1  -5   4   19.36    8.33
  -2   5  -4   26.05    7.28
   2  -5   4   37.19    7.62
  -2  -5  -4   24.14    8.50
   2   5   4   32.92   12.16
  -2  -5  -4   29.26    9.63
   2  -5   4   18.72    7.95
  -3   5  -4    6.04    6.26
  -3  -5  -4    4.77    5.99
  -3  -5  -4   -9.08    8.47
   3  -5   4    0.57    4.54
   3   5   4   19.14   11.87
  -4   5  -4   24.08    6.40
  -4  -5  -4   31.12    9.51
  -4  -5  -4   11.71    8.10
  -4   5  -4   24.11    8.07
  -4   5  -4   33.52    7.41
   5   5   4  249.30   23.64
  -5  -5  -4  284.83   23.32
  -5   5  -4  240.59   17.97
  -5   5  -4  220.44   16.72
  -5  -5  -4  229.84   21.95
  -5   5  -4  248.09   18.64
  -6   5  -4  311.08   20.73
  -6  -5  -4  321.09   24.76
   6   5   4  307.54   25.70
   6  -5   4  341.35   23.24
  -6  -5  -4  309.69   25.58
   7  -5   4   38.23   10.15
  -7   5  -4   46.76   10.02
  -7  -5  -4   33.75   11.79
  -7  -5  -4   35.49   10.39
   7   5   4   51.26   13.23
  -8   5  -4   69.45   12.12
  -8  -5  -4  108.86   17.54
   8   5   4   55.69   12.69
   8  -5   4   99.54   14.19
   9  -5   4   -4.75    7.82
  -9   5  -4   -2.10    7.43
   9   5   4    2.22    7.86
  -9  -5  -4    0.82   10.10
   9   5   4  -13.02   11.10
  10  -5   4    4.09    7.60
 -10   5  -4  -21.88   10.55
  10   5   4   18.51    9.37
 -10  -5  -4    0.43    9.94
  10   5   4   -2.77    9.29
  11  -5   4    4.24    9.88
 -11   5  -4    4.54    8.51
  11   5   4    4.24   11.02
 -12  -5  -4   91.41   18.18
  12   5   4  136.17   20.52
 -12   5  -4   99.48   17.14
  12  -5   4  128.51   17.86
  13  -5   4   19.07   11.26
 -13   5  -4   39.55   13.55
  11  -6  -4    3.43   10.41
  10   6  -4   23.88   12.07
 -10  -6   4    1.64    8.55
  10  -6  -4   10.30    9.55
 -10   6   4    0.53    9.92
   9   6  -4   95.60   17.91
  -9  -6   4   82.18   15.66
   9  -6  -4  100.65   17.91
  -9   6   4   94.43   17.20
   8   6  -4   14.16   10.65
  -8  -6   4    7.61    8.28
   8  -6  -4   18.31   10.68
  -8   6   4   24.74   12.06
   7   6  -4  -16.87   10.34
  -7  -6   4   -2.62    8.24
   7  -6  -4    7.38    8.18
  -7   6   4   -2.83   10.47
   6   6  -4   53.26   12.00
  -6  -6   4   52.55   12.58
   6  -6  -4   34.78   11.06
  -6   6   4   60.40   15.48
   5   6  -4   90.55   14.70
  -5  -6   4   64.13   13.90
   5  -6  -4   63.49   13.84
  -5   6   4   64.79   14.81
   4   6  -4    1.01    6.85
  -4  -6   4   -4.13    7.12
   4  -6  -4   -2.51    7.51
  -4   6   4   -8.09   10.18
   3   6  -4  154.31   17.76
  -3  -6   4  192.47   20.16
   3  -6  -4  148.70   19.11
  -3   6   4  187.05   21.45
   2   6  -4   60.91   11.90
  -2  -6   4   49.46   11.76
   2  -6  -4   63.97   14.42
  -2   6   4   69.88   15.51
   1   6  -4   17.65    8.40
  -1  -6   4    8.94    8.21
   1  -6  -4   -5.11    8.48
  -1   6   4    5.59    9.23
   0   6  -4   -2.23    6.35
   0  -6   4   10.01    8.30
   0  -6  -4    2.12    8.00
   0   6   4  -10.55   10.66
  -1   6  -4   10.96    6.35
  -1  -6  -4   -4.17    6.64
  -1  -6  -4   23.35   10.59
   1  -6   4    8.36    8.67
   2   6   4  -17.27   11.03
  -2   6  -4   -4.74    6.21
  -2  -6  -4   10.10    9.13
  -2  -6  -4   -4.20    7.95
   2  -6   4    3.88    7.53
  -3   6  -4   -5.90    7.24
  -3  -6  -4   -5.87    8.81
  -3  -6  -4   -0.86    8.43
   3  -6   4   -1.35    7.34
   3   6   4    2.18   10.33
  -4  -6  -4   42.15   11.09
  -4  -6  -4   36.65   10.96
   4   6   4   58.36   15.13
  -5  -6  -4    4.22    8.84
  -5  -6  -4   22.43   11.72
   5   6   4   26.64   12.84
  -6  -6  -4   22.18   12.42
  -6  -6  -4    6.07    8.87
   6   6   4   43.56   14.42
  -7  -6  -4   10.48   11.47
  -7  -6  -4   -4.12   10.58
   7   6   4   10.54   10.61
   8   6   4   38.72   13.20
  -8  -6  -4   40.84   13.60
   8   6   4   34.42   13.05
   9   6   4  -11.19   10.70
  -9  -6  -4   11.90   10.44
   9   6   4   -1.57   10.03
  10   6   4  102.76   18.14
 -10  -6  -4  115.34   20.76
  10   6   4  109.03   17.98
   7   7  -4   52.52   14.86
  -7  -7   4   37.27   13.60
   7  -7  -4   46.65   15.70
  -6  -7   4  109.75   18.45
   6   7  -4   82.47   15.59
   6  -7  -4  106.21   19.48
  -6   7   4   61.82   15.22
   5   7  -4  215.03   24.85
  -5  -7   4  190.10   22.82
   5  -7  -4  215.77   26.19
  -5   7   4  199.29   24.72
   4   7  -4    5.01    8.50
  -4  -7   4    1.87    9.01
   4  -7  -4  -12.75   11.85
  -4   7   4  -10.90   12.31
   3   7  -4  184.18   21.21
  -3  -7   4  172.34   21.39
   3  -7  -4  168.76   22.02
  -3   7   4  189.08   24.27
   2   7  -4   65.67   13.44
  -2  -7   4   78.51   15.62
   2  -7  -4   61.66   15.19
  -2   7   4   90.86   18.67
  -1   7   4    6.76   12.26
   1   7  -4   15.95    8.82
  -1  -7   4   -0.67    8.95
   1  -7  -4    6.93   10.30
   0   7  -4    2.05    9.49
   0  -7   4    8.00    9.14
   0  -7  -4    8.96    9.35
   0   7   4   26.58   15.00
  -1   7  -4   32.05   11.46
  -1  -7  -4    2.81   10.22
   1   7   4   14.66   14.03
  -2   7  -4   18.37    9.58
  -2  -7  -4    0.77    9.25
   2   7   4  -11.88   12.84
   3   7   4   18.85   13.73
  -3  -7  -4   14.70   11.14
  -4  -7  -4  114.63   18.84
  -4  -7  -4   66.79   15.45
   4   7   4   79.80   17.53
  -5  -7  -4   -0.57   10.64
  -5  -7  -4    1.88   10.10
   5   7   4   -0.32   11.36
  -6  -7  -4   19.65   12.08
  -6  -7  -4    7.26   10.27
   6   7   4   30.05   14.02
  -7  -7  -4   60.15   17.87
   0   8  -4  -10.44   10.86
  17   0  -5    0.35    9.34
 -17   0   5  -23.54   13.44
  16   0  -5   -5.24    8.29
 -16   0   5   10.49    9.76
  15   0  -5    0.29    7.34
 -15   0   5    3.39   11.69
  14   0  -5   -3.35    6.07
  14   0  -5   -5.81    9.33
 -14   0   5    1.83    9.66
 -13   0   5    2.50    8.24
  13   0  -5   -1.10    6.72
  13   0  -5    7.84    7.03
 -12   0   5    5.07    8.21
  12   0  -5    1.80    5.90
  12   0  -5    2.65    7.30
 -12   0   5   -6.11    5.32
  11   0  -5   -6.07    5.45
 -11   0   5    1.98    8.35
  11   0  -5    1.60    6.31
 -11   0   5   16.87    6.86
  10   0  -5  -10.24    6.12
 -10   0   5   -0.63    7.91
  10   0  -5   -4.21    5.74
 -10   0   5   -6.48    5.98
   9   0  -5    5.73    4.39
  -9   0   5    4.09   10.26
   9   0  -5    8.42    7.30
  -9   0   5    2.80    5.61
   8   0  -5   -6.74    4.86
  -8   0   5   -6.18    8.05
   8   0  -5   -2.64    5.48
  -8   0   5   -4.18    5.13
  -7   0   5   -1.31    7.30
   7   0  -5    2.26    5.66
  -7   0   5   -2.85    4.38
  -6   0   5   -1.88    7.69
   6   0  -5    1.35    5.25
  -6   0   5    3.28    4.29
  -6   0   5    0.96    4.61
   5   0  -5    0.02    5.33
  -5   0   5    3.69    6.09
  -5   0   5    1.37    4.16
   4   0  -5   -6.35    5.47
  -4   0   5    4.28    4.22
   4   0  -5   -1.89    4.67
   3   0  -5   -3.42    5.09
  -3   0   5    4.18    5.85
  -3   0   5    1.04    3.75
   3   0  -5   -0.65    4.47
   2   0  -5    3.71    4.34
  -2   0   5   11.31    6.67
  -2   0   5    4.67    4.08
   2   0  -5    3.31    5.26
   1   0  -5    5.33    4.31
  -1   0   5    0.16    3.68
   1   0  -5   -0.06    4.29
  -1   0   5    6.32    6.05
   0   0   5   -8.08    6.93
   0   0  -5    1.61    3.42
   0   0   5    3.15    3.96
   0   0  -5    3.86    5.03
   1   0   5   -0.53    5.30
  -1   0  -5    1.95    3.38
   1   0   5    1.24    3.96
  -1   0  -5   -1.19    5.33
   2   0   5    6.32    6.08
  -2   0  -5    3.71    3.36
   2   0   5   -0.15    4.58
  -2   0  -5    2.29    5.25
  -3   0  -5    3.47    6.23
  -3   0  -5   -0.02    2.76
   3   0   5    5.61    5.66
   3   0   5    0.98    4.45
  -4   0  -5    5.46    2.58
   4   0   5    3.73    4.96
   4   0   5    3.18    5.47
  -4   0  -5    0.70    5.00
  -5   0  -5   -4.53    5.27
   5   0   5    3.79    5.18
  -5   0  -5    2.92    1.59
   5   0   5    5.10    4.71
  -6   0  -5    5.77    6.24
   6   0   5   10.21    6.24
   6   0   5   -1.29    5.73
  -7   0  -5    0.50    5.59
   7   0   5    2.83    5.84
   7   0   5   -3.04    6.22
  -8   0  -5   -0.45    5.63
   8   0   5   -2.45    5.82
   8   0   5    1.35    5.42
  -9   0  -5   -8.71    7.22
   9   0   5    6.85    7.57
   9   0   5   -1.41    6.17
  10   0   5   -5.04    7.61
 -10   0  -5   -3.95    6.04
  10   0   5   -5.80    6.76
 -11   0  -5    8.11    6.58
  11   0   5    6.59    6.78
 -11   0  -5   -7.88    7.70
 -12   0  -5   -4.63    7.88
 -12   0  -5    9.62    8.18
  12   0   5   -0.52    6.87
 -13   0  -5   -1.71    8.25
 -13   0  -5   -6.33    9.10
  13   0   5    5.37    8.44
 -14   0  -5    8.35    8.27
 -14   0  -5   -5.18    8.95
  14   0   5   -5.37    8.50
 -15   0  -5    7.73   11.14
 -15   0  -5   18.93   11.40
  15   0   5    1.11    8.81
 -17  -1   5   28.91   14.96
  17  -1  -5    5.15    9.07
  17   1  -5   28.35   13.72
  17  -1  -5   44.88   14.15
 -16  -1   5   12.00   13.50
  16  -1  -5   11.10    8.89
  16   1  -5    3.31    8.04
  16  -1  -5    4.91    8.04
 -16   1   5   11.11   13.05
 -15  -1   5   12.93   11.14
  15  -1  -5   11.22    9.03
  15   1  -5    4.93    7.50
  15  -1  -5  -10.05    9.60
 -15   1   5   12.66   11.65
  14  -1  -5   40.56   10.13
 -14  -1   5   73.45   14.62
  14   1  -5   31.49    9.56
  14  -1  -5   43.99   11.59
 -14  -1   5   44.21    9.95
 -14   1   5   48.00   14.69
 -13  -1   5  176.49   16.92
  13   1  -5  143.14   17.07
  13  -1  -5  165.80   19.20
 -13   1   5  142.91   18.90
  13  -1  -5  168.66   16.56
 -13  -1   5  171.70   19.87
 -12  -1   5  543.28   27.61
  12   1  -5  546.71   31.47
  12  -1  -5  522.05   31.44
 -12  -1   5  513.19   31.62
 -12   1   5  517.45   32.29
  12  -1  -5  548.13   27.36
 -11   1   5   -2.49    7.84
  11   1  -5    5.89    5.13
  11  -1  -5    2.29    5.79
 -11  -1   5    3.89    8.97
  11   1  -5    1.34    7.70
  11  -1  -5   -3.71    6.37
 -11  -1   5    5.70    5.32
 -10  -1   5  120.66   12.88
  10   1  -5  156.09   16.48
  10  -1  -5  130.11   15.29
  10   1  -5  136.88   10.81
 -10   1   5  161.95   17.95
 -10  -1   5  152.99   17.34
  10  -1  -5  144.45   14.01
   9  -1  -5   -3.45    4.37
   9   1  -5    3.37    3.79
   9  -1  -5    3.03    5.10
  -9   1   5   14.75    9.47
  -9  -1   5    9.03    9.30
   9   1  -5    6.90    7.08
   9  -1  -5   -2.41    5.55
  -9  -1   5    5.52    6.38
   8   1  -5    3.12    3.74
  -8   1   5    6.65    8.80
  -8  -1   5   -2.74    8.72
   8   1  -5    2.80    6.07
   8  -1  -5   -6.46    6.76
  -8  -1   5    0.51    5.09
   8  -1  -5   14.12    6.11
   7   1  -5    9.31    4.06
  -7   1   5   13.93    8.80
  -7  -1   5   19.75    8.32
   7   1  -5   13.89    6.84
   7  -1  -5   24.54    7.95
  -7  -1   5    2.12    5.23
  -7   1   5    5.61    5.19
   7  -1  -5   11.47    5.67
   6   1  -5  769.41   30.21
   6  -1  -5  764.87   30.42
  -6  -1   5  833.04   30.23
  -6  -1   5  874.34   19.67
  -6   1   5  816.14   26.97
   6  -1  -5  864.23   28.06
  -6   1   5  818.82   32.81
  -6  -1   5  779.96   31.16
   5   1  -5   67.94    9.97
  -5  -1   5   63.56    9.07
  -5   1   5   58.36   11.17
   5  -1  -5   51.78    8.85
  -5   1   5   63.14    8.72
  -5  -1   5   63.37    5.16
   5  -1  -5   74.36    9.01
  -5  -1   5   72.76   10.93
   4   1  -5  840.27   28.65
   4  -1  -5  852.55   29.86
  -4  -1   5  820.58   29.18
  -4   1   5  879.61   27.05
  -4  -1   5  837.60   13.98
   4  -1  -5  896.15   29.34
  -4   1   5  868.20   32.61
  -4  -1   5  809.16   29.90
  -4  -1   5  766.29   13.37
  -3  -1   5  485.90   23.56
   3   1  -5  505.96   21.36
   3  -1  -5  463.09   21.43
  -3  -1   5  491.80   22.77
  -3   1   5  502.39   19.89
   3  -1  -5  478.65   22.34
  -3  -1   5  471.03    9.16
  -3  -1   5  475.42    8.84
  -3   1   5  504.21   24.67
  -2  -1   5  133.57   12.52
   2   1  -5  133.63   10.87
   2  -1  -5  138.24   11.85
   2   1  -5  131.03   12.42
  -2   1   5  144.79   11.45
   2  -1  -5  135.23   12.00
  -2  -1   5  121.17    4.70
  -2  -1   5  118.09    4.59
  -2   1   5  145.88   14.21
   1   1  -5   54.66    6.81
   1  -1  -5   39.90    6.42
   1   1  -5   50.96    4.24
  -1  -1   5   61.74    4.03
  -1   1   5   39.13    7.01
   1   1  -5   49.84    8.45
  -1   1   5   37.64    7.97
   1  -1  -5   47.62    8.08
  -1  -1   5   50.08    9.22
   0   1  -5  103.94    8.44
   0   1   5   84.81   10.86
   0  -1  -5   83.19    8.57
   0  -1   5   86.21   10.43
   0   1  -5   59.40    8.86
   0   1   5   73.53    9.34
   0  -1  -5   79.28    9.75
   0  -1   5   77.81    5.45
  -1   1  -5 2506.60   36.93
   1  -1   5 2507.92   31.55
  -1  -1  -5 2463.92   40.95
   1   1   5 2482.89   50.65
   1  -1   5 2417.55   51.00
  -1   1  -5 2559.22   52.23
   1   1   5 2374.92   43.41
  -1  -1  -5 2329.48   48.57
  -2   1  -5   71.48    6.22
  -2  -1  -5   77.74    7.47
   2   1   5   70.18   10.29
   2  -1   5   68.63    9.83
  -2  -1  -5   67.73    9.41
   2  -1   5   74.67    6.89
   2   1   5   64.95    9.00
  -2   1  -5   82.89   11.05
  -3   1  -5  324.57   11.12
  -3  -1  -5  317.13   13.82
   3   1   5  334.71   19.66
   3  -1   5  272.03   17.93
  -3   1  -5  297.86   18.47
   3   1   5  335.11   17.83
  -3  -1  -5  298.63   18.88
   3  -1   5  316.61   14.43
  -4  -1  -5   -3.03    4.84
   4  -1   5    8.07    6.45
   4  -1   5    4.87    5.02
  -4   1  -5   -0.93    1.59
  -4  -1  -5   10.32    4.44
   4   1   5    4.13    5.22
   4   1   5    5.98    5.95
  -4   1  -5    1.23    5.62
  -5  -1  -5    4.38    5.56
   5   1   5   16.01    5.55
   5  -1   5   27.72    8.03
  -5  -1  -5   13.98    3.99
   5   1   5    9.80    6.56
   5  -1   5   18.67    5.62
  -5   1  -5    8.20    5.63
  -6  -1  -5   41.80    9.56
  -6  -1  -5   34.63    4.87
   6   1   5   41.86    9.11
   6  -1   5   31.31    8.42
   6   1   5   25.70    8.25
   6  -1   5   32.06    7.14
  -6   1  -5   35.82    7.57
  -7   1  -5 1857.92   47.39
  -7  -1  -5 1834.86   50.11
   7  -1   5 1758.31   43.99
   7   1   5 1855.32   49.20
   7   1   5 1927.88   50.95
   7  -1   5 1699.82   49.85
   8   1   5  671.20   31.50
   8  -1   5  712.27   34.39
   8   1   5  739.75   32.55
  -8   1  -5  755.19   31.45
  -8  -1  -5  762.50   33.60
   8  -1   5  714.99   29.75
   9   1   5   88.64   12.89
   9  -1   5   90.20   13.38
  -9   1  -5   61.88   10.69
  -9  -1  -5   66.92   11.65
   9  -1   5   71.44   11.09
   9   1   5   65.74   11.33
  10   1   5   77.41   12.71
  10   1   5   98.13   14.14
 -10  -1  -5   88.00   13.07
  10  -1   5  104.05   13.90
 -10   1  -5   90.45   12.60
 -11   1  -5   60.34   11.58
 -11  -1  -5   51.89   11.27
  11   1   5   55.44   11.98
  11  -1   5   58.96   11.83
 -11  -1  -5   48.54   11.44
 -11   1  -5   56.72   12.29
 -12   1  -5    3.31    8.34
 -12  -1  -5   -3.86    7.82
 -12   1  -5    2.66    6.29
 -12  -1  -5   -2.52    8.09
  12   1   5   -1.44    8.16
  12  -1   5   -0.34    6.38
 -13   1  -5   21.17   10.11
 -13  -1  -5   28.35   11.40
 -13   1  -5    7.85    6.97
 -13  -1  -5   10.23    8.54
  13   1   5   24.10    9.48
  13  -1   5    9.54    8.03
 -14   1  -5  152.30   20.37
 -14  -1  -5  176.16   21.45
  14   1   5  180.70   21.66
 -14  -1  -5  188.17   21.73
  14  -1   5  166.93   20.40
 -15   1  -5   -1.61    8.83
 -15  -1  -5   22.22   11.70
 -15  -1  -5   -6.85    9.74
  15   1   5  -11.31    9.70
  15  -1   5   13.28   10.03
 -16  -1  -5   14.67   10.82
 -16  -1  -5   11.60   11.36
  17  -2  -5   29.00   12.12
 -17  -2   5   10.42   13.22
  17  -2  -5   42.02   12.92
  16  -2  -5   17.15   11.46
 -16  -2   5   16.23   11.54
  16   2  -5   24.50   10.84
  16  -2  -5   -5.14    8.60
 -16   2   5   41.26   15.33
  15  -2  -5    4.29    8.38
 -15  -2   5   21.14   13.99
  15   2  -5   13.92    9.37
  15  -2  -5   -3.53    7.57
 -15  -2   5    2.51    7.38
 -15   2   5    4.80   10.04
  14  -2  -5   17.15    9.07
 -14  -2   5   16.05   10.54
  14   2  -5   30.04   11.24
  14  -2  -5   39.47   12.27
 -14  -2   5   19.74    9.53
 -14   2   5    6.52   10.12
  13  -2  -5   31.29    9.29
 -13  -2   5   31.48   13.07
  13   2  -5   43.52   11.68
  13  -2  -5   32.20   11.40
 -13  -2   5   48.80   10.47
 -13   2   5   24.53   11.92
 -12  -2   5  438.10   26.68
  12   2  -5  464.99   30.56
  12  -2  -5  446.12   29.06
 -12   2   5  428.14   29.63
 -12  -2   5  445.53   30.69
  12  -2  -5  446.70   26.88
 -11   2   5   11.73    9.24
  11  -2  -5   18.45    7.93
 -11  -2   5   12.35    9.17
  11   2  -5   23.86    8.54
  11  -2  -5   21.96    8.56
 -11  -2   5   19.31    7.76
 -10  -2   5  149.08   15.14
  10   2  -5  158.31   16.91
  10  -2  -5  130.59   15.65
 -10   2   5  160.93   18.54
 -10  -2   5  136.76   16.93
  -9   2   5   17.75   10.26
  -9  -2   5    8.34    7.23
   9   2  -5   21.01    8.87
   9  -2  -5   12.76    7.56
  -9  -2   5    1.04    6.18
  -9   2   5   -3.75    5.95
  -8   2   5    4.89    8.17
   8   2  -5    8.01    6.61
  -8  -2   5   12.94    8.45
   8  -2  -5   -4.70    7.16
  -8  -2   5    6.16    6.41
  -8   2   5    4.45    6.58
   8  -2  -5    4.91    4.72
  -7   2   5   15.23    9.47
   7   2  -5   -0.43    6.40
   7  -2  -5    8.38    5.94
  -7  -2   5   13.96    8.46
  -7  -2   5    4.37    5.85
  -7   2   5    8.35    6.28
   7  -2  -5   10.65    4.91
   6   2  -5  328.75   20.95
  -6  -2   5  322.61   20.36
   6  -2  -5  308.36   20.65
  -6   2   5  284.90   18.63
   6  -2  -5  305.09   15.59
  -6   2   5  293.09   20.44
  -6  -2   5  296.97   19.67
   5   2  -5  273.01   18.28
  -5  -2   5  252.57   18.13
   5  -2  -5  239.52   17.59
   5  -2  -5  248.08   14.20
  -5   2   5  222.75   16.38
  -5   2   5  256.62   18.84
  -5  -2   5  257.47   18.19
  -4  -2   5 3035.49   58.47
   4   2  -5 3074.13   56.65
  -4  -2   5 3278.75   62.36
   4  -2  -5 3044.90   59.34
  -4   2   5 2934.31   55.76
   4  -2  -5 3286.13   51.33
  -4   2   5 3109.00   61.05
  -3   2   5 1026.84   32.75
  -3  -2   5 1103.48   34.79
   3   2  -5 1042.51   31.61
  -3  -2   5 1116.31   36.00
   3  -2  -5 1058.06   34.48
   3  -2  -5 1073.24   31.02
  -3   2   5 1106.90   35.79
   2   2  -5  571.19   22.30
  -2  -2   5  611.72   26.13
   2  -2  -5  540.36   23.91
  -2  -2   5  549.87   25.19
  -2   2   5  567.07   25.01
   2  -2  -5  582.03   23.25
  -2   2   5  584.60   26.42
   1  -2  -5   10.53    4.65
  -1  -2   5    9.85    6.91
   1   2  -5    6.35    4.60
   1  -2  -5    9.19    5.31
  -1  -2   5   -5.45    5.92
  -1   2   5    7.01    6.57
  -1   2   5   -0.23    6.47
   0   2  -5   88.00    8.90
   0   2   5   94.09   11.89
   0  -2  -5   67.30    8.90
   0  -2   5   85.58   10.96
   0   2  -5  103.51   12.62
   0   2  -5   68.74    3.64
   0   2   5   88.09   11.94
   0  -2  -5   91.40   10.28
   0  -2   5   59.73    3.23
  -1   2  -5  148.28   10.29
  -1  -2  -5  116.23   10.58
   1   2   5  123.30   12.55
   1  -2   5  117.94   12.45
  -1   2  -5  132.09   13.21
   1   2   5  119.66   12.40
  -1  -2  -5  118.88   12.12
   1  -2   5  133.44    6.98
  -2   2  -5  113.05    8.72
  -2  -2  -5   88.56    9.39
   2   2   5   87.33   10.42
   2  -2   5   93.11   11.32
  -2   2  -5  119.84   12.21
  -2  -2  -5   89.77   11.10
   2  -2   5   91.78    7.08
   2   2   5   78.27   10.63
  -3   2  -5 1558.97   27.34
  -3  -2  -5 1471.45   35.38
   3   2   5 1374.07   37.98
   3  -2   5 1362.57   39.67
  -3   2  -5 1539.01   41.83
   3   2   5 1362.07   39.41
  -3  -2  -5 1397.97   40.73
   3  -2   5 1481.84   29.80
  -4  -2  -5   -5.81    7.51
   4  -2   5    4.70    4.75
  -4   2  -5   -0.89    2.51
  -4  -2  -5   -8.47    5.64
   4   2   5    6.42    5.58
   4   2   5   -5.52    6.32
  -4   2  -5    2.33    4.87
   4  -2   5    4.73    4.02
  -5  -2  -5  342.07   16.68
   5   2   5  347.68   20.46
  -5   2  -5  342.31   20.00
   5   2   5  350.59   21.80
  -5  -2  -5  285.94   19.99
   5  -2   5  336.40   21.89
   5  -2   5  360.46   17.87
   6  -2   5    3.05    6.04
  -6  -2  -5    2.05    5.85
  -6  -2  -5    2.15    4.11
   6   2   5    8.79    6.05
   6   2   5    6.34    6.92
  -6   2  -5    0.01    5.14
   6  -2   5   20.74    6.77
  -7  -2  -5  297.23   15.03
  -7   2  -5  332.92   20.23
   7   2   5  296.82   21.19
  -7  -2  -5  298.71   21.27
   7  -2   5  309.67   18.55
   7   2   5  326.60   21.69
   7  -2   5  287.57   21.87
   8   2   5  113.63   13.78
   8   2   5  101.65   13.44
  -8   2  -5   94.75   11.91
  -8  -2  -5  114.18   14.63
   8  -2   5   99.91   11.94
   9   2   5  182.88   17.31
   9  -2   5  170.60   17.58
   9   2   5  200.34   19.38
  -9   2  -5  180.93   15.75
  -9  -2  -5  169.77   18.17
   9  -2   5  172.91   16.10
 -10   2  -5   19.59    6.67
 -10  -2  -5   19.62    8.79
  10   2   5    4.01    7.71
 -10  -2  -5   25.94    9.01
 -10   2  -5   21.90    8.72
  10  -2   5   29.54    8.96
 -11  -2  -5   12.81    9.02
 -11   2  -5   26.39   10.49
 -11   2  -5    8.47    7.10
 -11  -2  -5    9.83    9.78
  11   2   5    6.12    8.25
  11  -2   5   -9.16    8.32
 -12   2  -5   -7.16    9.95
 -12  -2  -5   14.59    8.68
 -12  -2  -5    9.56    7.50
  12   2   5   -0.58    7.80
  12  -2   5    9.25    8.75
  13  -2   5   -0.92    7.46
 -13   2  -5   -7.00    9.10
 -13  -2  -5   -5.26    8.56
 -13  -2  -5    6.14    9.63
  13   2   5  -14.58    9.21
  14  -2   5   37.30   11.00
 -14   2  -5   50.87   14.34
 -14  -2  -5   58.53   14.89
 -14  -2  -5   51.71   13.68
  14   2   5   43.01   13.05
  15  -2   5   23.73   12.17
 -15  -2  -5   20.31   12.86
 -15  -2  -5   19.86   12.61
 -16  -2  -5  179.46   24.29
  16  -3  -5   -0.17    9.66
  16  -3  -5   15.04   11.24
 -16  -3   5   10.54   10.55
  15  -3  -5   93.22   18.00
  15   3  -5   75.23   16.39
  15  -3  -5   49.00   12.50
 -15  -3   5   70.30   14.07
 -15   3   5   71.30   16.21
 -14  -3   5   67.32   15.75
  14   3  -5   80.46   16.19
  14  -3  -5   73.18   14.72
 -14  -3   5   46.21   11.90
 -14   3   5   60.66   16.16
 -13  -3   5   32.17   12.37
  13   3  -5    1.43    9.49
  13  -3  -5    0.13    7.17
 -13  -3   5    4.13    7.56
 -13   3   5    4.91    9.82
 -12   3   5   18.70   11.93
  12   3  -5    4.90    8.29
 -12  -3   5   26.05   11.10
  12  -3  -5   10.66    7.81
 -12  -3   5   -3.79    7.61
 -12   3   5   -8.75    9.14
 -11   3   5   -0.40    9.10
  11   3  -5   -3.77    7.69
 -11  -3   5   20.12   10.00
  11  -3  -5    6.14    7.35
 -11  -3   5   15.85    8.67
 -11   3   5  -11.31    8.75
 -10   3   5   55.44   13.28
  10   3  -5   44.23   10.82
 -10  -3   5   43.14   11.37
  10  -3  -5   32.91    8.75
 -10  -3   5   49.72   10.58
 -10   3   5   65.14   12.60
  -9   3   5   -1.08    8.36
   9   3  -5    8.63    7.67
  -9  -3   5    5.57    6.89
   9  -3  -5   -2.87    6.42
  -9  -3   5    9.41    6.53
  -9   3   5    0.37    6.59
  -8   3   5   38.30   10.79
   8   3  -5   50.44   10.71
   8  -3  -5   48.90    9.97
  -8  -3   5   40.15    9.74
  -8  -3   5   38.26    9.46
  -8   3   5   58.50   11.22
  -7   3   5   35.97   10.92
   7   3  -5   15.11    7.93
   7  -3  -5   12.48    7.18
  -7  -3   5   28.05    9.29
  -7  -3   5   -0.98    6.01
  -7   3   5   18.25    8.58
   6   3  -5   18.06    8.29
  -6   3   5   20.83    8.71
   6  -3  -5   24.75    7.83
  -6  -3   5   33.60    8.86
  -6  -3   5   41.48    9.26
  -6   3   5   46.56   10.04
   5  -3  -5   24.08    5.02
   5   3  -5   32.44    8.42
  -5   3   5   33.69   10.10
   5  -3  -5   14.29    5.89
  -5  -3   5   34.92    8.67
  -5   3   5   22.22    8.40
  -5  -3   5   25.67    7.24
  -4   3   5  566.72   28.36
  -4  -3   5  677.07   28.65
   4   3  -5  607.01   27.07
  -4  -3   5  597.53   28.70
   4  -3  -5  591.17   28.75
   4  -3  -5  645.56   22.39
  -4   3   5  587.07   27.76
  -3  -3   5   70.03   10.91
  -3  -3   5   74.85   11.08
   3   3  -5   64.36    9.27
   3  -3  -5   58.13   10.12
  -3   3   5   61.15   10.27
   3  -3  -5   55.46    7.73
  -3   3   5   47.21   10.94
   2   3  -5  196.52   14.81
  -2  -3   5  209.75   18.06
   2  -3  -5  196.80   16.22
  -2  -3   5  223.58   16.97
  -2   3   5  216.55   18.42
   2  -3  -5  185.58   13.91
  -2   3   5  221.99   17.49
  -1   3   5 1807.12   43.95
   1   3  -5 1804.71   40.90
  -1  -3   5 1927.34   49.73
   1  -3  -5 1876.33   47.44
  -1  -3   5 1921.44   47.53
  -1   3   5 1872.70   50.88
   1  -3  -5 1862.54   42.77
   0   3  -5   91.97    9.51
   0   3   5  100.14   12.29
   0  -3   5   81.35   11.47
   0  -3  -5  120.66   12.93
   0  -3   5   90.54   11.37
   0   3   5  132.18   16.24
   0  -3  -5   91.47   11.39
  -1  -3  -5   43.65    8.72
   1   3   5   50.64    8.85
  -1   3  -5   39.14    6.70
  -1  -3  -5   38.77    8.37
  -1   3  -5   52.81   10.57
   1  -3   5   37.49    8.28
   1   3   5   70.85   12.77
   2  -3   5   32.46    8.10
  -2  -3  -5   57.87    9.82
  -2   3  -5   41.25    6.47
   2   3   5   63.85    9.55
  -2  -3  -5   49.23    8.68
  -2   3  -5   46.64    9.82
   2   3   5   59.21   12.35
   2  -3   5   42.27    5.50
  -3   3  -5  310.07   14.27
  -3  -3  -5  301.23   18.77
   3   3   5  318.72   18.73
  -3   3  -5  273.10   19.23
   3  -3   5  275.92   19.94
   3   3   5  254.62   20.08
  -3  -3  -5  280.47   19.79
   3  -3   5  281.48   14.59
   4  -3   5    5.74    5.46
   4   3   5   -0.01    5.13
  -4  -3  -5    0.18    5.83
  -4   3  -5   -1.61    4.22
  -4  -3  -5   -1.59    5.84
   4  -3   5   -1.13    6.04
   4   3   5    8.80    8.14
  -4   3  -5   12.53    6.51
  -5  -3  -5  141.52   13.34
  -5   3  -5  146.09   14.03
   5   3   5  152.52   17.07
   5   3   5  167.93   14.34
  -5  -3  -5  142.43   15.86
   5  -3   5  170.54   13.10
   5  -3   5  132.08   14.88
  -6  -3  -5   81.99   10.12
  -6   3  -5  100.45   11.61
   6   3   5   85.42   14.06
  -6  -3  -5   83.58   12.72
   6  -3   5   75.72    9.67
   6   3   5   77.48   10.23
   6  -3   5   67.10   11.45
   7  -3   5   32.47    7.30
  -7  -3  -5   33.42    9.31
   7  -3   5   45.34   10.64
   7   3   5   32.52    7.41
  -7  -3  -5   37.73    7.58
  -7   3  -5   45.65    9.26
   7   3   5   34.53   10.93
   8  -3   5    9.52    7.04
   8  -3   5    2.19    5.76
  -8  -3  -5   16.38    8.92
   8   3   5   21.65    9.01
   8   3   5   12.00    6.98
  -8   3  -5    7.25    5.39
  -9   3  -5   53.53    9.42
   9  -3   5   49.11   10.33
  -9  -3  -5   77.36   14.25
   9   3   5   49.88   12.02
  -9   3  -5   71.65   12.79
 -10  -3  -5   -1.78    6.97
 -10   3  -5    4.99    6.55
  10  -3   5   -5.31    7.26
 -10  -3  -5    0.44    8.23
  10   3   5    0.32    7.85
  11  -3   5   -3.68    7.09
 -11   3  -5   -3.00    8.24
 -11  -3  -5   -5.01    7.84
 -11  -3  -5   -1.46    7.50
  11   3   5    5.42    7.76
 -12   3  -5  144.04   20.59
 -12  -3  -5  159.22   18.73
  12   3   5  134.34   18.31
 -12  -3  -5  158.20   20.88
  12  -3   5  138.30   17.54
  13  -3   5    4.41    7.76
 -13   3  -5    7.46   10.70
 -13  -3  -5    9.43    9.64
  13   3   5   -0.80    8.87
  14  -3   5    4.73    8.84
 -14   3  -5   18.10   11.61
 -14  -3  -5   29.99   13.97
  14   3   5   39.45   13.73
  15  -3   5   15.03   11.56
  15  -4  -5   27.53   12.20
 -14   4   5   18.56   14.75
  14   4  -5    1.71    9.03
  14  -4  -5   -4.87    9.39
 -14  -4   5   -4.50    9.63
 -14   4   5    2.55   11.59
 -13   4   5   21.77   12.86
  13   4  -5   12.25    9.36
  13  -4  -5   10.02    8.99
 -13  -4   5    2.35    8.13
 -13   4   5   22.94   12.13
 -12   4   5   12.32   11.42
  12   4  -5    3.12    7.54
  12  -4  -5    8.29    8.23
 -12  -4   5    4.88    8.52
 -12   4   5    7.12    9.41
 -11   4   5    9.20    9.28
  11   4  -5   -3.03    7.03
  11  -4  -5   16.16    8.68
 -11  -4   5    2.97    6.70
 -11   4   5   15.19    9.60
 -10   4   5   65.58   13.48
  10   4  -5   85.19   14.65
  10  -4  -5   49.68   11.80
 -10  -4   5   73.98   12.86
  -9   4   5   -6.49    9.53
   9   4  -5    6.44    6.85
   9  -4  -5   11.04    7.47
  -9  -4   5  -12.33    8.85
  -9   4   5    4.38    7.55
  -8  -4   5  570.82   32.44
   8   4  -5  612.76   33.40
   8  -4  -5  551.95   32.49
  -8   4   5  581.24   32.98
  -8   4   5  551.86   30.52
  -8  -4   5  577.52   29.24
  -7   4   5   20.82    9.29
   7   4  -5   30.38    9.74
   7  -4  -5   20.90    7.93
  -7  -4   5   38.32   10.41
  -7   4   5   34.63   10.35
  -7  -4   5   31.36    8.47
   6   4  -5   11.49    6.99
  -6   4   5   -6.18    7.52
   6  -4  -5   -6.40    7.35
  -6  -4   5    4.23    5.78
  -6   4   5   -3.81    6.82
  -6  -4   5    2.01    5.85
  -5  -4   5   16.38    6.90
   5   4  -5   11.36    7.18
  -5   4   5    5.72    7.12
   5  -4  -5    5.29    6.07
  -5  -4   5    6.92    6.20
  -4  -4   5    7.94    6.22
   4   4  -5   15.76    8.14
  -4   4   5    0.77    6.80
   4  -4  -5    0.29    7.20
  -4  -4   5    4.88    7.08
  -4   4   5   20.79   10.25
   3   4  -5   89.92   12.11
  -3  -4   5  102.05   13.96
   3  -4  -5   96.10   14.10
  -3  -4   5   96.52   11.49
  -3   4   5   96.56   14.84
   3  -4  -5   91.04   10.34
  -3   4   5   88.88   11.54
   2  -4  -5   25.73    6.51
   2   4  -5   33.49    8.16
  -2  -4   5   41.86    8.67
   2  -4  -5   36.42   10.02
  -2  -4   5   39.72    9.84
  -2   4   5   32.17    9.02
  -2   4   5   22.25    9.92
   1   4  -5  893.17   32.13
  -1   4   5  881.43   31.18
  -1  -4   5  936.42   38.61
   1  -4  -5  929.60   38.25
  -1  -4   5  964.07   33.29
  -1   4   5  839.97   38.63
   1  -4  -5  869.93   31.27
   0   4   5   15.89    6.69
   0  -4  -5    5.12    5.74
   0   4  -5    6.01    5.11
   0  -4  -5    5.88    7.46
   0  -4   5   18.81    8.56
   0   4   5    5.65    9.84
   0  -4   5    3.20    5.16
   1  -4   5   13.48    5.65
  -1  -4  -5    5.61    5.57
  -1   4  -5   14.61    6.29
   1   4   5    4.50    5.82
  -1  -4  -5   24.62    7.66
   1  -4   5    7.37    7.51
   1   4   5   10.58    8.83
  -2  -4  -5    6.41    5.45
  -2   4  -5    3.15    5.28
   2  -4   5   -1.19    5.24
  -2  -4  -5    6.76    7.54
   2   4   5    6.13    5.31
  -2   4  -5   10.64    6.79
   2   4   5   -5.35    9.53
  -3   4  -5   86.85    9.67
  -3  -4  -5  104.51   13.25
   3   4   5   96.61   10.57
  -3   4  -5  107.60   13.75
  -3  -4  -5   86.99   12.54
   3  -4   5   85.43   11.79
   3   4   5   85.66   14.18
  -4  -4  -5   28.01    8.96
   4  -4   5   26.79    6.97
   4   4   5   29.04    6.87
  -4  -4  -5   17.75    7.29
  -4   4  -5   41.87    8.64
   4   4   5   36.04   11.60
   5  -4   5   76.35   12.14
  -5  -4  -5   91.21   13.40
  -5  -4  -5   92.70   12.74
  -5   4  -5  112.85   13.07
   5   4   5  114.02   16.32
   6  -4   5   12.56    6.70
  -6  -4  -5    5.34    7.37
  -6  -4  -5   28.58    8.24
   6   4   5    6.54    7.48
  -6   4  -5    2.73    6.37
   6  -4   5   -0.08    5.99
   7  -4   5    7.87    5.49
  -7  -4  -5   21.29   10.57
   7  -4   5   -5.27    7.11
  -7  -4  -5    7.24    6.18
   7   4   5    7.57    8.42
  -7   4  -5    8.61    5.24
   8  -4   5    9.75    7.84
  -8  -4  -5    5.91    9.23
  -8  -4  -5   -3.86    6.76
   8   4   5    7.14    9.22
  -8   4  -5    2.49    6.77
  -9   4  -5   10.65    8.36
   9  -4   5    7.83    6.98
  -9  -4  -5  -10.75    9.77
   9   4   5    7.78    7.76
  10  -4   5   18.87    8.32
 -10   4  -5   24.60   10.37
 -10  -4  -5   32.88   11.08
  10   4   5   53.69   13.96
  11  -4   5   61.49   11.83
 -11   4  -5   52.54   12.79
 -11  -4  -5  100.54   18.89
  11   4   5   93.54   16.41
 -12   4  -5  163.28   21.13
  12   4   5  175.92   22.43
 -12  -4  -5  181.68   23.63
  12  -4   5  165.64   19.88
  13  -4   5    7.12    9.23
 -13   4  -5    1.48    9.53
  14  -4   5   -1.99    8.88
 -13   5   5   15.48   13.03
  13  -5  -5    3.02    9.63
 -12   5   5   -6.79   11.52
  12   5  -5   -5.61   10.73
 -12  -5   5   -2.98    9.69
  12  -5  -5  -17.04    9.94
 -12   5   5   -2.89   10.99
 -11   5   5   -2.46   10.02
  11   5  -5    7.22    8.80
 -11  -5   5   -4.01    9.99
  11  -5  -5   21.11    9.66
 -11   5   5   -3.74   10.50
 -10   5   5   -0.76    9.87
  10   5  -5   13.00    9.45
 -10  -5   5   34.47   12.75
  10  -5  -5    5.76    8.04
 -10   5   5   16.83   11.15
  -9   5   5   13.58    9.76
   9   5  -5   13.92    9.61
  -9  -5   5    5.61    7.16
   9  -5  -5   -8.91    8.49
  -9   5   5   20.02   10.25
   8   5  -5   31.75   11.19
  -8   5   5   10.26    7.87
   8  -5  -5   56.87   14.29
  -8  -5   5   33.30   10.68
  -8   5   5   35.66   11.52
   7   5  -5   19.22    9.95
  -7   5   5   24.16    8.48
   7  -5  -5   16.30    7.87
  -7  -5   5   26.14   11.28
  -7   5   5   28.53   11.52
   6   5  -5   20.74    9.53
  -6   5   5   17.36    8.72
   6  -5  -5    9.71    6.91
  -6  -5   5   16.39    8.15
  -6   5   5   17.07    9.19
   5   5  -5    3.37    7.89
   5  -5  -5    6.92    7.77
  -5  -5   5   -0.86    7.49
  -5   5   5   -1.56    9.37
   4   5  -5   11.30    7.80
   4  -5  -5   -1.63    6.84
  -4  -5   5   -1.83    7.40
  -4   5   5   -0.91    7.79
   3   5  -5    5.97    6.81
   3  -5  -5   -5.87    8.67
  -3  -5   5    0.38    6.92
  -3   5   5   -2.11    9.30
   2   5  -5  274.89   21.17
  -2  -5   5  308.62   24.08
   2  -5  -5  306.10   25.49
  -2   5   5  273.55   25.47
   1   5  -5  372.20   23.39
  -1  -5   5  383.81   27.20
   1  -5  -5  350.96   26.17
  -1   5   5  356.21   28.16
   1  -5  -5  325.47   21.29
   0   5  -5   -8.94    6.23
   0  -5  -5    9.17    6.66
   0  -5  -5    6.77    8.03
   0  -5   5    4.21    6.76
   0   5   5   15.06   11.73
  -1   5  -5   59.50   10.70
  -1  -5  -5   66.57   12.13
  -1  -5  -5   44.78   10.43
   1  -5   5   60.09   11.74
   1   5   5   68.05   14.82
  -2   5  -5    7.58    6.18
  -2  -5  -5   -9.87    7.88
   2  -5   5    1.37    5.06
  -2  -5  -5   -7.38    7.85
   2   5   5   -2.27   10.12
  -3  -5  -5   27.76    9.72
  -3  -5  -5   32.96   10.32
  -3   5  -5   27.43    8.56
   3   5   5   19.11   11.29
   3  -5   5   25.09    6.96
  -4  -5  -5   41.61   11.44
  -4  -5  -5   27.25    9.00
   4  -5   5   43.76    8.62
  -4   5  -5   61.65   11.05
   4   5   5   70.12   15.46
   5  -5   5 1191.68   42.02
  -5  -5  -5 1167.45   45.91
  -5   5  -5 1222.36   42.25
   5   5   5 1306.86   53.53
  -5  -5  -5 1152.09   48.67
  -6  -5  -5   -9.80    9.33
  -6  -5  -5   16.19    8.84
   6   5   5    6.09    9.41
  -6   5  -5   -1.72    6.68
  -7   5  -5   20.39    8.65
  -7  -5  -5   -1.47    9.27
  -7  -5  -5   33.31   11.35
   7   5   5   24.37   12.38
  -8   5  -5    7.14    8.15
  -8  -5  -5   -4.58    8.10
  -8  -5  -5    6.51    7.73
   8   5   5   -4.74    9.68
  -9   5  -5   -8.18    8.38
  -9  -5  -5   16.12   10.51
   9   5   5   21.54   11.62
 -10   5  -5   79.73   14.94
 -10  -5  -5   59.88   16.27
  10   5   5   81.49   15.92
 -11   5  -5   25.62   11.06
  11   5   5    9.49   10.26
 -12   5  -5    3.09   10.15
  10  -6  -5  193.70   25.10
   9   6  -5   39.02   12.97
  -9  -6   5   38.94   12.99
   9  -6  -5   13.25    9.90
  -9   6   5   28.52   13.91
   8   6  -5   18.72   10.76
  -8  -6   5    5.81    8.20
   8  -6  -5    6.43    9.45
  -8   6   5   -4.83   10.64
   7   6  -5  -11.26    9.23
  -7  -6   5   11.80   10.51
   7  -6  -5   -3.08   10.79
  -7   6   5    9.29   10.11
   6   6  -5   12.78    9.95
  -6  -6   5    8.96    9.88
   6  -6  -5   24.91   12.01
  -6   6   5   30.46   12.22
   5   6  -5    5.96    7.90
  -5  -6   5   12.51    8.96
   5  -6  -5   19.12   12.27
  -5   6   5    5.01   10.48
   4   6  -5   47.27   12.02
   4  -6  -5   46.92   13.74
  -4  -6   5   64.59   14.04
  -4   6   5   55.36   14.51
   3   6  -5  161.39   18.11
  -3  -6   5  184.36   20.88
   3  -6  -5  151.59   20.86
  -3   6   5  116.00   18.49
   2   6  -5   27.49    9.26
   2  -6  -5   26.01   11.51
  -2  -6   5   39.29   11.27
  -2   6   5   39.60   13.73
   1   6  -5   91.37   13.92
   1  -6  -5   96.88   17.36
  -1  -6   5   79.75   14.21
  -1   6   5   94.43   17.29
   0   6  -5    7.83    7.48
   0  -6  -5   -0.35    7.93
   0  -6   5   13.10    8.82
   0   6   5    7.66   11.82
  -1   6  -5    7.61    7.56
  -1  -6  -5   -7.37    8.49
  -1  -6  -5   12.78    8.58
   1  -6   5   14.94    8.93
   1   6   5   -5.27   12.21
  -2  -6  -5   -3.38    7.58
  -2  -6  -5   14.37   10.77
   2  -6   5   -6.06    9.75
   2   6   5    3.50   10.53
  -3  -6  -5  140.61   19.45
  -3   6  -5  172.91   18.86
   3   6   5  150.93   21.86
  -3  -6  -5  137.27   18.04
  -4  -6  -5   88.14   15.27
  -4  -6  -5   72.98   15.67
   4   6   5   90.32   18.76
  -5  -6  -5   95.49   17.07
  -5  -6  -5   63.70   13.87
   5   6   5   71.41   16.67
  -6  -6  -5   -4.70    9.62
  -6  -6  -5    3.35    9.69
   6   6   5  -18.14   12.11
  -7  -6  -5    2.45    9.40
  -7  -6  -5   -0.50   10.70
   7   6   5    0.18   10.20
  -8  -6  -5   53.83   16.13
   8   6   5   27.43   13.76
   5   7  -5   12.88   10.10
  -5  -7   5   12.43   10.68
   4   7  -5   16.24    9.50
  -4  -7   5    8.71   10.11
   4  -7  -5   -4.37   10.09
  -4   7   5   29.63   15.32
   3   7  -5   75.48   15.80
  -3  -7   5   48.08   13.73
   3  -7  -5   72.61   16.72
  -3   7   5  102.56   20.77
   2   7  -5    5.76    8.09
   2  -7  -5   15.17   13.17
  -2  -7   5   -0.77    8.78
  -2   7   5   11.03   11.54
   1   7  -5    0.47    8.35
   1  -7  -5   12.38   10.96
  -1  -7   5    2.50    9.82
  -1   7   5    6.87   12.41
   0   7  -5   31.59   10.77
   0  -7  -5   35.77   12.76
   0  -7   5   17.56   10.00
   0   7   5   57.19   17.96
  -1  -7  -5   86.54   18.06
   1   7   5  136.72   22.98
  -2  -7  -5   26.13   13.27
   2   7   5    4.84   14.46
  -3  -7  -5   84.05   17.59
   3   7   5   85.40   20.17
  -4  -7  -5   24.14   12.06
  -4  -7  -5   10.03   11.11
  -5  -7  -5    9.20   12.70
  -5  -7  -5   10.30   12.99
  -6  -7  -5   -4.71   12.34
 -16   0   6   -8.61   11.96
  16   0  -6    5.50    9.39
 -15   0   6   -1.46   10.21
  15   0  -6   16.04   10.49
 -14   0   6   48.64   13.03
  14   0  -6   43.29   13.84
  13   0  -6 1347.69   53.61
 -13   0   6 1300.89   53.72
 -12   0   6   34.64   12.64
  12   0  -6   28.71   10.18
 -11   0   6   57.40   14.17
  11   0  -6   55.75   11.75
 -11   0   6   64.61   10.29
 -10   0   6  -15.98    9.68
  10   0  -6   -6.55    6.24
 -10   0   6   10.73    6.83
  -9   0   6    7.41    8.51
   9   0  -6   -6.69    7.01
  -9   0   6    7.55    5.39
  -9   0   6    5.27    5.07
  -8   0   6   75.23   11.09
  -8   0   6   75.07   13.80
   8   0  -6   72.35   11.55
  -8   0   6   66.82    9.28
   7   0  -6 1134.65   40.03
   7   0  -6 1145.05   38.22
  -7   0   6 1092.56   29.32
  -7   0   6 1070.80   41.31
   6   0  -6 1550.17   45.21
   6   0  -6 1466.22   43.78
  -6   0   6 1443.32   32.19
  -6   0   6 1401.93   45.46
   5   0  -6  325.57   20.57
   5   0  -6  301.41   20.24
  -5   0   6  300.30   14.50
  -5   0   6  312.28   22.39
   4   0  -6  343.31   20.34
   4   0  -6  300.16   19.72
  -4   0   6  322.51   14.47
  -4   0   6  335.17   21.98
   3   0  -6   16.56    7.13
  -3   0   6    0.43    6.95
  -3   0   6   16.07    5.46
   3   0  -6   20.58    7.39
  -2   0   6  111.01   13.65
   2   0  -6   95.60   10.45
   2   0  -6   96.18   12.14
  -2   0   6   94.25    8.25
   1   0  -6   23.45    6.20
  -1   0   6   12.77    5.34
   1   0  -6   15.24    6.68
  -1   0   6   20.00    7.93
   0   0  -6 4297.87   57.21
   0   0   6 4478.35   76.54
   0   0   6 4332.19   52.07
  -1   0  -6  142.36   10.49
   1   0   6  138.20   14.51
  -1   0  -6  139.96   14.09
   1   0   6  139.77   10.76
  -2   0  -6  110.63    8.91
   2   0   6  108.35   13.32
  -2   0  -6   97.06   12.48
   2   0   6   91.75    9.74
  -3   0  -6   37.49    5.40
   3   0   6   34.15    9.53
   3   0   6   37.37    7.57
  -3   0  -6   19.54    7.11
  -4   0  -6   30.60    4.32
   4   0   6   30.07    8.28
   4   0   6   34.99    7.15
  -4   0  -6   34.88    9.06
   5   0   6  378.47   23.32
  -5   0  -6  397.81   23.93
   5   0   6  397.12   21.17
  -6   0  -6 3071.91   65.99
   6   0   6 3153.35   68.61
   6   0   6 3159.25   60.27
  -7   0  -6 5939.46   94.14
   7   0   6 5749.75   85.87
   7   0   6 6021.29   98.10
  -8   0  -6  585.55   30.79
   8   0   6  564.87   28.47
   8   0   6  534.16   30.60
   9   0   6  152.48   17.47
  -9   0  -6  193.85   18.86
   9   0   6  176.73   17.45
 -10   0  -6   -1.73    6.40
  10   0   6   -7.28    7.72
 -11   0  -6   12.88    7.98
  11   0   6   28.29   10.07
 -12   0  -6    2.24    8.38
  12   0   6    1.90    7.32
 -12   0  -6   -7.57    9.48
 -13   0  -6  582.47   37.93
 -13   0  -6  555.75   34.67
  13   0   6  556.29   35.56
 -14   0  -6   38.15   13.00
 -14   0  -6   10.55    9.46
  14   0   6   38.43   13.12
 -15   0  -6   90.22   16.89
 -16  -1   6   22.73   13.44
  16   1  -6    1.08    9.75
  16  -1  -6   11.50    8.90
 -15   1   6   24.31   12.56
 -15  -1   6   57.06   16.32
  15   1  -6   59.23   13.84
  15  -1  -6   66.69   14.75
 -14   1   6   -2.26   11.18
 -14  -1   6   20.12   12.44
  14   1  -6    8.97    8.48
  14  -1  -6    3.66    7.87
  13   1  -6  440.27   30.84
 -13  -1   6  498.71   29.42
  13  -1  -6  456.86   31.81
 -13   1   6  438.42   31.91
 -13  -1   6  411.21   31.65
  13  -1  -6  470.95   27.43
  12  -1  -6   27.81    9.08
 -12   1   6   -1.35    9.57
 -12  -1   6   12.58   10.65
  12   1  -6   19.70    9.81
  12  -1  -6   19.18    9.60
 -12  -1   6   11.30    7.65
  11   1  -6  115.38   15.82
  11  -1  -6  123.26   16.22
 -11  -1   6  140.84   15.92
 -11   1   6  118.74   17.87
 -11  -1   6  130.93   17.89
 -10   1   6   -9.11    9.13
 -10  -1   6   -6.32    8.93
  10   1  -6   -2.31    7.22
  10  -1  -6   -2.19    6.44
 -10  -1   6  -12.53    7.95
 -10   1   6    7.40    6.36
  -9   1   6   -0.99    9.29
  -9  -1   6    0.81    7.96
   9   1  -6   -1.36    6.00
   9  -1  -6   -4.05    6.89
  -9  -1   6   -9.01    7.22
  -9   1   6    9.49    7.19
   9  -1  -6    3.22    5.31
  -8   1   6    0.05    9.02
   8   1  -6   17.36    8.12
  -8  -1   6   -4.04    7.56
   8  -1  -6    7.85    7.63
  -8  -1   6   12.39    5.83
  -8   1   6   -1.48    5.47
   8  -1  -6    7.09    4.88
   7   1  -6   85.90   12.01
   7  -1  -6   87.80   12.19
  -7  -1   6   78.39   11.46
  -7   1   6  105.04   11.13
   7  -1  -6  100.57   11.60
  -7   1   6  113.51   15.09
  -7  -1   6   92.63   13.57
   6   1  -6  302.70   20.38
   6  -1  -6  313.51   21.40
  -6  -1   6  320.51   20.49
  -6   1   6  286.89   16.97
   6  -1  -6  318.34   19.42
  -6   1   6  303.86   22.94
  -6  -1   6  288.60   20.85
   5   1  -6  198.76   15.87
   5  -1  -6  199.77   16.79
  -5  -1   6  187.05   15.95
  -5   1   6  214.31   14.75
   5  -1  -6  199.05   16.25
  -5   1   6  208.76   19.09
  -5  -1   6  192.27   17.52
  -4  -1   6  141.69   14.54
   4   1  -6  153.55   13.55
   4  -1  -6  154.44   13.99
  -4   1   6  123.09   12.04
   4  -1  -6  141.78   13.77
  -4   1   6  168.65   16.39
   3   1  -6    8.91    6.54
   3  -1  -6    2.05    5.37
  -3   1   6   -0.84    7.85
  -3   1   6    6.63    6.04
   3   1  -6   10.34    6.89
  -3  -1   6    2.06    6.50
   3  -1  -6    9.95    6.56
  -2   1   6  550.62   28.09
  -2  -1   6  578.81   28.96
   2   1  -6  522.34   22.30
   2  -1  -6  515.42   23.11
   2   1  -6  543.87   27.14
  -2   1   6  494.45   21.64
   2  -1  -6  526.71   25.14
  -2  -1   6  530.86   11.25
  -1  -1   6   15.53    7.27
   1   1  -6   11.10    5.17
   1  -1  -6    9.42    5.25
  -1   1   6    4.34    6.02
   1   1  -6   13.50    7.05
  -1   1   6   -8.69    8.37
  -1  -1   6    5.57    2.75
   1  -1  -6   13.29    5.76
   0   1  -6  878.80   25.85
   0   1   6  881.48   34.31
   0  -1  -6  803.90   26.77
   0  -1   6  881.57   34.69
   0   1  -6  846.88   33.49
   0   1   6  802.22   26.83
   0  -1  -6  789.71   30.76
   0  -1   6  869.43   18.14
  -1   1  -6   44.74    6.84
   1   1   6   44.56   10.05
   1  -1   6   52.79   10.98
  -1  -1  -6   26.03    5.84
   1  -1   6   43.92    5.35
   1   1   6   34.22    7.91
  -1   1  -6   42.92   10.03
  -1  -1  -6   33.97    7.72
   2   1   6   -2.90    6.74
  -2   1  -6   -2.26    3.73
  -2  -1  -6    5.35    5.15
   2  -1   6    0.22    6.33
   2   1   6    2.28    5.67
  -2   1  -6    6.19    6.52
   2  -1   6    4.23    3.66
  -2  -1  -6   -2.28    6.74
  -3  -1  -6   17.09    7.94
  -3   1  -6    2.74    3.16
  -3  -1  -6    2.23    3.86
   3   1   6   -0.99    5.90
   3  -1   6   -4.49    6.86
   3   1   6   -0.70    5.94
  -3   1  -6    6.91    6.54
   3  -1   6    4.30    3.98
   4  -1   6   27.59    8.43
  -4  -1  -6   36.83    9.11
  -4  -1  -6   30.91    5.55
   4   1   6   29.05    8.71
   4   1   6   30.67    8.25
  -4   1  -6   13.21    5.69
   4  -1   6   23.58    6.10
   5   1   6  102.36   13.19
   5  -1   6  106.17   13.74
  -5   1  -6  117.85   13.13
   5   1   6  124.77   14.02
  -5  -1  -6  120.16   14.40
   5  -1   6  109.09   10.55
   6  -1   6  167.66   17.08
  -6   1  -6  204.02   17.30
   6   1   6  203.72   17.11
   6   1   6  200.96   18.14
  -6  -1  -6  195.82   17.70
   6  -1   6  199.18   14.96
   7   1   6  267.92   20.41
  -7   1  -6  244.94   19.23
  -7  -1  -6  283.21   22.28
   7  -1   6  284.54   19.07
   7   1   6  265.64   21.21
   7  -1   6  216.67   19.81
  -8   1  -6   23.20    8.55
  -8  -1  -6    6.71    6.54
   8   1   6   -2.35    7.94
   8  -1   6   19.90    9.83
   8   1   6    7.33    6.29
   8  -1   6    3.61    5.49
  -9   1  -6    6.44    6.79
  -9  -1  -6    3.79    6.63
   9  -1   6    9.82    8.42
   9   1   6    0.34    6.91
   9   1   6    3.05    6.12
   9  -1   6    5.44    6.33
 -10   1  -6   -5.71    7.52
 -10  -1  -6    0.32    6.91
  10  -1   6    0.84    6.58
  10   1   6   -6.50    6.67
  10  -1   6    7.70    7.12
 -11   1  -6   26.63    9.64
 -11  -1  -6   34.18   12.28
  11   1   6   32.05    9.53
  11  -1   6   23.63    8.33
 -12   1  -6    1.30    8.11
 -12   1  -6   -9.97    8.03
 -12  -1  -6    0.61    8.65
  12   1   6   -0.64    7.44
  12  -1   6    0.20    7.22
 -12  -1  -6  -10.10    7.70
 -13   1  -6   12.74   12.31
 -13  -1  -6    5.06    8.43
 -13   1  -6  -12.93   10.16
 -13  -1  -6    4.66   10.64
  13   1   6   -9.00    9.69
  13  -1   6    9.24    9.99
 -14   1  -6    0.59    9.43
 -14  -1  -6   -4.69    9.09
 -14  -1  -6   -5.16    9.44
  14   1   6    7.40   10.10
  14  -1   6    0.07    8.89
 -15  -1  -6    2.56   11.17
 -15  -1  -6    7.21   10.88
  15  -1   6    9.75   10.32
  16  -2  -6    4.38    9.61
 -16  -2   6  -11.68   14.40
 -15   2   6   -2.07   11.26
 -15  -2   6    1.27   11.69
  15   2  -6    2.90    7.86
  15  -2  -6    0.31    8.54
 -15  -2   6   -3.34    8.17
 -14   2   6   -1.79   10.69
 -14  -2   6    7.94   11.79
  14   2  -6    7.07    7.57
  14  -2  -6    5.78    7.97
 -14  -2   6    4.15    7.60
 -13   2   6    6.07    9.45
 -13  -2   6    6.81   10.54
  13   2  -6   41.23   12.37
  13  -2  -6   12.30    9.29
 -13  -2   6    6.30    8.69
 -13   2   6   29.31   11.35
 -12   2   6   29.93   11.90
 -12  -2   6    3.71    9.58
  12   2  -6    7.14    7.04
  12  -2  -6    6.60    7.84
 -12  -2   6   20.26    8.77
 -12   2   6    4.91    8.02
  11   2  -6  232.86   22.46
 -11  -2   6  251.78   21.55
  11  -2  -6  247.03   22.78
 -11   2   6  239.19   21.18
 -11   2   6  298.28   26.10
 -11  -2   6  297.71   26.24
 -10   2   6   24.97   10.79
  10   2  -6    5.58    7.28
 -10  -2   6   13.38    9.68
  10  -2  -6   19.16    7.73
 -10  -2   6   39.60   11.03
 -10   2   6   26.89    8.99
  -9   2   6    4.00    9.19
   9   2  -6   11.15    6.82
   9  -2  -6   -9.59    7.74
  -9  -2   6    4.78    8.19
  -9  -2   6    8.89    7.37
  -9   2   6   -0.23    7.40
  -8   2   6   24.00    9.85
   8   2  -6   25.66    9.32
   8  -2  -6   14.68    7.83
  -8  -2   6   10.86    8.26
  -8  -2   6   13.15    7.14
  -8   2   6   28.44    9.80
   7   2  -6   20.52    8.96
  -7   2   6    2.70    8.18
   7  -2  -6   -2.29    6.03
  -7  -2   6   -2.80    6.90
  -7  -2   6    9.89    6.74
  -7   2   6    3.85    6.07
   7  -2  -6   -3.23    4.57
   6   2  -6  176.08   16.47
  -6  -2   6  166.31   17.41
   6  -2  -6  150.87   15.59
  -6   2   6  142.56   14.28
   6  -2  -6  144.51   12.45
  -6   2   6  151.15   16.78
  -6  -2   6  153.93   16.06
  -5  -2   6 1189.88   40.48
   5   2  -6 1232.64   39.60
   5  -2  -6 1213.07   41.19
  -5  -2   6 1318.78   42.89
  -5   2   6 1244.04   38.28
   5  -2  -6 1191.75   34.33
  -5   2   6 1347.86   44.42
  -4  -2   6 2140.35   53.08
   4   2  -6 2216.41   51.22
   4  -2  -6 2178.93   53.62
  -4  -2   6 2263.99   55.36
  -4   2   6 2157.14   49.89
   4  -2  -6 2049.74   47.21
  -4   2   6 2309.02   57.48
   3   2  -6   58.27    8.54
   3  -2  -6   52.52    9.49
  -3  -2   6   61.31   10.49
  -3   2   6   52.03   10.05
  -3  -2   6   66.63   12.03
   3  -2  -6   55.12    9.24
  -3   2   6   77.29   12.81
   2   2  -6  212.82   15.24
  -2  -2   6  238.27   18.74
   2  -2  -6  195.67   15.83
  -2   2   6  190.64   15.99
   2  -2  -6  211.72   16.10
   1  -2  -6   -7.37    6.03
  -1  -2   6   -0.43    7.16
   1   2  -6    3.34    4.82
   1  -2  -6   -6.55    5.90
   1   2  -6    6.37    6.50
  -1   2   6    1.29    6.81
  -1   2   6  -13.23    8.10
   0  -2  -6    8.39    6.85
   0   2   6    5.08    6.62
   0   2  -6    1.33    4.42
   0  -2   6   11.21    6.69
   0  -2  -6   -5.01    5.35
   0   2  -6    1.00    6.78
   0   2   6   -5.75    7.71
  -1  -2  -6    0.30    5.41
   1   2   6   -3.75    7.26
  -1   2  -6    7.39    4.80
  -1  -2  -6    3.66    4.88
   1  -2   6   -5.02    6.94
  -1   2  -6   -4.38    6.26
   1   2   6   -1.29    7.44
  -2   2  -6  548.13   18.84
  -2  -2  -6  508.05   22.26
   2   2   6  528.09   26.30
   2  -2   6  510.63   27.27
  -2   2  -6  551.84   27.97
   2   2   6  482.34   25.29
  -2  -2  -6  490.51   26.03
   2  -2   6  546.83   16.51
  -3  -2  -6    6.32    6.33
  -3   2  -6   10.51    4.17
  -3  -2  -6    7.16    5.40
   3   2   6    5.47    5.99
   3   2   6    2.85    6.90
  -3   2  -6    4.35    6.17
   3  -2   6    0.33    5.94
   3  -2   6   14.32    5.08
  -4  -2  -6    8.41    6.25
   4  -2   6   21.70    7.74
  -4  -2  -6   17.28    5.53
   4   2   6    9.70    6.75
   4   2   6   26.59    9.15
  -4   2  -6   18.83    8.16
   4  -2   6   23.26    5.58
  -5  -2  -6   76.92    8.59
   5   2   6   88.22   12.10
  -5   2  -6   81.06   11.62
   5   2   6   90.58   12.91
   5  -2   6   77.30   12.28
  -5  -2  -6  104.13   14.20
   5  -2   6   87.23    9.48
  -6  -2  -6   28.67    9.19
   6   2   6   36.21    8.82
   6  -2   6   39.91   10.24
   6   2   6   23.60    8.08
  -6   2  -6   30.73    8.21
   6  -2   6   34.39    7.64
  -7  -2  -6   43.97   10.43
   7  -2   6   42.22   10.52
   7  -2   6   57.62    9.51
   7   2   6   41.99    9.30
   7   2   6   50.05   11.44
  -7   2  -6   47.05    9.33
   8  -2   6   98.92   14.46
   8   2   6  112.86   15.69
  -8   2  -6   99.20   13.50
  -8  -2  -6   96.36   14.54
   8  -2   6   98.24   12.89
   8   2   6  115.18   14.55
   9   2   6  412.60   27.84
   9  -2   6  326.82   26.37
   9   2   6  376.28   27.25
  -9   2  -6  338.55   23.10
  -9  -2  -6  313.22   25.34
   9  -2   6  375.82   23.96
 -10   2  -6    8.88    6.61
 -10  -2  -6   12.81    9.98
  10   2   6   -6.58    6.47
  10   2   6    5.02    7.33
  10  -2   6    8.23    7.44
  10  -2   6    8.44    7.30
 -11   2  -6   28.18   10.22
 -11  -2  -6   17.95    9.38
  11   2   6   25.43    9.62
 -11  -2  -6    5.53    7.69
 -11   2  -6   33.84   11.22
  11  -2   6   17.73    8.28
 -12  -2  -6   11.92    8.89
 -12   2  -6   21.00   10.50
 -12   2  -6   -6.10    7.49
 -12  -2  -6   -8.23    9.53
  12   2   6    5.86    7.69
  12  -2   6   -1.37    7.30
 -13   2  -6   29.60   13.59
 -13  -2  -6   12.72    9.86
 -13  -2  -6   27.12   12.28
  13   2   6   30.19   12.73
  13  -2   6   -2.05    7.86
  14  -2   6   14.00    9.86
 -14  -2  -6   14.84   13.45
 -14  -2  -6   -4.68   10.87
  14   2   6   -7.84   10.31
 -15  -2  -6  215.81   26.26
 -15  -3   6   67.13   14.73
 -15   3   6   64.52   15.11
 -14   3   6  -36.09   16.18
  14   3  -6   -3.07    8.94
 -14  -3   6  -11.38   12.64
  14  -3  -6    7.55    9.89
 -14  -3   6  -15.90   10.56
 -14   3   6    5.75   10.60
 -13   3   6   12.78   10.60
  13   3  -6   33.41   11.87
 -13  -3   6   10.14   11.47
  13  -3  -6   20.90   10.13
 -13  -3   6    8.70    8.26
 -13   3   6   10.35    9.90
 -12   3   6   -8.52   10.73
  12   3  -6   -4.70    7.44
 -12  -3   6    8.36   10.46
  12  -3  -6   -0.75    8.66
 -12  -3   6    7.56    8.08
 -12   3   6    1.74    8.61
 -11   3   6   61.87   13.76
  11   3  -6   79.58   15.00
  11  -3  -6   49.34   12.40
 -11  -3   6   76.15   14.28
 -11  -3   6   59.49   12.51
 -11   3   6   40.53   11.77
 -10   3   6   11.23   10.72
  10   3  -6    5.69    7.13
  10  -3  -6    0.34    6.26
 -10  -3   6   -1.59    7.69
 -10  -3   6    9.70    7.44
 -10   3   6    7.64    7.84
   9   3  -6   83.84   14.34
  -9  -3   6   83.69   13.70
  -9   3   6   79.45   14.32
   9  -3  -6   76.13   12.95
  -9   3   6   84.67   14.07
  -9  -3   6   86.25   14.17
   8   3  -6   37.34   10.20
  -8   3   6   27.76    9.73
   8  -3  -6   31.31    9.57
  -8  -3   6   25.40    8.09
  -8  -3   6   20.37    9.74
  -8   3   6   19.25    8.87
   7   3  -6   10.18    8.05
  -7   3   6   13.88    8.54
   7  -3  -6   19.14    8.36
  -7  -3   6    9.70    8.18
  -7  -3   6    1.20    7.32
  -7   3   6   -0.72    6.92
   6   3  -6   -4.31    6.49
  -6   3   6   -4.33    8.33
   6  -3  -6    7.23    7.99
  -6  -3   6   -2.66    6.04
  -6   3   6    2.69    6.85
  -6  -3   6    8.29    7.17
  -5  -3   6  272.80   20.08
   5   3  -6  273.08   19.82
  -5  -3   6  312.88   22.89
   5  -3  -6  266.75   21.24
  -5   3   6  285.92   20.95
   5  -3  -6  267.78   16.10
  -5   3   6  281.88   21.25
   4   3  -6 1215.88   39.90
  -4  -3   6 1299.67   43.12
  -4  -3   6 1222.05   44.83
   4  -3  -6 1248.75   43.57
  -4   3   6 1195.04   42.11
   4  -3  -6 1190.81   34.40
  -4   3   6 1277.46   42.69
   3   3  -6  224.13   16.77
  -3  -3   6  240.74   18.61
  -3  -3   6  266.52   21.02
   3  -3  -6  263.81   20.11
  -3   3   6  195.56   19.14
   3  -3  -6  211.31   15.24
  -3   3   6  234.70   19.36
  -2   3   6 2574.53   58.16
   2   3  -6 2533.67   53.10
  -2  -3   6 2583.10   62.63
   2  -3  -6 2529.73   59.26
  -2  -3   6 2667.48   60.87
  -2   3   6 2481.08   60.72
   2  -3  -6 2408.28   51.68
  -1   3   6   94.46   13.70
   1   3  -6   57.65    8.91
  -1  -3   6   81.15   12.28
   1  -3  -6   53.11   10.71
  -1  -3   6   74.41   11.83
  -1   3   6   93.68   14.90
   1  -3  -6   71.11   10.95
   0   3  -6  241.86   15.67
   0   3   6  233.44   18.20
   0  -3  -6  223.06   17.91
   0  -3   6  242.44   19.09
   0   3  -6  260.90   20.74
   0   3   6  251.08   21.57
   0  -3  -6  229.59   17.80
  -1  -3  -6   -2.70    5.59
   1   3   6    2.66    7.12
  -1   3  -6    4.78    5.06
  -1  -3  -6  -14.25    7.18
   1  -3   6   -3.94    6.63
  -1   3  -6    7.11    7.01
   1   3   6    4.30    7.87
  -2   3  -6  325.44   16.37
  -2  -3  -6  272.54   18.67
   2   3   6  310.05   20.12
   2  -3   6  283.42   20.96
  -2   3  -6  285.18   21.36
   2   3   6  261.47   20.65
  -2  -3  -6  272.85   20.44
  -3  -3  -6   49.72   10.44
   3  -3   6   43.03    9.84
  -3  -3  -6   59.81    9.90
   3   3   6   49.59    9.64
  -3   3  -6   63.02   11.08
   3   3   6   63.93   12.33
  -4  -3  -6  423.72   23.10
   4   3   6  446.80   24.33
  -4   3  -6  494.15   27.48
   4   3   6  439.50   27.26
   4  -3   6  486.76   28.11
  -4  -3  -6  422.54   26.68
   5   3   6  299.59   20.41
  -5   3  -6  273.40   20.52
   5   3   6  268.85   21.99
  -5  -3  -6  237.01   21.02
   5  -3   6  261.00   22.20
  -6  -3  -6   41.64   11.65
   6  -3   6   41.04   10.43
  -6  -3  -6   50.44    8.53
   6   3   6   47.20    9.66
   6   3   6   54.81   12.52
  -6   3  -6   39.89    8.90
   7  -3   6   14.23    5.86
   7   3   6    7.18    6.91
  -7  -3  -6    9.23    7.71
   7  -3   6   16.50    8.11
   7   3   6    4.67    7.76
  -7   3  -6   15.96    6.77
   8  -3   6   55.76   10.24
   8   3   6   71.90   12.75
  -8  -3  -6   39.47   12.15
   8  -3   6   54.05   12.46
  -8   3  -6   64.99   11.05
   8   3   6   39.81   10.17
   9  -3   6  234.53   23.25
   9   3   6  270.13   24.24
  -9   3  -6  242.11   19.55
  -9  -3  -6  222.16   23.07
   9  -3   6  278.79   21.21
  10  -3   6   13.42    7.22
 -10   3  -6   16.69    8.05
 -10  -3  -6    7.95    9.61
  10   3   6   14.14    9.79
 -10   3  -6   16.47    9.50
 -11  -3  -6  212.87   22.00
 -11   3  -6  231.11   24.18
  11   3   6  240.22   24.54
 -11  -3  -6  270.72   27.62
  11  -3   6  233.27   21.83
  12  -3   6   -0.36    8.51
 -12   3  -6    7.58   10.03
 -12  -3  -6   17.54   11.30
  12   3   6    9.50   10.29
  13  -3   6    1.31    9.11
 -13   3  -6    6.95    9.49
 -13  -3  -6    0.31   10.67
  13   3   6   -4.79    9.91
  14  -3   6    4.41   11.21
 -13   4   6    7.41   11.25
  13   4  -6  -16.50   11.42
  13  -4  -6   15.79   11.06
 -13  -4   6   12.36    9.57
 -13   4   6   -0.42   10.91
 -12   4   6  -15.59   12.30
  12   4  -6    9.28    8.93
  12  -4  -6   -3.42    8.84
 -12  -4   6   -6.21    9.22
 -12   4   6   20.24   12.05
 -11   4   6    9.73    9.90
  11   4  -6   10.28    8.86
  11  -4  -6   17.24   10.30
 -11  -4   6   -0.13    8.96
 -11   4   6    0.22    9.53
 -10   4   6   12.49    9.61
  10   4  -6    2.83    7.77
  10  -4  -6   -1.08    8.24
 -10  -4   6   15.24    8.51
 -10   4   6    5.28    8.18
   9   4  -6   11.49    8.35
  -9   4   6   -7.70    9.89
   9  -4  -6   29.45   10.83
  -9  -4   6   21.60    8.88
  -9   4   6    6.36    9.00
   8   4  -6   82.25   14.81
  -8   4   6   78.68   13.80
   8  -4  -6   71.43   13.62
  -8  -4   6   52.88   12.39
  -8   4   6   41.59   11.45
  -8  -4   6   59.21   11.70
   7   4  -6   -2.54    6.87
  -7   4   6    4.93    7.87
   7  -4  -6   14.12    8.41
  -7  -4   6   13.85    8.46
  -7   4   6   29.29   10.91
  -7  -4   6    9.74    8.21
   6   4  -6    3.86    6.38
  -6   4   6   -0.61    8.10
   6  -4  -6    8.81    7.34
  -6  -4   6    7.26    7.58
  -6   4   6    5.02    8.35
  -6  -4   6   19.54    9.19
  -5  -4   6   -4.30    6.85
   5   4  -6    9.51    8.58
   5  -4  -6    2.87    7.12
  -5   4   6   16.83    9.38
  -5  -4   6   11.65    8.09
  -5   4   6   16.98    9.52
   4   4  -6   53.14   11.46
  -4  -4   6   70.51   11.85
   4  -4  -6   25.58    8.11
  -4  -4   6   41.52   10.92
  -4   4   6   35.34    9.23
  -4   4   6   47.53   11.58
  -3   4   6  109.51   14.12
   3   4  -6   77.96   11.82
  -3  -4   6  100.42   15.43
   3  -4  -6   96.12   14.63
  -3  -4   6   96.20   13.05
   3  -4  -6  104.00   11.69
  -3   4   6   94.28   15.55
  -2   4   6 1575.70   47.44
   2   4  -6 1523.72   44.14
  -2  -4   6 1691.28   54.17
   2  -4  -6 1522.03   50.68
  -2  -4   6 1691.01   48.87
  -2   4   6 1488.63   52.88
   2  -4  -6 1430.49   40.97
  -1   4   6   55.16   10.83
   1  -4  -6   32.72    8.36
   1   4  -6   28.69    7.77
   1  -4  -6   29.88    9.01
  -1  -4   6   32.95    9.68
  -1  -4   6   44.98   10.09
  -1   4   6   58.25   13.39
   0  -4  -6    5.73    5.99
   0   4   6    0.55    6.87
   0   4  -6   -3.67    5.39
   0  -4  -6   10.71    7.47
   0  -4   6    9.75    7.88
   0  -4   6   -1.09    6.40
   1  -4   6   -4.10    5.84
  -1  -4  -6   20.21    8.03
  -1   4  -6    8.44    5.34
   1   4   6   -1.15    6.42
  -1  -4  -6    8.43    6.88
  -1   4  -6    7.19    6.99
   1   4   6   12.45    9.41
  -2  -4  -6   55.53   10.66
   2  -4   6   61.68   11.19
  -2  -4  -6   63.77   11.15
   2   4   6   66.23   10.10
  -2   4  -6   59.21   11.19
   2   4   6   73.55   13.85
  -3  -4  -6    8.64    8.96
   3  -4   6    1.42    5.87
  -3  -4  -6   -2.77    5.88
  -3   4  -6    0.59    6.38
   3   4   6   10.52    7.63
   3   4   6   -5.09    8.85
  -4  -4  -6  285.64   20.99
  -4   4  -6  317.45   23.15
   4   4   6  332.81   26.24
  -4  -4  -6  331.47   25.70
   4  -4   6  291.36   22.76
  -5  -4  -6  107.13   13.52
  -5   4  -6  130.20   15.39
   5   4   6  125.84   17.42
  -5  -4  -6  136.43   17.17
   5  -4   6  127.23   16.24
   6  -4   6  -11.08    8.77
  -6  -4  -6  -12.06   10.33
  -6  -4  -6    0.86    6.20
   6   4   6   12.72   10.00
  -6   4  -6   12.17    6.66
   7  -4   6   32.74   10.09
  -7  -4  -6   40.86   12.63
   7   4   6   18.34    8.26
  -7   4  -6   32.71    8.85
  -8  -4  -6   21.66   11.97
   8   4   6   18.50   11.62
  -8   4  -6   10.26    7.29
   8  -4   6   -0.47    7.47
  -9  -4  -6   22.31   11.85
   9   4   6    6.44    9.22
  -9   4  -6   16.83    9.91
 -10   4  -6   -3.03    8.65
 -10  -4  -6  -12.30   11.47
  10   4   6   -4.46    8.92
 -11   4  -6    8.75    9.68
 -11  -4  -6   -3.27    9.68
  11   4   6   25.50   13.82
 -12   4  -6   19.36   11.13
 -12   5   6   11.07   11.06
 -11   5   6   11.08   11.78
  11   5  -6   15.65    9.83
  11  -5  -6   13.16   10.63
 -11  -5   6   29.19   11.16
 -11   5   6    3.62   10.12
  10   5  -6   23.65   12.04
 -10   5   6    9.46   11.18
  10  -5  -6   16.36   10.64
 -10  -5   6   14.94    8.93
 -10   5   6   17.25   13.37
   9   5  -6   61.51   13.15
  -9   5   6   68.36   13.88
   9  -5  -6   65.02   14.40
  -9  -5   6   60.96   14.43
  -9   5   6   65.95   15.63
   8   5  -6    9.90    7.93
  -8   5   6   15.37    9.67
   8  -5  -6   18.38    9.35
  -8  -5   6   30.72   10.57
  -8   5   6   15.97   11.51
   7   5  -6   26.65   11.16
   7  -5  -6   18.79    9.95
  -7  -5   6   21.05    8.72
  -7   5   6   23.86   10.50
   6   5  -6   -6.39    7.88
   6  -5  -6    0.88    8.84
  -6  -5   6   -1.60    8.28
  -6   5   6    8.57   11.47
   5   5  -6   13.61    7.45
   5  -5  -6   34.49   11.65
  -5  -5   6   15.69    9.02
  -5   5   6   26.72   11.22
   4   5  -6  159.93   17.27
  -4  -5   6  198.95   21.41
   4  -5  -6  199.00   22.41
  -4   5   6  162.73   21.12
   3   5  -6   62.16   11.68
   3  -5  -6   76.75   15.40
  -3  -5   6   65.68   13.55
  -3   5   6   37.68   12.20
   2   5  -6  197.30   17.93
  -2  -5   6  226.36   22.12
   2  -5  -6  197.46   21.33
  -2   5   6  179.56   21.21
   1  -5  -6    8.00    6.99
   1   5  -6    2.84    6.11
   1  -5  -6    9.89    8.75
  -1  -5   6    8.22    8.05
  -1   5   6   14.42   11.30
   0  -5  -6   29.03    9.40
   0   5  -6   26.93    8.65
   0  -5  -6   33.57   10.98
   0  -5   6   28.00   10.91
   0   5   6   54.79   15.95
  -1  -5  -6    1.79    7.25
  -1   5  -6   -4.82    6.10
  -1  -5  -6   -2.74    9.19
  -1   5  -6   11.76    8.73
   1   5   6   20.56   12.69
  -2  -5  -6    1.94    7.28
  -2  -5  -6   -2.34    8.09
  -2   5  -6   -1.71    8.07
   2   5   6  -27.10   13.37
   2  -5   6   -2.37    5.57
  -3  -5  -6   20.84    8.25
   3  -5   6   24.80    7.60
  -3  -5  -6   10.15    7.94
  -3   5  -6   25.18    9.79
   3   5   6   36.62   12.89
   4  -5   6  455.17   27.57
  -4  -5  -6  480.24   30.99
  -4   5  -6  576.75   32.56
   4   5   6  540.36   36.23
  -4  -5  -6  444.37   31.29
   5  -5   6   86.96   13.90
  -5  -5  -6   92.42   16.14
  -5  -5  -6   99.36   14.88
  -5   5  -6  127.27   16.83
   5   5   6  108.28   18.26
  -6  -5  -6   57.72   14.19
   6  -5   6   55.81   12.06
  -6  -5  -6   64.65   13.40
   6   5   6   98.08   17.23
  -7  -5  -6    4.83    9.82
   7   5   6   -6.84   10.34
  -7   5  -6   10.96    8.94
  -8   5  -6   12.50    9.66
  -8  -5  -6   35.30   13.75
   8   5   6    7.89    9.58
  -9   5  -6  144.27   19.21
   9   5   6  189.46   23.42
  -9  -5  -6  216.07   26.85
 -10   5  -6   41.21   14.05
 -11   5  -6   14.08   10.54
   8   6  -6   -6.59    8.80
  -8   6   6   20.20   12.69
   7   6  -6    6.61    8.44
   7  -6  -6   -8.75   11.48
  -7  -6   6   12.46   10.35
  -7   6   6   -0.30   10.40
   6   6  -6   20.49   12.11
   6  -6  -6  -16.53   14.43
  -6  -6   6   -4.17    9.10
  -6   6   6   -5.76   10.09
   5   6  -6   23.39   10.37
   5  -6  -6   15.20   12.67
  -5  -6   6   17.42   10.77
  -5   6   6   56.02   16.86
   4   6  -6  194.80   21.11
  -4  -6   6  187.24   22.96
   4  -6  -6  193.80   24.34
  -4   6   6  198.58   24.98
   3   6  -6   32.18   11.07
   3  -6  -6   38.93   12.29
  -3  -6   6   33.62   12.75
  -3   6   6   38.98   14.53
   2   6  -6  -16.81    9.79
   2  -6  -6    2.24    8.88
  -2  -6   6    1.35    7.90
  -2   6   6   -4.40   11.56
   1   6  -6   -3.92    8.12
   1  -6  -6   14.32    9.80
  -1  -6   6    8.99    9.58
  -1   6   6    2.70   11.52
   0   6  -6   21.69    9.64
   0  -6  -6   22.58   10.96
   0  -6   6   24.64    9.54
   0   6   6    6.37   11.33
  -1  -6  -6   14.32   10.01
   1   6   6    9.81   11.51
  -2  -6  -6   98.65   18.02
  -2   6  -6   89.49   16.43
  -2  -6  -6   90.69   16.17
   2   6   6  116.41   21.34
  -3  -6  -6   59.89   14.53
  -3  -6  -6   64.81   15.42
  -3   6  -6   42.01   12.92
   3   6   6   29.22   13.27
  -4  -6  -6  208.91   23.67
   4   6   6  238.19   28.07
  -4  -6  -6  227.55   24.28
  -5  -6  -6   13.42   10.46
  -5  -6  -6   19.02   11.13
   5   6   6   37.24   16.73
  -6  -6  -6   26.00   12.22
  -6  -6  -6   21.60   11.33
   6   6   6   10.58   12.25
  -7  -6  -6   39.42   14.45
   4   7  -6  -14.47   12.01
   3   7  -6   10.75   12.08
  -3  -7   6   16.34   11.48
   2   7  -6    3.02    8.90
  -2  -7   6  -13.25   11.88
  -1  -7   6   -0.31   10.21
   0  -7   6   14.08   11.91
 -15   0   7   26.03   12.85
  15   0  -7   -6.76    8.80
 -14   0   7  -10.18   11.05
  14   0  -7   11.74   10.35
 -13   0   7   10.77   11.85
  13   0  -7   10.96   10.05
 -12   0   7   -5.00   10.43
  12   0  -7   -1.34    8.62
 -11   0   7   14.99   11.82
  11   0  -7    5.04    7.85
  11   0  -7    2.59    6.83
 -10   0   7   12.98    9.88
  10   0  -7    3.79    7.08
  10   0  -7    3.09    6.92
   9   0  -7    1.45    8.20
  -9   0   7   -8.13    9.98
   9   0  -7   -0.37    5.78
   8   0  -7    4.74    6.52
  -8   0   7  -13.30    9.77
   8   0  -7   -2.36    6.02
   7   0  -7   -8.58    6.65
  -7   0   7  -12.31    9.90
   7   0  -7   11.20    6.55
   6   0  -7    3.41    6.33
  -6   0   7   -2.06    7.62
   6   0  -7    7.77    6.79
   5   0  -7  -10.71    7.74
  -5   0   7   15.12    9.30
   5   0  -7   11.25    7.29
   4   0  -7    2.34    5.16
   4   0  -7   10.57    6.98
   3   0  -7    2.85    5.65
  -3   0   7   -1.62    7.77
   3   0  -7   -2.81    6.54
   2   0  -7   15.49    7.00
  -2   0   7    3.34    4.56
   2   0  -7   -5.46    6.00
  -2   0   7    9.89    8.81
  -1   0   7   -8.65    8.69
   1   0  -7    2.54    4.64
  -1   0   7   -2.98    4.75
   1   0  -7    0.98    6.59
   0   0   7   -4.35    8.42
   0   0  -7   -3.31    5.16
   0   0   7    5.62    5.12
   0   0  -7    6.40    6.85
   1   0   7    6.59    7.95
  -1   0  -7   -1.00    4.19
   1   0   7    1.55    4.60
  -1   0  -7   -3.31    5.60
  -2   0  -7   -1.34    3.87
   2   0   7    7.04    7.31
   2   0   7    2.72    5.41
  -2   0  -7   -1.67    6.24
   3   0   7   12.10    8.66
   3   0   7   -2.34    4.96
  -3   0  -7    5.36    5.77
   4   0   7   -8.79    7.70
   4   0   7   -5.60    5.98
  -4   0  -7    4.18    8.24
  -5   0  -7   -1.21    6.04
   5   0   7    1.52    5.47
   5   0   7   -2.72    6.56
  -6   0  -7    5.33    7.15
   6   0   7    9.82    7.70
   6   0   7   -2.74    6.47
  -7   0  -7   11.69    8.59
   7   0   7   -2.18    7.13
   7   0   7    2.96    5.93
  -8   0  -7   -0.26    7.04
   8   0   7    4.31    7.28
   8   0   7   -2.64    5.94
  -9   0  -7    8.28    7.77
   9   0   7   -5.60    8.24
   9   0   7   14.22    8.29
 -10   0  -7    6.45    7.65
  10   0   7    0.93    8.19
  10   0   7   -0.25    7.70
 -11   0  -7  -11.21    9.06
  11   0   7   -3.77    8.69
  11   0   7   -0.02    9.45
 -12   0  -7   13.05   11.37
  12   0   7  -13.98   10.25
 -12   0  -7   -1.73    8.65
 -13   0  -7  -12.29   11.59
 -13   0  -7    0.21    9.79
  13   0   7   -3.80    9.09
 -14   0  -7    1.77    9.54
  14   0   7   11.31   11.76
 -15  -1   7    2.56   12.96
  14   1  -7  371.90   31.40
  14  -1  -7  345.78   30.04
 -14   1   7  347.16   31.31
 -14  -1   7  302.87   30.03
 -13  -1   7   91.21   15.07
 -13   1   7   79.35   17.60
  13   1  -7   82.72   15.25
  13  -1  -7   75.75   15.43
 -13  -1   7  113.29   20.05
 -12   1   7   20.95   11.62
 -12  -1   7   -5.36    9.40
  12   1  -7   -0.32    7.72
  12  -1  -7   18.38   10.42
 -12  -1   7    4.11    7.50
 -11   1   7   20.82   11.99
  11   1  -7   34.41   11.75
 -11  -1   7   -1.11    9.20
  11  -1  -7   13.04    9.09
 -11  -1   7   17.93    8.42
 -10   1   7   -1.32    9.22
  10   1  -7   16.36    9.23
  10  -1  -7   -5.18    7.94
 -10  -1   7   10.68    9.32
 -10  -1   7    8.25    6.83
   9   1  -7   20.95    7.97
  -9   1   7   25.56   12.47
   9  -1  -7    9.62    7.22
  -9  -1   7   20.28   10.99
  -9  -1   7   22.12    7.57
   9  -1  -7   29.77    8.33
   8   1  -7   64.58   11.92
  -8  -1   7   70.59   12.56
   8  -1  -7   66.56   11.85
  -8   1   7   78.34   15.01
  -8  -1   7   69.63   13.03
   8  -1  -7   83.86   11.82
  -8   1   7   66.05    9.93
   7   1  -7  327.64   23.19
   7  -1  -7  354.88   24.41
  -7  -1   7  334.61   22.82
  -7   1   7  305.68   19.16
   7  -1  -7  314.39   21.49
  -7   1   7  338.70   25.71
  -7  -1   7  312.55   24.11
   6   1  -7   12.11    6.68
   6  -1  -7   -8.54    6.27
  -6   1   7   14.54    9.01
  -6  -1   7   -7.40    8.88
  -6   1   7    9.13    6.60
   6   1  -7   -4.49    7.28
   6  -1  -7    4.01    6.47
   5   1  -7    7.32    5.43
   5  -1  -7   14.97    7.05
  -5   1   7   15.08    9.31
  -5  -1   7   33.30   10.19
  -5   1   7   26.26    7.19
   5   1  -7   31.17    9.38
   5  -1  -7   13.49    7.09
   4   1  -7   -7.90    6.26
   4  -1  -7   -1.52    5.09
  -4   1   7    2.31    8.33
  -4   1   7   -7.57    6.63
   4   1  -7    3.32    7.07
  -4  -1   7   16.36    8.72
   4  -1  -7    5.78    5.76
   3   1  -7    4.52    5.66
   3  -1  -7    6.79    6.26
  -3   1   7   -3.48    8.53
  -3   1   7    8.77    6.89
   3   1  -7   13.41    7.53
  -3  -1   7   11.02    9.25
   3  -1  -7    5.47    6.19
  -2  -1   7   -6.51    6.97
   2   1  -7   -2.05    5.32
   2  -1  -7    9.31    5.44
  -2   1   7   -9.72    6.75
   2   1  -7    7.19    6.12
  -2   1   7   -7.23    7.93
   2  -1  -7  -10.06    6.28
   1   1  -7  459.14   21.54
   1  -1  -7  421.34   21.76
  -1  -1   7  432.13   26.60
   1   1  -7  436.40   26.49
  -1   1   7  389.02   19.71
   1  -1  -7  392.58   23.61
   0   1  -7  290.31   16.42
   0  -1  -7  260.78   16.32
   0   1   7  255.59   21.23
   0  -1   7  287.92   22.37
   0   1  -7  290.15   21.85
   0   1   7  242.27   15.70
   0  -1  -7  235.17   18.97
  -1   1  -7   69.05    8.42
  -1  -1  -7   72.47    9.06
   1   1   7   68.14   12.31
   1  -1   7   48.58   10.93
   1   1   7   77.24   10.16
  -1   1  -7   71.96   11.89
  -1  -1  -7   58.48   10.45
  -2   1  -7   34.21    6.29
   2   1   7   18.19    7.38
  -2  -1  -7   19.15    5.39
   2  -1   7   17.21    8.60
   2   1   7   28.39    7.84
  -2   1  -7   14.95    6.45
  -2  -1  -7   31.44    8.99
  -3  -1  -7   49.44   10.59
  -3  -1  -7   58.51    7.86
   3   1   7   77.52   12.15
   3  -1   7   67.63    8.07
   3  -1   7   64.49   11.27
   3   1   7   60.72    9.79
  -3   1  -7   61.07   10.63
   4  -1   7    6.82    7.47
  -4  -1  -7    0.49    6.35
   4   1   7    9.61    7.80
   4   1   7    4.90    6.26
  -4   1  -7    5.75    6.72
   4  -1   7    3.26    4.44
   5   1   7  140.43   15.35
   5  -1   7  126.58   15.62
  -5   1  -7  156.26   16.55
   5   1   7  169.28   16.01
  -5  -1  -7  143.76   16.53
   5  -1   7  146.73   13.01
   6   1   7 1656.24   53.13
  -6   1  -7 1686.01   51.87
   6   1   7 1730.65   49.97
  -6  -1  -7 1648.53   53.95
   6  -1   7 1558.98   53.73
   6  -1   7 1692.19   44.14
  -7   1  -7    2.06    5.90
  -7  -1  -7   -4.01    6.69
   7   1   7   -0.23    6.73
   7  -1   7  -13.15    8.89
   7   1   7   -0.63    6.48
   7  -1   7   -0.58    5.54
  -8   1  -7    6.82    7.70
   8   1   7    3.52    6.10
  -8  -1  -7    4.50    7.61
   8  -1   7    5.49    7.57
   8   1   7    1.94    6.76
   8  -1   7   11.07    7.31
  -9   1  -7    4.09    6.72
  -9  -1  -7   10.30    8.46
   9   1   7   10.59    8.08
   9  -1   7    2.40    6.79
   9   1   7   -1.42    7.21
   9  -1   7    1.34    6.32
 -10   1  -7   15.54    8.07
 -10  -1  -7   15.71    7.73
  10   1   7   12.95    8.80
  10  -1   7    5.08    8.82
  10   1   7    2.37    7.43
  10  -1   7    9.42    7.25
 -11   1  -7    5.32    8.67
 -11  -1  -7    3.21    8.24
  11   1   7   -0.50    8.16
  11  -1   7   15.67    9.89
  11   1   7   17.39    9.23
  11  -1   7    7.62    7.90
 -12  -1  -7  152.26   20.99
 -12   1  -7  119.03   18.23
 -12   1  -7  161.84   19.68
  12   1   7  141.24   19.35
 -12  -1  -7  122.46   18.38
  12  -1   7  143.61   18.59
 -13  -1  -7   45.15   14.57
 -13   1  -7   25.39   10.90
 -13   1  -7   43.62   13.64
 -13  -1  -7   43.78   13.75
  13   1   7   64.59   15.74
  13  -1   7   31.30   12.18
  14  -1   7   -0.75    9.56
 -15  -2   7    7.51   12.82
 -14   2   7  -16.96   12.87
  14   2  -7    5.61    9.77
 -14  -2   7  -11.80   12.57
  14  -2  -7   14.44   10.10
 -14  -2   7   -7.13   10.07
 -13   2   7   22.19   13.44
  13   2  -7    9.31    9.11
 -13  -2   7   10.44   10.42
  13  -2  -7    5.70    8.76
 -13  -2   7   34.19   11.63
 -12   2   7   41.23   14.07
  12   2  -7   43.24   10.90
  12  -2  -7   35.62   11.03
 -12  -2   7   72.96   15.98
 -12  -2   7   42.02   12.41
 -12   2   7   42.32   11.97
 -11   2   7   35.95   14.22
  11   2  -7    9.78    9.00
  11  -2  -7   27.35    9.85
 -11  -2   7   24.99   13.68
 -11  -2   7    7.40    7.59
 -11   2   7   20.92   10.25
 -10   2   7   13.98   11.16
  10   2  -7   20.38    9.09
  10  -2  -7   19.73    9.57
 -10  -2   7   33.32   11.40
 -10  -2   7   53.30   12.54
 -10   2   7   22.50    8.54
   9   2  -7   38.33   10.79
  -9   2   7   10.65    8.72
   9  -2  -7   11.41    8.00
  -9  -2   7   10.63    8.55
  -9  -2   7   36.38   10.02
  -9   2   7   12.03    6.94
   8   2  -7   10.30    7.91
  -8   2   7   -7.30    8.74
   8  -2  -7  -13.96    8.23
  -8  -2   7    1.22    6.59
  -8  -2   7    5.10    8.47
  -8   2   7   -6.97    7.02
   7   2  -7   44.28   10.46
   7  -2  -7   44.28   10.44
  -7   2   7   49.20   12.67
  -7  -2   7   60.41   11.24
  -7  -2   7   60.99   12.73
  -7   2   7   67.82   11.10
   7  -2  -7   50.09    8.79
  -6  -2   7   79.33   12.55
   6   2  -7   57.95   10.78
   6  -2  -7   55.70   10.57
  -6   2   7   69.59   11.98
  -6  -2   7   64.34   11.86
  -6   2   7   80.80   15.10
   6  -2  -7   55.82    9.19
  -5  -2   7  719.79   34.06
   5   2  -7  678.19   30.89
   5  -2  -7  752.05   34.49
  -5  -2   7  760.17   35.46
  -5   2   7  694.79   30.35
   5  -2  -7  667.12   29.42
  -5   2   7  692.60   34.81
   4   2  -7    8.95    6.74
   4  -2  -7    7.27    6.79
  -4   2   7   -0.75    8.12
  -4   2   7   -7.07    7.26
  -4  -2   7    1.23    7.06
   4  -2  -7   -0.69    5.26
  -3   2   7  724.06   34.98
   3   2  -7  669.60   28.56
  -3  -2   7  642.01   32.67
   3  -2  -7  591.67   29.08
   3   2  -7  665.54   34.09
  -3   2   7  651.90   29.18
   3  -2  -7  599.23   28.49
  -2   2   7  119.68   15.95
   2   2  -7  114.66   12.14
   2  -2  -7  116.60   13.24
  -2  -2   7  119.77   15.03
   2   2  -7  139.62   16.01
  -2   2   7  114.71   13.58
   2  -2  -7  129.09   14.53
   1  -2  -7   30.83    8.87
  -1   2   7   32.91    9.36
  -1  -2   7   41.31   10.14
   1   2  -7   34.69    7.49
   1  -2  -7   14.88    5.66
   1   2  -7   53.49   11.44
  -1   2   7   39.14    9.56
   0  -2  -7   18.92    7.84
   0   2   7   19.41    8.19
   0   2  -7   11.16    5.25
   0  -2   7   -3.38    6.95
   0  -2  -7   11.36    5.31
   0   2   7   13.04    8.22
   0   2  -7   -0.12    7.00
  -1   2  -7  105.64   10.10
  -1  -2  -7  102.91   11.76
   1   2   7  108.10   14.46
   1  -2   7  111.38   15.14
  -1   2  -7  127.19   15.61
   1   2   7   88.16   12.65
  -1  -2  -7   93.39   13.21
  -2  -2  -7   95.74   10.40
   2   2   7  115.06   14.52
   2  -2   7  105.26   15.45
  -2   2  -7   92.98   13.50
   2   2   7  114.21   13.43
  -2  -2  -7  121.71   15.39
  -3  -2  -7   42.07    9.83
  -3  -2  -7   48.91    8.42
   3   2   7   54.26   10.57
   3   2   7   29.66    8.75
  -3   2  -7   57.94   11.88
   3  -2   7   42.93   10.04
  -4  -2  -7  106.11   10.88
   4   2   7  116.72   14.89
   4  -2   7  106.89   14.46
   4   2   7  106.39   13.66
  -4  -2  -7  125.01   15.62
  -5  -2  -7   12.29    8.64
   5   2   7    6.88    6.86
   5  -2   7    2.28    7.75
   5   2   7   -2.10    6.97
  -5   2  -7    2.52    6.47
  -6  -2  -7   18.13    9.44
   6   2   7    6.69    5.93
   6  -2   7   -6.09    6.88
   6   2   7   15.11    8.74
  -6   2  -7   -8.10    6.35
   7  -2   7   -1.30    6.99
  -7  -2  -7   -1.11    7.61
   7   2   7   -0.50    6.78
   7   2   7    8.51    7.56
  -7   2  -7    4.77    5.92
  -8  -2  -7   63.30   13.38
   8  -2   7   57.20   11.99
  -8   2  -7   76.44   13.01
   8   2   7   82.86   13.88
   8   2   7   34.95    9.37
  -9   2  -7    7.75    6.99
  -9  -2  -7   10.71    8.96
   9  -2   7   -0.56    7.12
   9   2   7   -0.22    6.97
   9   2   7   13.29    8.28
 -10   2  -7   72.92   13.08
 -10  -2  -7   84.03   16.31
  10  -2   7   56.93   13.68
  10   2   7   74.16   14.54
  10  -2   7   70.83   13.04
  10   2   7   71.27   13.24
  11   2   7   23.26   11.04
 -11   2  -7   16.38    8.88
 -11  -2  -7   33.00   12.65
  11   2   7   18.04   10.45
  11  -2   7    9.76    8.22
 -12   2  -7   16.59    9.95
 -12  -2  -7   11.73   10.74
  12   2   7  -11.66   10.70
 -12  -2  -7   23.39   12.16
 -12   2  -7   -0.96    8.83
  12  -2   7   11.95    9.52
  13  -2   7    3.81    8.87
 -13  -2  -7   20.09   11.02
 -14  -3   7   19.12   13.11
 -14  -3   7   30.95   12.38
 -14   3   7   21.19   13.19
 -13   3   7    8.39   13.70
  13   3  -7   -8.21    9.37
  13  -3  -7    9.05   12.07
 -13  -3   7    1.58   11.29
 -13  -3   7   12.66   11.76
 -13   3   7   19.93   12.18
  12   3  -7   10.17   10.77
  12  -3  -7   25.08   11.85
 -12  -3   7  -12.85   11.06
 -12  -3   7    7.97    8.79
 -12   3   7   18.56   11.29
 -11   3   7   11.35   10.33
  11   3  -7  -13.24    8.46
  11  -3  -7   10.66    9.32
 -11  -3   7   -4.73   10.05
 -11  -3   7    9.27    9.24
 -11   3   7    2.96    8.77
  10   3  -7   17.05    8.97
 -10   3   7   32.75   13.18
  10  -3  -7    9.99    7.50
 -10  -3   7   27.22    9.90
 -10  -3   7   17.41   10.38
 -10   3   7   11.83    8.71
   9   3  -7  122.17   16.88
  -9  -3   7  130.62   18.20
   9  -3  -7  112.96   17.20
  -9   3   7  100.86   16.51
  -9   3   7  113.31   15.57
  -9  -3   7  134.51   18.23
   8   3  -7    6.10    7.70
  -8   3   7   18.12   10.96
   8  -3  -7   -8.85    9.00
  -8  -3   7    8.36    9.06
  -8  -3   7    4.84    7.66
  -8   3   7   12.48    9.00
   7   3  -7   45.15   10.53
   7  -3  -7   52.89   11.95
  -7   3   7   51.29   11.87
  -7  -3   7   52.48   12.11
  -7   3   7   29.07    9.93
  -7  -3   7   60.59   12.94
   6   3  -7   58.00   11.51
   6  -3  -7   48.14   11.60
  -6   3   7   87.82   14.97
  -6  -3   7   71.72   13.01
  -6   3   7   62.49   12.05
  -6  -3   7   67.62   12.26
   5   3  -7  531.77   28.74
  -5  -3   7  614.94   32.42
   5  -3  -7  523.30   30.89
  -5  -3   7  583.79   32.81
  -5   3   7  565.86   30.99
   5  -3  -7  523.36   24.66
  -5   3   7  559.51   31.25
   4  -3  -7    0.40    5.56
  -4  -3   7   -2.91    6.91
   4   3  -7    1.66    6.00
   4  -3  -7   13.21    8.95
  -4  -3   7   12.00    6.98
  -4   3   7    9.24    9.60
  -4   3   7   15.61    9.49
  -3   3   7  723.18   34.94
   3   3  -7  825.87   33.28
   3  -3  -7  676.96   33.72
  -3  -3   7  791.72   37.89
  -3  -3   7  776.95   35.82
  -3   3   7  797.57   36.49
   3  -3  -7  669.88   29.48
  -2   3   7  404.32   26.56
   2   3  -7  392.88   23.16
   2  -3  -7  384.92   24.44
  -2  -3   7  383.05   25.72
   2   3  -7  395.22   27.66
  -2   3   7  337.38   24.99
   2  -3  -7  321.76   21.15
   1   3  -7  119.34   12.85
  -1   3   7  122.74   15.63
   1  -3  -7  114.09   14.00
  -1  -3   7  120.82   15.77
   1   3  -7  126.12   16.46
  -1   3   7  119.15   16.18
   1  -3  -7   87.12   12.63
   0  -3  -7   13.82    6.99
   0   3   7    0.72    6.79
   0   3  -7    4.00    5.16
   0  -3  -7    8.62    6.06
   0  -3   7   -0.91    7.22
   0   3  -7    5.64    7.27
   0   3   7   24.58    9.87
  -1  -3  -7  405.09   24.26
   1   3   7  413.54   25.97
   1  -3   7  351.09   25.14
  -1   3  -7  374.26   26.13
   1   3   7  358.81   25.27
  -1  -3  -7  328.43   23.61
  -2  -3  -7  138.13   14.48
   2   3   7  120.06   14.15
   2  -3   7  134.93   16.57
  -2   3  -7  143.26   17.41
   2   3   7  138.56   17.06
  -2  -3  -7  115.14   15.33
  -3  -3  -7    6.09    6.94
   3  -3   7   -5.07    6.46
  -3  -3  -7    6.77    5.84
   3   3   7   -4.12    6.69
   3   3   7  -10.49    8.88
  -3   3  -7   -1.57    6.55
  -4  -3  -7  116.76   13.02
   4   3   7  121.75   14.79
  -4   3  -7  144.01   17.30
   4   3   7  111.06   15.32
   4  -3   7  139.74   17.40
  -4  -3  -7  100.83   15.06
  -5  -3  -7    0.92    8.95
   5   3   7    7.18    6.49
   5  -3   7   14.02    8.71
   5   3   7   -7.10    8.44
  -5   3  -7  -12.35    8.76
   6  -3   7   45.14   11.34
  -6  -3  -7   53.65   11.92
   6   3   7   64.38   11.76
   6   3   7   38.86   10.86
  -6   3  -7   49.20   10.30
  -7  -3  -7   14.48    9.26
   7  -3   7    7.44    7.19
   7   3   7   33.87    9.95
   7   3   7   10.64    8.53
  -7   3  -7   32.24    9.25
   8  -3   7   61.77   14.79
  -8  -3  -7   34.94   12.39
   8   3   7   45.05   10.94
   8   3   7   82.12   16.17
  -8   3  -7   42.54   10.06
  -9   3  -7    3.65    7.21
  -9  -3  -7    2.36    8.69
   9  -3   7    1.16    8.50
   9   3   7  -13.02    8.97
   9   3   7    8.12    9.35
  10  -3   7   59.11   14.20
 -10   3  -7   53.95   11.30
  10   3   7   51.22   12.13
 -10  -3  -7   58.18   16.31
  10   3   7   66.51   15.45
 -11  -3  -7   57.64   16.15
  11   3   7   63.97   15.01
 -11   3  -7   62.46   15.86
 -13   4   7   -3.78   10.30
 -12   4   7   16.01   13.68
 -12  -4   7    4.00    9.22
 -12   4   7   10.86   11.81
  11   4  -7   15.01   10.99
 -11   4   7    0.10   12.20
  11  -4  -7   21.60   10.46
 -11  -4   7   -4.12    8.87
 -11   4   7    5.04    9.31
  10   4  -7   17.53    9.58
 -10   4   7   41.95   14.54
  10  -4  -7   23.99   11.98
 -10  -4   7   20.53   11.11
 -10   4   7   31.06   12.70
   9   4  -7   58.07   13.60
  -9   4   7   50.81   14.18
   9  -4  -7   49.41   13.20
  -9  -4   7   45.09   13.07
  -9   4   7   41.29   13.03
   8   4  -7   11.41    9.11
  -8   4   7   10.25    9.67
   8  -4  -7    5.78    7.64
  -8  -4   7   13.06    9.25
  -8   4   7    5.31    8.95
   7   4  -7   -6.76    7.28
   7  -4  -7   -4.25    7.43
  -7   4   7    7.10    8.40
  -7  -4   7    4.55    8.87
  -7   4   7   20.55   10.20
  -7  -4   7   12.51    9.55
  -6  -4   7    1.64    6.66
   6   4  -7   -3.35    7.97
   6  -4  -7    9.38    8.28
  -6   4   7    7.27    9.20
  -6  -4   7   -6.78    8.05
  -6   4   7    0.37    8.68
   5   4  -7   76.85   13.09
  -5  -4   7   63.09   12.08
   5  -4  -7   51.75   12.53
  -5  -4   7   54.68   12.21
  -5   4   7   65.52   13.11
  -5   4   7   45.08   12.78
  -4  -4   7    1.77    6.78
   4   4  -7    9.94    8.33
   4  -4  -7    9.61    7.02
  -4  -4   7    2.97    8.65
  -4   4   7   -3.73    8.78
  -4   4   7    6.01   10.80
  -3   4   7  137.59   16.46
   3   4  -7  117.83   14.75
  -3  -4   7  127.06   17.52
   3  -4  -7  118.88   16.30
  -3  -4   7  123.04   16.07
  -3   4   7  111.58   17.23
   2   4  -7   62.86   11.15
   2  -4  -7   54.65    9.82
  -2  -4   7   65.04   12.07
   2  -4  -7   61.31   12.54
  -2  -4   7   53.49   11.99
  -2   4   7   49.01   12.19
  -2   4   7   57.79   12.18
  -1   4   7   30.38    9.59
   1  -4  -7    9.84    7.01
   1   4  -7   -2.35    5.85
   1  -4  -7    5.54    6.76
  -1  -4   7    4.86    7.20
   1   4  -7   -1.22    7.08
  -1   4   7   12.58    9.72
   0  -4  -7    5.61    6.04
   0   4   7   12.52    7.48
   0   4  -7   18.80    8.08
   0  -4  -7   17.15    8.91
   0   4  -7   34.46   11.42
   0   4   7    8.43    9.51
   0  -4   7   24.29    8.56
   1  -4   7   16.10    7.37
  -1  -4  -7   16.37    9.05
   1   4   7   14.28    7.65
  -1  -4  -7   12.07    6.58
  -1   4  -7   -3.77    7.42
   1   4   7    8.80   10.11
  -2  -4  -7   12.63    7.69
   2  -4   7   21.09    8.22
  -2  -4  -7   19.46    7.55
   2   4   7   25.66    9.04
  -2   4  -7   39.49   11.60
   2   4   7   44.02   12.92
  -3  -4  -7   -9.06    7.23
   3  -4   7   13.57    9.36
  -3  -4  -7   -0.20    6.86
  -3   4  -7   -1.17    7.64
   3   4   7  -11.80   10.47
  -4  -4  -7   12.53    9.11
  -4  -4  -7    8.72    7.59
   4  -4   7    6.04    6.65
   4   4   7   11.56   11.59
  -4   4  -7    4.88    7.50
   5  -4   7   -3.59    6.18
  -5  -4  -7  -12.41    9.06
   5   4   7   -4.25    9.72
  -5   4  -7  -13.13    8.16
  -6  -4  -7    6.57    9.85
   6  -4   7    9.90    8.16
   6   4   7   -3.51    9.29
  -6   4  -7    6.41    7.10
  -7  -4  -7   -9.92   10.10
   7  -4   7   13.96    9.81
   7   4   7    5.37    9.02
  -7   4  -7    8.87    7.38
  -8  -4  -7   33.20   13.30
   8  -4   7   11.19   10.63
   8   4   7    8.54   11.22
  -8   4  -7   -2.02    6.58
  -9  -4  -7   23.86   12.44
   9   4   7   -1.68   10.61
  10   4   7   12.58   11.21
 -10   4  -7   10.49    9.02
 -10   5   7   38.94   14.50
   9   5  -7   33.01   12.23
   9  -5  -7   25.94   12.92
  -9  -5   7   17.20   11.37
  -9   5   7   21.28   12.33
   8   5  -7   15.37   10.18
   8  -5  -7   14.88   11.87
  -8  -5   7   11.37    9.33
  -8   5   7  -11.17   11.72
   7   5  -7   12.77    9.47
   7  -5  -7   11.74   10.49
  -7  -5   7   -9.19    9.46
  -7   5   7    6.38   10.54
   6   5  -7    6.30    8.70
   6  -5  -7  -12.96   11.27
  -6  -5   7    2.03    8.75
  -6   5   7   -5.72   11.52
   5   5  -7   44.13   10.61
   5  -5  -7   48.70   13.97
  -5  -5   7   42.30   12.50
  -5   5   7   56.28   14.33
   4   5  -7   53.52   11.75
   4  -5  -7   48.40   14.16
  -4  -5   7   60.06   13.53
  -4   5   7   52.29   14.79
   3   5  -7   32.29   10.18
   3  -5  -7   26.96   11.95
  -3  -5   7   30.39   11.54
  -3   5   7   23.78   11.07
   2   5  -7    8.39    7.37
   2  -5  -7   10.88    8.64
  -2  -5   7   -2.02    7.91
  -2   5   7   22.50   13.33
   1   5  -7    2.69    7.72
   1  -5  -7    8.10    9.25
  -1   5   7   12.23   12.84
   0  -5  -7   -1.58    6.98
   0  -5  -7   -3.00    8.21
   0   5  -7   -9.32    7.68
   0   5   7    7.22   10.60
  -1  -5  -7   29.81   10.08
  -1  -5  -7   32.47    9.36
  -1   5  -7   33.96   11.96
   1   5   7   37.13   15.10
  -2  -5  -7  105.93   15.97
  -2   5  -7  140.53   19.07
   2   5   7  151.36   20.97
  -2  -5  -7  124.98   16.44
   2  -5   7  110.55   15.87
  -3  -5  -7  184.35   20.19
  -3   5  -7  210.84   22.95
   3   5   7  216.24   24.33
  -3  -5  -7  175.04   20.82
   3  -5   7  190.12   19.73
  -4  -5  -7  140.50   18.46
  -4   5  -7  167.30   19.61
   4   5   7  164.41   23.03
  -4  -5  -7  149.78   21.00
   4  -5   7  145.84   18.37
   5  -5   7    9.67    9.19
  -5  -5  -7    7.78    8.72
  -5  -5  -7   20.04    9.19
   5   5   7    1.34   10.84
  -5   5  -7   25.39   10.89
   6  -5   7   -1.99    7.78
  -6  -5  -7   22.32   12.20
   6   5   7    6.39   11.77
   7  -5   7   -2.05    8.27
  -7  -5  -7   -3.66   10.10
   7   5   7    7.67   10.69
  -8   5  -7  207.91   23.11
  -8  -5  -7  206.68   26.69
  -9   5  -7   65.78   15.38
   6   6  -7    0.25    8.76
   5   6  -7  119.21   18.51
  -5  -6   7   95.57   18.08
  -5   6   7   96.69   20.60
   4   6  -7   19.91   10.39
   4  -6  -7   -1.52   10.30
  -4  -6   7    6.14   10.82
  -4   6   7    9.25   11.41
   3   6  -7   67.34   13.64
   3  -6  -7   97.00   18.27
  -3  -6   7   83.34   17.17
  -3   6   7   63.91   16.66
   2   6  -7   -9.96    8.88
   2  -6  -7   16.75   12.07
  -2  -6   7   -2.67    9.63
  -2   6   7   14.62   15.59
   1  -6  -7   -0.16   10.36
  -1  -6   7   12.46   11.46
  -1   6   7   -3.72   13.97
   0  -6  -7   12.55   10.14
   0   6  -7   30.64   12.58
   0   6   7   23.12   14.10
  -1  -6  -7   18.14   11.46
  -1   6  -7   35.76   13.08
   1   6   7    4.23   13.28
  -2  -6  -7   63.31   16.37
  -2   6  -7   75.93   15.77
   2   6   7   48.83   17.33
  -3  -6  -7  160.38   21.88
  -3   6  -7  222.95   24.12
   3   6   7  184.00   25.61
  -3  -6  -7  172.16   22.06
  -4  -6  -7  117.08   19.40
  -4  -6  -7  106.69   18.21
  -5  -6  -7   10.92   11.24
  -5  -6  -7   10.65   10.73
 -13   0   8   25.06   13.26
  13   0  -8    1.71    8.58
  12   0  -8   -5.12    9.51
 -12   0   8   11.50   11.62
  11   0  -8    4.24    7.29
 -11   0   8   -9.91   10.48
  10   0  -8   25.61   10.86
 -10   0   8   12.16   10.32
  10   0  -8   10.28    6.76
   9   0  -8   -4.62    7.58
  -9   0   8    8.71    9.85
   9   0  -8   -1.32    7.68
   8   0  -8  836.12   40.51
   8   0  -8  814.85   38.38
  -8   0   8  746.97   40.19
   7   0  -8   58.48   12.24
  -7   0   8   31.30   11.18
   7   0  -8   57.04   10.96
   6   0  -8   70.65   12.81
  -6   0   8   57.90   12.49
   6   0  -8   69.99   12.59
   5   0  -8    2.97    6.47
  -5   0   8   -0.04    8.13
   5   0  -8   -0.78    6.47
   4   0  -8   69.24   11.47
   4   0  -8   79.18   13.45
  -4   0   8   72.69   13.87
  -3   0   8  210.99   21.22
   3   0  -8  197.57   17.00
   3   0  -8  192.39   18.80
   2   0  -8  717.28   29.96
  -2   0   8  785.39   38.85
   2   0  -8  760.03   37.05
   1   0  -8 1297.81   38.30
  -1   0   8 1422.02   52.34
   1   0  -8 1298.21   47.43
   0   0  -8   45.45    8.75
   0   0   8   34.84   10.81
   0   0  -8   54.85   11.55
   1   0   8   -3.84    7.69
  -1   0  -8    5.44    4.82
  -1   0  -8    9.33    7.47
   2   0   8   15.64    8.68
  -2   0  -8    7.03    6.00
   3   0   8  140.74   17.65
  -3   0  -8  118.07   16.19
   4   0   8    7.22    8.33
   4   0   8    0.17    5.54
  -4   0  -8    6.75    8.09
   5   0   8 3535.87   82.03
  -5   0  -8 3717.88   83.72
   5   0   8 3782.64   68.82
   6   0   8  269.48   23.92
  -6   0  -8  299.10   24.99
   6   0   8  299.82   21.26
  -7   0  -8  161.17   19.32
   7   0   8  165.48   17.09
   7   0   8  193.81   22.07
  -8   0  -8   24.85   11.98
   8   0   8   21.57    7.98
   8   0   8   17.47   10.00
  -9   0  -8   39.74   10.97
   9   0   8   73.49   15.03
   9   0   8   66.10   13.51
  10   0   8    7.76    8.41
 -10   0  -8    4.85    9.10
  10   0   8   10.92    9.06
 -11   0  -8   45.90   13.36
  11   0   8   46.16   13.08
  11   0   8   52.59   13.50
 -12   0  -8  124.11   19.62
  12   0   8  162.71   21.85
 -13   1   8  -20.95   12.06
  13   1  -8   17.81   11.85
  13  -1  -8    9.21    9.58
 -13  -1   8   11.88   10.93
  12   1  -8    5.68    9.20
 -12   1   8   30.38   13.73
  12  -1  -8    0.84    8.28
 -12  -1   8    6.14   10.79
 -12  -1   8    5.39    8.60
  11   1  -8    4.15    7.97
  11  -1  -8    4.50    7.98
 -11   1   8   26.36   13.02
 -11  -1   8   21.49   11.37
  10   1  -8    8.24    8.24
  10  -1  -8   14.77   10.01
 -10   1   8   -5.57   10.97
 -10  -1   8    7.91   10.04
  10   1  -8    6.20    7.80
   9   1  -8   -7.87    7.48
   9  -1  -8   16.18    9.03
  -9   1   8   11.68   11.30
  -9  -1   8  -13.39   10.06
   9   1  -8   -7.72    8.04
   8   1  -8   46.22   10.69
   8  -1  -8   50.03   11.58
  -8   1   8   45.50   13.16
  -8  -1   8   32.89   11.68
   8   1  -8   30.54    9.87
   8  -1  -8   37.33   10.78
   7   1  -8   -7.24    7.49
   7  -1  -8   14.57    8.59
  -7   1   8   12.96   10.31
  -7  -1   8   -5.85   10.22
   7   1  -8   -2.83    7.17
   7  -1  -8   -0.28    6.77
  -6  -1   8   85.56   15.16
   6  -1  -8   70.51   12.57
   6   1  -8   24.81    9.57
  -6   1   8   57.93   12.90
   6   1  -8   43.91   11.09
   6  -1  -8   49.20   10.13
   5   1  -8   13.87    7.65
   5  -1  -8   10.26    7.49
  -5   1   8  -11.19    9.65
   5   1  -8    0.92    6.24
  -5  -1   8    2.98    7.71
   5  -1  -8    3.09    5.82
   4   1  -8    4.11    6.33
   4  -1  -8    1.77    6.61
  -4   1   8    6.12    9.95
   4   1  -8    0.07    6.31
  -4  -1   8   22.56   10.60
   4  -1  -8    0.98    5.73
  -3  -1   8   49.47   11.86
   3   1  -8   27.93    7.34
   3  -1  -8   34.52    8.92
   3   1  -8   45.30   11.43
  -3   1   8   36.69   11.38
   3  -1  -8   32.34    8.16
  -2   1   8   50.27   12.44
  -2  -1   8   32.68   10.41
   2   1  -8   28.36    7.50
   2  -1  -8   21.76    7.12
  -2   1   8   33.47    8.59
   2   1  -8   31.38    8.80
   2  -1  -8   30.81    9.42
  -1   1   8   25.35   10.01
  -1  -1   8   48.69   11.52
   1   1  -8   35.50    8.08
   1  -1  -8   36.72    8.48
  -1   1   8   33.26    8.30
   1   1  -8   37.00   10.92
   1  -1  -8   42.15    9.89
   0   1   8   28.03   11.16
   0  -1   8    6.42    6.67
   0   1  -8    3.66    4.66
   0  -1  -8    9.07    6.12
   0   1   8    5.31    5.86
   0   1  -8    0.87    7.09
   0  -1  -8   10.06    7.61
   1   1   8    5.53    7.89
   1  -1   8    2.70    7.45
  -1  -1  -8    4.66    4.66
   1   1   8    6.03    6.62
  -1   1  -8   12.27    7.87
  -1  -1  -8    4.83    5.91
  -2  -1  -8    5.46    8.38
   2   1   8    9.04    8.54
   2  -1   8   -3.92    8.34
   2   1   8    7.55    6.28
  -2   1  -8   -5.22    6.17
  -3   1  -8   72.37   13.32
   3   1   8   51.86   12.14
  -3  -1  -8   67.46   13.27
   3  -1   8   55.93   12.64
   3   1   8   49.13   10.00
   4  -1   8    4.87    7.93
  -4  -1  -8   -2.71    7.19
   4   1   8    1.30    7.18
   4   1   8    7.36    7.20
  -4   1  -8    9.28    7.98
   5   1   8  451.61   29.72
   5  -1   8  482.20   31.39
  -5   1  -8  483.65   30.15
   5   1   8  463.71   26.49
  -5  -1  -8  442.57   29.84
  -6  -1  -8   53.76   12.64
   6   1   8   37.03   11.28
   6  -1   8   27.69    9.72
   6   1   8   49.30   11.76
  -6   1  -8   43.22   11.07
  -7   1  -8  168.37   18.70
   7   1   8  181.47   18.28
  -7  -1  -8  162.96   19.44
   7   1   8  166.30   20.11
   7  -1   8  172.47   20.16
  -8   1  -8   -1.80    6.66
  -8  -1  -8   11.05    9.99
   8  -1   8   11.57    8.66
   8   1   8    7.77    8.20
   8   1   8   16.29    9.87
  -9   1  -8   -0.18    7.80
  -9  -1  -8   20.12   11.09
   9   1   8    9.50    8.50
   9  -1   8   -5.08    9.53
   9   1   8    0.77    7.22
 -10   1  -8   10.30    9.36
  10   1   8   21.50   10.50
 -10  -1  -8   -7.52    9.56
  10  -1   8   19.98   11.15
  10   1   8    8.35    9.20
 -11   1  -8   30.28   12.37
 -11  -1  -8   13.81    9.80
  11   1   8    9.02    9.78
  11  -1   8   22.28   11.94
  11   1   8    1.81    8.47
 -12   1  -8   32.68   11.59
  12   1   8   33.82   12.64
 -13  -2   8   32.84   14.28
 -13  -2   8   31.30   11.99
  12   2  -8   30.06   11.82
 -12   2   8   23.51   12.98
  12  -2  -8   17.09   10.84
 -12  -2   8   -1.67   12.33
 -12  -2   8   22.00   11.63
  11   2  -8   17.61   10.47
 -11   2   8    7.10   11.50
  11  -2  -8  -11.50    9.38
 -11  -2   8   17.74   12.98
 -11  -2   8   -1.44    8.66
  10   2  -8   35.20   11.97
  10  -2  -8   39.45   11.58
 -10   2   8   50.84   15.25
 -10  -2   8   51.33   12.86
 -10  -2   8   41.34   13.44
   9   2  -8    3.38    7.67
   9  -2  -8   -9.72    8.69
  -9   2   8    0.67    9.14
  -9  -2   8   -7.62    9.19
  -9  -2   8    6.90    9.57
   8   2  -8    6.97    7.79
   8  -2  -8   -2.10    8.41
  -8   2   8    0.85    9.19
  -8  -2   8   -1.32    7.19
  -8  -2   8   23.02   11.25
   7   2  -8    6.53    6.63
   7  -2  -8    6.60    7.55
  -7  -2   8   -4.65    7.92
  -6  -2   8  201.38   20.58
   6   2  -8  224.15   19.90
   6  -2  -8  200.70   20.07
   6   2  -8  211.59   22.02
  -6   2   8  219.60   18.60
   6  -2  -8  205.59   18.04
  -6   2   8  206.37   22.03
   5   2  -8   -5.42    6.89
   5  -2  -8   -5.01    6.64
  -5   2   8   -5.11    9.19
  -5   2   8    3.61    7.84
   5   2  -8    8.96    6.91
  -5  -2   8    0.26    8.58
   5  -2  -8   -6.56    7.57
  -4   2   8  413.78   29.39
   4   2  -8  401.29   24.31
  -4  -2   8  409.15   28.23
   4  -2  -8  433.73   26.90
   4   2  -8  444.82   30.96
  -4   2   8  364.76   22.78
   4  -2  -8  410.26   25.47
  -3   2   8  697.43   37.52
   3   2  -8  645.90   29.93
  -3  -2   8  689.09   35.75
   3  -2  -8  640.79   31.93
   3   2  -8  654.79   36.22
  -3   2   8  613.21   29.95
   3  -2  -8  597.81   31.02
   2  -2  -8   72.35   11.85
   2   2  -8   87.88   10.93
   2  -2  -8   79.25   12.14
  -2  -2   8  103.66   16.22
  -2   2   8   68.05   12.24
   2   2  -8   71.05   13.32
  -2   2   8   83.43   15.28
   1  -2  -8    9.38    7.18
  -1   2   8   -4.61    8.76
  -1  -2   8    4.67    8.31
   1   2  -8   -4.55    5.19
   1  -2  -8    2.94    5.82
  -1   2   8    2.23    8.59
   1   2  -8   -0.48    7.09
   0  -2  -8   22.36    8.88
   0   2   8   20.29    9.74
   0  -2   8   33.76   11.30
   0  -2  -8   20.90    7.03
   0   2   8   15.70    7.76
   0   2  -8   29.42   10.04
  -1  -2  -8    1.56    6.87
   1   2   8   18.12    9.85
  -1  -2  -8    3.94    5.93
   1  -2   8    9.95    9.62
   1   2   8    5.02    7.39
  -1   2  -8   14.74    9.16
  -2  -2  -8    7.16    6.74
   2   2   8    9.91    8.95
  -2  -2  -8    5.54    6.32
   2  -2   8   21.62   10.31
   2   2   8    8.86    7.60
  -2   2  -8    6.85    7.82
   3   2   8  396.80   27.81
   3  -2   8  344.78   26.39
  -3   2  -8  394.56   27.99
   3   2   8  337.68   23.12
  -3  -2  -8  292.07   24.11
  -4  -2  -8   35.36   11.13
   4  -2   8   19.61    7.68
   4   2   8   24.64    8.72
   4   2   8   23.13    9.24
  -4   2  -8   24.53    9.23
  -5  -2  -8    7.56    6.72
   5   2   8   17.53    7.75
   5  -2   8   -3.48    6.60
   5   2   8   28.57    9.26
  -5   2  -8    2.85    7.14
  -6  -2  -8   -4.69    7.48
   6   2   8    8.59    7.34
   6  -2   8   18.51    9.42
   6   2   8    0.76    6.95
  -6   2  -8   -2.92    7.85
  -7  -2  -8   15.89   10.22
   7   2   8   21.36    9.76
   7   2   8    6.67    7.29
   7  -2   8    5.69    8.51
  -7   2  -8    0.54    6.95
  -8   2  -8   -8.00    8.10
   8   2   8   -2.50    7.79
  -8  -2  -8   12.82   10.39
   8  -2   8  -10.00    8.53
   8   2   8   -0.65    7.85
  -9   2  -8   30.42   10.45
  -9  -2  -8   50.36   13.30
   9   2   8   65.83   14.45
   9   2   8   38.72   11.95
   9  -2   8   25.49   10.32
 -10   2  -8   84.19   15.24
  10   2   8  107.23   17.87
  10   2   8  133.94   18.93
 -10  -2  -8  113.37   19.91
  10  -2   8   91.72   16.42
 -11   2  -8   29.92   10.21
  11   2   8   22.23   11.39
  11   2   8   13.23   11.38
 -12  -2  -8    3.41    9.95
 -13  -3   8   13.77   13.58
 -12   3   8   40.90   15.25
 -12  -3   8   58.66   17.22
  11   3  -8   25.86   12.08
 -11   3   8   -1.40   11.25
  11  -3  -8    3.13    8.89
 -11  -3   8  -10.28    8.19
 -11  -3   8  -11.14   10.82
  10   3  -8   83.69   16.32
  10  -3  -8   87.55   16.15
 -10   3   8   76.00   17.04
 -10  -3   8   66.49   14.92
 -10  -3   8  102.22   18.12
 -10   3   8   32.27   11.13
   9   3  -8   20.97   10.33
   9  -3  -8   10.87    9.12
  -9   3   8   -2.79    9.63
  -9  -3   8   -5.39    8.76
  -9   3   8    9.40    9.45
  -9  -3   8    9.36    8.68
   8   3  -8   11.44    8.38
   8  -3  -8   28.52   11.12
  -8   3   8   24.25   12.79
  -8  -3   8   40.03   11.42
  -8   3   8   41.32   12.65
  -8  -3   8   15.53   10.07
   7   3  -8    6.34    7.44
   7  -3  -8    4.93    7.16
  -7   3   8   -0.65    9.45
  -7  -3   8    8.80    7.94
  -7   3   8   -8.26    9.86
  -7  -3   8   13.63   10.90
   6   3  -8  787.52   37.78
  -6  -3   8  780.24   39.50
   6  -3  -8  772.10   39.86
  -6  -3   8  788.08   41.36
  -6   3   8  700.05   36.32
  -6   3   8  740.69   38.92
  -5   3   8  196.61   21.10
   5   3  -8  183.56   18.21
  -5  -3   8  205.84   20.55
   5  -3  -8  217.34   21.63
  -5   3   8  174.20   19.24
  -4   3   8  709.32   37.77
   4   3  -8  719.49   34.27
   4  -3  -8  698.08   36.20
  -4  -3   8  754.42   37.93
   4   3  -8  729.74   40.82
  -4   3   8  668.46   35.08
   4  -3  -8  688.89   32.43
  -3   3   8  524.50   32.72
   3   3  -8  446.65   25.70
   3  -3  -8  466.44   29.17
  -3  -3   8  490.59   31.52
   3   3  -8  386.35   29.58
  -3   3   8  454.03   29.33
   3  -3  -8  406.43   25.19
  -2   3   8    1.52    8.50
   2  -3  -8    1.15    6.93
   2   3  -8    4.97    6.34
  -2  -3   8    3.28    7.32
   2  -3  -8    4.69    6.84
   2   3  -8    9.99    7.85
  -2   3   8   -8.75    9.24
   1  -3  -8    9.42    6.35
  -1   3   8   22.14    9.68
   1   3  -8   11.33    6.67
  -1  -3   8   -1.77    7.11
   1  -3  -8    3.55    6.65
   1   3  -8    6.60    9.50
  -1   3   8   -1.13    9.80
   0  -3  -8   39.58    9.99
   0   3   8   31.17   11.04
   0  -3  -8   14.53    7.23
   0  -3   8   43.07   10.80
   0   3   8   47.22   12.73
   0   3  -8   27.34   10.01
  -1  -3  -8   90.63   12.59
   1   3   8  109.68   16.05
   1  -3   8  106.99   16.76
  -1   3  -8  117.02   16.48
   1   3   8  112.45   16.24
  -1  -3  -8  108.64   15.61
  -2  -3  -8    5.74    7.26
  -2  -3  -8   20.29    7.82
   2   3   8    9.76    7.69
   2   3   8   11.25    8.51
  -2   3  -8   22.38    9.97
   2  -3   8    3.72    7.05
   3   3   8  176.22   18.72
   3  -3   8  182.12   20.28
  -3   3  -8  213.24   22.16
   3   3   8  167.23   18.12
  -3  -3  -8  176.15   20.22
  -4  -3  -8    1.37    7.50
   4  -3   8    8.84    7.03
  -4   3  -8   -0.10    7.30
   4   3   8   13.05    7.54
  -5  -3  -8   20.23   10.40
   5   3   8    1.28    6.89
   5  -3   8    8.99    9.01
   5   3   8   23.28   10.46
  -5   3  -8   17.34    8.74
  -6  -3  -8   15.25   10.74
   6   3   8    3.41    6.69
   6   3   8    3.00    8.42
   6  -3   8   11.66    9.00
  -6   3  -8   24.36    9.67
  -7   3  -8  254.80   22.81
   7   3   8  234.12   23.18
  -7  -3  -8  192.95   23.25
   7   3   8  272.15   24.09
   7  -3   8  184.97   22.02
  -8  -3  -8   74.97   16.40
   8   3   8   53.49   12.11
   8  -3   8   36.46   12.85
   8   3   8   50.94   13.24
  -8   3  -8   61.85   12.68
  -9   3  -8   59.16   12.75
   9   3   8   71.76   14.69
  -9  -3  -8   63.04   17.26
   9  -3   8   62.38   16.35
   9   3   8   61.90   14.24
 -10   3  -8   30.97   11.00
  10   3   8   27.43   11.24
 -11   4   8    1.02   12.40
 -11   4   8   -0.68   10.54
  10   4  -8   -1.91    9.77
 -10   4   8    9.35   11.94
 -10   4   8    9.81   11.73
   9   4  -8  -11.30   10.72
   9  -4  -8    2.21    9.17
  -9   4   8    1.75   11.22
  -9  -4   8   10.55   11.51
  -9   4   8   -2.86    9.89
   8   4  -8   14.18   11.19
   8  -4  -8   -9.45    8.67
  -8   4   8    3.33   10.17
  -8  -4   8    2.10    8.59
  -8   4   8   12.81   11.80
  -7  -4   8    1.06    8.02
   7   4  -8    2.11    9.03
   7  -4  -8    2.62    8.49
  -7  -4   8    2.38    9.57
  -7   4   8  -12.36   10.65
  -7   4   8    6.12   10.98
  -6   4   8  236.08   22.94
   6   4  -8  251.85   23.76
  -6  -4   8  261.88   24.07
  -6  -4   8  262.38   25.77
   6  -4  -8  222.76   23.58
  -6   4   8  250.19   24.78
  -5  -4   8   48.16   13.29
   5   4  -8   44.22   11.08
   5  -4  -8   37.81   12.93
  -5  -4   8   59.72   13.81
  -5   4   8   15.88    9.45
  -5   4   8   55.81   13.67
   4   4  -8    4.42    6.89
  -4  -4   8    9.96    8.91
   4  -4  -8   -0.66    8.20
  -4  -4   8  -18.88   11.32
  -4   4   8   -5.17   10.83
  -4   4   8  -12.26    9.92
   3   4  -8   12.92    7.54
  -3  -4   8   25.29   10.80
   3  -4  -8   -1.93    8.10
   3   4  -8   20.45   11.17
  -3   4   8  -13.25   10.82
  -3   4   8   32.98   11.09
  -2   4   8    6.62    8.81
   2  -4  -8   21.82    9.62
   2   4  -8    7.33    7.88
   2  -4  -8    3.25    7.41
  -2  -4   8   -4.92    8.69
   2   4  -8    6.87    9.64
  -2   4   8    3.89   11.46
   1  -4  -8   34.35   10.12
  -1   4   8   36.65   10.74
   1  -4  -8   57.60   13.60
  -1  -4   8   44.15   12.88
   1   4  -8   30.35   10.03
  -1   4   8   38.78   13.24
   0  -4  -8   26.21   10.44
   0   4   8   50.01   11.04
   0  -4  -8   22.85    9.19
   0   4  -8   46.12   13.54
   0   4   8   22.96   11.42
   0  -4   8   43.11   13.50
   1  -4   8   29.36   10.35
  -1  -4  -8   23.49   10.64
   1   4   8   40.80   11.21
  -1  -4  -8   28.74   10.09
  -1   4  -8   21.17   10.22
   1   4   8   18.04   11.92
  -2  -4  -8   15.33    8.95
   2  -4   8   -2.57    8.39
  -2  -4  -8   -2.33    8.06
   2   4   8    5.85    9.80
  -2   4  -8   16.11    8.74
  -3  -4  -8   -4.95    8.16
   3  -4   8    6.53    6.93
  -3  -4  -8    7.85    7.88
   3   4   8   -0.22    9.30
  -3   4  -8   10.85    8.64
  -4  -4  -8    8.21    8.89
   4  -4   8    3.62    7.96
   4   4   8   -3.60   10.44
  -4   4  -8    0.54    9.92
   5  -4   8   17.96   10.76
  -5  -4  -8   15.97   10.72
   5   4   8   26.73   12.30
  -5   4  -8    1.34    7.71
  -6  -4  -8   -5.31   10.03
   6  -4   8   -2.61    8.82
   6   4   8   15.94   11.28
  -6   4  -8   -3.86    7.53
   7  -4   8  104.76   18.10
  -7  -4  -8  100.78   18.87
  -7   4  -8  102.39   16.04
   7   4   8  117.30   19.42
  -8   4  -8  119.12   16.89
   8   4   8   95.59   18.00
   8  -4   8   93.16   17.49
  -8   5   8  -12.07   13.31
   7   5  -8   -3.27    8.97
  -7   5   8   -8.33   12.31
   6   5  -8   92.50   16.10
   6  -5  -8   61.37   14.95
  -6  -5   8   95.63   17.98
  -6   5   8   65.93   16.22
   5   5  -8   53.23   13.53
   5  -5  -8   53.03   15.28
  -5  -5   8   30.13   12.80
  -5   5   8   41.84   14.92
   4  -5  -8  118.03   21.44
   4   5  -8   69.76   14.05
  -4  -5   8   74.38   16.15
  -4   5   8   79.49   17.68
   3   5  -8   50.04   12.36
   3  -5  -8   48.18   14.58
  -3   5   8   75.17   18.03
   2  -5  -8    3.85    9.49
   2   5  -8    4.39   10.25
  -2   5   8    5.23   11.44
   1  -5  -8    0.72   10.27
   1   5  -8   11.23   10.05
  -1   5   8   15.96   14.71
   0  -5  -8   10.80    9.00
   0   5  -8    1.13    9.38
   0   5   8    9.63   13.01
  -1  -5  -8   71.03   14.35
  -1  -5  -8   86.11   16.11
  -1   5  -8  106.14   18.01
   1   5   8   75.31   17.23
  -2  -5  -8   37.36   13.16
  -2  -5  -8   70.95   14.42
  -2   5  -8   43.50   13.29
   2   5   8   90.94   20.39
  -3  -5  -8   30.37   11.73
  -3  -5  -8   51.81   12.83
   3   5   8   66.13   16.67
  -3   5  -8   62.10   14.65
   3  -5   8   60.80   14.11
  -4  -5  -8   10.01   11.11
   4  -5   8  -12.69   10.69
   4   5   8   -2.18   11.92
  -4   5  -8   -5.39   10.34
  -5  -5  -8   -2.46    9.95
   5  -5   8    4.59    7.96
   5   5   8   -5.27   11.53
  -5   5  -8   15.62   11.40
   6  -5   8  -13.22   11.56
   7  -5   8  150.49   22.09
  -1  -6  -8   92.32   19.12
  -1   6  -8   81.91   18.08
  -2  -6  -8   40.47   14.24
  -2   6  -8   28.28   12.86
  11   0  -9    4.60    8.34
 -11   0   9   -2.32   11.10
  10   0  -9   -6.22    8.92
 -10   0   9  -12.72   10.62
   9   0  -9  -10.37   10.60
  -9   0   9   19.20   11.70
   9   0  -9    4.83    8.23
   8   0  -9   -0.65    8.28
  -8   0   9    6.37   11.28
   8   0  -9   12.68    9.40
   7   0  -9   -6.10    7.31
  -7   0   9  -15.40   11.67
   7   0  -9    7.95    7.87
   6   0  -9    4.19    6.32
  -6   0   9    2.12    8.81
   6   0  -9   12.01    7.30
   5   0  -9   10.50    8.19
  -5   0   9   11.75   10.35
   5   0  -9   -3.08    7.08
   4   0  -9    0.69    5.64
   4   0  -9   -9.26    7.86
  -4   0   9   -8.23   10.70
  -3   0   9   18.08   10.43
   3   0  -9   -0.03    6.22
   3   0  -9   -1.47    7.32
  -2   0   9   13.26   10.72
   2   0  -9    9.95    6.30
   2   0  -9   -3.15    7.00
  -1   0   9   -1.12    8.29
   1   0  -9    6.89    6.70
   1   0  -9   -6.13    7.36
   0   0   9   -1.77    8.50
   0   0  -9   14.80    8.40
   1   0   9    2.81    8.40
  -1   0  -9    4.65    7.60
   2   0   9   -6.97    9.30
  -2   0  -9    6.35    7.51
   3   0   9    6.20    7.77
  -3   0  -9  -10.96    8.21
  -4   0  -9   11.31    9.02
   4   0   9   -5.18    7.98
  -5   0  -9    3.72    7.67
   5   0   9   -7.84    8.54
  -6   0  -9    9.65    9.20
   6   0   9   -5.47    8.98
  -7   0  -9   17.39   10.11
   7   0   9   -5.61    8.98
  -8   0  -9  -15.98    9.63
   8   0   9   11.21    9.44
  -9   0  -9  -23.99   12.88
   9   0   9   11.31   10.40
  11   1  -9   16.72   10.43
  11  -1  -9   21.90   11.09
 -11   1   9  -10.45   12.97
 -11  -1   9    4.52   13.02
  11   1  -9    8.60    9.14
  10   1  -9   -1.23    9.88
  10  -1  -9    1.59    8.88
 -10   1   9   -1.75   10.71
 -10  -1   9   13.41   12.90
  10   1  -9   -8.33    9.82
   9   1  -9  113.39   16.94
   9  -1  -9   87.93   15.58
  -9   1   9  108.55   19.75
  -9  -1   9   99.37   18.11
   9   1  -9   97.94   16.29
   8   1  -9   48.62   12.13
   8  -1  -9   13.32    7.67
  -8   1   9   38.96   13.85
  -8  -1   9   63.45   16.58
   8   1  -9   40.06   12.10
   8  -1  -9   35.84   10.61
   7   1  -9    3.71    7.84
   7  -1  -9  -12.81    8.77
  -7   1   9   -2.40    9.58
  -7  -1   9    4.12    9.47
   7   1  -9   -2.61    8.26
   7  -1  -9   13.46    9.26
   6   1  -9  -12.26    8.07
   6  -1  -9   15.17    8.22
  -6   1   9    0.14    9.86
   6   1  -9    0.87    8.71
  -6  -1   9    2.57    9.21
   6  -1  -9   11.38    8.08
   5   1  -9   23.05    8.45
   5  -1  -9   19.49    7.71
  -5   1   9   43.95   12.46
   5   1  -9   25.06    9.44
   5  -1  -9   55.25   11.89
  -5  -1   9   33.11   11.44
  -4  -1   9   71.90   15.19
   4  -1  -9   76.82   13.07
   4   1  -9   61.33   11.03
   4   1  -9   42.73   11.76
  -4   1   9   71.40   16.27
   4  -1  -9   56.89   11.92
  -3   1   9   22.40   13.37
  -3  -1   9    7.53    8.40
   3   1  -9   12.98    6.70
   3  -1  -9   26.40    8.28
   3   1  -9   25.10    9.08
   3  -1  -9   22.43    9.22
   2   1  -9  142.54   14.99
  -2   1   9  134.47   19.12
   2  -1  -9  138.25   14.95
  -2  -1   9  135.49   17.96
   2   1  -9  145.21   18.16
   2  -1  -9  150.80   18.15
  -1   1   9   -1.14    9.38
  -1  -1   9    5.41    8.54
   1  -1  -9   -5.20    6.71
   1   1  -9   -5.14    7.97
   1  -1  -9    4.76    6.70
   0   1   9   12.01   10.14
   0  -1   9   -7.66    9.69
   0  -1  -9   -5.73    6.64
   0   1  -9   -2.06    7.27
   0  -1  -9    3.51    7.24
   1   1   9   21.44   12.33
   1  -1   9   -2.78    7.89
  -1   1  -9   -3.02    7.49
  -1  -1  -9   -1.64    7.96
  -2  -1  -9   37.91   11.67
   2   1   9   66.81   14.09
   2  -1   9   30.40   12.11
  -2   1  -9   28.37   10.18
  -3  -1  -9  -15.77    9.23
   3   1   9    8.62   10.30
   3  -1   9   11.39    8.74
  -3   1  -9   -3.02    7.79
   4   1   9  378.91   29.15
   4  -1   9  348.06   28.95
  -4   1  -9  419.54   29.91
  -4  -1  -9  389.76   30.07
   5   1   9  265.89   24.65
   5  -1   9  229.31   23.80
  -5   1  -9  250.56   24.29
  -5  -1  -9  241.88   24.05
  -6   1  -9   39.08   12.38
  -6  -1  -9   34.69   11.44
   6   1   9   21.68    9.28
   6  -1   9   21.83   11.17
  -7   1  -9    7.29    7.83
  -7  -1  -9   -2.64    8.07
   7   1   9   11.62    8.58
   7  -1   9  -14.61    9.51
  -8   1  -9   -6.41   10.16
  -8  -1  -9  -13.42   11.61
   8  -1   9   12.15    9.88
   8   1   9   16.29   10.29
   8   1   9    7.92    8.43
  -9   1  -9   17.51   10.38
  -9  -1  -9   13.67   11.05
   9   1   9   32.49   12.40
   9  -1   9    6.71   10.86
   9   1   9   15.60    9.70
 -10   1  -9   15.48   11.73
  10   1   9    4.28    9.05
 -11  -2   9   36.09   14.66
  11   2  -9   46.46   13.90
  10   2  -9    8.35    8.46
  10  -2  -9    7.86    8.47
 -10   2   9   20.83   12.91
 -10  -2   9   30.75   13.51
  10   2  -9   13.70   11.02
   9   2  -9   17.91   10.21
   9  -2  -9    3.76    9.02
  -9   2   9   23.79   12.61
   9   2  -9   23.59   13.22
   8   2  -9   23.00   10.83
   8  -2  -9  -14.58    9.99
  -8   2   9   -2.48   10.46
   8   2  -9   -1.78    9.20
  -8  -2   9   -0.40   10.53
   7   2  -9   23.23    9.62
   7  -2  -9    5.66    8.11
  -7   2   9   42.04   13.31
   7   2  -9   30.88   11.51
  -7  -2   9   17.89   11.62
   6   2  -9   71.82   13.37
   6  -2  -9   67.64   13.55
  -6   2   9   53.04   13.62
   6   2  -9   53.14   14.53
  -6  -2   9   95.82   17.10
  -5  -2   9   92.98   15.82
  -5   2   9  155.67   20.85
   5   2  -9  102.29   14.63
   5  -2  -9  124.02   16.73
   5  -2  -9  100.19   15.87
   5   2  -9   91.65   16.60
  -4   2   9  602.37   37.83
   4   2  -9  530.64   29.75
  -4  -2   9  565.95   34.58
   4  -2  -9  504.60   31.02
   4   2  -9  585.53   36.83
   4  -2  -9  481.31   30.09
  -3  -2   9    2.43    7.84
   3   2  -9    6.40    7.74
   3  -2  -9    0.91    6.95
   3   2  -9    9.71    7.94
   3  -2  -9    5.75    6.72
  -3   2   9   -7.60    9.66
   2   2  -9   80.04   12.03
  -2   2   9  111.37   16.85
   2  -2  -9   87.74   13.20
  -2  -2   9  105.90   17.40
   2  -2  -9   92.80   14.46
   2   2  -9   78.42   14.10
   1  -2  -9    6.02    7.52
  -1   2   9    2.95    9.30
  -1  -2   9    8.68    9.02
   1  -2  -9    7.46    7.32
   1   2  -9   -8.11    7.91
   0  -2  -9   15.82    9.35
   0   2   9   -1.52    8.31
   0  -2  -9    0.63    6.02
   0  -2   9   10.61    9.36
   0   2  -9   -6.53    8.50
  -1  -2  -9    8.27    7.84
   1   2   9   -2.22    8.02
   1  -2   9   -6.55    8.90
   1   2   9   -0.47    6.80
  -1   2  -9    3.05    8.79
  -2  -2  -9   65.28   14.65
   2   2   9   64.43   14.17
  -2   2  -9   93.16   16.49
   2  -2   9   67.38   14.41
   2   2   9   62.80   11.60
  -3  -2  -9   49.35   13.29
   3   2   9   57.57   13.89
   3   2   9   23.65    8.65
  -3   2  -9   47.81   12.18
   3  -2   9   48.19   11.96
   4   2   9  165.20   20.04
   4  -2   9  157.59   19.95
  -4   2  -9  156.59   19.45
   4   2   9  158.36   17.26
  -4  -2  -9  200.74   22.53
  -5  -2  -9   34.62   12.41
   5   2   9   74.52   14.18
   5  -2   9   55.63   13.64
   5   2   9   53.67   11.54
  -5   2  -9   55.51   13.12
  -6  -2  -9   -0.02    9.37
   6   2   9   -4.43    6.97
   6  -2   9   13.69    9.22
   6   2   9   13.29    9.52
  -6   2  -9   -5.32    7.76
  -7   2  -9   26.26   11.04
  -7  -2  -9   22.30   12.31
   7   2   9    5.72    9.41
   7  -2   9   23.93   11.47
   7   2   9   49.46   12.75
  -8   2  -9   13.05    9.21
  -8  -2  -9   33.61   12.76
   8  -2   9   11.62   10.61
   8   2   9    2.52    9.11
   8   2   9   -9.14    9.68
  -9   2  -9   56.55   13.24
   9   2   9   89.15   16.81
   9   2   9   63.72   14.15
  10   2   9    3.91    9.01
 -11  -3   9   11.26   12.89
 -10  -3   9   25.59   14.13
   9   3  -9    1.31    9.17
   9  -3  -9   12.16   10.25
  -9   3   9  -16.36   13.16
  -9  -3   9    4.39    9.35
  -9  -3   9   -5.20   10.59
   8   3  -9    3.64    8.86
   8  -3  -9    2.83    9.30
  -8   3   9   -5.34   13.18
  -8  -3   9    1.97   10.44
  -7   3   9  163.44   21.71
   7   3  -9  176.22   20.40
  -7  -3   9  169.69   21.35
   7  -3  -9  173.66   21.63
   7   3  -9  168.97   22.21
  -6  -3   9   45.24   12.32
   6   3  -9   61.27   12.97
   6  -3  -9   51.88   13.82
  -6   3   9   55.82   15.72
   6   3  -9   75.54   16.01
  -5  -3   9   -6.16    9.00
   5   3  -9    0.13    8.81
   5  -3  -9    4.86    8.73
   5   3  -9    2.52    8.33
  -5   3   9   -0.14   10.37
  -4   3   9  247.77   25.59
   4   3  -9  220.29   20.09
   4  -3  -9  189.67   20.45
  -4  -3   9  203.00   22.02
   4   3  -9  181.42   22.25
  -4   3   9  210.59   21.48
  -3   3   9    3.53    8.69
   3  -3  -9    5.37    8.48
  -3  -3   9   12.03    9.88
   3   3  -9    6.52    7.56
   3  -3  -9    5.83    7.19
  -3   3   9    7.20   10.71
   3   3  -9   19.34   10.98
   2  -3  -9   -3.73    8.64
  -2   3   9   10.90   10.34
  -2  -3   9   13.67   12.18
   2  -3  -9   -1.79    8.57
  -2   3   9    3.10    8.58
   2   3  -9   15.00   11.43
   1  -3  -9   10.95    8.18
   1  -3  -9   -4.20    7.12
  -1  -3   9   -9.12    9.34
  -1   3   9   -0.22    8.88
   1   3  -9   15.72   11.06
   0  -3  -9   82.61   14.70
   0  -3  -9   85.28   13.16
   0  -3   9  103.81   17.38
   0   3  -9  110.82   17.49
   0   3   9  110.58   16.65
  -1  -3  -9   -7.54    8.26
   1   3   9   14.54   11.35
   1  -3   9   13.45    9.97
   1   3   9   -2.40    9.08
  -1   3  -9    4.49   10.05
   2  -3   9   33.59   11.56
  -2  -3  -9   36.48   12.28
   2   3   9   36.19   11.79
   2   3   9   16.21    9.51
  -2   3  -9   21.39   10.51
  -3  -3  -9   21.46   10.73
   3  -3   9   29.22   11.75
   3   3   9   36.02   11.25
   3   3   9   16.13    9.52
  -3   3  -9    9.58    8.50
   4   3   9    5.89    8.54
  -4  -3  -9    3.77    8.48
   4  -3   9    4.62    7.62
   4   3   9   12.89    9.82
  -4   3  -9   -5.59    9.28
  -5  -3  -9   13.53   10.02
   5   3   9  -13.53    8.71
   5  -3   9    1.43    8.20
   5   3   9   14.34    9.26
  -5   3  -9   -5.16    9.99
  -6  -3  -9   42.10   14.35
   6   3   9   35.53   11.02
   6  -3   9   25.34   11.91
   6   3   9   32.97   10.51
  -6   3  -9   16.20    9.41
  -7  -3  -9   35.09   13.16
   7  -3   9    9.90    8.90
   7   3   9   33.16   11.21
   7   3   9   37.87   12.37
  -7   3  -9   33.25   11.59
  -8   3  -9  -10.18   10.12
   8   3   9   -4.49    9.75
   8   4  -9  -18.26   11.03
  -8   4   9   -5.30   11.88
   7   4  -9   39.64   12.43
   7  -4  -9   35.79   13.26
  -7   4   9   26.16   11.78
  -7   4   9   27.16   13.85
  -6  -4   9   -2.63    8.94
   6   4  -9    4.88    8.31
   6  -4  -9   22.19   11.70
   6   4  -9   39.93   14.59
  -6   4   9   12.05   12.47
  -6   4   9   -3.91    9.99
  -5  -4   9    4.00    8.70
   5   4  -9   28.07   11.09
   5  -4  -9    0.32   10.38
   5   4  -9   15.39   11.73
  -5   4   9    5.75   11.36
  -5   4   9   17.64   10.97
   4   4  -9    5.87    7.84
  -4  -4   9   25.01   12.96
   4  -4  -9    0.29    8.97
   4   4  -9   17.43   12.21
  -4   4   9    0.97   11.20
  -4   4   9   22.08   11.23
  -3   4   9    9.58    8.83
  -3  -4   9   -1.56    9.92
   3  -4  -9  -11.12    9.11
   3   4  -9   -2.23    9.30
  -3   4   9    1.61   10.33
  -2   4   9   -2.25    9.37
   2  -4  -9    0.25    8.58
  -2  -4   9   -2.59    8.26
   2   4  -9   -4.47    9.92
  -2   4   9   24.33   14.17
   1  -4  -9    5.71    8.40
  -1   4   9   16.34   10.21
   1  -4  -9   16.33    9.14
  -1  -4   9   13.31   10.25
   1   4  -9   -1.16    9.01
  -1   4   9   -2.91   10.54
   0  -4  -9  178.43   21.21
   0  -4   9  210.76   23.57
   0   4  -9  223.51   25.56
   0   4   9  216.75   24.36
   0  -4  -9  179.38   20.97
   1  -4   9   23.12   11.47
  -1  -4  -9   -4.01    9.01
  -1  -4  -9   23.92   10.98
   1   4   9   -0.71   11.85
  -1   4  -9   37.04   13.59
  -2  -4  -9   10.86   10.06
   2  -4   9   14.47    8.87
   2   4   9   23.69   12.33
  -3  -4  -9    9.77    9.93
   3  -4   9   -3.51    8.30
   3   4   9   10.03   11.58
  -3   4  -9   27.87   11.85
  -4  -4  -9   -1.84    8.98
   4  -4   9   15.09   10.78
   4   4   9    2.49   10.36
  -4   4  -9  -14.17   11.72
  -5  -4  -9    9.65   11.77
   5   4   9  -11.93   10.12
  -5   4  -9    6.60   11.36
   5  -4   9   -2.65    8.80
   6  -4   9   16.07   10.83
   6   4   9   -1.26   10.11
  -6   4  -9    3.92    9.29
  -7   4  -9   64.12   15.11
  -4   5   9   -0.79   13.21
  -3   5   9    8.65   13.23
   2  -5  -9    0.93   10.26
  -2   5   9   13.51   14.02
   1  -5  -9    3.17   10.67
  -1   5   9  -11.79   13.60
   0  -5  -9   34.57   12.22
   0   5   9   46.73   16.51
  -1  -5  -9   13.65   10.51
   1   5   9   -1.37   11.96
  -2  -5  -9   16.52   12.19
  -3  -5  -9   -3.34   10.48
   9   0 -10   33.48   11.33
   9   0 -10   78.16   17.29
   8   0 -10   -9.90   10.42
  -8   0  10  -28.74   15.73
   8   0 -10   -2.94    8.31
   7   0 -10  -11.05   10.33
  -7   0  10    5.55   10.89
   7   0 -10    2.61    8.53
   6   0 -10    0.27    7.42
   6   0 -10   12.70   11.32
  -6   0  10   17.81   10.91
   5   0 -10   17.18    9.65
   5   0 -10   -2.43    8.20
  -5   0  10    8.28    9.70
  -4   0  10   19.61   12.50
   4   0 -10   12.56    7.88
   4   0 -10    6.76    8.35
   3   0 -10  128.80   15.88
  -3   0  10  116.13   19.90
   3   0 -10  119.23   18.06
  -2   0  10   48.29   14.31
   2   0 -10   37.20   11.50
  -1   0  10   13.19   11.96
   1   0 -10   11.69   10.28
   0   0  10   -4.66   10.01
   0   0 -10    0.14    8.93
   1   0  10   29.61   12.76
  -1   0 -10   26.42   10.62
   2   0  10   -3.46    9.39
  -2   0 -10   12.24    9.93
  -3   0 -10   67.34   14.89
   3   0  10  130.02   19.90
   4   0  10  206.07   24.43
  -4   0 -10  128.52   18.93
  -5   0 -10    7.29    9.93
   5   0  10   12.38    9.47
  -6   0 -10   40.62   13.24
   6   0  10   46.70   13.36
  10   1 -10   22.60   11.84
   9   1 -10   35.75   13.23
   9  -1 -10   47.61   13.14
   9   1 -10   25.17   12.13
   8   1 -10   -0.67    8.15
   8  -1 -10   -1.95    9.30
  -8   1  10   15.55   12.75
  -8  -1  10   17.59   12.35
   8   1 -10    6.74   10.42
   7   1 -10    4.17    8.05
   7  -1 -10   -7.25   10.30
  -7   1  10   18.35   13.59
   7   1 -10    3.55    9.18
  -7  -1  10    0.67   10.23
   7  -1 -10   -1.37    8.98
   6   1 -10   15.49    8.95
   6  -1 -10   -3.60    7.81
   6   1 -10   -2.74    9.29
  -6   1  10    2.24   11.13
   6  -1 -10   -4.88    8.01
  -6  -1  10   16.39   11.72
  -5   1  10  390.97   32.73
   5   1 -10  335.42   26.32
  -5  -1  10  304.86   29.04
   5  -1 -10  339.22   26.93
   5   1 -10  324.27   28.71
   5  -1 -10  326.27   27.35
  -4   1  10   23.25   12.51
  -4  -1  10    8.41    8.64
   4   1 -10   20.18    9.92
   4  -1 -10   19.56    8.78
   4   1 -10   20.86   10.77
   4  -1 -10   21.59   10.13
   3  -1 -10  259.86   22.55
  -3   1  10  234.41   25.90
  -3  -1  10  258.03   26.03
   3   1 -10  288.47   27.22
   3  -1 -10  238.34   23.77
  -2   1  10   34.89   13.71
  -2  -1  10   20.60   12.34
   2  -1 -10   11.88    8.42
   2   1 -10   14.45    8.84
   2  -1 -10   12.51    9.81
  -1   1  10    7.26   10.46
  -1  -1  10   14.32   11.43
   1   1 -10   12.18   10.27
   1  -1 -10   12.53    8.58
   0   1  10    7.51   10.59
   0  -1  10   -2.89    9.90
   0   1 -10   17.80   10.24
   0  -1 -10    0.91    8.50
  -1  -1 -10   53.89   15.11
   1   1  10   39.55   15.05
   1  -1  10   61.46   15.31
  -1   1 -10   37.56   12.15
   2   1  10  205.59   24.97
   2  -1  10  174.84   21.74
  -2   1 -10  215.57   23.35
  -2  -1 -10  177.16   21.62
   3   1  10  231.25   26.10
   3  -1  10  210.20   24.89
  -3   1 -10  189.94   22.77
  -3  -1 -10  192.95   22.86
   4   1  10  500.52   36.23
   4  -1  10  449.97   35.63
  -4   1 -10  433.30   33.46
  -4  -1 -10  388.50   32.65
  -5   1 -10   -6.62   10.17
  -5  -1 -10    2.03    9.61
   5   1  10   27.73   11.47
   5  -1  10   10.01    9.26
  -6  -1 -10   -5.89    9.63
   6   1  10   -9.13   10.08
   8   2 -10   -9.60    9.97
   8  -2 -10    4.88    8.68
   8   2 -10   13.39   12.01
  -8  -2  10   12.83   11.96
   7   2 -10    8.11    9.37
   7  -2 -10   14.77    9.59
  -7   2  10   38.61   13.84
   7   2 -10   29.86   13.72
  -7  -2  10   37.55   14.91
  -6  -2  10   19.43   11.60
   6   2 -10    9.64    8.98
   6  -2 -10   20.70   10.56
   6   2 -10   22.77   12.17
  -6   2  10   -1.95   11.38
  -5   2  10  470.55   37.02
   5   2 -10  390.47   28.34
   5  -2 -10  358.86   28.69
  -5  -2  10  382.89   31.30
   5   2 -10  396.59   33.43
   5  -2 -10  386.81   29.03
   4  -2 -10   28.66   11.37
  -4   2  10   51.73   15.07
  -4  -2  10   50.24   14.51
   4  -2 -10   29.88   10.66
   4   2 -10   54.03   13.89
   3  -2 -10   -3.16    7.58
  -3   2  10   11.55   11.33
  -3  -2  10  -11.36   10.85
   3  -2 -10    2.99    7.88
   3   2 -10    0.71    9.28
   2  -2 -10    1.96    8.02
  -2   2  10   10.80   12.61
  -2  -2  10    5.96   10.12
   2  -2 -10    3.14    8.24
   2   2 -10   -4.22    9.18
   1  -2 -10    5.74    8.85
  -1   2  10   21.72   13.86
  -1  -2  10   15.54    9.54
   1   2 -10    0.95    9.33
   0  -2 -10    6.35    9.30
   0   2  10   11.11   11.45
   0  -2  10  -18.22   13.09
   0   2 -10   -2.51   10.64
  -1  -2 -10   46.38   12.63
   1   2  10   70.98   16.29
   1  -2  10   67.84   16.41
  -1   2 -10   72.89   15.90
  -2  -2 -10   48.55   14.13
   2   2  10   37.71   13.50
   2  -2  10   32.22   12.82
  -2   2 -10   41.59   13.39
   3  -2  10   30.12   12.67
  -3  -2 -10   43.71   13.80
   3   2  10   41.65   13.70
  -3   2 -10   48.76   13.02
   4   2  10  136.22   19.74
   4  -2  10  108.35   18.72
  -4   2 -10  172.73   21.93
  -4  -2 -10  149.93   21.25
  -5  -2 -10   13.62   11.24
   5   2  10    9.69   10.05
   5  -2  10    4.24    8.78
  -5   2 -10    4.69    8.67
   6   2  10   42.81   13.29
  -7  -3  10   40.92   13.97
   7   3 -10   27.12   11.29
  -6  -3  10    3.74    9.56
   6   3 -10   13.55   10.21
   6  -3 -10    1.33    8.53
  -6   3  10    5.17   11.24
  -5  -3  10   34.77   13.13
   5  -3 -10   26.67   11.66
  -5   3  10   27.27   13.16
  -4   3  10  -17.25   10.78
  -4  -3  10   27.71   13.06
   4  -3 -10   12.45   10.36
   4   3 -10   -5.06    9.39
  -3   3  10   -3.88   10.59
  -3  -3  10   11.15   10.97
   3  -3 -10   -0.72    8.87
   3   3 -10    0.84    9.19
   2  -3 -10   -1.98    8.64
  -2   3  10    7.33   11.62
  -2  -3  10    9.52   10.69
   2  -3 -10    9.49    9.80
   2   3 -10   13.53   11.10
   1  -3 -10    8.95    8.02
  -1   3  10   17.21   12.05
  -1  -3  10   22.45   10.02
   1   3 -10    9.54   10.93
   0  -3 -10   17.84   11.20
   0   3  10   -7.41   10.62
   0  -3  10   -2.35    9.34
   0   3 -10   21.58   11.50
  -1  -3 -10    9.99    9.86
   1   3  10    8.10    9.39
  -1   3 -10   11.72   11.09
   1  -3  10   -1.32    9.06
   2  -3  10   17.98   11.63
  -2  -3 -10  -14.01    9.99
   2   3  10  -15.31   11.49
  -2   3 -10   -4.02    9.65
  -3  -3 -10    3.14   10.21
   3  -3  10   10.22   10.27
   3   3  10   23.50   12.49
  -3   3 -10  -10.75    9.78
   4   3  10    6.26    8.87
   5   3  10   10.59   10.08
  -5   4  10   13.87   11.34
  -4   4  10  -11.04   12.67
  -4  -4  10   -1.08    9.60
  -3   4  10   -0.38   10.68
   3  -4 -10   12.38   11.13
  -3  -4  10    9.64   11.39
   2  -4 -10    1.75    9.48
  -2  -4  10    7.33    9.97
   1  -4 -10   12.95   10.40
  -1  -4  10    1.15   10.06
   0  -4 -10    7.15    9.71
   0   4  10   -1.50   11.71
   0  -4  10   21.31   12.02
   1  -4  10   -6.87    8.65
  -1  -4 -10    5.19   10.05
   1   4  10  -12.21   12.67
   2   4  10   15.73   11.81
   7   0 -11   -4.33    9.19
   7   0 -11   17.47   13.45
   6   0 -11    3.19    9.73
   6   0 -11    0.97    9.89
   5   0 -11   21.07   10.83
   5   0 -11  -12.27    8.93
   4   0 -11   11.11   10.65
   3   0 -11  -12.62   10.73
   2   0 -11    6.96    9.88
   1   0 -11    0.92    8.46
   0   0 -11    3.18    9.63
   7   1 -11    8.40   10.90
   6  -1 -11  110.18   18.26
   6   1 -11   91.19   16.52
   6  -1 -11  117.22   17.90
   5  -1 -11   53.25   13.13
   5  -1 -11   44.58   13.90
   4  -1 -11    4.78    8.91
   3  -1 -11   14.13   10.49
   2  -1 -11    0.13    9.60
   1  -1 -11   10.65    9.89
   0  -1 -11   -2.92   10.36
   5  -2 -11   37.88   12.65
   4  -2 -11   34.78   12.74
   4  -2 -11   27.17   10.56
   3  -2 -11    5.45    9.04
   2  -2 -11   -7.17   10.67
   1  -2 -11   15.22   11.44
   0   0   0    0.00    0.00


TITL 180625_kazu_1_rt in P2(1)/c
REM P2(1)/c (#14 in standard setting)
CELL 0.71073  13.534930   6.004188   8.154294  90.0000  94.2324  90.0000
ZERR    3.00   0.000659   0.000290   0.000382   0.0000   0.0045   0.0000
LATT  1
SYMM -x, y+1/2,-z+1/2
SFAC C H N O
UNIT 33.00 30.00 3.00 3.00
TREF
HKLF 4
END
_computing_structure_solution     'SHELXT 2014/5 (Sheldrick, 2014)'
;
_shelx_hkl_checksum              83050
loop_
_space_group_symop_operation_xyz
'x, y, z'
'-x, y+1/2, -z+1/2'
'-x, -y, -z'
'x, -y-1/2, z-1/2'
loop_
_atom_site_label
_atom_site_type_symbol
_atom_site_fract_x
_atom_site_fract_y
_atom_site_fract_z
_atom_site_U_iso_or_equiv
_atom_site_adp_type
_atom_site_occupancy
_atom_site_site_symmetry_order
_atom_site_calc_flag
_atom_site_refinement_flags_posn
_atom_site_refinement_flags_adp
C1 C 0.55245(9) 0.5209(2) 0.53072(15) 0.0349(4) Uani 1 1 d . .
C2 C 0.60645(10) 0.3700(2) 0.62854(16) 0.0376(4) Uani 1 1 d . .
H2 H 0.5762 0.2383 0.6578 0.045 Uiso 1 1 calc R U
C3 C 0.70653(10) 0.4085(2) 0.68604(15) 0.0364(4) Uani 1 1 d . .
C4 C 0.76207(11) 0.2529(2) 0.78620(17) 0.0436(4) Uani 1 1 d . .
H4 H 0.7328 0.1199 0.8153 0.052 Uiso 1 1 calc R U
C5 C 0.85821(11) 0.2964(3) 0.84052(18) 0.0506(4) Uani 1 1 d . .
H5 H 0.8937 0.1926 0.9058 0.061 Uiso 1 1 calc R U
C6 C 0.90370(11) 0.4972(3) 0.7982(2) 0.0526(4) Uani 1 1 d . .
H6 H 0.9689 0.5261 0.8364 0.063 Uiso 1 1 calc R U
C7 C 0.85232(11) 0.6499(3) 0.70132(19) 0.0482(4) Uani 1 1 d . .
H7 H 0.8833 0.7812 0.6729 0.058 Uiso 1 1 calc R U
C8 C 0.75272(10) 0.6108(2) 0.64362(16) 0.0378(4) Uani 1 1 d . .
C9 C 0.69672(11) 0.7650(2) 0.54395(17) 0.0427(4) Uani 1 1 d . .
H9 H 0.7259 0.8980 0.5146 0.051 Uiso 1 1 calc R U
C10 C 0.60091(10) 0.7225(2) 0.49008(17) 0.0424(4) Uani 1 1 d . .
H10 H 0.5661 0.8277 0.4251 0.051 Uiso 1 1 calc R U
loop_
_atom_site_aniso_label
_atom_site_aniso_U_11
_atom_site_aniso_U_22
_atom_site_aniso_U_33
_atom_site_aniso_U_23
_atom_site_aniso_U_13
_atom_site_aniso_U_12
C1 0.0398(7) 0.0349(7) 0.0297(6) -0.0002(5) 0.0020(5) -0.0024(5)
C2 0.0429(8) 0.0337(7) 0.0362(7) 0.0021(5) 0.0019(6) -0.0041(6)
C3 0.0418(7) 0.0366(7) 0.0305(6) -0.0022(5) 0.0018(5) 0.0006(6)
C4 0.0494(8) 0.0411(8) 0.0400(8) 0.0014(6) 0.0009(6) 0.0035(6)
C5 0.0489(9) 0.0549(9) 0.0467(9) 0.0025(7) -0.0046(7) 0.0112(7)
C6 0.0386(7) 0.0644(11) 0.0537(9) -0.0035(8) -0.0031(6) 0.0007(7)
C7 0.0426(8) 0.0525(9) 0.0493(8) -0.0009(7) 0.0022(6) -0.0062(7)
C8 0.0404(7) 0.0400(8) 0.0328(7) -0.0022(5) 0.0023(5) -0.0019(6)
C9 0.0475(8) 0.0382(8) 0.0421(8) 0.0039(6) 0.0021(6) -0.0089(6)
C10 0.0472(8) 0.0372(8) 0.0419(8) 0.0084(6) -0.0022(6) -0.0032(6)
loop_
_atom_type_symbol
_atom_type_description
_atom_type_scat_dispersion_real
_atom_type_scat_dispersion_imag
_atom_type_scat_source
C C 0.0033 0.0016 'International Tables Vol C Tables 4.2.6.8 and 6.1.1.4'
H H 0.0000 0.0000 'International Tables Vol C Tables 4.2.6.8 and 6.1.1.4'
loop_
_geom_angle_atom_site_label_1
_geom_angle_atom_site_label_2
_geom_angle_atom_site_label_3
_geom_angle
_geom_angle_site_symmetry_3
C2 C1 C10 117.27(12) .
C2 C1 C1 122.26(15) 3_666
C10 C1 C1 120.47(15) 3_666
C1 C2 C3 122.38(12) .
C1 C2 H2 118.8 .
C3 C2 H2 118.8 .
C4 C3 C2 122.34(13) .
C4 C3 C8 118.62(13) .
C2 C3 C8 119.04(12) .
C5 C4 C3 120.77(14) .
C5 C4 H4 119.6 .
C3 C4 H4 119.6 .
C4 C5 C6 120.42(14) .
C4 C5 H5 119.8 .
C6 C5 H5 119.8 .
C7 C6 C5 120.18(14) .
C7 C6 H6 119.9 .
C5 C6 H6 119.9 .
C6 C7 C8 120.89(15) .
C6 C7 H7 119.6 .
C8 C7 H7 119.6 .
C7 C8 C9 122.69(13) .
C7 C8 C3 119.11(13) .
C9 C8 C3 118.21(12) .
C10 C9 C8 121.32(13) .
C10 C9 H9 119.3 .
C8 C9 H9 119.3 .
C9 C10 C1 121.78(13) .
C9 C10 H10 119.1 .
C1 C10 H10 119.1 .
loop_
_geom_bond_atom_site_label_1
_geom_bond_atom_site_label_2
_geom_bond_distance
_geom_bond_site_symmetry_2
C1 C2 1.3805(19) .
C1 C10 1.4272(19) .
C1 C1 1.492(2) 3_666
C2 C3 1.4194(19) .
C2 H2 0.9300 .
C3 C4 1.4192(19) .
C3 C8 1.421(2) .
C4 C5 1.368(2) .
C4 H4 0.9300 .
C5 C6 1.408(2) .
C5 H5 0.9300 .
C6 C7 1.366(2) .
C6 H6 0.9300 .
C7 C8 1.4142(19) .
C7 H7 0.9300 .
C8 C9 1.4143(19) .
C9 C10 1.3622(19) .
C9 H9 0.9300 .
C10 H10 0.9300 .
loop_
_geom_torsion_atom_site_label_1
_geom_torsion_atom_site_label_2
_geom_torsion_atom_site_label_3
_geom_torsion_atom_site_label_4
_geom_torsion
_geom_torsion_site_symmetry_1
C10 C1 C2 C3 -0.8(2) .
C1 C1 C2 C3 179.46(14) 3_666
C1 C2 C3 C4 -179.82(12) .
C1 C2 C3 C8 0.9(2) .
C2 C3 C4 C5 -179.48(13) .
C8 C3 C4 C5 -0.2(2) .
C3 C4 C5 C6 0.2(2) .
C4 C5 C6 C7 -0.5(2) .
C5 C6 C7 C8 0.8(2) .
C6 C7 C8 C9 179.60(14) .
C6 C7 C8 C3 -0.8(2) .
C4 C3 C8 C7 0.5(2) .
C2 C3 C8 C7 179.77(12) .
C4 C3 C8 C9 -179.91(12) .
C2 C3 C8 C9 -0.59(19) .
C7 C8 C9 C10 179.92(13) .
C3 C8 C9 C10 0.3(2) .
C8 C9 C10 C1 -0.2(2) .
C2 C1 C10 C9 0.5(2) .
C1 C1 C10 C9 -179.78(14) 3_666
