#------------------------------------------------------------------------------
#$Date: 2020-10-06 15:02:14 +0300 (Tue, 06 Oct 2020) $
#$Revision: 258162 $
#$URL: file:///home/coder/svn-repositories/cod/cif/1/55/74/1557469.cif $
#------------------------------------------------------------------------------
#
# This file is available in the Crystallography Open Database (COD),
# http://www.crystallography.net/
#
# All data on this site have been placed in the public domain by the
# contributors.
#
data_1557469
loop_
_publ_author_name
'MIKURIYA, Masahiro'
'HIROSHIMA, Shuichi'
'KOYAMA, Yoshiki'
'TERADA, Keisuke'
'YOSHIOKA, Daisuke'
'MITSUHASHI, Ryoji'
_publ_section_title
;
 Preparation and Crystal Structure of Sodium Tetraperoxidochromate(V)
;
_journal_issue                   0
_journal_name_full               'X-ray Structure Analysis Online'
_journal_page_first              3
_journal_page_last               5
_journal_paper_doi               10.2116/xraystruct.36.3
_journal_volume                  36
_journal_year                    2020
_chemical_formula_sum            'Cr H28 Na3 O22'
_chemical_formula_weight         501.19
_space_group_crystal_system      triclinic
_space_group_IT_number           2
_space_group_name_Hall           '-P 1'
_space_group_name_H-M_alt        'P -1'
_atom_sites_solution_hydrogens   difmap
_audit_creation_method           SHELXL-2014/7
_cell_angle_alpha                64.0870(10)
_cell_angle_beta                 81.5650(10)
_cell_angle_gamma                69.3480(10)
_cell_formula_units_Z            1
_cell_length_a                   7.5349(6)
_cell_length_b                   8.6378(7)
_cell_length_c                   8.9921(7)
_cell_measurement_reflns_used    3239
_cell_measurement_temperature    90(2)
_cell_measurement_theta_max      28.470
_cell_measurement_theta_min      2.518
_cell_volume                     492.56(7)
_computing_cell_refinement       'SAINT V8.35A (Bruker AXS Inc., 2015)'
_computing_data_collection       'APEX3 (Bruker AXS)'
_computing_data_reduction        'SAINT V8.35A (Bruker AXS Inc., 2015)'
_computing_structure_refinement  'SHELXL-2014/7 (Sheldrick, 2014)'
_computing_structure_solution    'XT, VERSION 2014/4'
_diffrn_ambient_temperature      90(2)
_diffrn_measured_fraction_theta_full 0.997
_diffrn_measured_fraction_theta_max 0.927
_diffrn_measurement_device_type  'CCD area detector'
_diffrn_measurement_method       'phi and omega scans'
_diffrn_radiation_type           MoK\a
_diffrn_radiation_wavelength     0.71073
_diffrn_reflns_av_R_equivalents  0.0096
_diffrn_reflns_av_unetI/netI     0.0246
_diffrn_reflns_Laue_measured_fraction_full 0.997
_diffrn_reflns_Laue_measured_fraction_max 0.927
_diffrn_reflns_limit_h_max       9
_diffrn_reflns_limit_h_min       -10
_diffrn_reflns_limit_k_max       10
_diffrn_reflns_limit_k_min       -10
_diffrn_reflns_limit_l_max       12
_diffrn_reflns_limit_l_min       -7
_diffrn_reflns_number            3239
_diffrn_reflns_point_group_measured_fraction_full 0.997
_diffrn_reflns_point_group_measured_fraction_max 0.927
_diffrn_reflns_theta_full        25.242
_diffrn_reflns_theta_max         28.470
_diffrn_reflns_theta_min         2.518
_diffrn_source                   'sealed tube'
_exptl_absorpt_coefficient_mu    0.743
_exptl_absorpt_correction_T_max  0.903
_exptl_absorpt_correction_T_min  0.743
_exptl_absorpt_correction_type   multi-scan
_exptl_absorpt_process_details   SADABS
_exptl_crystal_colour            brown
_exptl_crystal_density_diffrn    1.690
_exptl_crystal_description       plate
_exptl_crystal_F_000             261
_exptl_crystal_size_max          0.340
_exptl_crystal_size_mid          0.220
_exptl_crystal_size_min          0.140
_refine_diff_density_max         0.339
_refine_diff_density_min         -0.242
_refine_diff_density_rms         0.071
_refine_ls_extinction_method     none
_refine_ls_goodness_of_fit_ref   1.045
_refine_ls_hydrogen_treatment    refall
_refine_ls_matrix_type           full
_refine_ls_number_parameters     195
_refine_ls_number_reflns         2310
_refine_ls_number_restraints     0
_refine_ls_restrained_S_all      1.045
_refine_ls_R_factor_all          0.0326
_refine_ls_R_factor_gt           0.0277
_refine_ls_shift/su_max          0.000
_refine_ls_shift/su_mean         0.000
_refine_ls_structure_factor_coef Fsqd
_refine_ls_weighting_details
'w=1/[\s^2^(Fo^2^)+(0.0474P)^2^] where P=(Fo^2^+2Fc^2^)/3'
_refine_ls_weighting_scheme      calc
_refine_ls_wR_factor_gt          0.0703
_refine_ls_wR_factor_ref         0.0722
_reflns_Friedel_coverage         0.000
_reflns_number_gt                2036
_reflns_number_total             2310
_reflns_threshold_expression     'I > 2\s(I)'
_cod_data_source_file            36_3_1.txt
_cod_data_source_block           CrSH111m_0m
_cod_depositor_comments
;
The following automatic conversions were performed:

data item '_exptl_absorpt_correction_type' value 'Multi-Scan' was
changed to 'multi-scan' in accordance with the
/home/data/users/saulius/crontab/automatic-downloads/current/J-STAGE/lib/dictionaries/cif_core.dic
dictionary named 'cif_core.dic' version 2.4.2 last updated on
2011-04-26.

Automatic conversion script
Id: cif_fix_values 7556 2019-12-06 15:28:31Z antanas 

 Adding full bibliography for 1557469.cif.
;
_cod_database_code               1557469
_shelx_shelxl_version_number     2014/7
_shelx_space_group_comment
;
The symmetry employed for this shelxl refinement is uniquely defined
by the following loop, which should always be used as a source of
symmetry information in preference to the above space-group names.
They are only intended as comments.
;
_shelx_estimated_absorpt_t_min   0.786
_shelx_estimated_absorpt_t_max   0.903
_shelx_res_file
;

    CrSH111m_0m.res created by SHELXL-2014/7

TITL CrSH111m_0m_a.res in P-1
REM  Yadorkari-X generated
CELL 0.71073 7.5349 8.6378 8.9921 64.0870 81.5650 69.3480
ZERR 1.0 0.0006 0.0007 0.0007 0.0010 0.0010 0.0010
LATT 1
REM  SPGR P-1 triclinic
SFAC O Na Cr H
UNIT 22 3 1 28
SIZE 0.14 0.22 0.34
TEMP -183.0
L.S. 10
FMAP 2
PLAN -20
ACTA
CONF
HTAB
LIST 4
BOND $H
MERG 2
EQIV $1 2-X, 1-Y, 1-Z
EQIV $2 -1+X, +Y, +Z
EQIV $3 1-X, 1-Y, -Z
EQIV $4 2-X, 1-Y, -Z
EQIV $5 +X, -1+Y, +Z
EQIV $6 -1+X, +Y, -1+Z
EQIV $7 1-X, 1-Y, 1-Z
EQIV $8 +X, 1+Y, +Z
EQIV $9 2-X, -Y, 1-Z

HTAB O6 O2_$1
HTAB O6 O4B_$1
HTAB O6 O3_$2
HTAB O8 O6_$3
HTAB O5 O10_$3
HTAB O5 O4_$4
HTAB O5 O2B_$4
HTAB O7 O11_$1
HTAB O7 O1_$5
HTAB O7 O2_$5
HTAB O8 O1_$4
HTAB O8 O2B_$4
HTAB O10 O2B_$3
HTAB O10 O4B_$6
HTAB O11 O2
HTAB O11 O4_$1
HTAB O9 O11_$7
HTAB O10 O7_$2
HTAB O11 O6_$8
HTAB O9 O3_$9

WGHT    0.047400
FVAR       0.27865
CR1   3    1.000000    0.500000    0.500000    10.50000    0.00743    0.01180 =
         0.00844   -0.00513    0.00223   -0.00422
O1    1    1.064957    0.702518    0.327286    11.00000    0.01486    0.02012 =
         0.00872   -0.00403    0.00195   -0.00899
O2    1    1.063302    0.703227    0.490797    10.50000    0.01269    0.00867 =
         0.01010   -0.00272   -0.00052   -0.00470
O3    1    1.264709    0.351516    0.527795    11.00000    0.01079    0.01666 =
         0.01729   -0.01075    0.00251   -0.00378
O4    1    1.157667    0.356388    0.396906    10.50000    0.01140    0.01407 =
         0.01309   -0.00825    0.00292   -0.00342
NA1   2    0.639751    0.279841    0.122412    11.00000    0.01046    0.01251 =
         0.01324   -0.00444    0.00080   -0.00355
NA2   2    0.500000    0.000000    0.000000    10.50000    0.01164    0.01188 =
         0.01253   -0.00482   -0.00013   -0.00356
O5    1    0.694752    0.554704   -0.070120    11.00000    0.01255    0.01560 =
         0.01476   -0.00805    0.00324   -0.00619
O6    1    0.605785    0.352492    0.358866    11.00000    0.01264    0.03805 =
         0.01900   -0.01635    0.00421   -0.01021
H6    4    0.666146    0.381346    0.388943    11.00000    0.03637
H6A   4    0.512676    0.361853    0.409224    11.00000    0.03808
O7    1    0.949673    0.078647    0.204641    11.00000    0.01325    0.01675 =
         0.02788   -0.00865   -0.00056   -0.00382
O8    1    0.613007    0.258547   -0.139300    11.00000    0.01146    0.01267 =
         0.01476   -0.00351    0.00258   -0.00360
H8    4    0.537486    0.346650   -0.186643    11.00000    0.02596
H5    4    0.738854    0.616797   -0.047361    11.00000    0.02877
H5A   4    0.758179    0.551417   -0.149914    11.00000    0.02906
H7    4    1.016146    0.067074    0.271946    11.00000    0.02766
H7A   4    0.956640   -0.018577    0.228539    11.00000    0.02488
H8A   4    0.715797    0.265176   -0.200665    11.00000    0.03033
H10A  4    0.162866    0.279500   -0.102273    11.00000    0.03043
H11   4    0.822639    0.887930    0.561536    11.00000    0.04150
O9    1    0.557665    0.008828    0.251503    11.00000    0.01288    0.01409 =
         0.01348   -0.00367    0.00175   -0.00400
H9    4    0.456016    0.019316    0.296943    11.00000    0.03964
O10   1    0.203821    0.222327   -0.025014    11.00000    0.01235    0.01775 =
         0.01449   -0.00555    0.00029   -0.00456
H10   4    0.127237    0.189680    0.028557    11.00000    0.03473
O11   1    0.789493    0.962434    0.584156    11.00000    0.01633    0.01524 =
         0.01746   -0.00336    0.00251   -0.00343
H11A  4    0.759507    1.050887    0.515586    11.00000    0.04305
O2B   1    1.030915    0.570637    0.273803    10.50000    0.01440    0.01162 =
         0.00921   -0.00374    0.00155   -0.00477
H9A   4    0.621466   -0.088764    0.308167    11.00000    0.02009
O4B   1    1.205213    0.444194    0.638133    10.50000    0.01143    0.01364 =
         0.01177   -0.00732    0.00058   -0.00410
HKLF 4 1 1 0 0 0 1 0 0 0 1

REM  CrSH111m_0m_a.res in P-1
REM R1 =  0.0277 for    2036 Fo > 4sig(Fo)  and  0.0326 for all    2310 data
REM    195 parameters refined using      0 restraints

END

WGHT      0.0474      0.0000

REM Instructions for potential hydrogen bonds
HTAB O6 O2_$1
HTAB O6 O4B_$1
HTAB O6 O3_$2
HTAB O8 O6_$3
HTAB O5 O10_$3
HTAB O5 O4_$4
HTAB O5 O2B_$4
HTAB O7 O11_$1
HTAB O7 O1_$5
HTAB O7 O2_$5
HTAB O8 O1_$4
HTAB O8 O2B_$4
HTAB O10 O2B_$3
HTAB O10 O4B_$6
HTAB O11 O2
HTAB O11 O4_$1
HTAB O9 O11_$7
HTAB O10 O7_$2
HTAB O11 O6_$8
HTAB O9 O3_$9

REM Highest difference peak  0.339,  deepest hole -0.242,  1-sigma level  0.071
Q1    1   1.1317  0.3750  0.5587  11.00000  0.05    0.34
Q2    1   1.0702  0.5233  0.5674  11.00000  0.05    0.31
Q3    1   1.3478  0.3689  0.5072  11.00000  0.05    0.30
Q4    1   0.3951  0.4577  0.0648  11.00000  0.05    0.30
Q5    1   1.2582  0.3710  0.5729  11.00000  0.05    0.30
Q6    1   0.6088  0.2602  0.0600  11.00000  0.05    0.29
Q7    1   0.5041  0.0551  0.2587  11.00000  0.05    0.29
Q8    1   0.2702  0.5165  0.0780  11.00000  0.05    0.28
Q9    1   1.0571  0.4271  0.4411  11.00000  0.05    0.28
Q10   1   0.9950  0.6367  0.3745  11.00000  0.05    0.27
Q11   1   0.9908  0.2379  0.6807  11.00000  0.05    0.27
Q12   1   0.4543 -0.2417  0.1972  11.00000  0.05    0.25
Q13   1   1.0492  0.7371  0.2893  11.00000  0.05    0.25
Q14   1   1.1249  0.7877  0.6185  11.00000  0.05    0.25
Q15   1   1.1368  0.6360  0.5356  11.00000  0.05    0.24
Q16   1   1.0611  0.7149  0.3723  11.00000  0.05    0.24
Q17   1   0.6877  0.2973  0.1042  11.00000  0.05    0.24
Q18   1   0.5765  0.2941 -0.1581  11.00000  0.05    0.23
Q19   1   0.2115  0.2558  0.0394  11.00000  0.05    0.22
Q20   1   0.8842  0.1595  0.1408  11.00000  0.05    0.22
;
_shelx_res_checksum              96917
_shelx_hkl_file
;
   1   0   0   12.21    0.18
  -2   0   0   21.84    0.34
   2   0   0   21.64    0.33
  -3   0   0   77.53    0.90
   3   0   0   77.35    0.89
  -4   0   0   23.28    0.48
   4   0   0   22.36    0.46
  -5   0   0   58.01    0.90
   5   0   0   59.62    0.87
  -6   0   0    4.71    0.34
   6   0   0    5.07    0.33
  -7   0   0    4.62    0.38
   7   0   0    4.67    0.36
  -8   0   0    1.42    0.34
   8   0   0    1.66    0.30
  -9   0   0    0.27    0.36
  -9   1   0    4.32    0.53
   8  -1   0    7.92    0.53
  -8   1   0    8.35    0.57
   7  -1   0    8.00    0.46
  -7   1   0    8.21    0.50
   6  -1   0   51.25    0.90
  -6   1   0   52.46    0.96
   5  -1   0    2.39    0.23
  -5   1   0    2.45    0.25
   4  -1   0   39.41    0.65
  -4   1   0   38.82    0.66
   3  -1   0  799.41    6.70
  -3   1   0  798.11    6.70
   2  -1   0  158.90    1.53
  -2   1   0  161.79    1.51
   1  -1   0   54.94    0.59
  -1   1   0   55.45    0.56
   0  -1   0   62.19    0.59
   0  -1   0   61.50    0.61
  -1  -1   0   63.33    0.62
   1   1   0   63.26    0.59
  -2  -1   0   51.67    0.55
  -2  -1   0   51.83    0.57
   2   1   0   51.30    0.57
  -3  -1   0   21.64    0.38
  -3  -1   0   21.52    0.32
   3   1   0   21.88    0.38
  -4  -1   0   38.14    0.62
  -4  -1   0   39.46    0.49
   4   1   0   39.28    0.61
  -5  -1   0   16.52    0.45
  -5  -1   0   16.86    0.30
   5   1   0   15.91    0.42
  -6  -1   0    7.02    0.38
   6   1   0    7.07    0.34
  -7  -1   0   34.60    0.82
   7   1   0   35.45    0.75
  -8  -1   0    7.95    0.54
   8   1   0    6.99    0.48
  -9  -1   0    0.60    0.34
   8  -2   0    0.77    0.32
  -8   2   0    1.35    0.39
   7  -2   0   13.13    0.56
  -7   2   0   12.39    0.60
   6  -2   0   50.14    0.96
  -6   2   0   53.00    1.00
   5  -2   0    1.27    0.21
  -5   2   0    1.55    0.23
   4  -2   0  101.75    1.27
  -4   2   0   99.14    1.24
   3  -2   0   16.33    0.40
  -3   2   0   16.51    0.38
   2  -2   0   22.48    0.41
  -2   2   0   22.10    0.37
   1  -2   0    9.74    0.18
   1  -2   0    9.13    0.23
  -1   2   0    9.71    0.20
   0  -2   0   18.64    0.30
   0  -2   0   18.76    0.29
  -1  -2   0   29.01    0.40
  -1  -2   0   29.42    0.37
  -2  -2   0  139.54    1.27
  -2  -2   0  143.47    1.36
   2   2   0  141.59    1.30
  -3  -2   0   95.61    1.00
  -3  -2   0   96.07    1.02
   3   2   0   94.96    1.01
  -4  -2   0  290.54    2.61
  -4  -2   0  292.07    2.69
   4   2   0  289.49    2.67
  -5  -2   0    4.20    0.21
  -5  -2   0    3.80    0.26
   5   2   0    4.45    0.26
  -6  -2   0    0.03    0.16
   6   2   0    0.13    0.15
  -7  -2   0   46.10    0.92
   7   2   0   44.36    0.85
  -8  -2   0    2.50    0.34
  -9  -2   0   18.03    0.78
  -8   3   0    2.64    0.46
   7  -3   0   20.34    0.73
  -7   3   0   19.56    0.75
   6  -3   0    8.87    0.49
  -6   3   0    7.98    0.48
   5  -3   0   29.47    0.71
  -5   3   0   27.92    0.68
   4  -3   0    3.12    0.27
  -4   3   0    3.69    0.27
   3  -3   0   17.32    0.46
  -3   3   0   17.48    0.42
   2  -3   0   32.53    0.58
   2  -3   0   31.45    0.41
  -2   3   0   31.81    0.49
   1  -3   0    2.27    0.13
   1  -3   0    2.01    0.16
  -1   3   0    2.21    0.13
   0  -3   0  179.65    1.71
   0  -3   0  177.54    1.67
  -1  -3   0  428.59    3.71
  -1  -3   0  428.57    3.67
  -2  -3   0   58.27    0.57
  -2  -3   0   56.97    0.74
   2   3   0   55.89    0.67
  -3  -3   0   25.56    0.47
  -3  -3   0   25.82    0.39
   3   3   0   25.67    0.42
  -4  -3   0   44.73    0.65
  -4  -3   0   43.84    0.67
   4   3   0   45.74    0.65
  -5  -3   0    0.32    0.14
  -5  -3   0    0.38    0.13
   5   3   0    0.34    0.15
  -6  -3   0   35.51    0.71
  -6  -3   0   36.50    0.62
   6   3   0   34.73    0.69
  -7  -3   0    8.77    0.46
   7   3   0    8.92    0.43
  -8  -3   0   -0.06    0.25
  -9  -3   0   20.91    0.80
   7  -4   0    3.35    0.45
  -7   4   0    3.53    0.45
   6  -4   0    0.88    0.29
  -6   4   0    1.13    0.30
   5  -4   0   10.96    0.53
  -5   4   0   11.41    0.50
   4  -4   0    0.37    0.21
  -4   4   0    0.62    0.19
   3  -4   0    4.25    0.32
  -3   4   0    4.28    0.27
   2  -4   0   52.16    0.84
   2  -4   0   52.96    0.65
  -2   4   0   50.92    0.69
   1  -4   0   43.57    0.70
   1  -4   0   43.90    0.60
   0  -4   0  158.17    1.64
   0  -4   0  155.71    1.58
  -1  -4   0   29.14    0.50
  -1  -4   0   29.09    0.51
  -2  -4   0   15.27    0.35
  -2  -4   0   15.43    0.39
  -3  -4   0   74.85    0.99
  -3  -4   0   76.07    0.79
   3   4   0   74.75    0.89
  -4  -4   0   58.94    0.87
  -4  -4   0   58.70    0.74
   4   4   0   57.61    0.79
  -5  -4   0   26.71    0.57
  -5  -4   0   28.89    0.54
   5   4   0   27.61    0.56
  -6  -4   0   64.62    0.98
  -6  -4   0   64.07    0.96
   6   4   0   65.17    0.99
  -7  -4   0    0.30    0.20
  -7  -4   0    0.11    0.21
  -8  -4   0    1.06    0.30
  -9  -4   0    3.59    0.45
   6  -5   0    1.19    0.37
   5  -5   0    2.92    0.36
   4  -5   0    1.12    0.25
   3  -5   0  119.45    1.62
   2  -5   0    5.14    0.33
   1  -5   0   44.85    0.79
   1  -5   0   44.34    0.67
   0  -5   0   14.59    0.42
   0  -5   0   14.01    0.38
  -1  -5   0   67.76    0.94
  -1  -5   0   67.40    0.93
  -2  -5   0   45.21    0.76
  -2  -5   0   45.59    0.72
  -3  -5   0   46.97    0.79
   3   5   0   46.54    0.70
  -4  -5   0   26.28    0.60
   4   5   0   26.74    0.52
  -5  -5   0    6.70    0.36
  -5  -5   0    6.38    0.31
   5   5   0    6.35    0.32
  -6  -5   0    1.13    0.22
  -6  -5   0    1.08    0.21
   6   5   0    1.14    0.21
  -7  -5   0    1.16    0.26
  -7  -5   0    1.48    0.25
  -8  -5   0    0.25    0.28
  -9  -5   0   16.22    0.73
   5  -6   0    0.05    0.32
   4  -6   0   14.60    0.66
   3  -6   0    0.14    0.21
   2  -6   0   22.76    0.66
   1  -6   0   15.82    0.53
   1  -6   0   16.32    0.45
   0  -6   0    5.49    0.29
   0  -6   0    4.60    0.31
  -1  -6   0   16.96    0.48
  -1  -6   0   17.46    0.49
  -2  -6   0    7.47    0.35
  -2  -6   0    7.53    0.35
  -3  -6   0    7.61    0.37
   3   6   0    6.98    0.32
  -4  -6   0   19.14    0.56
   4   6   0   19.73    0.49
  -5  -6   0    0.08    0.19
   5   6   0    0.02    0.16
  -6  -6   0    7.37    0.44
  -7  -6   0   18.98    0.65
  -8  -6   0   18.76    0.68
   4  -7   0    6.32    0.59
   3  -7   0    1.52    0.33
   2  -7   0    0.60    0.25
   1  -7   0    6.56    0.43
   0  -7   0    0.65    0.19
   0  -7   0    0.48    0.19
  -1  -7   0   63.19    1.05
  -1  -7   0   62.25    1.01
  -2  -7   0    5.27    0.36
  -2  -7   0    4.87    0.35
  -3  -7   0    0.40    0.19
   3   7   0    0.25    0.18
  -4  -7   0   13.36    0.53
   4   7   0   13.47    0.45
  -5  -7   0   10.75    0.51
   5   7   0   10.57    0.43
  -6  -7   0    4.11    0.39
  -7  -7   0   18.17    0.69
  -8  -7   0    6.28    0.51
   2  -8   0   13.74    0.69
   1  -8   0   21.69    0.75
   0  -8   0    5.72    0.40
   0  -8   0    5.28    0.42
  -1  -8   0    1.32    0.26
  -1  -8   0    1.34    0.27
  -2  -8   0    2.87    0.33
  -2  -8   0    2.93    0.32
  -3  -8   0    0.63    0.23
  -3  -8   0    0.59    0.22
  -4  -8   0    5.02    0.41
   4   8   0    6.52    0.41
  -5  -8   0    4.84    0.43
   5   8   0    5.19    0.57
  -6  -8   0    9.73    0.59
  -7  -8   0   10.86    0.65
  -8  -8   0   18.46    0.80
   0  -9   0    0.34    0.32
  -1  -9   0   15.70    0.63
  -1  -9   0   17.39    0.69
  -2  -9   0   27.03    0.80
  -2  -9   0   26.61    0.80
  -3  -9   0   13.94    0.64
   3   9   0   13.82    0.60
  -4  -9   0    0.77    0.30
   4   9   0    1.17    0.28
  -5  -9   0   22.43    0.82
  -6  -9   0    6.09    0.55
  -7  -9   0    2.35    0.45
  -2 -10   0   27.36    0.93
  -2 -10   0   28.08    0.89
  -3 -10   0    1.28    0.36
   3  10   0    0.64    0.36
  -4 -10   0    2.04    0.43
  -5 -10   0    1.23    0.40
  -6  -9   1    8.58    0.64
  -5  -9   1    0.02    0.33
  -4  -9   1   34.66    0.98
  -3  -9   1    0.54    0.30
  -2  -9   1    5.39    0.48
  -2  -9   1    5.72    0.48
  -1  -9   1   15.15    0.70
  -1  -9   1   14.32    0.67
   0  -9   1    6.43    0.55
  -8  -8   1    3.20    0.49
  -7  -8   1   31.55    0.97
  -6  -8   1    3.71    0.45
  -5  -8   1   17.21    0.72
  -4  -8   1   14.43    0.64
  -3  -8   1   19.28    0.62
  -3  -8   1   18.31    0.67
  -2  -8   1   11.54    0.56
  -2  -8   1   11.68    0.54
  -1  -8   1    8.16    0.50
  -1  -8   1    7.09    0.48
   0  -8   1    0.68    0.27
   0  -8   1    0.94    0.43
   1  -8   1   21.82    0.78
   2  -8   1    0.56    0.36
  -8  -7   1   36.97    1.01
  -7  -7   1   15.16    0.70
  -6  -7   1   27.66    0.82
  -5  -7   1   23.28    0.75
   4   7  -1    5.31    0.35
  -4  -7   1    5.04    0.41
  -3  -7   1    4.24    0.32
  -3  -7   1    3.34    0.34
  -2  -7   1   20.62    0.59
  -2  -7   1   22.40    0.65
  -1  -7   1    9.16    0.45
  -1  -7   1    9.12    0.44
   0  -7   1   32.24    0.78
   0  -7   1   32.64    0.73
   1  -7   1    4.95    0.40
   2  -7   1    2.89    0.38
   3  -7   1   13.11    0.69
  -8  -6   1    8.82    0.58
  -7  -6   1    1.06    0.29
  -6  -6   1   11.28    0.54
  -5  -6   1    1.18    0.27
   4   6  -1   16.28    0.45
  -4  -6   1   17.31    0.58
  -3  -6   1   90.69    1.18
  -3  -6   1   90.39    1.34
  -2  -6   1   47.55    0.89
  -2  -6   1   46.76    0.81
  -1  -6   1    1.06    0.20
  -1  -6   1    0.78    0.18
   0  -6   1   18.95    0.52
   0  -6   1   17.19    0.53
   1  -6   1    1.96    0.26
   1  -6   1    2.11    0.24
   2  -6   1    9.27    0.49
   3  -6   1   13.25    0.61
   4  -6   1    6.60    0.52
  -7  -5   1    0.29    0.23
  -6  -5   1   80.02    1.24
   5   5  -1   30.92    0.71
  -5  -5   1   29.04    0.71
   4   5  -1   59.92    0.82
  -4  -5   1   59.97    1.00
   3   5  -1   15.94    0.39
  -3  -5   1   15.14    0.49
  -2  -5   1    3.69    0.27
  -2  -5   1    3.42    0.23
  -1  -5   1   22.03    0.53
  -1  -5   1   21.20    0.48
   0  -5   1   20.34    0.49
   0  -5   1   19.56    0.50
   1  -5   1   14.87    0.41
   1  -5   1   14.88    0.47
   2  -5   1   35.86    0.77
   3  -5   1    0.65    0.22
   4  -5   1   21.33    0.71
   5  -5   1    2.77    0.39
  -9  -4   1   17.27    0.75
  -8  -4   1    3.64    0.39
  -7  -4   1   36.57    0.81
  -7  -4   1   36.82    0.77
  -6  -4   1    3.16    0.29
  -6  -4   1    3.31    0.29
   5   4  -1    0.43    0.15
  -5  -4   1    0.32    0.15
  -5  -4   1    0.34    0.17
   4   4  -1    9.51    0.30
  -4  -4   1    9.24    0.38
  -4  -4   1   10.21    0.30
   3   4  -1   48.25    0.65
  -3  -4   1   48.15    0.80
  -3  -4   1   49.10    0.58
  -2  -4   1   47.31    0.49
  -2  -4   1   46.01    0.65
  -2  -4   1   46.12    0.75
  -1  -4   1    7.03    0.29
  -1  -4   1    6.87    0.25
   0  -4   1   79.55    0.99
   0  -4   1   78.86    1.00
   1  -4   1  191.90    1.89
   1  -4   1  190.23    2.01
   2  -4   1    4.01    0.27
   2  -4   1    4.10    0.22
   3  -4   1    0.05    0.15
   4  -4   1   17.68    0.60
   5  -4   1    0.35    0.25
   6  -4   1    3.12    0.40
  -9  -3   1    1.22    0.36
  -8  -3   1    1.48    0.31
  -7  -3   1   10.71    0.50
  -6  -3   1   40.13    0.72
  -6  -3   1   39.08    0.76
   5   3  -1   37.72    0.62
  -5  -3   1   37.01    0.67
  -5  -3   1   39.41    0.67
   4   3  -1    0.64    0.12
  -4  -3   1    0.32    0.11
  -4  -3   1    0.68    0.15
   3   3  -1    5.34    0.19
  -3  -3   1    5.69    0.26
  -3  -3   1    5.19    0.19
  -2  -3   1  998.94    8.36
  -2  -3   1 1000.00    8.07
  -2  -3   1  998.88    8.18
  -1  -3   1    2.76    0.14
  -1  -3   1    2.57    0.18
   0  -3   1   10.30    0.27
   0  -3   1   10.06    0.28
   1  -3   1    3.95    0.21
   1  -3   1    3.91    0.19
   2  -3   1   14.49    0.30
   2  -3   1   14.78    0.40
  -3   3  -1   53.57    0.78
   3  -3   1   52.54    0.87
  -4   3  -1   17.65    0.49
   4  -3   1   16.78    0.52
  -5   3  -1    1.85    0.26
   5  -3   1    1.65    0.26
  -6   3  -1    1.51    0.30
   6  -3   1    1.43    0.29
  -7   3  -1    0.00    0.29
   7  -3   1    0.15    0.30
  -9  -2   1   22.07    0.82
  -8  -2   1   28.85    0.82
  -7  -2   1    0.76    0.24
   6   2  -1    9.33    0.37
  -6  -2   1    8.33    0.40
   5   2  -1  250.76    2.41
  -5  -2   1  256.52    2.52
  -5  -2   1  259.37    2.44
   4   2  -1   61.44    0.76
  -4  -2   1   61.94    0.82
  -4  -2   1   61.49    0.81
   3   2  -1   29.79    0.42
  -3  -2   1   29.63    0.51
  -3  -2   1   30.25    0.45
   2   2  -1   13.59    0.23
  -2  -2   1   13.54    0.23
  -2  -2   1   13.56    0.32
  -1  -2   1   11.14    0.21
  -1  -2   1   11.24    0.28
   0  -2   1   29.28    0.44
   0  -2   1   29.31    0.41
   1  -2   1   14.35    0.27
  -2   2  -1   49.49    0.65
   2  -2   1   50.02    0.56
   2  -2   1   50.66    0.72
  -3   2  -1    3.70    0.22
  -4   2  -1    0.36    0.15
   4  -2   1    0.34    0.14
  -5   2  -1   43.03    0.81
   5  -2   1   41.60    0.83
  -6   2  -1   21.08    0.65
   6  -2   1   21.17    0.65
  -7   2  -1    2.61    0.37
   7  -2   1    2.65    0.36
  -8   2  -1    7.68    0.57
   8  -2   1    6.77    0.55
  -9  -1   1    7.45    0.58
  -8  -1   1   12.97    0.61
  -7  -1   1    5.96    0.43
   6   1  -1   37.82    0.67
  -6  -1   1   38.45    0.77
   5   1  -1   10.39    0.32
  -5  -1   1    9.58    0.36
  -5  -1   1   10.75    0.30
   4   1  -1    0.02    0.08
  -4  -1   1    0.09    0.09
  -4  -1   1    0.21    0.10
   3   1  -1   11.57    0.24
  -3  -1   1   11.30    0.27
  -3  -1   1   11.56    0.27
   2   1  -1    7.21    0.15
  -2  -1   1    6.87    0.17
  -2  -1   1    7.11    0.20
  -1  -1   1   11.13    0.15
  -1  -1   1   10.70    0.23
   0  -1   1  106.14    1.01
   0  -1   1  106.06    0.97
   1  -1   1    0.22    0.06
   1  -1   1    0.60    0.07
  -2   1  -1  270.94    2.41
   2  -1   1  269.37    2.26
   2  -1   1  272.78    2.47
  -3   1  -1   76.23    0.93
   3  -1   1   76.24    0.96
  -4   1  -1   32.17    0.60
   4  -1   1   31.73    0.62
  -5   1  -1   72.41    1.08
   5  -1   1   73.17    1.08
  -6   1  -1    8.31    0.45
   6  -1   1    8.91    0.43
  -7   1  -1   26.12    0.76
   7  -1   1   24.17    0.71
  -8   1  -1   21.22    0.81
   8  -1   1   22.32    0.77
  -9   1  -1    1.73    0.45
  -9   0   1    6.52    0.58
  -8   0   1    0.11    0.28
   7   0  -1   17.68    0.53
  -7   0   1   17.45    0.62
   6   0  -1    0.07    0.15
  -6   0   1    0.08    0.17
   5   0  -1   24.00    0.50
  -5   0   1   22.59    0.55
   4   0  -1   13.70    0.33
  -4   0   1   13.24    0.36
  -4   0   1   13.91    0.27
   3   0  -1   30.02    0.43
  -3   0   1   29.93    0.40
  -3   0   1   29.91    0.47
   2   0  -1    9.38    0.18
  -2   0   1    9.35    0.19
  -2   0   1    9.38    0.21
   1   0  -1  317.22    2.57
  -1   0   1  320.20    2.65
   0   0   1   40.68    0.41
   0   0   1   40.52    0.38
   1   0   1  215.81    1.88
  -2   0  -1  111.28    1.10
   2   0   1  110.05    1.13
   3   0   1    2.50    0.17
  -4   0  -1   74.96    0.99
   4   0   1   76.04    1.00
  -5   0  -1   23.61    0.57
   5   0   1   24.07    0.56
  -6   0  -1    5.03    0.35
   6   0   1    4.17    0.32
  -7   0  -1   19.44    0.66
   7   0   1   20.22    0.62
  -8   0  -1    3.84    0.42
   8   0   1    4.12    0.40
  -9   0  -1    0.59    0.39
   9   0   1    0.23    0.34
  -9   1   1    9.03    0.69
  -8   1   1    1.74    0.36
   7  -1  -1    1.18    0.24
  -7   1   1    0.91    0.26
   6  -1  -1    4.79    0.32
  -6   1   1    5.09    0.37
   5  -1  -1    1.60    0.18
  -5   1   1    1.57    0.21
   4  -1  -1   21.53    0.44
  -4   1   1   21.97    0.48
   3  -1  -1   20.26    0.37
  -3   1   1   19.89    0.26
  -3   1   1   19.48    0.39
   2  -1  -1  346.94    2.96
  -2   1   1  343.34    2.84
  -2   1   1  349.29    2.99
   1  -1  -1   61.35    0.61
  -1   1   1   61.46    0.61
  -1   1   1   61.35    0.57
   0  -1  -1   91.50    0.82
   1   1   1  188.53    1.63
   2   1   1   69.25    0.77
  -3  -1  -1   31.14    0.49
   3   1   1   31.66    0.51
  -4  -1  -1  143.56    1.53
   4   1   1  144.05    1.55
  -5  -1  -1   10.83    0.38
   5   1   1    9.60    0.37
  -6  -1  -1    0.44    0.19
   6   1   1    0.29    0.17
  -7  -1  -1    8.25    0.47
   7   1   1    8.77    0.45
  -8  -1  -1   18.73    0.71
   8   1   1   18.42    0.66
  -9  -1  -1    6.67    0.56
   9   1   1    7.22    0.54
  -8   2   1    3.15    0.44
   7  -2  -1    0.62    0.24
  -7   2   1    0.26    0.26
   6  -2  -1    3.30    0.30
  -6   2   1    3.23    0.33
   5  -2  -1  182.46    1.99
  -5   2   1  184.24    2.06
   4  -2  -1   19.88    0.46
  -4   2   1   19.33    0.48
   3  -2  -1  148.78    1.54
  -3   2   1  145.21    1.52
   2  -2  -1    5.40    0.19
  -2   2   1    5.35    0.18
   1  -2  -1  115.65    1.15
  -1   2   1  117.89    1.08
   0  -2  -1  156.08    1.42
  -1  -2  -1  265.27    2.29
   1   2   1  268.02    2.29
  -2  -2  -1    1.71    0.10
  -2  -2  -1    1.70    0.11
   2   2   1    1.77    0.11
  -3  -2  -1   77.78    0.87
  -3  -2  -1   76.74    0.82
   3   2   1   76.74    0.89
  -4  -2  -1   11.42    0.26
  -4  -2  -1   11.71    0.32
   4   2   1   11.48    0.34
  -5  -2  -1   36.59    0.67
   5   2   1   38.74    0.69
  -6  -2  -1    4.06    0.31
   6   2   1    4.81    0.33
  -7  -2  -1    3.45    0.33
   7   2   1    3.70    0.33
  -8  -2  -1   -0.12    0.25
   8   2   1    0.27    0.24
  -9  -2  -1   40.37    1.04
  -8   3   1   21.55    0.88
   7  -3  -1    0.33    0.28
  -7   3   1    0.40    0.30
   6  -3  -1   36.52    0.83
  -6   3   1   34.64    0.84
   5  -3  -1    1.36    0.23
  -5   3   1    1.79    0.25
   4  -3  -1   27.81    0.61
  -4   3   1   27.45    0.59
   3  -3  -1   11.94    0.37
  -3   3   1   11.47    0.34
   2  -3  -1   29.17    0.52
  -2   3   1   28.86    0.46
   1  -3  -1   13.74    0.31
  -1   3   1   14.06    0.25
   0  -3  -1  119.07    1.17
   0  -3  -1  123.41    1.23
   0   3   1  119.97    1.05
  -1  -3  -1    0.80    0.09
  -1  -3  -1    0.84    0.09
  -2  -3  -1  193.39    1.82
   2   3   1  195.07    1.80
  -3  -3  -1   13.06    0.27
  -3  -3  -1   13.49    0.31
   3   3   1   13.36    0.31
  -4  -3  -1    3.35    0.18
  -4  -3  -1    2.74    0.19
   4   3   1    3.20    0.22
  -5  -3  -1   45.77    0.66
  -5  -3  -1   44.64    0.74
   5   3   1   46.98    0.77
  -6  -3  -1   95.06    1.29
  -6  -3  -1   95.32    1.12
   6   3   1   93.32    1.29
  -7  -3  -1    4.20    0.35
   7   3   1    3.77    0.33
  -8  -3  -1   34.55    0.89
   8   3   1   33.58    0.84
  -9  -3  -1   14.41    0.70
 -10  -3  -1    3.70    0.53
   7  -4  -1    9.14    0.59
  -7   4   1    9.46    0.60
   6  -4  -1    0.34    0.26
  -6   4   1    0.36    0.27
   5  -4  -1    9.28    0.48
  -5   4   1    9.66    0.46
   4  -4  -1    4.15    0.32
  -4   4   1    4.11    0.31
   3  -4  -1    0.32    0.15
  -3   4   1    0.44    0.14
   2  -4  -1    9.29    0.34
  -2   4   1    9.55    0.29
   1  -4  -1  256.33    2.47
  -1   4   1  254.90    2.25
   0  -4  -1    0.09    0.07
   0  -4  -1    0.18    0.09
   0   4   1    0.13    0.05
  -1  -4  -1   25.61    0.46
  -1  -4  -1   25.64    0.45
  -2  -4  -1  111.99    1.23
   2   4   1  111.62    1.19
  -3  -4  -1   88.10    1.06
  -3  -4  -1   87.87    0.89
   3   4   1   88.89    1.02
  -4  -4  -1   52.69    0.77
  -4  -4  -1   53.01    0.70
   4   4   1   52.37    0.76
  -5  -4  -1   90.38    1.13
  -5  -4  -1   91.97    1.12
   5   4   1   91.98    1.18
  -6  -4  -1   21.83    0.50
  -6  -4  -1   21.95    0.56
   6   4   1   20.41    0.58
  -7  -4  -1    0.11    0.21
   7   4   1    0.03    0.21
  -8  -4  -1    3.74    0.39
   8   4   1    4.47    0.40
  -9  -4  -1   10.62    0.66
 -10  -4  -1   -0.22    0.40
   6  -5  -1    0.18    0.30
   5  -5  -1    3.27    0.37
  -5   5   1    3.48    0.35
   4  -5  -1   40.80    0.90
  -4   5   1   41.29    0.80
   3  -5  -1   16.75    0.54
  -3   5   1   16.41    0.45
   2  -5  -1   50.02    0.87
  -2   5   1   50.61    0.71
  -1   5   1   31.62    0.47
   0  -5  -1   25.38    0.53
   0  -5  -1   26.17    0.49
  -1  -5  -1   13.06    0.37
  -1  -5  -1   13.04    0.36
  -2  -5  -1   23.32    0.49
  -2  -5  -1   22.42    0.48
  -3  -5  -1   27.03    0.55
   3   5   1   27.64    0.52
  -4  -5  -1    0.22    0.13
  -4  -5  -1    0.46    0.12
   4   5   1    0.42    0.13
  -5  -5  -1   18.23    0.43
  -5  -5  -1   18.00    0.49
   5   5   1   17.19    0.48
  -6  -5  -1   20.46    0.54
  -6  -5  -1   20.48    0.55
   6   5   1   20.86    0.57
  -7  -5  -1    0.69    0.22
  -7  -5  -1    0.47    0.23
   7   5   1    0.69    0.25
  -8  -5  -1    0.11    0.27
  -9  -5  -1    1.15    0.37
 -10  -5  -1   17.94    0.85
   5  -6  -1   39.04    1.02
   4  -6  -1    3.30    0.38
   3  -6  -1    9.74    0.50
   2  -6  -1    1.35    0.23
   1  -6  -1   36.39    0.75
   0  -6  -1   91.50    1.16
   0  -6  -1   93.88    1.26
  -1  -6  -1   24.21    0.54
  -1  -6  -1   23.84    0.56
  -2  -6  -1    6.36    0.32
  -2  -6  -1    6.63    0.31
  -3  -6  -1   19.83    0.53
   3   6   1   20.34    0.48
  -4  -6  -1    1.65    0.22
   4   6   1    1.70    0.20
  -5  -6  -1    6.90    0.38
   5   6   1    6.66    0.36
  -6  -6  -1    8.34    0.43
   6   6   1    9.00    0.43
  -7  -6  -1    7.78    0.45
   7   6   1    7.92    0.48
   4  -7  -1   24.11    0.87
   3  -7  -1   29.93    0.85
   2  -7  -1    4.26    0.38
   1  -7  -1   -0.04    0.19
   0  -7  -1   24.41    0.58
   0  -7  -1   25.08    0.65
  -1  -7  -1   -0.15    0.15
  -1  -7  -1    0.05    0.15
  -2  -7  -1    5.81    0.36
  -2  -7  -1    6.92    0.37
  -3  -7  -1    1.43    0.23
   3   7   1    1.49    0.22
  -4  -7  -1   12.25    0.49
   4   7   1   12.63    0.44
  -5  -7  -1    4.10    0.36
   5   7   1    3.26    0.29
  -6  -7  -1    9.70    0.51
   6   7   1    9.39    0.46
  -7  -7  -1    7.22    0.49
  -8  -7  -1    3.95    0.42
   3  -8  -1    7.27    0.59
   2  -8  -1    6.67    0.51
   1  -8  -1    5.83    0.45
   0  -8  -1    0.78    0.25
   0  -8  -1    1.27    0.24
  -1  -8  -1    1.97    0.27
  -1  -8  -1    1.73    0.28
  -2  -8  -1    2.60    0.29
  -2  -8  -1    2.10    0.28
  -3  -8  -1    6.40    0.43
   3   8   1    7.12    0.40
  -4  -8  -1    9.14    0.49
   4   8   1    9.18    0.44
  -5  -8  -1    8.02    0.50
   5   8   1    8.52    0.45
  -6  -8  -1    3.16    0.38
   6   8   1    3.56    0.35
  -7  -8  -1   12.01    0.64
  -8  -8  -1   16.37    0.75
   1  -9  -1    0.38    0.32
   0  -9  -1    3.85    0.43
  -1  -9  -1   15.91    0.66
  -1  -9  -1   14.55    0.60
  -2  -9  -1   12.06    0.59
  -2  -9  -1   12.67    0.57
  -3  -9  -1    0.87    0.27
   3   9   1    1.13    0.27
  -4  -9  -1    4.12    0.41
   4   9   1    4.05    0.37
  -5  -9  -1    7.92    0.57
   5   9   1    8.54    0.52
  -6  -9  -1    9.12    0.62
  -7  -9  -1    0.06    0.35
  -8  -9  -1    0.37    0.38
  -1 -10  -1    4.42    0.50
  -2 -10  -1    4.72    0.49
  -2 -10  -1    4.98    0.47
  -3 -10  -1    6.10    0.51
   3  10   1    5.89    0.48
  -4 -10  -1    3.09    0.41
   4  10   1    3.16    0.40
  -5 -10  -1    0.14    0.33
   5  10   1    0.11    0.32
  -6 -10  -1    2.17    0.45
  -5  -9   2   17.89    0.86
  -4  -9   2    4.64    0.52
  -3  -9   2    2.31    0.40
  -2  -9   2   10.31    0.68
  -1  -9   2    0.86    0.34
  -1  -9   2    1.93    0.42
  -7  -8   2    2.08    0.44
  -6  -8   2   26.85    0.94
  -5  -8   2    8.31    0.59
  -4  -8   2    4.06    0.45
  -3  -8   2   11.75    0.62
  -2  -8   2   12.89    0.57
  -2  -8   2   11.44    0.59
  -1  -8   2   11.79    0.59
  -1  -8   2   11.81    0.58
   0  -8   2   10.38    0.59
   1  -8   2    1.17    0.34
  -8  -7   2    0.37    0.38
  -7  -7   2    1.91    0.39
  -6  -7   2    2.96    0.41
  -5  -7   2   19.13    0.72
  -4  -7   2   16.94    0.69
  -3  -7   2    6.39    0.48
  -2  -7   2    4.42    0.34
  -2  -7   2    4.20    0.38
  -1  -7   2   13.59    0.53
  -1  -7   2   15.01    0.58
   0  -7   2    5.77    0.41
   0  -7   2    5.32    0.39
   1  -7   2    3.05    0.36
   2  -7   2    4.73    0.45
   3  -7   2    0.14    0.37
  -8  -6   2   25.81    0.86
  -7  -6   2   15.43    0.68
  -6  -6   2    2.20    0.35
  -5  -6   2    0.51    0.26
  -4  -6   2   77.88    1.30
  -3  -6   2   13.72    0.44
  -3  -6   2   12.50    0.54
  -2  -6   2   19.35    0.61
  -2  -6   2   18.94    0.52
  -1  -6   2    4.90    0.32
  -1  -6   2    4.83    0.36
   0  -6   2    2.13    0.27
   0  -6   2    1.97    0.25
   1  -6   2   28.63    0.85
   1  -6   2   28.78    0.74
   2  -6   2   28.46    0.77
   3  -6   2    0.68    0.28
   4  -6   2    4.33    0.48
  -7  -5   2   45.74    0.99
  -6  -5   2    0.24    0.23
  -5  -5   2   25.25    0.71
  -4  -5   2    0.25    0.19
   3   5  -2    0.42    0.14
  -3  -5   2    0.09    0.17
  -2  -5   2   25.55    0.53
  -2  -5   2   25.87    0.65
  -1  -5   2    4.66    0.28
  -1  -5   2    4.85    0.34
   0  -5   2    1.73    0.21
   0  -5   2    2.11    0.24
   1  -5   2    8.94    0.38
   1  -5   2    8.89    0.40
   2  -5   2    1.95    0.26
   3  -5   2    7.90    0.46
   4  -5   2   18.31    0.70
   5  -5   2    4.65    0.48
  -9  -4   2    0.21    0.35
  -8  -4   2   19.80    0.72
  -7  -4   2    1.69    0.30
  -7  -4   2    1.98    0.30
  -6  -4   2    6.35    0.37
  -6  -4   2    5.89    0.41
  -5  -4   2    0.42    0.20
  -5  -4   2    0.36    0.17
  -4  -4   2    7.52    0.39
  -4  -4   2    8.21    0.29
   3   4  -2   16.22    0.35
  -3  -4   2   15.76    0.50
  -3  -4   2   16.47    0.33
  -2  -4   2   80.00    1.13
  -2  -4   2   80.22    0.96
  -1  -4   2   12.06    0.41
  -1  -4   2   11.97    0.34
   0  -4   2   13.08    0.37
   0  -4   2   12.69    0.41
   1  -4   2   55.16    0.86
   1  -4   2   54.00    0.81
   2  -4   2   25.65    0.62
   2  -4   2   25.66    0.51
   3  -4   2   16.02    0.54
   4  -4   2    4.45    0.37
   5  -4   2    4.76    0.43
   6  -4   2   18.02    0.78
  -9  -3   2   23.56    0.84
  -8  -3   2    0.38    0.28
  -7  -3   2   25.38    0.69
  -6  -3   2   11.98    0.45
  -6  -3   2   11.07    0.44
  -5  -3   2   44.23    0.80
  -5  -3   2   44.26    0.73
   4   3  -2   10.33    0.27
  -4  -3   2   10.44    0.40
  -4  -3   2   10.72    0.31
   3   3  -2   34.47    0.46
  -3  -3   2   35.34    0.50
  -3  -3   2   33.52    0.66
  -2  -3   2   85.32    1.12
  -2  -3   2   87.34    0.92
  -1  -3   2   60.96    0.87
  -1  -3   2   60.88    0.74
   0  -3   2   13.55    0.33
   0  -3   2   13.08    0.37
   1  -3   2    2.39    0.19
   1  -3   2    2.34    0.19
   2  -3   2    9.44    0.35
   2  -3   2   10.39    0.30
   3  -3   2    8.26    0.37
   4  -3   2   18.56    0.56
   5  -3   2    8.39    0.45
   6  -3   2    2.46    0.36
   7  -3   2    0.40    0.34
  -9  -2   2    0.38    0.34
  -8  -2   2   19.97    0.74
  -7  -2   2   13.68    0.55
  -6  -2   2    7.28    0.39
  -6  -2   2    7.49    0.37
  -5  -2   2    0.31    0.15
  -5  -2   2    0.09    0.13
   4   2  -2   39.08    0.52
  -4  -2   2   38.70    0.67
  -4  -2   2   38.93    0.61
   3   2  -2    1.19    0.10
  -3  -2   2    0.86    0.14
  -3  -2   2    1.32    0.12
   2   2  -2   19.62    0.27
  -2  -2   2   19.12    0.43
  -1  -2   2   27.24    0.37
  -1  -2   2   27.17    0.50
   0  -2   2    1.13    0.13
   0  -2   2    1.13    0.11
   1  -2   2   18.28    0.37
   1  -2   2   19.01    0.38
   2  -2   2   91.51    0.99
   2  -2   2   91.85    1.12
   3  -2   2   15.99    0.43
   4  -2   2    5.50    0.33
   5  -2   2    6.28    0.38
   6  -2   2   23.07    0.71
   7  -2   2    4.05    0.42
  -9  -1   2    0.11    0.34
  -8  -1   2    1.71    0.34
  -7  -1   2   66.70    1.17
  -6  -1   2    5.40    0.37
   5   1  -2   97.08    1.08
  -5  -1   2   98.57    1.24
  -5  -1   2   98.09    1.16
   4   1  -2    0.45    0.09
  -4  -1   2    0.56    0.12
  -4  -1   2    0.49    0.13
   3   1  -2    1.76    0.11
  -3  -1   2    1.67    0.16
  -3  -1   2    1.33    0.13
   2   1  -2   21.32    0.23
  -2  -1   2   21.35    0.41
  -1  -1   2  309.90    2.55
  -1  -1   2  310.84    2.76
   0  -1   2   67.10    0.77
   0  -1   2   67.46    0.69
   1  -1   2  243.98    2.18
   1  -1   2  246.19    2.22
   2  -1   2   13.86    0.26
   2  -1   2   12.90    0.33
   3  -1   2   52.79    0.59
   3  -1   2   52.47    0.80
   4  -1   2    9.47    0.38
  -5   1  -2    3.64    0.29
   5  -1   2    2.72    0.27
  -6   1  -2    5.00    0.38
   6  -1   2    5.22    0.39
   7  -1   2   36.94    0.90
   8  -1   2    0.02    0.29
  -9   0   2   -0.37    0.35
  -8   0   2   34.50    0.94
  -7   0   2    2.36    0.33
  -6   0   2    2.83    0.29
   5   0  -2    2.27    0.18
  -5   0   2    1.63    0.20
   4   0  -2   33.56    0.48
  -4   0   2   33.35    0.52
  -4   0   2   33.59    0.59
   3   0  -2    5.23    0.15
  -3   0   2    5.30    0.21
  -3   0   2    5.08    0.21
   2   0  -2  375.57    3.06
  -2   0   2  377.41    3.23
  -1   0   2    9.17    0.22
   0   0   2   99.21    0.96
   0   0   2   97.59    0.90
   1   0   2   16.15    0.26
   1   0   2   16.50    0.29
   2   0   2    2.56    0.17
   2   0   2    2.12    0.11
   3   0   2    2.56    0.12
   3   0   2    2.26    0.18
  -4   0  -2   91.23    1.14
   4   0   2   91.48    0.94
   4   0   2   90.95    1.18
  -5   0  -2    0.33    0.16
   5   0   2    0.35    0.16
  -6   0  -2   62.24    1.05
   6   0   2   60.64    1.05
  -7   0  -2   11.81    0.55
   7   0   2   11.37    0.55
  -8   0  -2    1.54    0.35
   8   0   2    1.13    0.31
   9   0   2    8.73    0.62
  -9   1   2    1.19    0.44
  -8   1   2    0.28    0.30
  -7   1   2    7.30    0.50
   6  -1  -2    1.94    0.22
  -6   1   2    1.68    0.26
   5  -1  -2    1.68    0.18
  -5   1   2    1.18    0.19
   4  -1  -2   12.92    0.32
  -4   1   2   12.53    0.37
  -4   1   2   12.52    0.29
   3  -1  -2  158.70    1.50
  -3   1   2  155.63    1.45
  -3   1   2  157.71    1.58
   2  -1  -2    6.37    0.16
  -2   1   2    6.63    0.17
  -2   1   2    6.07    0.19
   1  -1  -2   71.38    0.67
  -1   1   2   70.61    0.71
   0   1   2  147.89    1.33
   0   1   2  148.73    1.28
   1   1   2  113.51    1.08
   2   1   2   92.35    1.01
   3   1   2  269.77    2.53
  -4  -1  -2   25.22    0.51
   4   1   2   25.82    0.55
  -5  -1  -2    1.01    0.19
   5   1   2    1.37    0.21
  -6  -1  -2    1.45    0.23
   6   1   2    1.66    0.25
  -7  -1  -2   10.11    0.50
   7   1   2   10.76    0.51
  -8  -1  -2   -0.16    0.26
   8   1   2    0.29    0.26
   9   1   2   14.29    0.74
  -8   2   2    0.30    0.33
  -7   2   2    5.84    0.47
   6  -2  -2   37.38    0.76
  -6   2   2   37.89    0.85
   5  -2  -2    9.38    0.37
  -5   2   2    9.73    0.41
   4  -2  -2   59.72    0.84
  -4   2   2   60.70    0.89
   3  -2  -2   51.90    0.70
  -3   2   2   51.30    0.57
  -3   2   2   51.02    0.72
   2  -2  -2    3.16    0.15
  -2   2   2    3.19    0.13
  -2   2   2    3.24    0.16
   1  -2  -2   14.74    0.27
   0  -2  -2    9.53    0.20
   1   2   2   15.70    0.27
   2   2   2   40.05    0.54
   3   2   2   16.57    0.37
  -4  -2  -2   28.00    0.51
   4   2   2   27.42    0.56
  -5  -2  -2    1.13    0.18
   5   2   2    1.60    0.21
  -6  -2  -2   11.68    0.46
   6   2   2   11.41    0.47
  -7  -2  -2    7.74    0.46
   7   2   2    8.67    0.47
  -8  -2  -2   42.26    0.99
   8   2   2   44.59    0.98
  -9  -2  -2    6.05    0.53
   9   2   2    5.58    0.50
  -8   3   2   10.50    0.70
  -7   3   2   25.01    0.80
   6  -3  -2    5.13    0.37
  -6   3   2    5.00    0.40
   5  -3  -2    2.75    0.27
  -5   3   2    2.85    0.29
   4  -3  -2    0.90    0.17
  -4   3   2    0.62    0.18
   3  -3  -2    8.48    0.30
  -3   3   2    8.81    0.20
  -3   3   2    9.18    0.31
   2  -3  -2   74.38    0.92
  -2   3   2   75.78    0.87
   1  -3  -2   48.22    0.64
  -1   3   2   48.15    0.57
   0  -3  -2   35.57    0.50
   1   3   2    3.51    0.16
   2   3   2    3.51    0.16
   3   3   2   77.54    0.94
   4   3   2   38.20    0.65
  -5  -3  -2   87.42    1.13
   5   3   2   89.39    1.20
  -6  -3  -2    0.30    0.18
   6   3   2    0.35    0.19
  -7  -3  -2   26.27    0.70
   7   3   2   25.81    0.71
  -8  -3  -2    3.21    0.38
   8   3   2    2.77    0.36
  -9  -3  -2   15.07    0.71
   9   3   2   15.53    0.70
   7  -4  -2    0.29    0.31
  -7   4   2    0.37    0.33
   6  -4  -2   10.35    0.53
  -6   4   2   10.81    0.55
   5  -4  -2   24.41    0.66
  -5   4   2   22.94    0.66
   4  -4  -2   19.00    0.55
  -4   4   2   19.79    0.53
   3  -4  -2    0.02    0.13
  -3   4   2    0.13    0.13
   2  -4  -2   12.61    0.38
  -2   4   2   12.59    0.31
   1  -4  -2    1.79    0.17
  -1   4   2    1.97    0.13
   0  -4  -2   39.92    0.61
   0   4   2   39.13    0.45
  -1  -4  -2   58.08    0.76
   2   4   2    6.70    0.23
  -3  -4  -2    5.35    0.23
   3   4   2    5.77    0.23
   4   4   2   58.93    0.86
  -5  -4  -2   11.33    0.37
   5   4   2   11.78    0.40
  -6  -4  -2   73.66    1.07
   6   4   2   71.41    1.13
  -7  -4  -2    2.98    0.31
   7   4   2    2.79    0.33
  -8  -4  -2    0.34    0.26
   8   4   2   -0.04    0.26
  -9  -4  -2    3.83    0.45
   9   4   2    3.78    0.45
   6  -5  -2    0.01    0.28
  -6   5   2   -0.06    0.28
   5  -5  -2    4.67    0.40
  -5   5   2    4.52    0.37
   4  -5  -2    7.67    0.43
  -4   5   2    6.24    0.39
   3  -5  -2    7.80    0.40
  -3   5   2    8.27    0.36
   2  -5  -2   23.36    0.57
  -2   5   2   23.41    0.47
   1  -5  -2    1.17    0.18
  -1   5   2    1.16    0.13
   0  -5  -2   22.80    0.50
   0   5   2   23.04    0.32
  -1  -5  -2   29.44    0.56
   1   5   2   30.11    0.32
  -2  -5  -2   27.92    0.53
   2   5   2   28.20    0.52
  -3  -5  -2  181.61    1.89
   3   5   2  181.54    1.86
  -4  -5  -2   12.06    0.37
   4   5   2   12.17    0.38
  -5  -5  -2   11.56    0.39
   5   5   2   11.76    0.42
   6   5   2   46.06    0.87
  -7  -5  -2   73.83    1.14
   7   5   2   74.69    1.23
  -8  -5  -2    0.01    0.26
   8   5   2    0.17    0.28
   5  -6  -2   10.12    0.61
   4  -6  -2    3.55    0.38
   3  -6  -2   11.88    0.52
   2  -6  -2    6.99    0.40
   1  -6  -2   38.04    0.76
   0  -6  -2  180.81    2.00
  -1  -6  -2    6.16    0.31
  -2  -6  -2    6.33    0.30
  -2  -6  -2    4.50    0.28
  -3  -6  -2   39.75    0.71
   3   6   2   37.86    0.69
  -4  -6  -2   35.28    0.69
   4   6   2   33.87    0.67
  -5  -6  -2    1.32    0.21
   5   6   2    1.89    0.24
  -6  -6  -2    5.08    0.36
   6   6   2    5.21    0.37
   7   6   2    2.35    0.32
   8   6   2   17.94    0.71
   4  -7  -2    8.76    0.61
   3  -7  -2   17.20    0.67
   2  -7  -2    1.60    0.28
   1  -7  -2    5.39    0.37
   0  -7  -2   23.45    0.62
  -1  -7  -2    8.83    0.40
  -2  -7  -2    8.62    0.40
  -2  -7  -2    8.64    0.38
  -3  -7  -2    0.12    0.15
   3   7   2    0.04    0.14
  -4  -7  -2    1.38    0.23
   4   7   2    1.60    0.22
  -5  -7  -2   32.95    0.75
   5   7   2   32.45    0.73
  -6  -7  -2    6.94    0.44
   6   7   2    7.48    0.45
   7   7   2   41.12    0.93
   8   7   2    2.34    0.39
   3  -8  -2    8.84    0.61
   2  -8  -2    1.90    0.33
   1  -8  -2    5.42    0.42
   0  -8  -2    3.30    0.34
  -1  -8  -2   40.20    0.87
  -2  -8  -2   14.21    0.52
  -2  -8  -2   14.40    0.53
  -3  -8  -2    8.82    0.44
   3   8   2    8.49    0.42
  -4  -8  -2   57.79    1.06
   4   8   2   59.82    1.03
  -5  -8  -2    0.62    0.24
   5   8   2    0.53    0.22
  -6  -8  -2    1.45    0.29
   6   8   2    0.85    0.27
  -7  -8  -2    9.04    0.58
   7   8   2    8.46    0.55
   1  -9  -2    1.29    0.34
   0  -9  -2    4.63    0.44
  -1  -9  -2   32.17    0.87
  -2  -9  -2    0.11    0.24
  -3  -9  -2    1.71    0.30
   3   9   2    2.34    0.31
  -4  -9  -2    3.73    0.38
   4   9   2    4.28    0.37
  -5  -9  -2    1.28    0.32
   5   9   2    1.23    0.29
  -6  -9  -2    3.51    0.41
   6   9   2    3.21    0.38
   7   9   2   12.25    0.70
  -1 -10  -2    4.94    0.49
  -2 -10  -2    2.59    0.38
   3  10   2   11.09    0.59
   4  10   2   12.19    0.61
  -5 -10  -2    6.25    0.52
   5  10   2    6.11    0.49
  -6 -10  -2   17.04    0.79
   6  10   2   16.44    0.74
  -6  -8   3    0.53    0.41
  -5  -8   3    0.29    0.36
  -4  -8   3    5.14    0.52
  -3  -8   3    3.14    0.43
  -2  -8   3    0.24    0.31
  -1  -8   3    5.49    0.49
   0  -8   3    0.49    0.34
  -7  -7   3    0.18    0.38
  -6  -7   3    0.51    0.36
  -5  -7   3    1.69    0.38
  -4  -7   3   21.04    0.78
  -3  -7   3    2.22    0.36
  -2  -7   3    0.35    0.27
  -1  -7   3   19.62    0.63
  -1  -7   3   18.33    0.69
   0  -7   3   11.58    0.57
   0  -7   3   11.12    0.58
   1  -7   3    5.30    0.46
   2  -7   3   11.27    0.67
  -8  -6   3    3.09    0.48
  -7  -6   3   15.23    0.75
  -6  -6   3    4.36    0.46
  -5  -6   3    5.57    0.48
  -4  -6   3   22.58    0.75
  -3  -6   3   14.22    0.59
  -2  -6   3    6.81    0.47
  -1  -6   3    1.87    0.29
  -1  -6   3    2.31    0.27
   0  -6   3    2.58    0.30
   0  -6   3    2.32    0.30
   1  -6   3   15.58    0.60
   2  -6   3    4.95    0.42
   3  -6   3   16.22    0.72
  -7  -5   3    2.52    0.39
  -6  -5   3    2.56    0.35
  -5  -5   3    1.21    0.29
  -4  -5   3   12.63    0.56
  -3  -5   3   23.32    0.70
  -2  -5   3    1.43    0.26
  -2  -5   3    1.25    0.19
  -1  -5   3    3.86    0.34
  -1  -5   3    3.14    0.25
   0  -5   3   60.67    0.97
   0  -5   3   61.91    1.04
   1  -5   3   11.50    0.46
   1  -5   3   11.42    0.45
   2  -5   3    0.96    0.24
   3  -5   3   10.00    0.54
   4  -5   3   14.37    0.67
  -9  -4   3   11.08    0.73
  -8  -4   3    3.12    0.40
  -7  -4   3   40.76    0.94
  -7  -4   3   40.36    0.88
  -6  -4   3   10.96    0.54
  -6  -4   3   11.64    0.45
  -5  -4   3    1.31    0.27
  -5  -4   3    1.59    0.21
  -4  -4   3    5.76    0.41
  -4  -4   3    6.05    0.28
  -3  -4   3  127.12    1.41
  -3  -4   3  129.29    1.68
  -2  -4   3   34.18    0.56
  -2  -4   3   34.49    0.75
  -1  -4   3    0.58    0.13
  -1  -4   3    0.50    0.19
   0  -4   3    6.56    0.30
   0  -4   3    7.21    0.37
   1  -4   3   16.04    0.49
   1  -4   3   16.09    0.47
   2  -4   3   18.21    0.55
   3  -4   3   30.79    0.76
   4  -4   3    8.01    0.50
   5  -4   3   20.72    0.76
  -9  -3   3    1.04    0.40
  -8  -3   3    0.11    0.29
  -7  -3   3    8.39    0.49
  -6  -3   3   30.03    0.67
  -6  -3   3   30.82    0.75
  -5  -3   3    4.72    0.35
  -5  -3   3    5.31    0.31
  -4  -3   3    3.72    0.31
  -4  -3   3    2.88    0.21
  -3  -3   3    1.81    0.16
  -3  -3   3    1.68    0.23
  -2  -3   3   25.50    0.41
  -2  -3   3   25.38    0.60
  -1  -3   3   34.77    0.69
  -1  -3   3   35.31    0.53
   0  -3   3   24.09    0.47
   0  -3   3   24.02    0.55
   1  -3   3    0.06    0.11
   1  -3   3    0.08    0.13
   2  -3   3   40.89    0.75
   2  -3   3   41.15    0.69
   3  -3   3    0.60    0.18
   4  -3   3   58.03    1.04
   5  -3   3    4.61    0.39
   6  -3   3    1.56    0.33
  -9  -2   3    5.69    0.55
  -8  -2   3    2.59    0.38
  -7  -2   3    1.85    0.30
  -6  -2   3    8.75    0.43
  -6  -2   3    8.27    0.40
  -5  -2   3   39.77    0.76
  -5  -2   3   37.83    0.70
  -4  -2   3   22.46    0.56
  -4  -2   3   22.51    0.47
  -3  -2   3   40.30    0.73
  -3  -2   3   39.47    0.59
  -2  -2   3   81.85    0.80
  -2  -2   3   84.21    1.12
  -1  -2   3   46.45    0.55
  -1  -2   3   45.53    0.75
   0  -2   3   23.98    0.41
   0  -2   3   23.81    0.50
   1  -2   3  225.59    2.21
   1  -2   3  224.51    2.18
   2  -2   3    4.07    0.25
   2  -2   3    3.85    0.24
   3  -2   3   10.57    0.39
   4  -2   3    1.20    0.21
   5  -2   3    1.40    0.25
   6  -2   3    1.62    0.31
   7  -2   3   17.98    0.76
  -9  -1   3    6.32    0.58
  -8  -1   3   27.19    0.84
  -7  -1   3    1.19    0.27
  -6  -1   3   33.17    0.73
  -5  -1   3   55.28    0.86
  -5  -1   3   55.27    0.88
  -4  -1   3    2.35    0.22
  -4  -1   3    1.98    0.19
  -3  -1   3   31.99    0.52
  -3  -1   3   30.80    0.59
  -2  -1   3   42.19    0.67
  -1  -1   3    5.90    0.13
  -1  -1   3    6.01    0.24
   0  -1   3   43.11    0.63
   0  -1   3   43.31    0.53
   1  -1   3    2.44    0.17
   1  -1   3    2.31    0.16
   2  -1   3    2.68    0.18
   2  -1   3    2.20    0.18
   3  -1   3    3.41    0.20
   3  -1   3    3.43    0.25
   4  -1   3   12.20    0.44
   5  -1   3   23.73    0.65
   6  -1   3   25.03    0.71
   7  -1   3    3.95    0.41
   8  -1   3    9.44    0.64
  -9   0   3   11.17    0.74
  -8   0   3    9.55    0.61
  -7   0   3    1.46    0.29
  -6   0   3   15.68    0.53
  -5   0   3    0.60    0.17
  -5   0   3    0.62    0.17
   4   0  -3    8.12    0.21
  -4   0   3    8.81    0.33
  -4   0   3    7.95    0.31
   3   0  -3  111.73    0.98
  -3   0   3  109.60    1.22
  -3   0   3  111.32    1.23
  -2   0   3    1.03    0.13
  -1   0   3    3.47    0.07
  -1   0   3    3.55    0.18
   0   0   3    9.85    0.25
   0   0   3    9.76    0.20
   1   0   3   44.03    0.59
   1   0   3   43.79    0.57
   2   0   3   24.21    0.46
   2   0   3   23.79    0.39
   3   0   3  148.34    1.41
   3   0   3  146.47    1.63
   4   0   3    0.35    0.14
   4   0   3    0.38    0.15
   5   0   3   26.53    0.65
   6   0   3    1.07    0.24
   7   0   3   24.53    0.77
   8   0   3   15.06    0.71
  -8   1   3    1.78    0.39
  -7   1   3   13.20    0.60
  -6   1   3   50.03    0.96
  -5   1   3    2.72    0.26
   4  -1  -3   15.58    0.33
  -4   1   3   16.32    0.43
  -4   1   3   15.87    0.37
   3  -1  -3    9.20    0.21
  -3   1   3    8.92    0.27
  -3   1   3    8.81    0.29
   2  -1  -3   11.71    0.19
  -2   1   3   11.13    0.28
  -1   1   3  114.05    1.14
  -1   1   3  112.06    0.99
   0   1   3    0.11    0.05
   0   1   3    0.00    0.06
   1   1   3   47.55    0.58
   1   1   3   47.81    0.60
   2   1   3   34.37    0.54
   2   1   3   33.36    0.45
   3   1   3   28.37    0.55
   3   1   3   28.59    0.41
   4   1   3  209.42    1.89
   4   1   3  210.50    2.21
   5   1   3    0.27    0.17
   6   1   3   14.68    0.55
   7   1   3    1.93    0.31
   8   1   3   28.24    0.85
   9   1   3    0.53    0.36
  -8   2   3   -0.09    0.33
  -7   2   3    6.42    0.49
  -6   2   3    2.29    0.30
   5  -2  -3    0.06    0.14
  -5   2   3    0.06    0.16
   4  -2  -3   32.07    0.55
  -4   2   3   31.71    0.62
   3  -2  -3    3.07    0.17
  -3   2   3    2.98    0.17
  -3   2   3    3.35    0.22
   2  -2  -3   14.22    0.28
  -2   2   3   14.85    0.29
  -2   2   3   14.50    0.32
   1  -2  -3    1.35    0.10
  -1   2   3    1.34    0.10
   0   2   3   46.88    0.54
   1   2   3  845.85    6.95
   2   2   3   10.04    0.28
   3   2   3    0.07    0.10
   4   2   3   73.35    1.04
   5   2   3   80.17    1.18
   6   2   3    1.27    0.24
   7   2   3   16.02    0.62
   8   2   3   -0.02    0.27
   9   2   3   11.62    0.71
  -8   3   3    5.19    0.53
  -7   3   3   13.56    0.67
  -6   3   3    1.74    0.31
   5  -3  -3   25.55    0.59
  -5   3   3   24.98    0.65
   4  -3  -3    0.40    0.14
  -4   3   3    0.44    0.16
   3  -3  -3    8.26    0.29
  -3   3   3    7.86    0.30
  -3   3   3    7.95    0.24
   2  -3  -3  496.94    4.25
  -2   3   3  481.57    4.14
  -2   3   3  493.75    4.24
   1  -3  -3    2.21    0.15
   0  -3  -3    0.59    0.09
   1   3   3   44.66    0.59
   2   3   3   19.95    0.39
   3   3   3   10.91    0.33
   4   3   3   22.14    0.51
   5   3   3   14.08    0.48
   6   3   3   24.57    0.67
   7   3   3    8.36    0.49
   8   3   3   16.17    0.69
   9   3   3    5.51    0.52
  -7   4   3    0.38    0.34
   6  -4  -3    7.56    0.54
  -6   4   3    6.87    0.48
   5  -4  -3   33.27    0.75
  -5   4   3   34.82    0.78
   4  -4  -3   18.93    0.52
  -4   4   3   19.91    0.53
   3  -4  -3    2.16    0.21
  -3   4   3    2.22    0.20
   2  -4  -3   24.81    0.51
  -2   4   3   23.99    0.46
   1  -4  -3    1.00    0.13
  -1   4   3    1.08    0.11
   0  -4  -3   12.82    0.32
   1   4   3    3.27    0.18
   2   4   3   12.69    0.33
   3   4   3   92.69    1.12
   4   4   3   50.20    0.80
   5   4   3  197.44    2.16
   6   4   3    4.92    0.37
   7   4   3    0.08    0.23
   8   4   3   30.89    0.88
   9   4   3   14.28    0.74
   6  -5  -3   15.65    0.67
  -6   5   3   16.01    0.69
   5  -5  -3   12.22    0.56
  -5   5   3   11.35    0.56
   4  -5  -3    0.09    0.20
  -4   5   3    0.20    0.19
   3  -5  -3    2.21    0.25
  -3   5   3    1.88    0.22
   2  -5  -3    0.75    0.16
  -2   5   3    0.75    0.14
   1  -5  -3   94.27    1.20
  -1   5   3   95.67    1.03
   0  -5  -3   79.70    1.04
  -1  -5  -3   67.34    0.92
   2   5   3  297.08    2.79
   3   5   3    5.37    0.27
   4   5   3   14.93    0.44
   5   5   3   53.70    0.92
   6   5   3    3.72    0.33
   7   5   3    5.68    0.44
   8   5   3   17.05    0.71
   9   5   3    0.00    0.34
   6  -6  -3    1.57    0.40
   5  -6  -3    5.52    0.47
   4  -6  -3   40.15    0.92
   3  -6  -3    1.16    0.24
   2  -6  -3   20.08    0.57
   1  -6  -3   79.00    1.15
   0  -6  -3    5.38    0.31
  -1  -6  -3   38.10    0.70
   2   6   3   17.45    0.45
   3   6   3    2.06    0.21
   4   6   3    7.53    0.34
   5   6   3   43.03    0.83
   6   6   3    0.78    0.23
   7   6   3   54.95    1.08
   8   6   3    0.38    0.31
   9   6   3   12.59    0.76
   5  -7  -3   -0.06    0.35
   4  -7  -3   13.23    0.67
   3  -7  -3    0.24    0.24
   2  -7  -3   20.84    0.65
   1  -7  -3    6.09    0.39
   0  -7  -3    2.21    0.25
  -1  -7  -3   26.94    0.65
   2   7   3   46.56    0.82
   3   7   3   19.90    0.53
   4   7   3   93.46    1.29
   5   7   3   14.96    0.53
   6   7   3   43.35    0.91
   7   7   3    8.93    0.55
   8   7   3    5.38    0.48
   9   7   3   11.88    0.77
   3  -8  -3    4.09    0.45
   2  -8  -3    5.60    0.46
   1  -8  -3    8.33    0.50
   0  -8  -3   21.59    0.65
  -1  -8  -3   17.95    0.60
  -2  -8  -3   18.86    0.58
   2   8   3   17.96    0.57
   3   8   3   56.35    0.99
   4   8   3    0.10    0.18
   5   8   3   14.29    0.54
   6   8   3    2.43    0.33
   7   8   3    5.21    0.45
   8   8   3    7.67    0.57
   2  -9  -3    0.25    0.33
   1  -9  -3    0.07    0.29
   0  -9  -3   27.22    0.81
  -1  -9  -3    0.43    0.24
  -2  -9  -3   29.21    0.79
   3   9   3    1.25    0.26
   4   9   3    1.38    0.28
   5   9   3   27.50    0.78
   6   9   3   23.17    0.76
   7   9   3    0.44    0.32
   8   9   3   14.45    0.81
   0 -10  -3    0.83    0.35
  -1 -10  -3    8.44    0.59
   2  10   3    7.79    0.53
   3  10   3    2.78    0.35
   4  10   3   -0.02    0.26
   5  10   3   24.52    0.80
   6  10   3    0.12    0.32
   7  10   3    5.20    0.55
  -4  -8   4    0.30    0.41
  -3  -8   4    5.75    0.59
  -2  -8   4   11.84    0.77
  -1  -8   4    0.00    0.36
  -6  -7   4   -0.27    0.39
  -5  -7   4   19.47    0.87
  -4  -7   4    2.03    0.41
  -3  -7   4    6.27    0.53
  -2  -7   4   -0.13    0.30
  -1  -7   4    0.01    0.29
   0  -7   4    7.34    0.56
   1  -7   4   16.88    0.76
  -7  -6   4    0.16    0.38
  -6  -6   4    1.18    0.38
  -5  -6   4    1.25    0.37
  -4  -6   4    1.02    0.33
  -3  -6   4   10.36    0.60
  -2  -6   4    6.45    0.49
  -1  -6   4    0.10    0.25
   0  -6   4   11.26    0.57
   0  -6   4   10.97    0.52
   1  -6   4    0.51    0.27
   2  -6   4   29.80    0.88
   3  -6   4    2.19    0.40
  -7  -5   4    5.33    0.52
  -6  -5   4    4.77    0.48
  -5  -5   4    4.89    0.46
  -4  -5   4   19.93    0.71
  -3  -5   4   12.61    0.60
  -2  -5   4    2.93    0.36
  -1  -5   4   60.69    1.14
   0  -5   4    0.08    0.22
   0  -5   4   -0.23    0.18
   1  -5   4   33.38    0.80
   1  -5   4   34.99    0.78
   2  -5   4    0.58    0.25
   3  -5   4    0.25    0.27
   4  -5   4    9.62    0.64
  -7  -4   4   24.06    0.80
  -6  -4   4    0.85    0.30
  -5  -4   4   13.61    0.62
  -4  -4   4   15.94    0.62
  -3  -4   4    3.44    0.36
  -2  -4   4   72.74    1.22
  -1  -4   4    6.09    0.42
  -1  -4   4    6.23    0.30
   0  -4   4    0.77    0.17
   0  -4   4    0.57    0.22
   1  -4   4   10.59    0.46
   1  -4   4   11.15    0.43
   2  -4   4    3.63    0.32
   3  -4   4    4.93    0.40
   4  -4   4   16.58    0.67
   5  -4   4    3.46    0.44
  -8  -3   4   17.83    0.74
  -7  -3   4    0.12    0.29
  -7  -3   4    0.03    0.24
  -6  -3   4    0.39    0.26
  -6  -3   4    0.36    0.22
  -5  -3   4   60.57    1.10
  -5  -3   4   59.88    0.94
  -4  -3   4    5.22    0.39
  -4  -3   4    5.80    0.29
  -3  -3   4   11.65    0.50
  -2  -3   4    7.59    0.42
  -1  -3   4    1.45    0.15
  -1  -3   4    1.54    0.24
   0  -3   4   12.60    0.36
   0  -3   4   12.69    0.47
   1  -3   4   94.13    1.27
   1  -3   4   92.17    1.19
   2  -3   4    2.94    0.27
   2  -3   4    3.09    0.27
   3  -3   4   27.76    0.69
   4  -3   4    0.80    0.23
   5  -3   4   31.77    0.86
   6  -3   4   25.86    0.87
  -8  -2   4   30.79    0.90
  -7  -2   4    0.00    0.23
  -6  -2   4   22.01    0.66
  -6  -2   4   21.57    0.62
  -5  -2   4    5.24    0.37
  -5  -2   4    5.23    0.32
  -4  -2   4    0.17    0.13
  -4  -2   4    0.19    0.19
  -3  -2   4   48.51    0.90
  -2  -2   4   37.94    0.76
  -1  -2   4    1.29    0.21
  -1  -2   4    1.61    0.12
   0  -2   4   40.60    0.60
   0  -2   4   41.04    0.74
   1  -2   4   21.00    0.52
   1  -2   4   20.90    0.46
   2  -2   4  278.95    2.76
   2  -2   4  278.44    2.71
   3  -2   4    8.28    0.37
   4  -2   4    4.98    0.36
   5  -2   4    6.07    0.43
   6  -2   4    9.03    0.58
  -8  -1   4   -0.12    0.29
  -7  -1   4    0.97    0.26
  -6  -1   4   20.05    0.61
  -5  -1   4    2.75    0.28
  -5  -1   4    2.84    0.27
  -4  -1   4   23.47    0.52
  -4  -1   4   23.02    0.59
  -3  -1   4    5.97    0.33
  -2  -1   4   37.59    0.69
  -1  -1   4  632.63    5.16
  -1  -1   4  628.91    5.51
   0  -1   4    1.26    0.12
   0  -1   4    0.97    0.15
   1  -1   4   16.02    0.38
   1  -1   4   16.77    0.41
   2  -1   4   87.83    1.08
   2  -1   4   91.02    1.13
   3  -1   4   27.01    0.51
   3  -1   4   26.27    0.60
   4  -1   4   17.36    0.54
   5  -1   4   25.83    0.71
   6  -1   4    0.06    0.23
   7  -1   4    9.42    0.61
  -8   0   4    3.17    0.44
  -7   0   4   25.17    0.75
  -6   0   4    0.08    0.19
  -5   0   4    4.34    0.31
  -5   0   4    3.64    0.29
  -4   0   4  446.95    4.05
  -4   0   4  440.97    4.07
  -3   0   4    0.55    0.15
  -2   0   4   92.03    1.12
  -1   0   4   61.95    0.58
  -1   0   4   61.28    0.84
   0   0   4    8.90    0.29
   0   0   4    9.35    0.22
   1   0   4   74.22    0.92
   1   0   4   75.15    0.89
   2   0   4   68.58    0.86
   2   0   4   68.39    0.92
   3   0   4    6.66    0.32
   3   0   4    7.16    0.26
   4   0   4   20.82    0.56
   5   0   4   17.92    0.58
   6   0   4   12.22    0.56
   7   0   4    5.59    0.48
   8   0   4    1.22    0.39
  -8   1   4   15.47    0.76
  -7   1   4   49.55    1.08
  -6   1   4    5.13    0.38
  -5   1   4   23.47    0.59
  -4   1   4   21.19    0.49
  -4   1   4   22.18    0.52
   3  -1  -4    6.64    0.16
  -3   1   4    6.90    0.28
  -3   1   4    6.60    0.28
  -2   1   4   29.93    0.33
  -2   1   4   30.59    0.52
  -1   1   4    2.08    0.10
  -1   1   4    2.13    0.16
   0   1   4   32.57    0.51
   0   1   4   31.90    0.43
   1   1   4   53.18    0.70
   1   1   4   55.11    0.71
   2   1   4   89.98    1.08
   2   1   4   90.94    1.00
   3   1   4  227.11    2.11
   3   1   4  230.35    2.32
   4   1   4    5.74    0.23
   4   1   4    4.83    0.33
   5   1   4    0.33    0.19
   6   1   4   28.66    0.76
   7   1   4    4.39    0.43
   8   1   4   14.53    0.72
  -8   2   4   20.70    0.88
  -7   2   4   16.71    0.70
  -6   2   4    2.60    0.32
  -5   2   4    2.59    0.28
  -4   2   4    1.27    0.19
  -4   2   4    1.20    0.17
   3  -2  -4   66.91    0.78
  -3   2   4   69.62    0.94
  -3   2   4   68.97    0.87
   2  -2  -4  132.71    1.26
  -2   2   4  133.03    1.38
  -1   2   4   52.75    0.59
  -1   2   4   53.51    0.69
   0   2   4  356.12    3.03
   0   2   4  350.24    3.11
   1   2   4   26.64    0.44
   1   2   4   26.43    0.44
   2   2   4   49.01    0.65
   2   2   4   49.05    0.70
   3   2   4  125.18    1.45
   4   2   4    0.27    0.15
   5   2   4   22.38    0.43
   5   2   4   22.77    0.62
   6   2   4   17.99    0.61
   7   2   4    1.71    0.31
   8   2   4   12.32    0.66
   9   2   4    0.59    0.38
  -7   3   4    8.31    0.58
  -6   3   4   42.54    0.95
  -5   3   4    1.70    0.25
   4  -3  -4   12.63    0.38
  -4   3   4   12.33    0.43
   3  -3  -4   64.93    0.84
  -3   3   4   64.58    0.81
  -3   3   4   63.83    0.90
   2  -3  -4   19.87    0.38
  -2   3   4   19.75    0.39
   1  -3  -4  149.67    1.45
  -1   3   4  145.38    1.48
   0   3   4   16.29    0.32
   1   3   4   15.82    0.33
   2   3   4    6.29    0.25
   3   3   4   30.70    0.58
   4   3   4    0.21    0.14
   5   3   4   88.26    1.30
   6   3   4    0.88    0.24
   7   3   4    1.27    0.30
   8   3   4   10.72    0.62
   9   3   4    2.95    0.47
  -7   4   4    2.56    0.42
  -6   4   4    6.45    0.48
  -5   4   4    2.99    0.32
   4  -4  -4   46.93    0.81
  -4   4   4   45.71    0.84
   3  -4  -4    2.74    0.23
  -3   4   4    3.09    0.24
   2  -4  -4    9.08    0.31
  -2   4   4    9.30    0.28
  -2   4   4    9.44    0.31
   1  -4  -4   21.28    0.43
   0  -4  -4   72.31    0.89
   1   4   4   31.65    0.53
   2   4   4  240.25    2.30
   3   4   4   25.50    0.54
   4   4   4   13.48    0.44
   5   4   4   10.43    0.45
   6   4   4   12.94    0.54
   7   4   4   16.76    0.66
   8   4   4    5.80    0.50
   9   4   4    0.98    0.40
  -6   5   4    7.29    0.53
   5  -5  -4   18.63    0.64
  -5   5   4   19.46    0.66
   4  -5  -4    2.51    0.28
  -4   5   4    2.55    0.28
   3  -5  -4   12.50    0.43
  -3   5   4   11.34    0.41
   2  -5  -4   29.55    0.61
  -2   5   4   29.34    0.55
   1  -5  -4   69.73    0.97
  -1   5   4   70.00    0.85
   0  -5  -4   29.33    0.56
   1   5   4   15.46    0.39
   2   5   4    4.80    0.25
   3   5   4   46.29    0.76
   4   5   4    0.27    0.16
   5   5   4   48.76    0.91
   6   5   4    3.64    0.34
   7   5   4   26.42    0.80
   8   5   4   -0.09    0.29
   9   5   4   11.10    0.73
   5  -6  -4    9.84    0.58
   4  -6  -4    2.07    0.31
  -4   6   4    2.03    0.29
   3  -6  -4    1.16    0.24
  -3   6   4    1.34    0.22
   2  -6  -4    6.79    0.37
  -2   6   4    6.61    0.33
   1  -6  -4    5.59    0.32
  -1   6   4    5.63    0.26
   0  -6  -4   67.77    1.02
   1   6   4   10.17    0.38
   2   6   4    0.95    0.16
   3   6   4   36.36    0.69
   4   6   4   33.20    0.70
   5   6   4    0.02    0.18
   6   6   4   30.30    0.77
   7   6   4   10.73    0.57
   8   6   4    6.12    0.52
   9   6   4   21.02    0.91
   5  -7  -4    3.88    0.48
   4  -7  -4   -0.12    0.28
   3  -7  -4   29.76    0.79
   2  -7  -4    6.16    0.42
   1  -7  -4   20.34    0.60
   0  -7  -4   13.91    0.49
  -1  -7  -4    3.13    0.27
   2   7   4    0.61    0.17
   3   7   4   53.84    0.92
   4   7   4    8.09    0.40
   5   7   4    4.80    0.37
   6   7   4    2.13    0.31
   7   7   4    5.03    0.44
   8   7   4    7.27    0.57
   9   7   4    1.53    0.47
   4  -8  -4   12.29    0.78
   3  -8  -4    0.42    0.31
   2  -8  -4    0.00    0.25
   1  -8  -4    0.60    0.24
   0  -8  -4   14.43    0.56
  -1  -8  -4    3.46    0.32
   2   8   4    7.84    0.41
   3   8   4    0.13    0.17
   4   8   4   39.69    0.83
   5   8   4   15.41    0.58
   6   8   4    2.20    0.33
   7   8   4    9.07    0.57
   8   8   4    8.20    0.59
   9   8   4    0.87    0.46
   2  -9  -4   17.75    0.79
   1  -9  -4   10.25    0.60
   0  -9  -4   -0.14    0.30
  -1  -9  -4   42.66    0.97
   2   9   4    0.52    0.23
   3   9   4   14.29    0.56
   4   9   4   25.21    0.72
   5   9   4    3.51    0.37
   6   9   4    0.18    0.28
   7   9   4    4.89    0.49
   8   9   4    5.29    0.55
   0 -10  -4   18.35    0.79
  -1 -10  -4    2.16    0.37
   2  10   4    0.71    0.27
   3  10   4    0.50    0.27
   4  10   4    9.09    0.53
   5  10   4    9.19    0.57
   6  10   4    1.61    0.38
   7  10   4    0.25    0.38
  -4  -7   5   25.79    0.99
  -3  -7   5    5.41    0.57
  -2  -7   5    0.00    0.35
  -1  -7   5    3.42    0.48
  -6  -6   5    7.65    0.64
  -5  -6   5    6.82    0.60
  -4  -6   5    1.16    0.38
  -3  -6   5   -0.08    0.32
  -2  -6   5    3.33    0.45
  -1  -6   5   19.20    0.78
   0  -6   5    3.89    0.44
   2  -6   5    0.10    0.34
  -7  -5   5    1.37    0.43
  -6  -5   5    0.03    0.36
  -5  -5   5    6.99    0.57
  -4  -5   5   18.55    0.78
  -3  -5   5    5.92    0.51
  -2  -5   5   12.72    0.64
  -1  -5   5    5.50    0.46
   0  -5   5   61.14    1.21
   1  -5   5    4.42    0.37
   1  -5   5    4.56    0.41
   2  -5   5    0.91    0.30
   3  -5   5    1.19    0.35
  -7  -4   5    7.21    0.58
  -6  -4   5   10.74    0.66
  -5  -4   5    3.37    0.41
  -4  -4   5    9.31    0.58
  -3  -4   5   94.62    1.54
  -2  -4   5    0.21    0.25
  -1  -4   5    5.90    0.45
   0  -4   5   10.37    0.52
   1  -4   5    0.47    0.25
   1  -4   5    0.35    0.20
   2  -4   5    7.33    0.45
   3  -4   5    7.03    0.48
   4  -4   5    0.05    0.30
  -8  -3   5    0.36    0.36
  -7  -3   5    0.37    0.28
  -7  -3   5    1.11    0.36
  -6  -3   5   91.62    1.35
  -6  -3   5   91.97    1.52
  -5  -3   5    0.55    0.27
  -5  -3   5    0.13    0.19
  -4  -3   5   40.09    0.94
  -4  -3   5   40.39    0.72
  -3  -3   5    3.07    0.35
  -2  -3   5    1.56    0.28
  -1  -3   5   11.26    0.52
   0  -3   5   17.59    0.59
   0  -3   5   16.49    0.44
   1  -3   5    0.70    0.23
   1  -3   5    0.92    0.19
   2  -3   5    6.80    0.42
   2  -3   5    7.04    0.39
   3  -3   5    3.91    0.35
   4  -3   5    3.98    0.38
   5  -3   5    9.74    0.61
  -8  -2   5    1.78    0.38
  -7  -2   5   14.68    0.62
  -6  -2   5   -0.01    0.21
  -6  -2   5    0.07    0.27
  -5  -2   5    0.67    0.20
  -5  -2   5    1.13    0.28
  -4  -2   5    2.80    0.25
  -4  -2   5    2.57    0.32
  -3  -2   5   -0.01    0.20
  -2  -2   5   12.95    0.51
  -1  -2   5   10.07    0.44
   0  -2   5   12.87    0.48
   0  -2   5   13.48    0.35
   1  -2   5   47.54    0.86
   1  -2   5   45.71    0.74
   2  -2   5   18.36    0.51
   2  -2   5   18.26    0.54
   3  -2   5    4.91    0.35
   4  -2   5   21.94    0.67
   5  -2   5    4.18    0.41
   6  -2   5   24.47    0.85
  -8  -1   5    2.50    0.41
  -7  -1   5    0.79    0.28
  -6  -1   5    0.20    0.21
  -6  -1   5    0.42    0.25
  -5  -1   5    3.27    0.34
  -5  -1   5    2.34    0.27
  -4  -1   5   45.45    0.78
  -4  -1   5   45.79    0.91
  -3  -1   5    1.38    0.24
  -1  -1   5   -0.01    0.15
  -1  -1   5    0.30    0.13
   0  -1   5   67.49    1.00
   0  -1   5   66.55    0.81
   1  -1   5  113.45    1.28
   1  -1   5  113.96    1.40
   2  -1   5   17.57    0.46
   2  -1   5   16.67    0.47
   3  -1   5   47.48    0.86
   3  -1   5   49.45    0.80
   4  -1   5   21.68    0.62
   5  -1   5    0.31    0.22
   6  -1   5   17.06    0.69
   7  -1   5    4.24    0.48
  -8   0   5    7.38    0.58
  -7   0   5    6.43    0.47
  -6   0   5    0.50    0.23
  -5   0   5   22.20    0.60
  -5   0   5   22.19    0.63
  -4   0   5    2.19    0.26
  -4   0   5    2.23    0.23
  -3   0   5  140.34    1.65
  -2   0   5   29.74    0.62
  -1   0   5    4.37    0.28
  -1   0   5    3.79    0.13
   0   0   5   15.60    0.43
   0   0   5   16.59    0.32
   1   0   5   17.22    0.39
   1   0   5   17.56    0.44
   2   0   5    2.82    0.22
   2   0   5    2.40    0.21
   3   0   5   94.73    1.27
   3   0   5   94.99    1.16
   4   0   5    1.96    0.25
   5   0   5    3.57    0.35
   6   0   5    5.10    0.43
   7   0   5    9.32    0.62
  -8   1   5    1.31    0.39
  -7   1   5    0.02    0.26
  -6   1   5   43.24    0.93
  -5   1   5    0.42    0.19
  -4   1   5   37.87    0.72
  -4   1   5   38.41    0.73
  -3   1   5   23.53    0.55
  -2   1   5   39.74    0.69
  -1   1   5   23.18    0.33
  -1   1   5   22.72    0.49
   0   1   5  191.45    1.94
   0   1   5  190.85    1.78
   1   1   5    4.24    0.23
   1   1   5    3.99    0.22
   2   1   5    3.32    0.23
   2   1   5    3.68    0.22
   3   1   5   26.41    0.51
   3   1   5   27.02    0.60
   4   1   5   33.67    0.75
   4   1   5   35.60    0.59
   5   1   5   24.18    0.69
   6   1   5    0.22    0.24
   7   1   5    0.11    0.28
   8   1   5   17.00    0.79
  -8   2   5    4.88    0.55
  -7   2   5   47.92    1.10
  -6   2   5    2.51    0.33
  -5   2   5   11.26    0.48
  -4   2   5   14.40    0.45
  -4   2   5   15.15    0.47
  -3   2   5  117.07    1.36
  -2   2   5    0.52    0.09
  -2   2   5    0.79    0.15
  -1   2   5    1.70    0.17
  -1   2   5    1.97    0.13
   0   2   5    0.10    0.08
   0   2   5    0.12    0.09
   1   2   5   58.52    0.80
   1   2   5   59.45    0.77
   2   2   5    3.92    0.25
   2   2   5    4.05    0.22
   3   2   5   14.73    0.45
   3   2   5   15.44    0.37
   4   2   5    2.03    0.18
   4   2   5    2.33    0.26
   5   2   5   35.26    0.60
   5   2   5   32.93    0.78
   6   2   5    1.55    0.29
   7   2   5   25.09    0.82
   8   2   5    8.85    0.61
  -7   3   5    6.96    0.56
  -6   3   5   11.25    0.57
  -5   3   5    0.07    0.21
  -4   3   5    0.37    0.17
  -3   3   5    2.85    0.24
  -3   3   5    2.49    0.21
   2  -3  -5   96.58    1.05
  -2   3   5   94.42    1.14
  -1   3   5    5.08    0.24
  -1   3   5    5.42    0.20
   0   3   5    3.15    0.20
   0   3   5    3.38    0.17
   1   3   5   60.10    0.82
   1   3   5   59.84    0.79
   2   3   5   68.28    0.92
   3   3   5   22.67    0.53
   4   3   5   86.19    1.24
   5   3   5   38.74    0.84
   6   3   5    4.23    0.39
   7   3   5   33.96    0.93
   8   3   5   16.18    0.77
  -7   4   5    2.02    0.41
  -6   4   5    4.03    0.42
  -5   4   5   38.08    0.86
  -4   4   5   11.41    0.46
   3  -4  -5   55.10    0.82
  -3   4   5   54.89    0.88
  -3   4   5   56.07    0.80
   2  -4  -5   49.11    0.72
  -2   4   5   49.18    0.73
   1  -4  -5   35.06    0.57
  -1   4   5   36.19    0.60
   0   4   5   11.88    0.32
   1   4   5   99.83    1.16
   2   4   5   97.94    1.19
   3   4   5    1.79    0.20
   4   4   5   16.62    0.51
   5   4   5    2.36    0.28
   6   4   5    0.64    0.26
   7   4   5    4.97    0.44
   8   4   5    1.94    0.39
   9   4   5    6.02    0.60
  -6   5   5   37.57    0.99
  -5   5   5    6.17    0.44
  -4   5   5    5.28    0.37
   3  -5  -5   -0.01    0.16
  -3   5   5    0.29    0.17
   2  -5  -5   28.13    0.59
  -2   5   5   29.03    0.56
  -2   5   5   27.94    0.57
   1  -5  -5   31.85    0.60
   0   5   5   13.08    0.37
   1   5   5    5.42    0.27
   2   5   5   23.97    0.52
   3   5   5    5.58    0.32
   4   5   5    5.09    0.34
   5   5   5    0.36    0.20
   6   5   5    6.71    0.46
   7   5   5   -0.06    0.25
   8   5   5    9.11    0.64
   9   5   5    7.02    0.63
  -6   6   5    0.06    0.37
  -5   6   5   14.95    0.66
   4  -6  -5   28.13    0.74
  -4   6   5   27.40    0.71
   3  -6  -5   24.54    0.64
  -3   6   5   24.53    0.61
   2  -6  -5    2.75    0.27
  -2   6   5    2.48    0.23
   1  -6  -5   37.76    0.74
  -1   6   5   39.66    0.64
   0  -6  -5    0.55    0.16
   1   6   5   22.60    0.53
   2   6   5   32.93    0.65
   3   6   5    1.34    0.20
   4   6   5    1.74    0.24
   5   6   5    0.33    0.20
   6   6   5    3.14    0.34
   7   6   5    1.52    0.34
   8   6   5    3.59    0.47
   9   6   5    1.26    0.45
   4  -7  -5   19.02    0.72
   3  -7  -5    3.79    0.37
   2  -7  -5   26.61    0.72
   1  -7  -5    4.68    0.35
   0  -7  -5    9.87    0.43
   1   7   5    9.56    0.41
   2   7   5    0.16    0.15
   3   7   5   15.91    0.50
   4   7   5   10.50    0.47
   5   7   5    0.80    0.25
   6   7   5    0.43    0.25
   7   7   5    7.82    0.54
   8   7   5   53.55    1.25
   9   7   5    0.58    0.44
   4  -8  -5    0.11    0.35
   3  -8  -5   -0.17    0.29
   2  -8  -5    0.35    0.26
   1  -8  -5    5.63    0.42
   0  -8  -5    6.35    0.43
   1   8   5    8.93    0.43
   2   8   5    0.20    0.18
   3   8   5   10.98    0.48
   4   8   5   40.63    0.87
   5   8   5   38.98    0.91
   6   8   5    1.35    0.31
   7   8   5    3.55    0.44
   8   8   5    2.49    0.46
   2  -9  -5   10.05    0.65
   1  -9  -5    1.41    0.34
   0  -9  -5   13.54    0.62
   1   9   5    3.07    0.34
   2   9   5    2.83    0.32
   3   9   5    2.45    0.32
   4   9   5    2.50    0.33
   5   9   5    6.68    0.48
   6   9   5    4.69    0.45
   7   9   5    1.32    0.37
   8   9   5    2.99    0.48
   0 -10  -5    4.94    0.50
   1  10   5    3.08    0.39
   2  10   5    8.27    0.51
   3  10   5    0.87    0.28
   4  10   5   -0.02    0.26
   5  10   5   15.06    0.69
   6  10   5    6.24    0.55
   7  10   5    0.26    0.46
  -4  -6   6    0.01    0.39
  -3  -6   6    4.27    0.54
  -2  -6   6    5.91    0.58
  -1  -6   6    1.99    0.44
   0  -6   6    7.25    0.60
  -6  -5   6    0.80    0.44
  -5  -5   6    1.95    0.46
  -4  -5   6    0.27    0.35
  -3  -5   6    7.81    0.60
  -2  -5   6    0.14    0.32
  -1  -5   6    6.47    0.54
   0  -5   6   19.37    0.78
  -6  -4   6   26.45    0.96
  -5  -4   6    6.96    0.59
  -4  -4   6   14.28    0.73
  -3  -4   6    6.36    0.53
  -2  -4   6   16.37    0.71
  -1  -4   6   22.36    0.79
   0  -4   6   10.50    0.60
   1  -4   6   11.43    0.61
   2  -4   6    3.77    0.38
   3  -4   6    3.91    0.42
   4  -4   6    3.42    0.51
  -7  -3   6    8.25    0.63
  -7  -3   6    9.00    0.57
  -6  -3   6    3.47    0.45
  -6  -3   6    3.37    0.37
  -5  -3   6   36.93    0.80
  -5  -3   6   38.47    1.02
  -4  -3   6   11.25    0.62
  -4  -3   6   10.35    0.44
  -3  -3   6    6.05    0.49
  -2  -3   6    2.63    0.36
  -1  -3   6    0.40    0.26
   0  -3   6    2.93    0.37
   1  -3   6   19.67    0.69
   2  -3   6    1.21    0.25
   2  -3   6    1.01    0.28
   3  -3   6   14.45    0.61
   4  -3   6    0.16    0.30
   5  -3   6    6.08    0.68
  -7  -2   6   -0.09    0.30
  -6  -2   6   21.39    0.68
  -6  -2   6   21.65    0.80
  -5  -2   6    3.38    0.33
  -5  -2   6    4.36    0.44
  -4  -2   6    0.34    0.26
  -3  -2   6    0.25    0.24
  -2  -2   6   28.44    0.77
  -1  -2   6    0.38    0.23
   0  -2   6   11.94    0.53
   1  -2   6    7.48    0.34
   1  -2   6    7.22    0.45
   2  -2   6   11.47    0.45
   2  -2   6   11.72    0.51
   3  -2   6   10.85    0.49
   4  -2   6   12.41    0.57
   5  -2   6    0.20    0.29
  -7  -1   6    0.24    0.30
  -6  -1   6    0.12    0.24
  -6  -1   6    0.08    0.29
  -5  -1   6   30.82    0.73
  -5  -1   6   30.15    0.83
  -4  -1   6    3.81    0.38
  -3  -1   6    4.98    0.39
  -2  -1   6    0.28    0.21
   0  -1   6    8.43    0.40
   1  -1   6    5.30    0.28
   1  -1   6    4.90    0.36
   2  -1   6    0.61    0.17
   2  -1   6    0.46    0.20
   3  -1   6   22.51    0.60
   3  -1   6   22.82    0.61
   4  -1   6    1.72    0.28
   5  -1   6   26.56    0.79
   6  -1   6    7.70    0.56
  -7   0   6    0.59    0.31
  -6   0   6    4.23    0.39
  -5   0   6    0.26    0.20
  -5   0   6    0.28    0.25
  -4   0   6   20.10    0.63
  -4   0   6   20.77    0.57
  -3   0   6    0.14    0.19
  -2   0   6    6.52    0.37
  -1   0   6   20.97    0.57
   0   0   6   29.17    0.48
   0   0   6   28.05    0.65
   1   0   6   12.67    0.37
   1   0   6   13.48    0.45
   2   0   6   70.35    1.01
   2   0   6   70.29    1.04
   3   0   6   27.56    0.63
   3   0   6   27.61    0.65
   4   0   6    1.79    0.27
   5   0   6   19.27    0.66
   6   0   6   14.97    0.69
   7   0   6   -0.02    0.33
  -7   1   6   17.30    0.72
  -6   1   6    5.13    0.42
  -5   1   6   30.96    0.76
  -5   1   6   31.68    0.75
  -4   1   6   36.38    0.75
  -4   1   6   36.57    0.77
  -3   1   6   26.73    0.63
  -2   1   6   23.33    0.58
  -1   1   6   58.06    0.91
   0   1   6   41.58    0.74
   0   1   6   40.55    0.58
   1   1   6    6.15    0.32
   1   1   6    6.08    0.28
   2   1   6   13.89    0.43
   2   1   6   14.06    0.43
   3   1   6    0.07    0.14
   3   1   6    0.01    0.17
   4   1   6    0.30    0.17
   4   1   6    0.15    0.20
   5   1   6   15.10    0.60
   6   1   6    8.68    0.56
   7   1   6   11.71    0.68
  -7   2   6    9.51    0.63
  -6   2   6    6.81    0.48
  -5   2   6    1.33    0.26
  -4   2   6    6.95    0.39
  -4   2   6    8.47    0.41
  -3   2   6   12.59    0.44
  -2   2   6    6.81    0.33
  -1   2   6    2.70    0.24
   0   2   6    0.27    0.11
   0   2   6    0.25    0.13
   1   2   6    0.93    0.15
   1   2   6    0.59    0.15
   2   2   6    7.23    0.33
   2   2   6    6.57    0.30
   3   2   6    0.49    0.17
   3   2   6    0.84    0.16
   4   2   6   26.08    0.54
   4   2   6   25.90    0.67
   5   2   6    0.36    0.23
   6   2   6   25.84    0.80
   7   2   6   13.86    0.70
   8   2   6   14.09    0.75
  -7   3   6    5.96    0.54
  -6   3   6    8.56    0.57
  -5   3   6   18.55    0.63
  -4   3   6    2.53    0.28
  -3   3   6    7.46    0.35
  -2   3   6    0.35    0.15
  -1   3   6    8.42    0.33
  -1   3   6    8.64    0.26
   0   3   6   52.18    0.71
   0   3   6   51.60    0.80
   1   3   6   26.86    0.52
   1   3   6   27.06    0.55
   2   3   6    1.63    0.18
   2   3   6    1.80    0.20
   3   3   6   17.07    0.50
   3   3   6   16.67    0.43
   4   3   6    8.87    0.34
   4   3   6    8.20    0.44
   5   3   6   49.97    0.99
   5   3   6   52.43    0.81
   6   3   6   20.52    0.70
   7   3   6    3.05    0.41
   8   3   6    0.44    0.36
  -6   4   6    8.68    0.59
  -5   4   6    3.66    0.37
  -4   4   6   12.10    0.49
  -3   4   6   18.45    0.50
  -3   4   6   19.49    0.54
  -2   4   6    0.83    0.16
  -2   4   6    0.71    0.16
  -1   4   6    0.13    0.13
  -1   4   6    0.20    0.11
   0   4   6    3.07    0.23
   0   4   6    2.98    0.21
   1   4   6   31.36    0.57
   1   4   6   31.01    0.61
   2   4   6  167.36    1.81
   3   4   6   15.11    0.47
   4   4   6    0.35    0.19
   5   4   6   14.52    0.57
   6   4   6   94.47    1.53
   7   4   6    0.34    0.28
   8   4   6   13.92    0.77
  -6   5   6    0.69    0.35
  -5   5   6    0.39    0.27
  -4   5   6    7.13    0.45
  -3   5   6    7.05    0.39
   2  -5  -6   18.64    0.48
  -2   5   6   18.88    0.49
  -1   5   6   98.41    1.21
  -1   5   6   99.81    1.25
   0   5   6    9.47    0.34
   1   5   6   14.52    0.42
   2   5   6  147.33    1.68
   3   5   6   95.30    1.29
   4   5   6    2.54    0.28
   5   5   6   13.12    0.53
   6   5   6    0.50    0.25
   7   5   6   16.00    0.72
   8   5   6    0.31    0.34
  -5   6   6    6.67    0.49
  -4   6   6   43.27    0.92
  -3   6   6    7.76    0.42
   2  -6  -6   32.58    0.70
  -2   6   6   32.39    0.65
  -2   6   6   33.22    0.67
   1  -6  -6   41.82    0.76
   0   6   6    1.68    0.21
   1   6   6    5.69    0.31
   2   6   6    8.11    0.37
   3   6   6    3.83    0.31
   4   6   6   11.10    0.47
   5   6   6   27.00    0.74
   6   6   6   11.42    0.58
   7   6   6    0.56    0.30
   8   6   6    0.11    0.36
   3  -7  -6    2.32    0.32
   2  -7  -6    9.50    0.49
   1  -7  -6    1.46    0.24
   0   7   6   12.89    0.47
   1   7   6    1.66    0.23
   2   7   6   17.45    0.52
   3   7   6   60.36    1.02
   4   7   6    5.00    0.37
   5   7   6    0.69    0.24
   6   7   6   12.05    0.59
   7   7   6   19.71    0.79
   8   7   6    0.63    0.40
   3  -8  -6   24.48    0.80
   2  -8  -6    1.68    0.32
   1  -8  -6    1.74    0.30
   0   8   6   31.84    0.77
   1   8   6    0.11    0.19
   2   8   6    0.96    0.23
   3   8   6   23.76    0.66
   4   8   6    1.87    0.29
   5   8   6    0.94    0.28
   6   8   6   24.39    0.80
   7   8   6    0.13    0.32
   8   8   6   17.06    0.87
   2  -9  -6    0.13    0.34
   1  -9  -6    4.80    0.45
   0   9   6    8.46    0.52
   1   9   6    1.08    0.27
   2   9   6    5.58    0.41
   3   9   6   20.35    0.66
   4   9   6    7.58    0.48
   5   9   6   31.73    0.90
   6   9   6    5.59    0.50
   7   9   6   22.07    0.90
   0  10   6   11.83    0.67
   1  10   6   17.41    0.69
   2  10   6   12.87    0.63
   3  10   6    3.77    0.39
   4  10   6   28.06    0.86
   5  10   6    1.11    0.35
   6  10   6   -0.18    0.35
  -4  -5   7   10.25    0.77
  -3  -5   7    3.91    0.53
  -2  -5   7    0.28    0.40
  -1  -5   7   10.67    0.75
   0  -5   7    6.96    0.62
  -5  -4   7    2.04    0.47
  -4  -4   7    7.77    0.65
  -3  -4   7    2.51    0.43
  -2  -4   7   15.39    0.77
  -1  -4   7   20.10    0.85
   0  -4   7    1.76    0.40
   1  -4   7   14.29    0.72
  -6  -3   7   10.04    0.71
  -5  -3   7   11.50    0.73
  -4  -3   7   10.49    0.69
  -3  -3   7   10.58    0.67
  -2  -3   7    8.75    0.59
  -1  -3   7    1.23    0.34
   0  -3   7   27.64    0.88
   1  -3   7    2.54    0.39
   3  -3   7    2.40    0.37
   4  -3   7    1.83    0.39
  -6  -2   7   25.43    0.78
  -6  -2   7   26.53    0.94
  -5  -2   7   14.33    0.57
  -5  -2   7   14.83    0.73
  -4  -2   7   14.53    0.70
  -3  -2   7   15.15    0.70
  -2  -2   7    0.81    0.29
  -1  -2   7    9.69    0.57
   0  -2   7    2.13    0.34
   1  -2   7    0.71    0.28
   2  -2   7    0.12    0.27
   3  -2   7   11.01    0.54
   4  -2   7    8.30    0.56
   5  -2   7   13.60    0.72
  -7  -1   7    5.36    0.50
  -6  -1   7    0.63    0.29
  -6  -1   7    0.63    0.35
  -5  -1   7    0.19    0.32
  -5  -1   7    0.20    0.23
  -4  -1   7   12.90    0.63
  -3  -1   7    0.31    0.25
  -2  -1   7    2.09    0.31
  -1  -1   7    0.57    0.24
   0  -1   7    0.51    0.23
   1  -1   7    0.39    0.22
   2  -1   7   30.46    0.76
   2  -1   7   31.88    0.69
   3  -1   7    0.12    0.24
   3  -1   7    0.02    0.21
   4  -1   7   15.79    0.61
   5  -1   7    4.69    0.44
  -7   0   7   11.33    0.67
  -6   0   7    0.11    0.26
  -5   0   7    1.11    0.27
  -5   0   7    1.13    0.32
  -4   0   7    1.85    0.33
  -3   0   7    0.22    0.22
  -2   0   7   24.07    0.68
  -1   0   7   35.44    0.78
   0   0   7    3.84    0.34
   1   0   7   23.70    0.65
   2   0   7    0.23    0.20
   2   0   7    0.12    0.17
   3   0   7   68.90    1.12
   3   0   7   70.86    1.13
   4   0   7   15.86    0.60
   5   0   7    0.55    0.28
   6   0   7    0.23    0.33
  -7   1   7   -0.12    0.33
  -6   1   7    0.44    0.28
  -5   1   7   23.17    0.73
  -5   1   7   21.58    0.68
  -4   1   7    2.37    0.32
  -3   1   7    4.69    0.36
  -2   1   7    2.40    0.28
  -1   1   7    0.35    0.19
   0   1   7  165.19    1.93
   1   1   7    2.58    0.23
   1   1   7    2.09    0.25
   2   1   7    8.77    0.39
   2   1   7    7.54    0.40
   3   1   7    0.78    0.21
   3   1   7    0.60    0.21
   4   1   7   21.41    0.58
   4   1   7   21.12    0.65
   5   1   7    0.08    0.26
   6   1   7   16.70    0.73
   7   1   7    1.75    0.41
  -7   2   7    0.45    0.36
  -6   2   7   11.26    0.61
  -5   2   7    0.85    0.26
  -4   2   7    1.62    0.26
  -4   2   7    2.05    0.28
  -3   2   7   97.40    1.38
  -2   2   7    0.20    0.17
  -1   2   7    0.61    0.18
   0   2   7   55.94    0.93
   1   2   7   20.24    0.55
   1   2   7   20.24    0.48
   2   2   7    0.81    0.19
   2   2   7    0.44    0.17
   3   2   7   11.14    0.42
   3   2   7   12.20    0.48
   4   2   7   10.93    0.43
   4   2   7   11.61    0.52
   5   2   7   21.51    0.72
   6   2   7    0.06    0.29
   7   2   7   14.32    0.75
  -6   3   7   41.61    1.02
  -5   3   7    0.43    0.25
  -4   3   7   10.90    0.51
  -4   3   7   10.94    0.49
  -3   3   7   29.23    0.67
  -2   3   7    3.40    0.29
  -1   3   7    0.48    0.17
   0   3   7    2.07    0.20
   0   3   7    1.72    0.22
   1   3   7    0.95    0.17
   1   3   7    0.83    0.17
   2   3   7   33.54    0.68
   2   3   7   33.97    0.67
   3   3   7   54.12    0.88
   3   3   7   53.94    0.96
   4   3   7   30.20    0.76
   4   3   7   30.18    0.65
   5   3   7    2.09    0.25
   5   3   7    2.25    0.33
   6   3   7    1.20    0.33
   7   3   7   15.47    0.75
  -6   4   7    5.87    0.52
  -5   4   7    1.72    0.32
  -4   4   7    2.67    0.32
  -3   4   7    0.90    0.22
  -3   4   7    0.79    0.21
  -2   4   7    4.32    0.31
  -1   4   7    5.12    0.31
   0   4   7   48.39    0.84
   0   4   7   48.06    0.74
   1   4   7  142.05    1.58
   1   4   7  142.94    1.67
   2   4   7    6.87    0.34
   2   4   7    6.43    0.34
   3   4   7   16.51    0.53
   3   4   7   16.10    0.47
   4   4   7   48.48    0.95
   4   4   7   48.22    0.83
   5   4   7   17.26    0.51
   5   4   7   17.13    0.66
   6   4   7   10.01    0.59
   7   4   7   43.16    1.10
   8   4   7    1.28    0.42
  -5   5   7   22.01    0.75
  -4   5   7    4.14    0.37
  -3   5   7    1.91    0.27
  -2   5   7   57.11    0.92
  -1   5   7    0.03    0.14
  -1   5   7    0.20    0.17
   0   5   7   24.86    0.59
   0   5   7   24.22    0.54
   1   5   7   76.64    1.12
   1   5   7   76.54    1.07
   2   5   7    6.93    0.36
   3   5   7   11.51    0.47
   4   5   7   48.06    0.95
   5   5   7    0.68    0.26
   6   5   7   43.75    1.06
   7   5   7    1.53    0.37
   8   5   7    0.49    0.40
  -5   6   7    8.17    0.56
  -4   6   7    0.23    0.26
  -3   6   7   24.27    0.66
  -2   6   7   29.92    0.68
  -2   6   7   28.99    0.67
  -1   6   7    0.79    0.19
  -1   6   7    0.68    0.19
   0   6   7    7.56    0.36
   0   6   7    7.37    0.38
   1   6   7   32.13    0.68
   2   6   7    7.11    0.38
   3   6   7  115.22    1.55
   4   6   7   22.09    0.66
   5   6   7   19.82    0.68
   6   6   7   10.15    0.61
   7   6   7    5.07    0.50
   8   6   7    6.70    0.62
  -3   7   7   21.94    0.68
  -2   7   7   16.46    0.55
  -1   7   7   26.34    0.67
  -1   7   7   25.26    0.66
   0   7   7   36.06    0.75
   1   7   7   17.24    0.54
   2   7   7   44.73    0.86
   3   7   7    1.86    0.28
   4   7   7   12.71    0.57
   5   7   7    7.63    0.52
   6   7   7    1.60    0.34
   7   7   7    3.50    0.46
   8   7   7   23.84    1.01
   2  -8  -7    0.30    0.27
  -1   8   7   18.42    0.63
   0   8   7    1.92    0.29
   1   8   7    7.66    0.44
   2   8   7    0.75    0.23
   3   8   7    1.20    0.27
   4   8   7    8.70    0.53
   5   8   7   31.06    0.86
   6   8   7    0.62    0.33
   7   8   7   41.44    1.13
   2  -9  -7    9.31    0.65
  -1   9   7    1.64    0.35
   0   9   7    3.39    0.37
   1   9   7   20.68    0.68
   2   9   7   13.86    0.59
   3   9   7    0.16    0.24
   4   9   7   64.31    1.24
   5   9   7    2.24    0.37
   6   9   7   18.64    0.80
   7   9   7    7.56    0.66
   0  10   7    0.63    0.33
   1  10   7   29.05    0.87
   2  10   7    2.61    0.38
   3  10   7   15.82    0.69
   4  10   7    1.04    0.34
   5  10   7    3.92    0.47
  -3  -4   8    2.77    0.51
  -2  -4   8    0.01    0.39
  -1  -4   8    0.44    0.41
   0  -4   8   27.16    1.02
   1  -4   8    1.02    0.47
  -5  -3   8   -0.22    0.41
  -4  -3   8   13.08    0.82
  -3  -3   8   27.38    1.00
  -2  -3   8    7.07    0.61
  -1  -3   8   18.74    0.84
   0  -3   8    1.74    0.41
   1  -3   8   40.31    1.11
  -5  -2   8   11.02    0.73
  -5  -2   8   11.27    0.60
  -4  -2   8    6.00    0.58
  -3  -2   8    2.10    0.43
  -2  -2   8   80.81    1.55
  -1  -2   8    1.49    0.36
   0  -2   8    0.15    0.30
   1  -2   8    0.77    0.34
   2  -2   8    1.66    0.39
   4  -2   8   17.75    1.03
  -6  -1   8    0.27    0.33
  -6  -1   8    0.21    0.39
  -5  -1   8   58.13    1.33
  -5  -1   8   60.02    1.15
  -4  -1   8    0.83    0.35
  -3  -1   8    4.37    0.46
  -2  -1   8   17.14    0.73
  -1  -1   8    3.66    0.41
   0  -1   8    5.06    0.45
   1  -1   8   18.45    0.69
   2  -1   8    2.69    0.37
   4  -1   8    0.93    0.31
   5  -1   8   14.64    0.74
  -6   0   8   13.95    0.68
  -5   0   8   19.08    0.69
  -5   0   8   19.62    0.82
  -4   0   8    0.21    0.29
  -3   0   8    5.05    0.44
  -2   0   8    7.00    0.49
  -1   0   8    0.68    0.25
   0   0   8   42.75    0.93
   1   0   8   12.86    0.56
   2   0   8   19.69    0.65
   3   0   8    2.63    0.34
   3   0   8    2.39    0.30
   4   0   8    1.22    0.30
   5   0   8   11.61    0.68
  -6   1   8    3.47    0.43
  -5   1   8    0.06    0.32
  -5   1   8    0.24    0.25
  -4   1   8    3.33    0.38
  -3   1   8   17.88    0.65
  -2   1   8   13.68    0.56
  -1   1   8   78.32    1.29
   0   1   8    2.47    0.30
   1   1   8   19.77    0.63
   2   1   8   31.36    0.76
   3   1   8    1.32    0.28
   3   1   8    1.85    0.28
   4   1   8    7.16    0.48
   4   1   8    6.10    0.45
   5   1   8   19.79    0.75
   6   1   8    0.13    0.35
  -6   2   8   11.88    0.67
  -5   2   8    1.08    0.30
  -4   2   8   48.69    0.99
  -4   2   8   47.92    1.00
  -3   2   8    1.27    0.27
  -2   2   8   35.50    0.83
  -1   2   8   39.13    0.84
   0   2   8    5.32    0.38
   1   2   8    5.55    0.39
   2   2   8   12.91    0.50
   2   2   8   11.94    0.47
   3   2   8    7.30    0.42
   3   2   8    7.14    0.44
   4   2   8   29.80    0.81
   4   2   8   28.41    0.71
   5   2   8    2.13    0.36
   6   2   8    2.20    0.40
  -6   3   8   -0.06    0.33
  -5   3   8   32.27    0.88
  -4   3   8   15.86    0.60
  -4   3   8   16.57    0.62
  -3   3   8   -0.05    0.21
  -2   3   8    0.18    0.20
  -1   3   8    3.23    0.31
   0   3   8    0.14    0.17
   1   3   8   81.98    1.23
   2   3   8   17.80    0.54
   2   3   8   18.49    0.56
   3   3   8    0.10    0.18
   3   3   8    0.25    0.20
   4   3   8    3.24    0.31
   4   3   8    4.06    0.38
   5   3   8    9.09    0.57
   5   3   8    8.66    0.46
   6   3   8   16.45    0.75
   7   3   8    0.36    0.36
  -5   4   8    6.42    0.50
  -4   4   8    5.12    0.42
  -3   4   8    6.51    0.43
  -2   4   8   35.85    0.79
  -1   4   8   19.22    0.59
   0   4   8   14.17    0.50
   1   4   8    1.02    0.19
   1   4   8    1.02    0.21
   2   4   8   29.47    0.68
   2   4   8   28.76    0.67
   3   4   8    7.85    0.45
   3   4   8    7.70    0.41
   4   4   8    2.71    0.29
   4   4   8    3.40    0.36
   5   4   8    5.72    0.47
   5   4   8    5.39    0.37
   6   4   8   25.02    0.85
   7   4   8   -0.10    0.35
  -5   5   8    3.96    0.45
  -4   5   8    0.09    0.26
  -3   5   8    9.84    0.49
  -3   5   8   10.23    0.49
  -2   5   8    3.76    0.34
  -1   5   8   17.07    0.54
   0   5   8    0.72    0.21
   1   5   8    0.40    0.18
   1   5   8    0.12    0.17
   2   5   8   14.68    0.51
   2   5   8   13.46    0.51
   3   5   8   22.79    0.61
   3   5   8   21.50    0.64
   4   5   8    0.89    0.27
   4   5   8    0.67    0.21
   5   5   8   36.69    0.79
   5   5   8   36.50    0.95
   6   5   8    7.53    0.45
   6   5   8    6.98    0.54
   7   5   8    0.67    0.37
  -4   6   8   11.71    0.60
  -3   6   8    0.83    0.27
  -2   6   8    9.36    0.47
  -1   6   8   21.73    0.63
   0   6   8   13.46    0.46
   0   6   8   12.96    0.50
   1   6   8    0.23    0.19
   1   6   8    0.27    0.19
   2   6   8   65.89    1.10
   2   6   8   68.63    1.12
   3   6   8    7.33    0.44
   4   6   8    8.77    0.51
   5   6   8   12.91    0.63
   6   6   8    5.60    0.50
   7   6   8    3.29    0.50
  -4   7   8   10.04    0.63
  -3   7   8    2.00    0.33
  -2   7   8    0.12    0.23
  -1   7   8   31.82    0.77
   0   7   8    4.57    0.35
   0   7   8    5.28    0.38
   1   7   8   13.05    0.51
   2   7   8    0.60    0.24
   3   7   8    3.60    0.37
   4   7   8    0.61    0.26
   5   7   8    1.58    0.34
   6   7   8    6.50    0.54
   7   7   8    5.61    0.56
  -1   8   8    2.73    0.33
   0   8   8   20.14    0.66
   0   8   8   20.55    0.66
   1   8   8    0.51    0.24
   2   8   8    9.45    0.51
   3   8   8    9.24    0.54
   4   8   8    2.56    0.37
   5   8   8    0.11    0.29
   6   8   8   23.44    0.87
   7   8   8   24.77    0.98
   0   9   8    7.99    0.52
   1   9   8    2.19    0.33
   2   9   8    0.16    0.26
   3   9   8   16.91    0.70
   4   9   8    6.92    0.52
   5   9   8    2.31    0.41
   6   9   8    3.63    0.49
   0  10   8    6.47    0.54
   1  10   8    4.79    0.47
   2  10   8   13.22    0.66
   3  10   8    1.58    0.36
   4  10   8    8.86    0.61
   5  10   8    7.79    0.80
  -2  -3   9   17.03    0.96
  -1  -3   9    0.47    0.43
   0  -3   9    3.98    0.56
  -4  -2   9    1.64    0.48
  -3  -2   9   16.01    0.91
  -2  -2   9    1.20    0.41
  -1  -2   9   12.29    0.79
   0  -2   9   10.98    0.75
   1  -2   9    0.13    0.39
   2  -2   9    7.73    0.66
  -4  -1   9   17.59    0.88
  -3  -1   9    9.11    0.66
  -2  -1   9   10.19    0.70
  -1  -1   9    9.38    0.67
   0  -1   9    5.09    0.51
   1  -1   9    0.64    0.34
   2  -1   9   19.87    0.83
  -5   0   9    7.11    0.63
  -5   0   9    6.66    0.53
  -4   0   9    0.92    0.38
  -3   0   9    0.46    0.33
  -2   0   9   -0.06    0.29
  -1   0   9   53.10    1.16
   0   0   9    0.77    0.30
   1   0   9    0.64    0.30
   2   0   9    3.73    0.42
   3   0   9   10.11    0.63
   5   0   9    2.94    0.45
  -5   1   9    3.83    0.44
  -5   1   9    4.17    0.51
  -4   1   9   31.53    0.95
  -3   1   9   -0.15    0.27
  -2   1   9    3.43    0.39
  -1   1   9    7.04    0.51
   0   1   9   33.82    0.90
   1   1   9   16.21    0.65
   2   1   9    1.05    0.30
   3   1   9    3.96    0.42
   4   1   9   15.68    0.67
   5   1   9    1.58    0.39
  -5   2   9    8.39    0.56
  -4   2   9    1.32    0.35
  -3   2   9   19.37    0.71
  -2   2   9   -0.03    0.24
  -1   2   9    4.05    0.39
   0   2   9   13.98    0.58
   1   2   9   13.27    0.57
   2   2   9    0.14    0.24
   3   2   9   17.11    0.64
   4   2   9    9.47    0.55
   4   2   9    9.50    0.57
   5   2   9    0.67    0.33
   6   2   9    5.92    0.56
  -5   3   9    0.65    0.33
  -4   3   9   20.19    0.73
  -4   3   9   19.57    0.70
  -3   3   9   14.15    0.64
  -2   3   9   10.76    0.54
  -1   3   9    0.47    0.24
   0   3   9   36.68    0.85
   1   3   9   17.43    0.61
   2   3   9    4.41    0.38
   3   3   9   18.44    0.63
   3   3   9   18.53    0.63
   4   3   9    4.39    0.38
   4   3   9    4.27    0.41
   5   3   9    1.39    0.31
   5   3   9    2.04    0.39
   6   3   9    3.67    0.48
  -5   4   9    9.90    0.67
  -4   4   9    1.62    0.32
  -3   4   9   18.49    0.67
  -2   4   9    7.53    0.47
  -1   4   9    8.83    0.49
   0   4   9    2.11    0.29
   1   4   9    1.10    0.24
   2   4   9   -0.02    0.20
   3   4   9    3.22    0.33
   3   4   9    4.22    0.39
   4   4   9    1.88    0.29
   4   4   9    2.18    0.34
   5   4   9    6.76    0.53
   5   4   9    5.94    0.43
   6   4   9    0.69    0.37
  -4   5   9    8.60    0.56
  -3   5   9    0.02    0.26
  -2   5   9    9.10    0.51
  -1   5   9    0.17    0.23
   0   5   9   13.87    0.55
   1   5   9   10.66    0.50
   2   5   9    2.35    0.29
   2   5   9    2.24    0.30
   3   5   9   -0.07    0.24
   3   5   9    0.10    0.21
   4   5   9    7.39    0.48
   4   5   9    8.47    0.55
   5   5   9   26.25    0.86
   5   5   9   25.31    0.73
   6   5   9    6.73    0.46
   6   5   9    5.74    0.52
  -4   6   9    1.57    0.39
  -3   6   9   20.23    0.72
  -2   6   9    7.78    0.49
  -1   6   9    3.04    0.34
   0   6   9    0.49    0.24
   1   6   9    5.60    0.41
   2   6   9    6.26    0.43
   2   6   9    6.94    0.46
   3   6   9    2.19    0.32
   3   6   9    2.84    0.32
   4   6   9    3.25    0.39
   4   6   9    2.61    0.31
   5   6   9    0.20    0.24
   5   6   9    0.18    0.31
   6   6   9    2.58    0.46
   6   6   9    2.69    0.34
  -3   7   9    0.22    0.31
  -2   7   9    1.59    0.30
  -2   7   9    1.48    0.33
  -1   7   9    2.59    0.34
   0   7   9   12.56    0.56
   1   7   9    1.56    0.28
   1   7   9    0.97    0.28
   2   7   9    0.09    0.22
   2   7   9    0.27    0.25
   3   7   9    5.61    0.44
   3   7   9    4.58    0.39
   4   7   9   13.44    0.64
   4   7   9   14.36    0.60
   5   7   9    1.47    0.35
   5   7   9    1.54    0.31
   6   7   9    6.35    0.58
   6   7   9    8.96    0.56
   7   7   9    4.11    0.43
  -1   8   9    8.58    0.55
   0   8   9    8.67    0.54
   1   8   9   11.10    0.57
   1   8   9   11.28    0.57
   2   8   9    2.54    0.36
   3   8   9    1.17    0.33
   4   8   9    3.29    0.40
   5   8   9    3.21    0.45
   6   8   9    1.82    0.44
   0   9   9    2.12    0.36
   1   9   9   12.22    0.63
   2   9   9    1.28    0.34
   3   9   9    1.19    0.36
   4   9   9    4.01    0.47
   5   9   9    5.98    0.56
   1  10   9   16.67    0.77
   2  10   9   12.16    0.69
   3  10   9    1.36    0.40
  -2  -1  10    4.19    0.56
  -1  -1  10    4.90    0.58
   0  -1  10    0.42    0.40
   1  -1  10    5.95    0.61
  -3   0  10    1.35    0.44
  -2   0  10   10.27    0.71
  -1   0  10    9.92    0.69
   0   0  10    2.74    0.44
   1   0  10   12.94    0.73
   2   0  10    1.98    0.42
   3   0  10    1.66    0.46
  -4   1  10    3.46    0.52
  -3   1  10    4.97    0.53
  -2   1  10    7.23    0.58
  -1   1  10    0.09    0.30
   0   1  10    0.56    0.31
   1   1  10    4.48    0.46
   2   1  10    0.53    0.32
   3   1  10    9.98    0.64
  -4   2  10    1.58    0.40
  -3   2  10   -0.14    0.31
  -2   2  10    4.01    0.45
  -1   2  10    7.17    0.56
   0   2  10    6.84    0.52
   1   2  10    0.50    0.30
   2   2  10    4.46    0.45
   3   2  10   16.75    0.72
   4   2  10   21.32    0.79
  -4   3  10    9.27    0.62
  -4   3  10    8.23    0.56
  -3   3  10    6.04    0.53
  -2   3  10    4.39    0.46
  -1   3  10    3.12    0.39
   0   3  10    6.00    0.48
   1   3  10   21.24    0.74
   2   3  10   10.57    0.57
   3   3  10    0.24    0.27
   4   3  10    4.88    0.45
   5   3  10   34.25    1.03
  -4   4  10    1.26    0.36
  -3   4  10    2.79    0.41
  -2   4  10   23.59    0.78
  -1   4  10    5.96    0.48
   0   4  10    0.03    0.25
   1   4  10   14.68    0.62
   2   4  10   17.13    0.66
   3   4  10    1.76    0.32
   4   4  10   19.80    0.76
   4   4  10   19.92    0.71
   5   4  10    1.82    0.41
   5   4  10    2.21    0.36
   6   4  10    4.02    0.55
  -3   5  10    7.24    0.54
  -2   5  10   26.97    0.82
  -1   5  10   12.69    0.63
   0   5  10    7.96    0.53
   1   5  10    7.50    0.51
   2   5  10    1.67    0.31
   3   5  10    7.66    0.50
   4   5  10    0.05    0.25
   4   5  10   -0.02    0.32
   5   5  10   10.07    0.68
   5   5  10   10.12    0.59
   6   5  10    0.84    0.43
  -3   6  10    0.94    0.34
  -2   6  10    2.64    0.38
  -1   6  10   16.65    0.67
   0   6  10    6.46    0.48
   1   6  10    4.68    0.42
   2   6  10    7.01    0.49
   3   6  10    0.88    0.29
   3   6  10    0.77    0.33
   4   6  10    0.59    0.33
   4   6  10    0.36    0.27
   5   6  10    7.72    0.53
   5   6  10    8.23    0.62
   6   6  10   12.60    0.82
   6   6  10   11.13    0.65
  -2   7  10    2.75    0.39
  -1   7  10   18.97    0.73
   0   7  10    7.26    0.51
   1   7  10    3.25    0.39
   2   7  10   16.61    0.65
   3   7  10    0.39    0.27
   3   7  10    0.34    0.30
   4   7  10    0.07    0.32
   4   7  10    0.18    0.26
   5   7  10   30.24    0.99
   5   7  10   27.43    0.83
   6   7  10    2.36    0.39
   6   7  10    2.74    0.63
  -1   8  10   10.51    0.61
   0   8  10   -0.18    0.28
   1   8  10    4.76    0.45
   2   8  10   11.40    0.60
   3   8  10    0.72    0.30
   3   8  10    1.01    0.35
   4   8  10   11.80    0.71
   4   8  10   11.40    0.63
   5   8  10    5.86    0.51
   5   8  10    5.20    0.54
   6   8  10    7.24    0.56
   0   9  10    7.88    0.58
   1   9  10   14.51    0.69
   2   9  10    1.28    0.34
   2   9  10    1.16    0.38
   3   9  10   19.37    0.84
   3   9  10   16.95    0.74
   4   9  10    5.60    0.55
  -1   1  11    5.97    0.60
   0   1  11    0.92    0.39
   1   1  11    0.07    0.37
   2   1  11   12.37    0.79
  -2   2  11    1.97    0.44
  -1   2  11    3.10    0.46
   0   2  11    0.25    0.34
   1   2  11    7.00    0.59
   2   2  11    1.02    0.39
   3   2  11   13.00    0.78
  -2   3  11    6.92    0.59
  -1   3  11    6.02    0.55
   0   3  11    5.99    0.55
   1   3  11   -0.08    0.31
   2   3  11    1.68    0.37
   3   3  11   13.40    0.71
   4   3  11    8.78    0.62
  -2   4  11    1.77    0.41
  -1   4  11    9.14    0.64
   0   4  11   29.59    0.93
   1   4  11    1.62    0.35
   2   4  11    1.48    0.37
   3   4  11   39.15    1.02
   4   4  11    2.12    0.40
   5   4  11   31.03    0.96
  -2   5  11    0.52    0.35
  -1   5  11   10.09    0.67
   0   5  11   17.13    0.75
   1   5  11    0.26    0.31
   2   5  11   28.74    0.87
   3   5  11    3.27    0.42
   4   5  11    4.33    0.46
   5   5  11    5.38    0.51
  -1   6  11   34.37    0.99
   0   6  11    1.29    0.35
   1   6  11   14.07    0.70
   2   6  11    2.04    0.37
   3   6  11    4.70    0.46
   4   6  11    5.14    0.47
   5   6  11    0.14    0.32
   5   6  11    0.53    0.45
  -1   7  11    1.48    0.38
   0   7  11    6.78    0.56
   1   7  11    3.88    0.44
   2   7  11    0.15    0.30
   3   7  11    2.18    0.39
   4   7  11   18.47    0.77
   5   7  11    3.42    0.56
   5   7  11    3.90    0.47
   1   8  11    7.03    0.58
   2   8  11    2.58    0.42
   3   8  11   36.92    1.01
   4   8  11    3.05    0.44
   4   8  11    2.93    0.51
   1   4  12    2.91    0.48
   1   5  12   27.19    0.96
   2   5  12    3.21    0.49
   2   6  12    4.05    0.49
   0   0   0    0.00    0.00
;
_shelx_hkl_checksum              47844
loop_
_space_group_symop_operation_xyz
'x, y, z'
'-x, -y, -z'
loop_
_atom_site_label
_atom_site_type_symbol
_atom_site_fract_x
_atom_site_fract_y
_atom_site_fract_z
_atom_site_U_iso_or_equiv
_atom_site_adp_type
_atom_site_occupancy
_atom_site_site_symmetry_order
_atom_site_calc_flag
_atom_site_refinement_flags_posn
_atom_site_refinement_flags_adp
_atom_site_refinement_flags_occupancy
_atom_site_disorder_assembly
_atom_site_disorder_group
Cr1 Cr 1.0000 0.5000 0.5000 0.00880(10) Uani 1 2 d S . P . .
O1 O 1.06496(14) 0.70252(14) 0.32729(12) 0.0146(2) Uani 1 1 d . . . . .
O2 O 1.0633(3) 0.7032(2) 0.4908(2) 0.0105(4) Uani 0.5 1 d . . P . .
O3 O 1.26471(14) 0.35152(14) 0.52780(13) 0.0140(2) Uani 1 1 d . . . . .
O4 O 1.1577(3) 0.3564(3) 0.3969(2) 0.0124(4) Uani 0.5 1 d . . P . .
Na1 Na 0.63975(8) 0.27984(8) 0.12241(7) 0.01256(14) Uani 1 1 d . . . . .
Na2 Na 0.5000 0.0000 0.0000 0.01216(18) Uani 1 2 d S . P . .
O5 O 0.69475(15) 0.55470(15) -0.07012(14) 0.0135(2) Uani 1 1 d . . . . .
O6 O 0.60578(19) 0.35249(18) 0.35887(15) 0.0214(3) Uani 1 1 d . . . . .
H6 H 0.666(3) 0.381(3) 0.389(3) 0.036(7) Uiso 1 1 d . . . . .
H6A H 0.513(4) 0.362(3) 0.409(3) 0.038(7) Uiso 1 1 d . . . . .
O7 O 0.94967(17) 0.07865(17) 0.20464(16) 0.0198(3) Uani 1 1 d . . . . .
O8 O 0.61301(17) 0.25855(15) -0.13930(14) 0.0142(2) Uani 1 1 d . . . . .
H8 H 0.537(3) 0.347(3) -0.187(3) 0.026(6) Uiso 1 1 d . . . . .
H5 H 0.739(3) 0.617(3) -0.047(3) 0.029(6) Uiso 1 1 d . . . . .
H5A H 0.758(3) 0.551(3) -0.150(3) 0.029(6) Uiso 1 1 d . . . . .
H7 H 1.016(3) 0.067(3) 0.272(3) 0.028(6) Uiso 1 1 d . . . . .
H7A H 0.957(3) -0.019(3) 0.229(3) 0.025(6) Uiso 1 1 d . . . . .
H8A H 0.716(3) 0.265(3) -0.201(3) 0.030(5) Uiso 1 1 d . . . . .
H10A H 0.163(3) 0.280(3) -0.102(3) 0.030(7) Uiso 1 1 d . . . . .
H11 H 0.823(4) 0.888(3) 0.562(3) 0.042(8) Uiso 1 1 d . . . . .
O9 O 0.55767(17) 0.00883(16) 0.25150(14) 0.0146(2) Uani 1 1 d . . . . .
H9 H 0.456(4) 0.019(3) 0.297(3) 0.040(7) Uiso 1 1 d . . . . .
O10 O 0.20382(16) 0.22233(17) -0.02501(17) 0.0154(2) Uani 1 1 d . . . . .
H10 H 0.127(3) 0.190(3) 0.029(3) 0.035(7) Uiso 1 1 d . . . . .
O11 O 0.78949(17) 0.96243(19) 0.58416(15) 0.0184(3) Uani 1 1 d . . . . .
H11A H 0.760(4) 1.051(4) 0.516(3) 0.043(7) Uiso 1 1 d . . . . .
O2B O 1.0309(3) 0.5706(3) 0.2738(2) 0.0120(4) Uani 0.5 1 d . . P . .
H9A H 0.621(3) -0.089(3) 0.308(2) 0.020(5) Uiso 1 1 d . . . . .
O4B O 1.2052(3) 0.4442(3) 0.6381(2) 0.0116(4) Uani 0.5 1 d . . P . .
loop_
_atom_site_aniso_label
_atom_site_aniso_U_11
_atom_site_aniso_U_22
_atom_site_aniso_U_33
_atom_site_aniso_U_23
_atom_site_aniso_U_13
_atom_site_aniso_U_12
Cr1 0.00743(16) 0.01180(17) 0.00844(16) -0.00513(12) 0.00223(11) -0.00422(12)
O1 0.0149(5) 0.0201(5) 0.0087(5) -0.0040(4) 0.0019(4) -0.0090(4)
O2 0.0127(10) 0.0087(9) 0.0101(9) -0.0027(8) -0.0005(8) -0.0047(8)
O3 0.0108(5) 0.0167(5) 0.0173(5) -0.0107(4) 0.0025(4) -0.0038(4)
O4 0.0114(9) 0.0141(10) 0.0131(10) -0.0082(8) 0.0029(8) -0.0034(8)
Na1 0.0105(3) 0.0125(3) 0.0132(3) -0.0044(2) 0.0008(2) -0.0035(2)
Na2 0.0116(4) 0.0119(4) 0.0125(4) -0.0048(3) -0.0001(3) -0.0036(3)
O5 0.0125(5) 0.0156(5) 0.0148(5) -0.0081(4) 0.0032(4) -0.0062(4)
O6 0.0126(6) 0.0381(7) 0.0190(6) -0.0163(5) 0.0042(5) -0.0102(5)
O7 0.0132(6) 0.0168(6) 0.0279(7) -0.0087(5) -0.0006(5) -0.0038(5)
O8 0.0115(5) 0.0127(5) 0.0148(5) -0.0035(4) 0.0026(4) -0.0036(4)
O9 0.0129(5) 0.0141(6) 0.0135(5) -0.0037(4) 0.0017(5) -0.0040(4)
O10 0.0123(5) 0.0178(6) 0.0145(6) -0.0055(5) 0.0003(5) -0.0046(5)
O11 0.0163(6) 0.0152(6) 0.0175(6) -0.0034(5) 0.0025(5) -0.0034(5)
O2B 0.0144(10) 0.0116(9) 0.0092(10) -0.0037(8) 0.0016(8) -0.0048(8)
O4B 0.0114(9) 0.0136(10) 0.0118(10) -0.0073(8) 0.0006(8) -0.0041(8)
loop_
_atom_type_symbol
_atom_type_description
_atom_type_scat_dispersion_real
_atom_type_scat_dispersion_imag
_atom_type_scat_source
O O 0.0106 0.0060 'International Tables Vol C Tables 4.2.6.8 and 6.1.1.4'
Na Na 0.0362 0.0249 'International Tables Vol C Tables 4.2.6.8 and 6.1.1.4'
Cr Cr 0.3209 0.6236 'International Tables Vol C Tables 4.2.6.8 and 6.1.1.4'
H H 0.0000 0.0000 'International Tables Vol C Tables 4.2.6.8 and 6.1.1.4'
loop_
_geom_angle_atom_site_label_1
_geom_angle_atom_site_label_2
_geom_angle_atom_site_label_3
_geom_angle
_geom_angle_site_symmetry_1
_geom_angle_site_symmetry_3
_geom_angle_publ_flag
O2B Cr1 O2B 180.0 2_766 . ?
O2B Cr1 O4 53.94(9) 2_766 2_766 ?
O2B Cr1 O4 126.06(9) . 2_766 ?
O2B Cr1 O4 126.06(9) 2_766 . ?
O2B Cr1 O4 53.94(9) . . ?
O4 Cr1 O4 180.0 2_766 . ?
O2B Cr1 O4B 120.88(9) 2_766 2_766 ?
O2B Cr1 O4B 59.12(9) . 2_766 ?
O4 Cr1 O4B 91.08(9) 2_766 2_766 ?
O4 Cr1 O4B 88.92(9) . 2_766 ?
O2B Cr1 O4B 59.12(9) 2_766 . ?
O2B Cr1 O4B 120.88(9) . . ?
O4 Cr1 O4B 88.92(9) 2_766 . ?
O4 Cr1 O4B 91.08(9) . . ?
O4B Cr1 O4B 180.0 2_766 . ?
O2B Cr1 O1 47.39(7) 2_766 2_766 ?
O2B Cr1 O1 132.61(7) . 2_766 ?
O4 Cr1 O1 87.34(7) 2_766 2_766 ?
O4 Cr1 O1 92.66(7) . 2_766 ?
O4B Cr1 O1 92.03(7) 2_766 2_766 ?
O4B Cr1 O1 87.97(7) . 2_766 ?
O2B Cr1 O1 132.61(7) 2_766 . ?
O2B Cr1 O1 47.39(7) . . ?
O4 Cr1 O1 92.66(7) 2_766 . ?
O4 Cr1 O1 87.34(7) . . ?
O4B Cr1 O1 87.97(7) 2_766 . ?
O4B Cr1 O1 92.03(7) . . ?
O1 Cr1 O1 180.0 2_766 . ?
O2B Cr1 O3 91.88(7) 2_766 . ?
O2B Cr1 O3 88.12(7) . . ?
O4 Cr1 O3 133.49(7) 2_766 . ?
O4 Cr1 O3 46.51(7) . . ?
O4B Cr1 O3 135.43(6) 2_766 . ?
O4B Cr1 O3 44.57(6) . . ?
O1 Cr1 O3 89.67(4) 2_766 . ?
O1 Cr1 O3 90.33(4) . . ?
O2B Cr1 O3 88.12(7) 2_766 2_766 ?
O2B Cr1 O3 91.88(7) . 2_766 ?
O4 Cr1 O3 46.51(7) 2_766 2_766 ?
O4 Cr1 O3 133.49(7) . 2_766 ?
O4B Cr1 O3 44.57(6) 2_766 2_766 ?
O4B Cr1 O3 135.43(6) . 2_766 ?
O1 Cr1 O3 90.33(4) 2_766 2_766 ?
O1 Cr1 O3 89.67(4) . 2_766 ?
O3 Cr1 O3 180.00(7) . 2_766 ?
O2B Cr1 O2 87.93(8) 2_766 . ?
O2B Cr1 O2 92.07(8) . . ?
O4 Cr1 O2 60.92(8) 2_766 . ?
O4 Cr1 O2 119.08(8) . . ?
O4B Cr1 O2 117.22(8) 2_766 . ?
O4B Cr1 O2 62.78(8) . . ?
O1 Cr1 O2 135.31(6) 2_766 . ?
O1 Cr1 O2 44.69(6) . . ?
O3 Cr1 O2 91.07(6) . . ?
O3 Cr1 O2 88.93(6) 2_766 . ?
O2B Cr1 O2 92.07(8) 2_766 2_766 ?
O2B Cr1 O2 87.93(8) . 2_766 ?
O4 Cr1 O2 119.08(8) 2_766 2_766 ?
O4 Cr1 O2 60.92(8) . 2_766 ?
O4B Cr1 O2 62.78(8) 2_766 2_766 ?
O4B Cr1 O2 117.22(8) . 2_766 ?
O1 Cr1 O2 44.69(6) 2_766 2_766 ?
O1 Cr1 O2 135.31(6) . 2_766 ?
O3 Cr1 O2 88.93(6) . 2_766 ?
O3 Cr1 O2 91.07(6) 2_766 2_766 ?
O2 Cr1 O2 180.0 . 2_766 ?
O2 O1 O2B 131.86(13) . . ?
O2 O1 Cr1 68.12(8) . . ?
O2B O1 Cr1 63.77(8) . . ?
O1 O2 Cr1 67.19(8) . . ?
O4B O3 O4 131.08(13) . . ?
O4B O3 Cr1 67.08(9) . . ?
O4 O3 Cr1 64.01(8) . . ?
O3 O4 O2B 111.71(14) . . ?
O3 O4 Cr1 69.48(9) . . ?
O2B O4 Cr1 62.93(9) . . ?
O7 Na1 O9 83.58(5) . . ?
O7 Na1 O5 102.36(4) . . ?
O9 Na1 O5 165.11(5) . . ?
O7 Na1 O5 170.64(5) . 2_665 ?
O9 Na1 O5 87.44(4) . 2_665 ?
O5 Na1 O5 86.98(4) . 2_665 ?
O7 Na1 O6 91.55(5) . . ?
O9 Na1 O6 98.60(5) . . ?
O5 Na1 O6 94.90(5) . . ?
O5 Na1 O6 87.20(5) 2_665 . ?
O7 Na1 O8 100.05(5) . . ?
O9 Na1 O8 84.91(4) . . ?
O5 Na1 O8 80.63(4) . . ?
O5 Na1 O8 81.70(4) 2_665 . ?
O6 Na1 O8 168.21(5) . . ?
O7 Na1 Na1 146.18(4) . 2_665 ?
O9 Na1 Na1 129.13(4) . 2_665 ?
O5 Na1 Na1 43.82(3) . 2_665 ?
O5 Na1 Na1 43.17(3) 2_665 2_665 ?
O6 Na1 Na1 91.41(4) . 2_665 ?
O8 Na1 Na1 77.78(3) . 2_665 ?
O7 Na1 Na2 95.86(4) . . ?
O9 Na1 Na2 42.25(3) . . ?
O5 Na1 Na2 122.99(4) . . ?
O5 Na1 Na2 79.09(3) 2_665 . ?
O6 Na1 Na2 138.38(4) . . ?
O8 Na1 Na2 42.90(3) . . ?
Na1 Na1 Na2 103.99(2) 2_665 . ?
O10 Na2 O10 180.0 . 2_655 ?
O10 Na2 O9 90.39(4) . 2_655 ?
O10 Na2 O9 89.61(4) 2_655 2_655 ?
O10 Na2 O9 89.61(4) . . ?
O10 Na2 O9 90.39(4) 2_655 . ?
O9 Na2 O9 180.0 2_655 . ?
O10 Na2 O8 96.09(4) . 2_655 ?
O10 Na2 O8 83.91(4) 2_655 2_655 ?
O9 Na2 O8 85.66(4) 2_655 2_655 ?
O9 Na2 O8 94.34(4) . 2_655 ?
O10 Na2 O8 83.91(4) . . ?
O10 Na2 O8 96.09(4) 2_655 . ?
O9 Na2 O8 94.34(4) 2_655 . ?
O9 Na2 O8 85.66(4) . . ?
O8 Na2 O8 180.0 2_655 . ?
O10 Na2 Na1 97.93(3) . 2_655 ?
O10 Na2 Na1 82.07(3) 2_655 2_655 ?
O9 Na2 Na1 41.68(3) 2_655 2_655 ?
O9 Na2 Na1 138.32(3) . 2_655 ?
O8 Na2 Na1 44.22(3) 2_655 2_655 ?
O8 Na2 Na1 135.78(3) . 2_655 ?
O10 Na2 Na1 82.07(3) . . ?
O10 Na2 Na1 97.93(3) 2_655 . ?
O9 Na2 Na1 138.32(3) 2_655 . ?
O9 Na2 Na1 41.68(3) . . ?
O8 Na2 Na1 135.78(3) 2_655 . ?
O8 Na2 Na1 44.22(3) . . ?
Na1 Na2 Na1 180.0 2_655 . ?
Na1 O5 Na1 93.02(4) . 2_665 ?
Na1 O5 H5 125.6(14) . . ?
Na1 O5 H5 106.2(14) 2_665 . ?
Na1 O5 H5A 117.2(14) . . ?
Na1 O5 H5A 115.9(15) 2_665 . ?
H5 O5 H5A 99(2) . . ?
Na1 O6 H6 130.5(18) . . ?
Na1 O6 H6A 121.9(17) . . ?
H6 O6 H6A 107(2) . . ?
Na1 O7 H7 128.9(15) . . ?
Na1 O7 H7A 111.9(16) . . ?
H7 O7 H7A 102(2) . . ?
Na2 O8 Na1 92.88(4) . . ?
Na2 O8 H8 114.2(16) . . ?
Na1 O8 H8 103.0(16) . . ?
Na2 O8 H8A 128.1(12) . . ?
Na1 O8 H8A 111.7(13) . . ?
H8 O8 H8A 104(2) . . ?
Na1 O9 Na2 96.07(4) . . ?
Na1 O9 H9 114.9(15) . . ?
Na2 O9 H9 103.9(17) . . ?
Na1 O9 H9A 127.9(14) . . ?
Na2 O9 H9A 107.2(14) . . ?
H9 O9 H9A 104(2) . . ?
Na2 O10 H10A 119.8(18) . . ?
Na2 O10 H10 115.9(17) . . ?
H10A O10 H10 106(2) . . ?
H11 O11 H11A 115(3) . . ?
O1 O2B O4 109.22(14) . . ?
O1 O2B Cr1 68.84(9) . . ?
O4 O2B Cr1 63.13(9) . . ?
O3 O4B Cr1 68.34(9) . . ?
loop_
_geom_bond_atom_site_label_1
_geom_bond_atom_site_label_2
_geom_bond_distance
_geom_bond_site_symmetry_2
_geom_bond_publ_flag
Cr1 O2B 1.8548(19) 2_766 ?
Cr1 O2B 1.8548(19) . ?
Cr1 O4 1.8580(19) 2_766 ?
Cr1 O4 1.8580(19) . ?
Cr1 O4B 1.918(2) 2_766 ?
Cr1 O4B 1.918(2) . ?
Cr1 O1 1.9282(10) 2_766 ?
Cr1 O1 1.9282(10) . ?
Cr1 O3 1.9358(10) . ?
Cr1 O3 1.9358(10) 2_766 ?
Cr1 O2 1.9411(19) . ?
Cr1 O2 1.9411(19) 2_766 ?
O1 O2 1.471(2) . ?
O1 O2B 1.522(2) . ?
O3 O4B 1.462(2) . ?
O3 O4 1.500(2) . ?
O4 O2B 1.684(3) . ?
Na1 O7 2.3539(13) . ?
Na1 O9 2.3761(13) . ?
Na1 O5 2.3868(12) . ?
Na1 O5 2.4157(12) 2_665 ?
Na1 O6 2.4235(14) . ?
Na1 O8 2.4812(12) . ?
Na1 Na1 3.4842(11) 2_665 ?
Na1 Na2 3.5531(6) . ?
Na2 O10 2.3379(11) . ?
Na2 O10 2.3379(11) 2_655 ?
Na2 O9 2.4024(11) 2_655 ?
Na2 O9 2.4024(11) . ?
Na2 O8 2.4218(11) 2_655 ?
Na2 O8 2.4218(11) . ?
Na2 Na1 3.5531(6) 2_655 ?
O5 Na1 2.4157(12) 2_665 ?
O5 H5 0.83(2) . ?
O5 H5A 0.81(2) . ?
O6 H6 0.72(3) . ?
O6 H6A 0.78(3) . ?
O7 H7 0.79(2) . ?
O7 H7A 0.75(2) . ?
O8 H8 0.75(2) . ?
O8 H8A 0.89(2) . ?
O9 H9 0.81(2) . ?
O9 H9A 0.78(2) . ?
O10 H10A 0.69(2) . ?
O10 H10 0.75(3) . ?
O11 H11 0.71(3) . ?
O11 H11A 0.72(3) . ?
loop_
_geom_hbond_atom_site_label_D
_geom_hbond_atom_site_label_H
_geom_hbond_atom_site_label_A
_geom_hbond_distance_DH
_geom_hbond_distance_HA
_geom_hbond_distance_DA
_geom_hbond_angle_DHA
_geom_hbond_site_symmetry_A
O6 H6 O2 0.72(3) 2.18(3) 2.802(2) 145(2) 2_766
O6 H6 O4B 0.72(3) 1.98(3) 2.632(2) 152(2) 2_766
O6 H6A O3 0.78(3) 2.02(3) 2.7877(17) 169(2) 1_455
O8 H8 O6 0.75(2) 2.30(2) 3.0256(18) 161(2) 2_665
O5 H5 O10 0.83(2) 1.96(2) 2.7740(17) 169(2) 2_665
O5 H5A O4 0.81(2) 2.09(2) 2.852(2) 157(2) 2_765
O5 H5A O2B 0.81(2) 2.05(2) 2.801(2) 155(2) 2_765
O7 H7 O11 0.79(2) 1.97(2) 2.7585(19) 172(2) 2_766
O7 H7A O1 0.75(2) 2.05(2) 2.7722(16) 160(2) 1_545
O7 H7A O2 0.75(2) 2.49(2) 3.044(2) 131(2) 1_545
O8 H8A O1 0.89(2) 1.90(2) 2.7810(15) 174.6(18) 2_765
O8 H8A O2B 0.89(2) 2.61(2) 3.335(2) 139.5(16) 2_765
O10 H10A O2B 0.69(2) 1.94(3) 2.601(2) 160(2) 2_665
O10 H10A O4B 0.69(2) 2.18(2) 2.789(2) 147(2) 1_454
O11 H11 O2 0.71(3) 2.18(3) 2.802(2) 147(3) .
O11 H11 O4 0.71(3) 1.93(3) 2.571(2) 150(3) 2_766
O9 H9 O11 0.81(2) 1.99(2) 2.7958(16) 178(2) 2_666
O10 H10 O7 0.75(3) 2.04(3) 2.7836(18) 171(2) 1_455
O11 H11A O6 0.72(3) 2.29(3) 2.9898(19) 163(3) 1_565
O9 H9A O3 0.78(2) 2.03(2) 2.8035(16) 168.1(19) 2_756
loop_
_geom_torsion_atom_site_label_1
_geom_torsion_atom_site_label_2
_geom_torsion_atom_site_label_3
_geom_torsion_atom_site_label_4
_geom_torsion
_geom_torsion_site_symmetry_1
_geom_torsion_site_symmetry_2
_geom_torsion_site_symmetry_3
_geom_torsion_site_symmetry_4
_geom_torsion_publ_flag
O2B O1 O2 Cr1 -2.00(16) . . . . ?
O4B O3 O4 O2B 46.1(2) . . . . ?
Cr1 O3 O4 O2B 47.78(11) . . . . ?
O4B O3 O4 Cr1 -1.72(16) . . . . ?
O2B Cr1 O4 O3 -50.59(13) 2_766 . . . ?
O2B Cr1 O4 O3 129.41(13) . . . . ?
O4B Cr1 O4 O3 -179.01(9) 2_766 . . . ?
O4B Cr1 O4 O3 0.99(9) . . . . ?
O1 Cr1 O4 O3 -87.03(8) 2_766 . . . ?
O1 Cr1 O4 O3 92.97(8) . . . . ?
O3 Cr1 O4 O3 180.000(1) 2_766 . . . ?
O2 Cr1 O4 O3 60.13(11) . . . . ?
O2 Cr1 O4 O3 -119.87(11) 2_766 . . . ?
O2B Cr1 O4 O2B 180.001(2) 2_766 . . . ?
O4B Cr1 O4 O2B 51.58(11) 2_766 . . . ?
O4B Cr1 O4 O2B -128.42(11) . . . . ?
O1 Cr1 O4 O2B 143.57(9) 2_766 . . . ?
O1 Cr1 O4 O2B -36.43(9) . . . . ?
O3 Cr1 O4 O2B -129.41(13) . . . . ?
O3 Cr1 O4 O2B 50.59(13) 2_766 . . . ?
O2 Cr1 O4 O2B -69.28(12) . . . . ?
O2 Cr1 O4 O2B 110.72(12) 2_766 . . . ?
O2 O1 O2B O4 -47.5(2) . . . . ?
Cr1 O1 O2B O4 -49.59(10) . . . . ?
O2 O1 O2B Cr1 2.07(16) . . . . ?
O3 O4 O2B O1 1.60(19) . . . . ?
Cr1 O4 O2B O1 52.75(11) . . . . ?
O3 O4 O2B Cr1 -51.16(11) . . . . ?
O4 Cr1 O2B O1 53.71(13) 2_766 . . . ?
O4 Cr1 O2B O1 -126.29(13) . . . . ?
O4B Cr1 O2B O1 119.61(11) 2_766 . . . ?
O4B Cr1 O2B O1 -60.39(11) . . . . ?
O1 Cr1 O2B O1 180.000(2) 2_766 . . . ?
O3 Cr1 O2B O1 -92.17(8) . . . . ?
O3 Cr1 O2B O1 87.83(8) 2_766 . . . ?
O2 Cr1 O2B O1 -1.17(9) . . . . ?
O2 Cr1 O2B O1 178.83(9) 2_766 . . . ?
O4 Cr1 O2B O4 180.000(0) 2_766 . . . ?
O4B Cr1 O2B O4 -114.11(13) 2_766 . . . ?
O4B Cr1 O2B O4 65.89(13) . . . . ?
O1 Cr1 O2B O4 -53.71(13) 2_766 . . . ?
O1 Cr1 O2B O4 126.29(13) . . . . ?
O3 Cr1 O2B O4 34.12(9) . . . . ?
O3 Cr1 O2B O4 -145.88(9) 2_766 . . . ?
O2 Cr1 O2B O4 125.12(10) . . . . ?
O2 Cr1 O2B O4 -54.88(10) 2_766 . . . ?
O4 O3 O4B Cr1 1.68(15) . . . . ?
